
     RDKit          3D

 20 20  0  0  0  0  0  0  0  0999 V2000
   -0.1940   -2.9980   -3.8990 C   0  0  0  0  0  0  0  0  0  0  0  0
    0.6740   -3.6890   -3.0990 C   0  0  0  0  0  0  0  0  0  0  0  0
    0.5380   -5.0730   -2.8960 O   0  0  0  0  0  0  0  0  0  0  0  0
    3.1920   -4.7080   -0.9610 C   0  0  0  0  0  0  0  0  0  0  0  0
   -0.8280   -3.6480   -5.1410 C   0  0  0  0  0  0  0  0  0  0  0  0
    2.7090   -3.8710   -1.8190 O   0  0  0  0  0  0  0  0  0  0  0  0
   -0.4240   -1.5750   -3.5890 C   0  0  0  0  0  0  0  0  0  0  0  0
   -0.6520   -2.6050   -6.3800 O   0  0  0  0  0  0  0  0  0  0  0  0
    0.4810   -0.9480   -2.7940 C   0  0  0  0  0  0  0  0  0  0  0  0
    1.7920   -3.0310   -2.4380 C   0  0  0  0  0  0  0  0  0  0  0  0
    1.5920   -1.6140   -2.1980 C   0  0  0  0  0  0  0  0  0  0  0  0
   -1.2370   -4.5720   -5.4370 O   0  0  0  0  0  0  0  0  0  0  0  0
    0.4422   -6.0479   -2.7530 H   0  0  0  0  0  0  0  0  0  0  0  0
    3.6031   -5.4205   -0.2307 H   0  0  0  0  0  0  0  0  0  0  0  0
    0.0000    0.0000    0.0000 H   0  0  0  0  0  0  0  0  0  0  0  0
    2.2766   -5.3133   -1.0362 H   0  0  0  0  0  0  0  0  0  0  0  0
   -1.2983   -1.0398   -3.9879 H   0  0  0  0  0  0  0  0  0  0  0  0
    0.3505    0.1269   -2.6002 H   0  0  0  0  0  0  0  0  0  0  0  0
    2.2936   -1.0567   -1.5598 H   0  0  0  0  0  0  0  0  0  0  0  0
   -1.6216   -5.4408   -5.7153 H   0  0  0  0  0  0  0  0  0  0  0  0
  1  7  2  0
  1  2  1  0
  2  3  1  0
  2 10  2  0
  5  1  1  0
  6  4  1  0
  7  9  1  0
  8  5  2  0
  9 11  2  0
 10 11  1  0
 10  6  1  0
 12  5  1  0
  3 13  1  0
  4 14  1  0
  4 15  1  0
  4 16  1  0
  7 17  1  0
  9 18  1  0
 11 19  1  0
 12 20  1  0
M  END
$$$$

     RDKit          3D

 25 26  0  0  0  0  0  0  0  0999 V2000
   -5.8630   -5.2160   -1.1310 C   0  0  0  0  0  0  0  0  0  0  0  0
   -5.2550   -6.7610   -1.7850 C   0  0  0  0  0  0  0  0  0  0  0  0
   -7.5850   -4.5600   -0.8360 C   0  0  2  0  0  0  0  0  0  0  0  0
   -2.7110   -5.2090   -3.6460 O   0  0  0  0  0  0  0  0  0  0  0  0
   -7.9020   -3.7930    1.6080 N   0  0  0  0  0  0  0  0  0  0  0  0
   -4.5620   -5.8900   -2.5570 C   0  0  0  0  0  0  0  0  0  0  0  0
   -6.3260   -4.6320   -0.0740 C   0  0  2  0  0  0  0  0  0  0  0  0
   -7.9820   -3.4690   -0.1980 C   0  0  1  0  0  0  0  0  0  0  0  0
   -3.6190   -6.3570   -3.5160 C   0  0  1  0  0  0  0  0  0  0  0  0
   -7.1020   -3.6380    0.6200 C   0  0  1  0  0  0  0  0  0  0  0  0
   -5.9940   -6.8590   -0.9730 C   0  0  0  0  0  0  0  0  0  0  0  0
   -5.1620   -4.9930   -2.0790 O   0  0  0  0  0  0  0  0  0  0  0  0
   -4.9639   -7.7768   -2.0906 H   0  0  0  0  0  0  0  0  0  0  0  0
   -8.0271   -5.1773   -1.6319 H   0  0  0  0  0  0  0  0  0  0  0  0
   -7.0900   -3.9361   -1.5948 H   0  0  0  0  0  0  0  0  0  0  0  0
   -2.0993   -4.4356   -3.7336 H   0  0  0  0  0  0  0  0  0  0  0  0
   -8.5454   -3.9177    2.4026 H   0  0  0  0  0  0  0  0  0  0  0  0
    0.0000    0.0000    0.0000 H   0  0  0  0  0  0  0  0  0  0  0  0
   -5.4956   -4.8628    0.6094 H   0  0  0  0  0  0  0  0  0  0  0  0
   -8.7763   -2.7228   -0.3473 H   0  0  0  0  0  0  0  0  0  0  0  0
   -8.6666   -4.0755    0.4132 H   0  0  0  0  0  0  0  0  0  0  0  0
   -3.5801   -7.3293   -4.0289 H   0  0  0  0  0  0  0  0  0  0  0  0
   -2.9939   -6.7596   -2.7053 H   0  0  0  0  0  0  0  0  0  0  0  0
   -6.3067   -2.9785    0.9975 H   0  0  0  0  0  0  0  0  0  0  0  0
   -6.5237   -7.6230   -0.3850 H   0  0  0  0  0  0  0  0  0  0  0  0
  1 11  2  0
  2 11  1  0
  3  8  1  0
  3  7  1  0
  4  9  1  0
  6 12  1  0
  6  2  2  0
  7  1  1  0
  7 10  1  0
  8 10  1  0
  9  6  1  0
 10  5  1  0
 12  1  1  0
  2 13  1  0
  3 14  1  6
  3 15  1  0
  4 16  1  0
  5 17  1  0
  5 18  1  0
  7 19  1  1
  8 20  1  6
  8 21  1  0
  9 22  1  6
  9 23  1  0
 10 24  1  1
 11 25  1  0
M  END
$$$$

     RDKit          3D

 63 64  0  0  0  0  0  0  0  0999 V2000
  -11.2810   -6.5280   -2.7840 O   0  0  0  0  0  0  0  0  0  0  0  0
   -8.0700   -3.6200   -0.2460 C   0  0  2  0  0  0  0  0  0  0  0  0
   -7.2110   -6.2480   -0.8540 C   0  0  2  0  0  0  0  0  0  0  0  0
   -8.9600   -6.2050   -2.8350 C   0  0  2  0  0  0  0  0  0  0  0  0
   -8.4590   -7.3810   -3.3820 C   0  0  2  0  0  0  0  0  0  0  0  0
  -10.4750   -4.1360    5.5360 O   0  0  0  0  0  0  0  0  0  0  0  0
   -9.1380   -9.8100   -2.6950 O   0  0  0  0  0  0  0  0  0  0  0  0
   -8.8940   -3.2050    3.5420 C   0  0  2  0  0  0  0  0  0  0  0  0
   -9.4010   -2.1610    3.1420 C   0  0  1  0  0  0  0  0  0  0  0  0
  -10.3390   -4.1140   -1.2000 C   0  0  1  0  0  0  0  0  0  0  0  0
  -10.2690   -5.0190   -4.1700 C   0  0  0  0  0  0  0  0  0  0  0  0
   -8.4800   -2.3330    1.7820 C   0  0  1  0  0  0  0  0  0  0  0  0
  -10.0960   -3.1350    5.9010 C   0  0  0  0  0  0  0  0  0  0  0  0
  -10.9580   -3.1670   -1.9210 O   0  0  0  0  0  0  0  0  0  0  0  0
   -7.8920   -3.1310    1.3000 C   0  0  2  0  0  0  0  0  0  0  0  0
   -9.4060   -8.8370   -3.7210 S   0  0  2  0  0  0  0  0  0  0  0  0
   -5.6930   -3.7720    1.1310 O   0  0  0  0  0  0  0  0  0  0  0  0
   -8.7240   -2.9560    4.9020 C   0  0  1  0  0  0  0  0  0  0  0  0
   -8.4830   -5.8800   -1.6480 C   0  0  2  0  0  0  0  0  0  0  0  0
   -6.7190   -4.9610   -0.6090 O   0  0  0  0  0  0  0  0  0  0  0  0
   -9.9850   -2.3620    6.6910 O   0  0  0  0  0  0  0  0  0  0  0  0
   -6.1670   -6.9770   -1.7670 O   0  0  0  0  0  0  0  0  0  0  0  0
   -9.1870   -4.4870   -1.3600 C   0  0  2  0  0  0  0  0  0  0  0  0
   -6.8210   -4.2210    1.7350 C   0  0  1  0  0  0  0  0  0  0  0  0
  -10.2820   -6.0390   -3.4030 C   0  0  0  0  0  0  0  0  0  0  0  0
   -7.1040   -3.8960    3.3300 C   0  0  2  0  0  0  0  0  0  0  0  0
   -6.4860   -9.0140   -3.1840 N   0  0  0  0  0  0  0  0  0  0  0  0
   -8.9630   -9.5010   -5.0720 O   0  0  0  0  0  0  0  0  0  0  0  0
   -8.6940   -4.6760   -0.1350 O   0  0  0  0  0  0  0  0  0  0  0  0
   -6.8810   -7.7550   -2.9480 C   0  0  1  0  0  0  0  0  0  0  0  0
   -7.7183   -3.1267   -1.1641 H   0  0  0  0  0  0  0  0  0  0  0  0
   -9.0183   -3.0665   -0.3119 H   0  0  0  0  0  0  0  0  0  0  0  0
   -7.3935   -6.8996    0.0132 H   0  0  0  0  0  0  0  0  0  0  0  0
   -8.5662   -5.2051   -3.0695 H   0  0  0  0  0  0  0  0  0  0  0  0
   -8.5562   -6.9449   -4.3872 H   0  0  0  0  0  0  0  0  0  0  0  0
   -8.9536  -10.4793   -1.9892 H   0  0  0  0  0  0  0  0  0  0  0  0
   -9.5473   -3.8942    2.9869 H   0  0  0  0  0  0  0  0  0  0  0  0
  -10.1376   -1.4366    3.5197 H   0  0  0  0  0  0  0  0  0  0  0  0
   -8.5923   -1.5863    3.6170 H   0  0  0  0  0  0  0  0  0  0  0  0
  -10.9175   -4.5949   -0.3974 H   0  0  0  0  0  0  0  0  0  0  0  0
  -10.6856   -4.8803   -1.9090 H   0  0  0  0  0  0  0  0  0  0  0  0
  -10.2578   -4.1399   -4.8311 H   0  0  0  0  0  0  0  0  0  0  0  0
    0.0000    0.0000    0.0000 H   0  0  0  0  0  0  0  0  0  0  0  0
   -9.6899   -5.5858   -4.9139 H   0  0  0  0  0  0  0  0  0  0  0  0
   -8.4436   -1.3999    1.2006 H   0  0  0  0  0  0  0  0  0  0  0  0
   -7.5895   -2.0169    2.3451 H   0  0  0  0  0  0  0  0  0  0  0  0
  -11.4148   -2.4682   -2.4531 H   0  0  0  0  0  0  0  0  0  0  0  0
   -8.7041   -3.8064    1.6071 H   0  0  0  0  0  0  0  0  0  0  0  0
  -10.7257   -8.4735   -3.7782 H   0  0  0  0  0  0  0  0  0  0  0  0
   -4.8695   -3.4442    0.6900 H   0  0  0  0  0  0  0  0  0  0  0  0
   -7.7487   -2.6573    5.3137 H   0  0  0  0  0  0  0  0  0  0  0  0
   -8.9797   -1.8984    4.7403 H   0  0  0  0  0  0  0  0  0  0  0  0
   -8.5299   -6.8559   -1.1426 H   0  0  0  0  0  0  0  0  0  0  0  0
   -6.3709   -4.0505   -0.4357 H   0  0  0  0  0  0  0  0  0  0  0  0
   -9.8861   -1.6731    7.3951 H   0  0  0  0  0  0  0  0  0  0  0  0
   -9.0606   -3.7928   -2.2038 H   0  0  0  0  0  0  0  0  0  0  0  0
   -6.8090   -5.2990    1.5164 H   0  0  0  0  0  0  0  0  0  0  0  0
   -6.3828   -4.0498    4.1462 H   0  0  0  0  0  0  0  0  0  0  0  0
   -6.7258   -2.8728    3.1886 H   0  0  0  0  0  0  0  0  0  0  0  0
   -6.1825   -9.9814   -3.3653 H   0  0  0  0  0  0  0  0  0  0  0  0
    0.0000    0.0000    0.0000 H   0  0  0  0  0  0  0  0  0  0  0  0
   -8.6835   -9.9199   -5.9243 H   0  0  0  0  0  0  0  0  0  0  0  0
   -6.3837   -7.1791   -3.7424 H   0  0  0  0  0  0  0  0  0  0  0  0
  2 29  1  0
  3 20  1  0
  4 25  1  0
  4 19  1  0
  5 16  1  0
  5 30  1  0
  5  4  1  0
  6 13  2  0
  8 18  1  0
  9  8  1  0
 11 25  1  0
 12  9  1  0
 13 21  1  0
 14 10  1  0
 15  2  1  0
 15 24  1  0
 15 12  1  0
 16  7  1  0
 18 13  1  0
 19 23  1  0
 19  3  1  0
 22  3  1  0
 23 10  1  0
 23 29  1  0
 24 17  1  0
 24 26  1  0
 25  1  2  0
 26  8  1  0
 28 16  1  0
 30 27  1  0
 30 22  1  0
  2 31  1  6
  2 32  1  0
  3 33  1  1
  4 34  1  6
  5 35  1  6
  7 36  1  0
  8 37  1  1
  9 38  1  6
  9 39  1  0
 10 40  1  1
 10 41  1  0
 11 42  1  0
 11 43  1  0
 11 44  1  0
 12 45  1  6
 12 46  1  0
 14 47  1  0
 15 48  1  6
 16 49  1  6
 17 50  1  0
 18 51  1  1
 18 52  1  0
 19 53  1  1
 20 54  1  0
 21 55  1  0
 23 56  1  6
 24 57  1  1
 26 58  1  1
 26 59  1  0
 27 60  1  0
 27 61  1  0
 28 62  1  0
 30 63  1  6
M  END
$$$$

     RDKit          3D

 28 28  0  0  0  0  0  0  0  0999 V2000
   -4.0580   -1.4670    3.0210 C   0  0  2  0  0  0  0  0  0  0  0  0
   -2.6350    0.1170    3.8430 C   0  0  2  0  0  0  0  0  0  0  0  0
   -5.9080   -4.7630    1.6310 C   0  0  1  0  0  0  0  0  0  0  0  0
   -4.9790   -2.7610    3.2150 C   0  0  1  0  0  0  0  0  0  0  0  0
   -5.1500   -5.3360   -0.5740 O   0  0  0  0  0  0  0  0  0  0  0  0
   -1.8750   -1.2320    3.7420 C   0  0  1  0  0  0  0  0  0  0  0  0
   -7.2380   -5.2510    1.8570 O   0  0  0  0  0  0  0  0  0  0  0  0
   -5.8310   -4.5870    0.1150 C   0  0  0  0  0  0  0  0  0  0  0  0
   -5.5090   -2.6720    4.5140 O   0  0  0  0  0  0  0  0  0  0  0  0
   -2.7900   -2.0430    3.1700 O   0  0  0  0  0  0  0  0  0  0  0  0
   -6.8780   -2.4900    1.8090 O   0  0  0  0  0  0  0  0  0  0  0  0
   -5.9560   -3.4130    2.2930 C   0  0  1  0  0  0  0  0  0  0  0  0
   -4.0670   -0.4130    4.1000 C   0  0  1  0  0  0  0  0  0  0  0  0
   -0.6600   -1.1730    3.1080 O   0  0  0  0  0  0  0  0  0  0  0  0
   -4.3746   -0.9574    2.0990 H   0  0  0  0  0  0  0  0  0  0  0  0
   -2.2644    1.1491    3.7571 H   0  0  0  0  0  0  0  0  0  0  0  0
   -2.4492    0.1405    4.9269 H   0  0  0  0  0  0  0  0  0  0  0  0
   -5.0732   -5.3808    1.9934 H   0  0  0  0  0  0  0  0  0  0  0  0
   -4.2159   -3.4900    2.9047 H   0  0  0  0  0  0  0  0  0  0  0  0
   -1.5387   -1.6037    4.7212 H   0  0  0  0  0  0  0  0  0  0  0  0
   -8.1558   -5.5878    2.0130 H   0  0  0  0  0  0  0  0  0  0  0  0
   -6.3963   -3.7746   -0.3650 H   0  0  0  0  0  0  0  0  0  0  0  0
   -5.8822   -2.6093    5.4288 H   0  0  0  0  0  0  0  0  0  0  0  0
   -7.5340   -1.8333    1.4647 H   0  0  0  0  0  0  0  0  0  0  0  0
   -6.0537   -4.2514    2.9984 H   0  0  0  0  0  0  0  0  0  0  0  0
   -4.8366   -0.1183    4.8286 H   0  0  0  0  0  0  0  0  0  0  0  0
   -3.6674   -1.1445    4.8179 H   0  0  0  0  0  0  0  0  0  0  0  0
    0.2169   -1.1304    2.6504 H   0  0  0  0  0  0  0  0  0  0  0  0
  1 10  1  0
  1  4  1  0
  1 13  1  0
  2 13  1  0
  3  7  1  0
  3 12  1  0
  4  9  1  0
  5  8  2  0
  6 14  1  0
  6  2  1  0
  8  3  1  0
 10  6  1  0
 12 11  1  0
 12  4  1  0
  1 15  1  6
  2 16  1  6
  2 17  1  0
  3 18  1  1
  4 19  1  1
  6 20  1  1
  7 21  1  0
  8 22  1  0
  9 23  1  0
 11 24  1  0
 12 25  1  1
 13 26  1  1
 13 27  1  0
 14 28  1  0
M  END
$$$$

     RDKit          3D

 27 27  0  0  0  0  0  0  0  0999 V2000
   -0.1420   -1.7900   -4.9740 C   0  0  1  0  0  0  0  0  0  0  0  0
   -0.5540   -2.0550   -2.8860 O   0  0  0  0  0  0  0  0  0  0  0  0
    0.6510   -0.3890   -2.0010 C   0  0  1  0  0  0  0  0  0  0  0  0
   -2.5550   -2.6150   -5.4180 C   0  0  0  0  0  0  0  0  0  0  0  0
   -0.2830   -0.3240   -2.8160 C   0  0  1  0  0  0  0  0  0  0  0  0
   -1.7400   -1.5800   -5.2720 O   0  0  0  0  0  0  0  0  0  0  0  0
    1.5120    0.1790   -4.3040 C   0  0  2  0  0  0  0  0  0  0  0  0
    0.1420   -1.3030   -3.6040 C   0  0  2  0  0  0  0  0  0  0  0  0
    1.2880    0.3640   -2.8270 C   0  0  1  0  0  0  0  0  0  0  0  0
    1.4910   -0.2720   -5.9020 O   0  0  0  0  0  0  0  0  0  0  0  0
    2.0920    0.6800   -3.9300 C   0  0  1  0  0  0  0  0  0  0  0  0
    0.5930   -2.2187   -5.6712 H   0  0  0  0  0  0  0  0  0  0  0  0
    0.0644   -0.7862   -5.3736 H   0  0  0  0  0  0  0  0  0  0  0  0
    0.8436   -0.8664   -1.0289 H   0  0  0  0  0  0  0  0  0  0  0  0
    1.0380   -1.2809   -2.5156 H   0  0  0  0  0  0  0  0  0  0  0  0
   -3.2314   -3.4740   -5.5392 H   0  0  0  0  0  0  0  0  0  0  0  0
    0.0000    0.0000    0.0000 H   0  0  0  0  0  0  0  0  0  0  0  0
   -3.4224   -1.9440   -5.3328 H   0  0  0  0  0  0  0  0  0  0  0  0
   -0.7878    0.6532   -2.8285 H   0  0  0  0  0  0  0  0  0  0  0  0
    0.7010   -0.2048   -3.6676 H   0  0  0  0  0  0  0  0  0  0  0  0
    0.9040    1.0633   -4.5456 H   0  0  0  0  0  0  0  0  0  0  0  0
    1.1985   -1.1133   -3.8444 H   0  0  0  0  0  0  0  0  0  0  0  0
    1.0693    1.3637   -2.4235 H   0  0  0  0  0  0  0  0  0  0  0  0
    2.1838    0.3034   -2.1914 H   0  0  0  0  0  0  0  0  0  0  0  0
    1.4785   -0.5409   -6.8547 H   0  0  0  0  0  0  0  0  0  0  0  0
    2.9908    1.2628   -4.1800 H   0  0  0  0  0  0  0  0  0  0  0  0
    1.4645    1.5598   -4.1354 H   0  0  0  0  0  0  0  0  0  0  0  0
  2  5  1  0
  4  6  1  0
  5  3  1  0
  6  1  1  0
  7 11  1  0
  8  1  1  0
  8  2  1  0
  8  5  1  0
  9  3  1  0
 10  7  1  0
 11  9  1  0
  1 12  1  6
  1 13  1  0
  3 14  1  1
  3 15  1  0
  4 16  1  0
  4 17  1  0
  4 18  1  0
  5 19  1  6
  7 20  1  1
  7 21  1  0
  8 22  1  1
  9 23  1  1
  9 24  1  0
 10 25  1  0
 11 26  1  1
 11 27  1  0
M  END
$$$$

     RDKit          3D

 46 46  0  0  0  0  0  0  0  0999 V2000
   -2.4610   -0.5450    5.3140 O   0  0  0  0  0  0  0  0  0  0  0  0
   -1.9770   -4.6770   -3.0750 O   0  0  0  0  0  0  0  0  0  0  0  0
    0.3900   -3.7870   -3.1880 C   0  0  1  0  0  0  0  0  0  0  0  0
   -2.8260   -5.9330   -3.1230 C   0  0  1  0  0  0  0  0  0  0  0  0
   -4.7440   -2.8090    2.6050 N   0  0  0  0  0  0  0  0  0  0  0  0
   -5.7910   -4.8660   -0.4940 C   0  0  1  0  0  0  0  0  0  0  0  0
   -5.9320   -3.2930    3.0220 C   0  0  1  0  0  0  0  0  0  0  0  0
   -7.4480   -3.5320    2.8140 C   0  0  1  0  0  0  0  0  0  0  0  0
    1.2310   -4.0160   -4.3900 O   0  0  0  0  0  0  0  0  0  0  0  0
   -4.1300   -5.7070   -2.7480 C   0  0  1  0  0  0  0  0  0  0  0  0
   -4.9850   -5.6160   -1.6440 C   0  0  1  0  0  0  0  0  0  0  0  0
   -5.8250   -6.2730   -0.8430 C   0  0  2  0  0  0  0  0  0  0  0  0
   -3.0770   -0.9100    4.3580 C   0  0  0  0  0  0  0  0  0  0  0  0
    0.2680   -2.3150   -3.1490 C   0  0  1  0  0  0  0  0  0  0  0  0
   -3.1870   -1.8210    3.6320 O   0  0  0  0  0  0  0  0  0  0  0  0
   -4.4010   -1.5160    2.5310 C   0  0  1  0  0  0  0  0  0  0  0  0
   -7.2310   -3.8320    1.2400 O   0  0  0  0  0  0  0  0  0  0  0  0
   -3.7010    0.1310    3.7760 O   0  0  0  0  0  0  0  0  0  0  0  0
   -1.0030   -4.2870   -3.7760 C   0  0  2  0  0  0  0  0  0  0  0  0
   -6.0440   -4.4960    1.0060 C   0  0  1  0  0  0  0  0  0  0  0  0
    1.1480   -1.6040   -2.2220 O   0  0  0  0  0  0  0  0  0  0  0  0
   -1.9504   -0.2425    6.1064 H   0  0  0  0  0  0  0  0  0  0  0  0
    0.7141   -4.2249   -2.2324 H   0  0  0  0  0  0  0  0  0  0  0  0
   -2.4406   -6.9180   -3.4250 H   0  0  0  0  0  0  0  0  0  0  0  0
   -2.5630   -6.1507   -2.0773 H   0  0  0  0  0  0  0  0  0  0  0  0
   -4.0344   -3.4976    2.3166 H   0  0  0  0  0  0  0  0  0  0  0  0
   -6.0743   -3.8031   -0.4897 H   0  0  0  0  0  0  0  0  0  0  0  0
   -5.7153   -3.7446    4.0013 H   0  0  0  0  0  0  0  0  0  0  0  0
   -6.1507   -2.3332    3.5130 H   0  0  0  0  0  0  0  0  0  0  0  0
   -8.3261   -3.5074    3.4760 H   0  0  0  0  0  0  0  0  0  0  0  0
   -7.5859   -2.4636    2.5914 H   0  0  0  0  0  0  0  0  0  0  0  0
    1.7918   -4.1687   -5.1915 H   0  0  0  0  0  0  0  0  0  0  0  0
   -4.7236   -5.5322   -3.6575 H   0  0  0  0  0  0  0  0  0  0  0  0
   -4.3375   -6.7849   -2.8198 H   0  0  0  0  0  0  0  0  0  0  0  0
   -5.8210   -5.3620   -2.3123 H   0  0  0  0  0  0  0  0  0  0  0  0
   -6.2626   -7.2530   -0.6019 H   0  0  0  0  0  0  0  0  0  0  0  0
   -5.0021   -6.4674   -0.1394 H   0  0  0  0  0  0  0  0  0  0  0  0
   -0.4505   -1.7793   -3.7868 H   0  0  0  0  0  0  0  0  0  0  0  0
   -0.4945   -2.3991   -2.3607 H   0  0  0  0  0  0  0  0  0  0  0  0
   -4.7635   -0.6347    1.9816 H   0  0  0  0  0  0  0  0  0  0  0  0
   -5.0913   -1.2857    3.3559 H   0  0  0  0  0  0  0  0  0  0  0  0
   -1.1245   -4.2928   -4.8693 H   0  0  0  0  0  0  0  0  0  0  0  0
   -0.6176   -5.3166   -3.8134 H   0  0  0  0  0  0  0  0  0  0  0  0
   -5.3336   -4.7450    1.8081 H   0  0  0  0  0  0  0  0  0  0  0  0
   -5.5351   -3.5327    0.8542 H   0  0  0  0  0  0  0  0  0  0  0  0
    1.7436   -1.1227   -1.5945 H   0  0  0  0  0  0  0  0  0  0  0  0
  3  9  1  0
  3 14  1  0
  4  2  1  0
  4 10  1  0
  5  7  1  0
  6 20  1  0
  8  7  1  0
 11 10  1  0
 11 12  1  0
 11  6  1  0
 12  6  1  0
 13  1  1  0
 14 21  1  0
 15 13  1  0
 16  5  1  0
 16 15  1  0
 17  8  1  0
 18 13  2  0
 19  3  1  0
 19  2  1  0
 20 17  1  0
  1 22  1  0
  3 23  1  1
  4 24  1  6
  4 25  1  0
  5 26  1  0
  6 27  1  6
  7 28  1  1
  7 29  1  0
  8 30  1  1
  8 31  1  0
  9 32  1  0
 10 33  1  6
 10 34  1  0
 11 35  1  6
 12 36  1  6
 12 37  1  0
 14 38  1  6
 14 39  1  0
 16 40  1  6
 16 41  1  0
 19 42  1  6
 19 43  1  0
 20 44  1  1
 20 45  1  0
 21 46  1  0
M  END
$$$$

     RDKit          3D

 16 15  0  0  0  0  0  0  0  0999 V2000
   -0.0880    1.7010    4.2990 C   0  0  0  0  0  0  0  0  0  0  0  0
   -1.0600   -0.5930    3.9690 C   0  0  1  0  0  0  0  0  0  0  0  0
    0.8400    0.5020    4.0520 C   0  0  1  0  0  0  0  0  0  0  0  0
   -0.7110   -2.1340    5.6890 O   0  0  0  0  0  0  0  0  0  0  0  0
   -2.1130   -2.7120    4.1200 O   0  0  0  0  0  0  0  0  0  0  0  0
   -1.2840   -1.8980    4.6310 C   0  0  0  0  0  0  0  0  0  0  0  0
    0.2000   -0.5240    3.2630 N   0  0  0  0  0  0  0  0  0  0  0  0
   -0.7525    2.5596    4.4759 H   0  0  0  0  0  0  0  0  0  0  0  0
    0.0000    0.0000    0.0000 H   0  0  0  0  0  0  0  0  0  0  0  0
   -0.9081    1.0137    4.5542 H   0  0  0  0  0  0  0  0  0  0  0  0
   -1.7785    0.2389    4.0100 H   0  0  0  0  0  0  0  0  0  0  0  0
   -0.5708   -0.2154    4.8790 H   0  0  0  0  0  0  0  0  0  0  0  0
    1.8702    0.4332    4.4313 H   0  0  0  0  0  0  0  0  0  0  0  0
    0.4695    0.0258    4.9718 H   0  0  0  0  0  0  0  0  0  0  0  0
   -0.2483   -2.3246    6.5433 H   0  0  0  0  0  0  0  0  0  0  0  0
    0.5389   -1.0487    2.4440 H   0  0  0  0  0  0  0  0  0  0  0  0
  2  6  1  0
  3  1  1  0
  5  6  2  0
  6  4  1  0
  7  2  1  0
  7  3  1  0
  1  8  1  0
  1  9  1  0
  1 10  1  0
  2 11  1  6
  2 12  1  0
  3 13  1  1
  3 14  1  0
  4 15  1  0
  7 16  1  0
M  END
$$$$

     RDKit          3D

 27 26  0  0  0  0  0  0  0  0999 V2000
    1.7800    0.0310   -4.6890 O   0  0  0  0  0  0  0  0  0  0  0  0
   -3.0630   -1.3400    3.9480 C   0  0  1  0  0  0  0  0  0  0  0  0
   -2.5020   -0.8300    2.6580 C   0  0  1  0  0  0  0  0  0  0  0  0
    1.3240   -0.6930   -2.2660 C   0  0  0  0  0  0  0  0  0  0  0  0
    0.3040   -1.0570   -1.3090 O   0  0  0  0  0  0  0  0  0  0  0  0
   -1.0110   -1.2230    2.3700 C   0  0  1  0  0  0  0  0  0  0  0  0
   -5.1690   -1.4220    2.3840 O   0  0  0  0  0  0  0  0  0  0  0  0
    0.6590   -0.5590    0.1580 C   0  0  1  0  0  0  0  0  0  0  0  0
   -4.3240   -2.2040    3.4350 C   0  0  2  0  0  0  0  0  0  0  0  0
    0.9010   -0.1070   -3.5700 C   0  0  0  0  0  0  0  0  0  0  0  0
   -0.5160   -0.5050    1.0680 C   0  0  2  0  0  0  0  0  0  0  0  0
    2.3887    0.1266   -5.4639 H   0  0  0  0  0  0  0  0  0  0  0  0
   -2.7086   -1.1702    4.9754 H   0  0  0  0  0  0  0  0  0  0  0  0
   -3.7036   -0.4488    4.0217 H   0  0  0  0  0  0  0  0  0  0  0  0
   -3.0946   -0.2211    1.9594 H   0  0  0  0  0  0  0  0  0  0  0  0
   -2.1627    0.0842    3.1670 H   0  0  0  0  0  0  0  0  0  0  0  0
    2.3892   -0.8450   -2.0373 H   0  0  0  0  0  0  0  0  0  0  0  0
   -0.4043   -1.9005    2.9887 H   0  0  0  0  0  0  0  0  0  0  0  0
   -1.3526   -2.0783    1.7685 H   0  0  0  0  0  0  0  0  0  0  0  0
   -5.7056   -0.9254    1.7165 H   0  0  0  0  0  0  0  0  0  0  0  0
    1.6764   -0.2809    0.4703 H   0  0  0  0  0  0  0  0  0  0  0  0
    0.4691    0.4801   -0.1488 H   0  0  0  0  0  0  0  0  0  0  0  0
   -4.5591   -3.2204    3.7838 H   0  0  0  0  0  0  0  0  0  0  0  0
   -3.7074   -2.6240    2.6267 H   0  0  0  0  0  0  0  0  0  0  0  0
   -0.1387    0.2361   -3.6764 H   0  0  0  0  0  0  0  0  0  0  0  0
   -1.2413    0.2512    0.7332 H   0  0  0  0  0  0  0  0  0  0  0  0
   -1.0250   -1.2641    0.4559 H   0  0  0  0  0  0  0  0  0  0  0  0
  1 10  1  0
  3  2  1  0
  4  5  1  0
  5  8  1  0
  6  3  1  0
  7  9  1  0
  8 11  1  0
  9  2  1  0
 10  4  2  3
 11  6  1  0
  1 12  1  0
  2 13  1  1
  2 14  1  0
  3 15  1  6
  3 16  1  0
  4 17  1  0
  6 18  1  1
  6 19  1  0
  7 20  1  0
  8 21  1  1
  8 22  1  0
  9 23  1  1
  9 24  1  0
 10 25  1  0
 11 26  1  6
 11 27  1  0
M  END
$$$$

     RDKit          3D

 21 20  0  0  0  0  0  0  0  0999 V2000
    1.2470   -1.3460    0.7230 O   0  0  0  0  0  0  0  0  0  0  0  0
   -0.5790    0.0290    1.5510 C   0  0  1  0  0  0  0  0  0  0  0  0
    0.6910    0.3770   -0.8950 C   0  0  0  0  0  0  0  0  0  0  0  0
   -1.4610   -0.9410    2.5140 C   0  0  1  0  0  0  0  0  0  0  0  0
    0.4130   -0.2660    0.4920 C   0  0  1  0  0  0  0  0  0  0  0  0
   -3.8860   -1.2530    3.2440 C   0  0  0  0  0  0  0  0  0  0  0  0
   -2.8810   -0.2540    2.6280 C   0  0  1  0  0  0  0  0  0  0  0  0
    1.8436   -2.1186    0.8882 H   0  0  0  0  0  0  0  0  0  0  0  0
   -0.7514    1.1026    1.7173 H   0  0  0  0  0  0  0  0  0  0  0  0
    0.2256    0.0420    2.3010 H   0  0  0  0  0  0  0  0  0  0  0  0
    0.8878    0.8322   -1.8769 H   0  0  0  0  0  0  0  0  0  0  0  0
    0.0000    0.0000    0.0000 H   0  0  0  0  0  0  0  0  0  0  0  0
    0.7644    1.3671   -0.4213 H   0  0  0  0  0  0  0  0  0  0  0  0
   -1.1371   -1.8796    2.9875 H   0  0  0  0  0  0  0  0  0  0  0  0
   -1.1181   -0.3784    3.3948 H   0  0  0  0  0  0  0  0  0  0  0  0
   -0.3281   -0.9366    0.0326 H   0  0  0  0  0  0  0  0  0  0  0  0
   -4.6015   -1.9642    3.6825 H   0  0  0  0  0  0  0  0  0  0  0  0
    0.0000    0.0000    0.0000 H   0  0  0  0  0  0  0  0  0  0  0  0
   -3.1530   -1.5103    4.0228 H   0  0  0  0  0  0  0  0  0  0  0  0
   -3.1164    0.7746    2.3172 H   0  0  0  0  0  0  0  0  0  0  0  0
   -3.1373   -0.6167    1.6216 H   0  0  0  0  0  0  0  0  0  0  0  0
  2  4  1  0
  4  7  1  0
  5  3  1  0
  5  1  1  0
  5  2  1  0
  7  6  1  0
  1  8  1  0
  2  9  1  6
  2 10  1  0
  3 11  1  0
  3 12  1  0
  3 13  1  0
  4 14  1  1
  4 15  1  0
  5 16  1  6
  6 17  1  0
  6 18  1  0
  6 19  1  0
  7 20  1  6
  7 21  1  0
M  END
$$$$

     RDKit          3D

 12 12  0  0  0  0  0  0  0  0999 V2000
   -5.0290   -7.5070   -0.8560 C   0  0  1  0  0  0  0  0  0  0  0  0
   -7.2470   -6.3270   -0.3410 C   0  0  2  0  0  0  0  0  0  0  0  0
   -4.8010   -6.3190    0.3660 O   0  0  0  0  0  0  0  0  0  0  0  0
   -5.7480   -7.3720   -2.4080 S   0  0  0  0  0  0  0  0  0  0  0  0
   -7.5630   -6.7720   -1.6350 S   0  0  0  0  0  0  0  0  0  0  0  0
   -6.3400   -6.1890    0.5920 C   0  0  1  0  0  0  0  0  0  0  0  0
   -4.6555   -8.5103   -0.6033 H   0  0  0  0  0  0  0  0  0  0  0  0
   -6.0081   -7.7628   -0.4247 H   0  0  0  0  0  0  0  0  0  0  0  0
   -8.1760   -5.9075    0.0725 H   0  0  0  0  0  0  0  0  0  0  0  0
   -6.9811   -5.3393   -0.7456 H   0  0  0  0  0  0  0  0  0  0  0  0
   -6.6879   -5.9647    1.6112 H   0  0  0  0  0  0  0  0  0  0  0  0
   -6.3991   -7.2658    0.8088 H   0  0  0  0  0  0  0  0  0  0  0  0
  1  3  1  0
  2  6  1  0
  3  6  1  0
  4  5  1  0
  4  1  1  0
  5  2  1  0
  1  7  1  6
  1  8  1  0
  2  9  1  1
  2 10  1  0
  6 11  1  1
  6 12  1  0
M  END
$$$$

     RDKit          3D

 37 37  0  0  0  0  0  0  0  0999 V2000
   -1.7300   -4.1670   -4.6810 O   0  0  0  0  0  0  0  0  0  0  0  0
   -7.4240   -3.8020    0.7280 C   0  0  0  0  0  0  0  0  0  0  0  0
   -2.5950   -6.3480   -4.0840 C   0  0  1  0  0  0  0  0  0  0  0  0
   -6.4230   -2.7660    1.4680 C   0  0  0  0  0  0  0  0  0  0  0  0
   -4.2650   -1.4940    1.9790 C   0  0  1  0  0  0  0  0  0  0  0  0
   -6.9230   -4.7110   -0.0570 C   0  0  0  0  0  0  0  0  0  0  0  0
   -4.8040   -5.7250   -1.0000 C   0  0  1  0  0  0  0  0  0  0  0  0
   -2.9710   -5.6630   -2.8150 C   0  0  1  0  0  0  0  0  0  0  0  0
   -2.7760   -1.3260    2.3080 C   0  0  0  0  0  0  0  0  0  0  0  0
   -7.6070   -5.9210   -0.2400 O   0  0  0  0  0  0  0  0  0  0  0  0
   -5.0540   -2.7120    1.2630 C   0  0  1  0  0  0  0  0  0  0  0  0
   -0.4540   -4.0950   -3.7580 P   0  0  0  0  0  0  0  0  0  0  0  0
   -0.2610   -2.4740   -3.6320 O   0  0  0  0  0  0  0  0  0  0  0  0
   -5.4200   -4.8080   -0.2230 C   0  0  0  0  0  0  0  0  0  0  0  0
    0.4860   -4.8420   -4.6480 O   0  0  0  0  0  0  0  0  0  0  0  0
   -1.8990   -5.4450   -5.2080 C   0  0  1  0  0  0  0  0  0  0  0  0
   -4.3710   -5.8960   -2.3920 C   0  0  2  0  0  0  0  0  0  0  0  0
   -4.4590   -3.7690    0.3490 O   0  0  0  0  0  0  0  0  0  0  0  0
   -8.5107   -3.7383    0.8865 H   0  0  0  0  0  0  0  0  0  0  0  0
   -2.7860   -7.4199   -4.2405 H   0  0  0  0  0  0  0  0  0  0  0  0
   -3.5831   -6.1104   -4.5050 H   0  0  0  0  0  0  0  0  0  0  0  0
   -6.8611   -2.0550    2.1839 H   0  0  0  0  0  0  0  0  0  0  0  0
   -4.9005   -0.6478    2.2790 H   0  0  0  0  0  0  0  0  0  0  0  0
   -4.1014   -1.0235    0.9983 H   0  0  0  0  0  0  0  0  0  0  0  0
   -4.5486   -6.6166   -0.4086 H   0  0  0  0  0  0  0  0  0  0  0  0
   -5.7791   -6.1693   -1.2487 H   0  0  0  0  0  0  0  0  0  0  0  0
   -2.2696   -5.0385   -2.2423 H   0  0  0  0  0  0  0  0  0  0  0  0
   -3.2908   -4.7794   -3.3867 H   0  0  0  0  0  0  0  0  0  0  0  0
   -1.7084   -1.2055    2.5439 H   0  0  0  0  0  0  0  0  0  0  0  0
    0.0000    0.0000    0.0000 H   0  0  0  0  0  0  0  0  0  0  0  0
   -2.9698   -0.3029    2.6627 H   0  0  0  0  0  0  0  0  0  0  0  0
   -8.0900   -6.7755   -0.3692 H   0  0  0  0  0  0  0  0  0  0  0  0
   -5.2121   -2.0861    0.3724 H   0  0  0  0  0  0  0  0  0  0  0  0
   -1.6067   -5.7749   -6.2158 H   0  0  0  0  0  0  0  0  0  0  0  0
   -0.9085   -5.7334   -4.8263 H   0  0  0  0  0  0  0  0  0  0  0  0
   -5.1100   -6.2072   -3.1451 H   0  0  0  0  0  0  0  0  0  0  0  0
   -4.1340   -6.9508   -2.1887 H   0  0  0  0  0  0  0  0  0  0  0  0
  1 12  1  0
  2  4  2  0
  3  8  1  0
  5  9  1  0
  6  2  1  0
  7 14  1  0
  8 17  1  0
 10  6  1  0
 11  4  1  0
 11  5  1  0
 12 13  2  0
 14  6  2  0
 14 18  1  0
 15 12  2  0
 16  1  1  0
 16  3  1  0
 17  7  1  0
 18 11  1  0
  2 19  1  0
  3 20  1  1
  3 21  1  0
  4 22  1  0
  5 23  1  1
  5 24  1  0
  7 25  1  1
  7 26  1  0
  8 27  1  1
  8 28  1  0
  9 29  1  0
  9 30  1  0
  9 31  1  0
 10 32  1  0
 11 33  1  1
 16 34  1  6
 16 35  1  0
 17 36  1  6
 17 37  1  0
M  END
$$$$

     RDKit          3D

 36 38  0  0  0  0  0  0  0  0999 V2000
    5.7270   -0.1110   -0.5890 C   0  0  1  0  0  0  0  0  0  0  0  0
    3.0370    0.6840   -0.6860 C   0  0  2  0  0  0  0  0  0  0  0  0
   -0.7860   -4.8250   -4.1040 C   0  0  0  0  0  0  0  0  0  0  0  0
    1.2800   -1.1280   -2.9550 C   0  0  0  0  0  0  0  0  0  0  0  0
    1.8670   -2.3970   -2.7530 C   0  0  0  0  0  0  0  0  0  0  0  0
    3.4660   -0.6030   -0.7940 O   0  0  0  0  0  0  0  0  0  0  0  0
    5.3920    0.8600    0.3050 C   0  0  1  0  0  0  0  0  0  0  0  0
    2.2160    0.0240   -3.1990 C   0  0  1  0  0  0  0  0  0  0  0  0
   -1.9300   -5.0510   -3.6230 O   0  0  0  0  0  0  0  0  0  0  0  0
   -0.1980   -5.4430   -5.0040 O   0  0  0  0  0  0  0  0  0  0  0  0
    1.1700   -3.5500   -3.0680 C   0  0  0  0  0  0  0  0  0  0  0  0
    4.8210   -0.5080   -1.6490 C   0  0  2  0  0  0  0  0  0  0  0  0
    4.0740    1.3020    0.5110 C   0  0  1  0  0  0  0  0  0  0  0  0
   -0.6100   -2.2320   -3.9630 C   0  0  0  0  0  0  0  0  0  0  0  0
    2.0810    1.1150   -2.1580 C   0  0  2  0  0  0  0  0  0  0  0  0
    3.3950    1.5940   -1.8240 C   0  0  2  0  0  0  0  0  0  0  0  0
    0.0460   -1.1440   -3.6610 C   0  0  0  0  0  0  0  0  0  0  0  0
   -0.0430   -3.5050   -3.6270 C   0  0  0  0  0  0  0  0  0  0  0  0
    6.7063   -0.6049   -0.5051 H   0  0  0  0  0  0  0  0  0  0  0  0
    5.2867   -0.8718    0.0723 H   0  0  0  0  0  0  0  0  0  0  0  0
    2.8850   -2.4689   -2.3425 H   0  0  0  0  0  0  0  0  0  0  0  0
    6.1953    1.3227    0.8971 H   0  0  0  0  0  0  0  0  0  0  0  0
    5.5264    1.6242   -0.4747 H   0  0  0  0  0  0  0  0  0  0  0  0
    2.9215    0.0689   -4.0418 H   0  0  0  0  0  0  0  0  0  0  0  0
    1.4491    0.5167   -3.8148 H   0  0  0  0  0  0  0  0  0  0  0  0
   -2.8278   -5.2284   -3.2455 H   0  0  0  0  0  0  0  0  0  0  0  0
    1.6256   -4.5279   -2.8530 H   0  0  0  0  0  0  0  0  0  0  0  0
    5.0065   -0.6895   -2.7179 H   0  0  0  0  0  0  0  0  0  0  0  0
    4.6104    0.5498   -1.8652 H   0  0  0  0  0  0  0  0  0  0  0  0
    3.7566    1.9584    1.3346 H   0  0  0  0  0  0  0  0  0  0  0  0
    3.8762    0.4200    1.1378 H   0  0  0  0  0  0  0  0  0  0  0  0
   -1.5851   -2.1724   -4.4687 H   0  0  0  0  0  0  0  0  0  0  0  0
    1.0859    1.5216   -2.3913 H   0  0  0  0  0  0  0  0  0  0  0  0
    4.1987    2.2493   -2.1910 H   0  0  0  0  0  0  0  0  0  0  0  0
    2.9486    2.4430   -1.2855 H   0  0  0  0  0  0  0  0  0  0  0  0
   -0.3828   -0.1800   -3.9722 H   0  0  0  0  0  0  0  0  0  0  0  0
  1  7  1  0
  2 13  1  0
  3 18  1  0
  3  9  1  0
  4  5  2  0
  2  6  1  1
  7 13  1  0
  8  4  1  0
  8 15  1  0
 10  3  2  0
 11  5  1  0
 12  6  1  0
 12  1  1  0
 14 17  2  0
 14 18  1  0
 15 16  1  0
 15  2  1  0
 16  2  1  0
 17  4  1  0
 18 11  2  0
  1 19  1  6
  1 20  1  0
  5 21  1  0
  7 22  1  1
  7 23  1  0
  8 24  1  6
  8 25  1  0
  9 26  1  0
 11 27  1  0
 12 28  1  6
 12 29  1  0
 13 30  1  1
 13 31  1  0
 14 32  1  0
 15 33  1  1
 16 34  1  6
 16 35  1  0
 17 36  1  0
M  END
$$$$

     RDKit          3D

 27 27  0  0  0  0  0  0  0  0999 V2000
   -3.5480   -4.4870   -5.5470 O   0  0  0  0  0  0  0  0  0  0  0  0
    0.8550   -1.9340   -3.0040 C   0  0  0  0  0  0  0  0  0  0  0  0
    0.0460   -2.9660   -3.7290 C   0  0  0  0  0  0  0  0  0  0  0  0
   -1.4080   -5.2220   -4.9110 C   0  0  2  0  0  0  0  0  0  0  0  0
   -0.7130   -2.5170   -4.7060 C   0  0  0  0  0  0  0  0  0  0  0  0
    0.5680   -1.6430   -1.6380 C   0  0  1  0  0  0  0  0  0  0  0  0
   -2.4300   -4.1440   -5.2980 C   0  0  0  0  0  0  0  0  0  0  0  0
   -1.8640   -2.8780   -5.5450 C   0  0  2  0  0  0  0  0  0  0  0  0
    0.3870   -0.2900    0.4540 C   0  0  0  0  0  0  0  0  0  0  0  0
    1.7890   -1.3010   -3.5100 O   0  0  0  0  0  0  0  0  0  0  0  0
    0.0580    0.8920    0.2160 O   0  0  0  0  0  0  0  0  0  0  0  0
    0.1820   -4.2930   -3.2100 C   0  0  0  0  0  0  0  0  0  0  0  0
    1.3720   -0.9420   -0.6060 C   0  0  1  0  0  0  0  0  0  0  0  0
    0.0180   -1.0080    1.4740 O   0  0  0  0  0  0  0  0  0  0  0  0
   -0.5990   -5.2830   -3.7460 C   0  0  0  0  0  0  0  0  0  0  0  0
   -1.2875   -6.0500   -5.6250 H   0  0  0  0  0  0  0  0  0  0  0  0
   -2.1980   -5.7846   -4.3919 H   0  0  0  0  0  0  0  0  0  0  0  0
   -0.3608   -1.5167   -4.9981 H   0  0  0  0  0  0  0  0  0  0  0  0
   -0.4138   -1.9974   -1.2909 H   0  0  0  0  0  0  0  0  0  0  0  0
    1.0193   -2.6006   -1.3392 H   0  0  0  0  0  0  0  0  0  0  0  0
   -2.2589   -2.2019   -6.3176 H   0  0  0  0  0  0  0  0  0  0  0  0
   -2.5437   -2.4298   -4.8053 H   0  0  0  0  0  0  0  0  0  0  0  0
    0.8951   -4.5123   -2.4017 H   0  0  0  0  0  0  0  0  0  0  0  0
    2.4702   -0.8839   -0.5801 H   0  0  0  0  0  0  0  0  0  0  0  0
    1.3374   -0.0202   -1.2052 H   0  0  0  0  0  0  0  0  0  0  0  0
   -0.2628   -1.5544    2.2503 H   0  0  0  0  0  0  0  0  0  0  0  0
   -0.5992   -6.2424   -3.2078 H   0  0  0  0  0  0  0  0  0  0  0  0
  1  7  2  0
  2  6  1  0
  3 12  1  0
  3  2  1  0
  4 15  1  0
  5  3  2  0
  6 13  1  0
  7  4  1  0
  8  7  1  0
  8  5  1  0
  9 14  1  0
 10  2  2  0
 11  9  2  0
 13  9  1  0
 15 12  2  0
  4 16  1  6
  4 17  1  0
  5 18  1  0
  6 19  1  6
  6 20  1  0
  8 21  1  6
  8 22  1  0
 12 23  1  0
 13 24  1  1
 13 25  1  0
 14 26  1  0
 15 27  1  0
M  END
$$$$

     RDKit          3D

 29 29  0  0  0  0  0  0  0  0999 V2000
   -5.3290   -4.4030   -1.0970 C   0  0  2  0  0  0  0  0  0  0  0  0
   -4.9180   -5.7540   -1.3320 C   0  0  1  0  0  0  0  0  0  0  0  0
   -0.0830   -3.6000   -2.6830 N   0  0  0  0  0  0  0  0  0  0  0  0
   -2.9040   -5.9090   -2.7800 C   0  0  1  0  0  0  0  0  0  0  0  0
    0.1560   -2.5100   -2.5790 C   0  0  0  0  0  0  0  0  0  0  0  0
   -1.7080   -5.3140   -2.3550 C   0  0  1  0  0  0  0  0  0  0  0  0
   -4.6960   -6.3630   -0.2400 C   0  0  1  0  0  0  0  0  0  0  0  0
   -0.6200   -4.6930   -3.1100 C   0  0  1  0  0  0  0  0  0  0  0  0
   -3.7850   -5.0600   -1.9240 O   0  0  0  0  0  0  0  0  0  0  0  0
   -4.3760   -7.0400   -1.5170 C   0  0  1  0  0  0  0  0  0  0  0  0
    0.2840   -1.5060   -2.9280 C   0  0  0  0  0  0  0  0  0  0  0  0
   -6.5660   -4.5840   -0.6250 C   0  0  0  0  0  0  0  0  0  0  0  0
   -4.7751   -3.4669   -1.2610 H   0  0  0  0  0  0  0  0  0  0  0  0
   -4.9301   -4.4597   -0.0734 H   0  0  0  0  0  0  0  0  0  0  0  0
    0.5369   -3.9838   -1.9555 H   0  0  0  0  0  0  0  0  0  0  0  0
   -3.1184   -6.7179   -3.4939 H   0  0  0  0  0  0  0  0  0  0  0  0
   -2.8257   -6.6466   -1.9678 H   0  0  0  0  0  0  0  0  0  0  0  0
   -1.5625   -5.3142   -1.2647 H   0  0  0  0  0  0  0  0  0  0  0  0
   -1.1997   -6.2872   -2.4230 H   0  0  0  0  0  0  0  0  0  0  0  0
   -4.7224   -6.3772    0.8596 H   0  0  0  0  0  0  0  0  0  0  0  0
   -5.7108   -6.7864   -0.2698 H   0  0  0  0  0  0  0  0  0  0  0  0
   -0.2601   -5.1569   -4.0402 H   0  0  0  0  0  0  0  0  0  0  0  0
    0.1129   -5.2778   -2.5348 H   0  0  0  0  0  0  0  0  0  0  0  0
   -4.0080   -7.8792   -2.1255 H   0  0  0  0  0  0  0  0  0  0  0  0
   -3.3612   -6.6166   -1.4872 H   0  0  0  0  0  0  0  0  0  0  0  0
    0.4155   -0.4744   -3.2866 H   0  0  0  0  0  0  0  0  0  0  0  0
   -7.5843   -4.7330   -0.2365 H   0  0  0  0  0  0  0  0  0  0  0  0
    0.0000    0.0000    0.0000 H   0  0  0  0  0  0  0  0  0  0  0  0
   -6.9607   -3.9127   -1.4019 H   0  0  0  0  0  0  0  0  0  0  0  0
  1 12  1  0
  2  1  1  0
  2  7  1  0
  3  5  1  0
  4  6  1  0
  4  9  1  0
  8  3  1  0
  8  6  1  0
  2  9  1  1
 10  2  1  0
 10  7  1  0
 11  5  3  0
  1 13  1  6
  1 14  1  0
  3 15  1  0
  4 16  1  6
  4 17  1  0
  6 18  1  1
  6 19  1  0
  7 20  1  1
  7 21  1  0
  8 22  1  6
  8 23  1  0
 10 24  1  6
 10 25  1  0
 11 26  1  0
 12 27  1  0
 12 28  1  0
 12 29  1  0
M  END
$$$$

     RDKit          3D

 23 23  0  0  0  0  0  0  0  0999 V2000
   -0.9350   -4.9710   -4.6480 C   0  0  1  0  0  0  0  0  0  0  0  0
   -4.7560   -6.5990   -2.7650 C   0  0  2  0  0  0  0  0  0  0  0  0
   -4.6890   -5.5110   -2.0360 O   0  0  0  0  0  0  0  0  0  0  0  0
   -3.5570   -6.0990   -2.6590 C   0  0  2  0  0  0  0  0  0  0  0  0
   -1.5620   -3.9560   -4.7490 O   0  0  0  0  0  0  0  0  0  0  0  0
   -2.0970   -6.9890   -4.4050 O   0  0  0  0  0  0  0  0  0  0  0  0
   -2.8700   -5.5440   -3.5430 C   0  0  1  0  0  0  0  0  0  0  0  0
   -0.2290   -6.4530   -6.3790 O   0  0  0  0  0  0  0  0  0  0  0  0
   -1.9520   -3.6910   -6.0110 C   0  0  0  0  0  0  0  0  0  0  0  0
   -2.0000   -5.7480   -4.4700 C   0  0  0  0  0  0  0  0  0  0  0  0
    0.0250   -5.1990   -5.5780 C   0  0  1  0  0  0  0  0  0  0  0  0
   -0.1742   -5.0889   -3.8623 H   0  0  0  0  0  0  0  0  0  0  0  0
   -5.3919   -7.3936   -3.1823 H   0  0  0  0  0  0  0  0  0  0  0  0
   -4.5801   -7.2109   -1.8680 H   0  0  0  0  0  0  0  0  0  0  0  0
   -2.5752   -6.4982   -2.3647 H   0  0  0  0  0  0  0  0  0  0  0  0
   -3.0949   -4.4675   -3.5206 H   0  0  0  0  0  0  0  0  0  0  0  0
   -2.0591   -5.3897   -2.8159 H   0  0  0  0  0  0  0  0  0  0  0  0
   -0.3956   -7.2754   -6.9043 H   0  0  0  0  0  0  0  0  0  0  0  0
   -2.2704   -3.4746   -7.0414 H   0  0  0  0  0  0  0  0  0  0  0  0
    0.0000    0.0000    0.0000 H   0  0  0  0  0  0  0  0  0  0  0  0
   -0.9024   -3.7110   -6.3396 H   0  0  0  0  0  0  0  0  0  0  0  0
    0.8938   -4.5421   -5.7319 H   0  0  0  0  0  0  0  0  0  0  0  0
    0.5976   -5.7842   -4.8434 H   0  0  0  0  0  0  0  0  0  0  0  0
  1 11  1  0
  1 10  1  0
  2  4  1  0
  2  3  1  0
  4  7  1  0
  4  3  1  0
  5  1  1  0
  8 11  1  0
  9  5  1  0
 10  6  2  0
 10  7  1  0
  1 12  1  1
  2 13  1  6
  2 14  1  0
  4 15  1  1
  7 16  1  6
  7 17  1  0
  8 18  1  0
  9 19  1  0
  9 20  1  0
  9 21  1  0
 11 22  1  6
 11 23  1  0
M  END
$$$$

     RDKit          3D

 14 13  0  0  0  0  0  0  0  0999 V2000
   -4.4520   -4.9270   -3.8890 O   0  0  0  0  0  0  0  0  0  0  0  0
   -3.9580   -5.7220   -2.9330 C   0  0  1  0  0  0  0  0  0  0  0  0
   -5.5480   -4.6650   -0.2880 O   0  0  0  0  0  0  0  0  0  0  0  0
   -5.1250   -7.1080   -0.1900 C   0  0  0  0  0  0  0  0  0  0  0  0
   -5.0830   -6.2340   -2.1670 C   0  0  1  0  0  0  0  0  0  0  0  0
   -5.3170   -5.6260   -0.7700 C   0  0  0  0  0  0  0  0  0  0  0  0
   -4.8175   -4.3387   -4.5964 H   0  0  0  0  0  0  0  0  0  0  0  0
   -2.8955   -5.9471   -2.7584 H   0  0  0  0  0  0  0  0  0  0  0  0
   -3.8872   -4.8603   -2.2530 H   0  0  0  0  0  0  0  0  0  0  0  0
   -4.9932   -8.1250    0.2080 H   0  0  0  0  0  0  0  0  0  0  0  0
    0.0000    0.0000    0.0000 H   0  0  0  0  0  0  0  0  0  0  0  0
   -5.5905   -6.7977    0.7571 H   0  0  0  0  0  0  0  0  0  0  0  0
   -5.7388   -7.0213   -2.5672 H   0  0  0  0  0  0  0  0  0  0  0  0
   -4.4318   -7.0018   -1.7238 H   0  0  0  0  0  0  0  0  0  0  0  0
  1  2  1  0
  2  5  1  0
  5  6  1  0
  6  3  2  0
  6  4  1  0
  1  7  1  0
  2  8  1  6
  2  9  1  0
  4 10  1  0
  4 11  1  0
  4 12  1  0
  5 13  1  6
  5 14  1  0
M  END
$$$$

     RDKit          3D

 36 36  0  0  0  0  0  0  0  0999 V2000
   -5.0350   -5.0290   -4.2200 C   0  0  0  0  0  0  0  0  0  0  0  0
   -6.8320   -5.7060    1.6720 C   0  0  1  0  0  0  0  0  0  0  0  0
   -7.7650   -5.0480    4.2220 C   0  0  0  0  0  0  0  0  0  0  0  0
   -5.8930   -4.9880   -3.0880 C   0  0  0  0  0  0  0  0  0  0  0  0
   -6.9720   -4.0830    3.4860 O   0  0  0  0  0  0  0  0  0  0  0  0
   -3.9360   -5.8390   -4.2540 C   0  0  0  0  0  0  0  0  0  0  0  0
   -1.6350   -5.4730   -5.1080 C   0  0  0  0  0  0  0  0  0  0  0  0
   -4.4440   -6.4840   -1.9600 C   0  0  0  0  0  0  0  0  0  0  0  0
   -6.4330   -5.4710   -0.8020 C   0  0  0  0  0  0  0  0  0  0  0  0
   -8.3410   -6.0670    1.2820 C   0  0  1  0  0  0  0  0  0  0  0  0
   -5.9440   -5.7400    0.4960 N   0  0  0  0  0  0  0  0  0  0  0  0
   -3.4440   -4.8700   -6.4190 O   0  0  0  0  0  0  0  0  0  0  0  0
   -9.1940   -4.8450    1.5800 O   0  0  0  0  0  0  0  0  0  0  0  0
   -3.5520   -6.5360   -3.0780 C   0  0  0  0  0  0  0  0  0  0  0  0
   -6.8400   -4.1480    2.1240 C   0  0  1  0  0  0  0  0  0  0  0  0
   -5.4900   -5.6850   -1.9150 C   0  0  0  0  0  0  0  0  0  0  0  0
   -3.2030   -6.0010   -5.5440 C   0  0  2  0  0  0  0  0  0  0  0  0
   -5.2613   -4.3936   -5.0890 H   0  0  0  0  0  0  0  0  0  0  0  0
   -6.4860   -6.4182    2.4356 H   0  0  0  0  0  0  0  0  0  0  0  0
   -8.3667   -5.7802    4.7804 H   0  0  0  0  0  0  0  0  0  0  0  0
    0.0000    0.0000    0.0000 H   0  0  0  0  0  0  0  0  0  0  0  0
   -7.6717   -4.4328    5.1291 H   0  0  0  0  0  0  0  0  0  0  0  0
   -6.8422   -4.4329   -3.1178 H   0  0  0  0  0  0  0  0  0  0  0  0
   -0.6269   -5.1335   -4.8277 H   0  0  0  0  0  0  0  0  0  0  0  0
    0.0000    0.0000    0.0000 H   0  0  0  0  0  0  0  0  0  0  0  0
   -1.6028   -6.2283   -4.3090 H   0  0  0  0  0  0  0  0  0  0  0  0
   -4.2471   -7.1408   -1.0998 H   0  0  0  0  0  0  0  0  0  0  0  0
   -7.4617   -5.1208   -0.9729 H   0  0  0  0  0  0  0  0  0  0  0  0
   -8.6961   -7.0244    0.8730 H   0  0  0  0  0  0  0  0  0  0  0  0
   -8.5160   -6.4381    2.3026 H   0  0  0  0  0  0  0  0  0  0  0  0
   -3.6085   -4.0979   -7.0164 H   0  0  0  0  0  0  0  0  0  0  0  0
   -9.7497   -4.0490    1.7741 H   0  0  0  0  0  0  0  0  0  0  0  0
   -2.6055   -7.0943   -3.0282 H   0  0  0  0  0  0  0  0  0  0  0  0
   -6.7536   -3.2849    1.4475 H   0  0  0  0  0  0  0  0  0  0  0  0
   -7.9345   -4.1225    2.0167 H   0  0  0  0  0  0  0  0  0  0  0  0
   -3.4175   -6.9918   -5.9709 H   0  0  0  0  0  0  0  0  0  0  0  0
  1  4  2  0
  2 10  1  0
  2 15  1  0
  4 16  1  0
  5  3  1  0
  6  1  1  0
  6 14  2  0
  8 16  2  0
  9 11  2  3
 10 13  1  0
 11  2  1  0
 12 17  1  0
 14  8  1  0
 15  5  1  0
 16  9  1  0
 17  7  1  0
 17  6  1  0
  1 18  1  0
  2 19  1  1
  3 20  1  0
  3 21  1  0
  3 22  1  0
  4 23  1  0
  7 24  1  0
  7 25  1  0
  7 26  1  0
  8 27  1  0
  9 28  1  0
 10 29  1  6
 10 30  1  0
 12 31  1  0
 13 32  1  0
 14 33  1  0
 15 34  1  6
 15 35  1  0
 17 36  1  6
M  END
$$$$

     RDKit          3D

 25 25  0  0  0  0  0  0  0  0999 V2000
   -7.3640   -3.2060    1.0500 C   0  0  2  0  0  0  0  0  0  0  0  0
   -3.9340   -1.0640    2.0020 C   0  0  2  0  0  0  0  0  0  0  0  0
   -6.8910   -5.6650    0.0650 S   0  0  1  0  0  0  0  0  0  0  0  0
   -3.1320   -1.1460    3.2940 C   0  0  1  0  0  0  0  0  0  0  0  0
   -5.9250   -5.1520    1.3800 C   0  0  1  0  0  0  0  0  0  0  0  0
   -7.8590   -4.0220    0.2720 O   0  0  0  0  0  0  0  0  0  0  0  0
   -5.0470   -2.8950    1.2770 O   0  0  0  0  0  0  0  0  0  0  0  0
   -5.2520   -1.7280    2.0520 C   0  0  1  0  0  0  0  0  0  0  0  0
   -5.8860   -5.2690   -1.2240 O   0  0  0  0  0  0  0  0  0  0  0  0
   -2.3260    0.0200    3.4360 O   0  0  0  0  0  0  0  0  0  0  0  0
   -5.9670   -3.8370    1.2200 C   0  0  2  0  0  0  0  0  0  0  0  0
   -7.7922   -2.2949    1.4934 H   0  0  0  0  0  0  0  0  0  0  0  0
   -6.9944   -2.6174    0.1974 H   0  0  0  0  0  0  0  0  0  0  0  0
   -3.5612   -0.5510    1.1032 H   0  0  0  0  0  0  0  0  0  0  0  0
   -4.3935   -0.1259    2.3468 H   0  0  0  0  0  0  0  0  0  0  0  0
   -7.4748   -6.9005   -0.0329 H   0  0  0  0  0  0  0  0  0  0  0  0
   -3.1694   -1.9802    4.0100 H   0  0  0  0  0  0  0  0  0  0  0  0
   -2.3140   -1.6458    2.7545 H   0  0  0  0  0  0  0  0  0  0  0  0
   -5.4105   -5.7491    2.1473 H   0  0  0  0  0  0  0  0  0  0  0  0
   -5.0303   -5.2011    0.7419 H   0  0  0  0  0  0  0  0  0  0  0  0
   -6.1673   -1.3975    2.5649 H   0  0  0  0  0  0  0  0  0  0  0  0
   -5.5612   -1.1822    1.1484 H   0  0  0  0  0  0  0  0  0  0  0  0
   -5.2944   -5.0359   -1.9828 H   0  0  0  0  0  0  0  0  0  0  0  0
   -1.7659    0.8303    3.5347 H   0  0  0  0  0  0  0  0  0  0  0  0
   -5.8539   -3.8813    0.1267 H   0  0  0  0  0  0  0  0  0  0  0  0
  1 11  1  0
  2  8  1  0
  2  4  1  0
  3  9  1  0
  3  6  1  0
  3  5  1  0
  4 10  1  0
  6  1  1  0
  7  8  1  0
 11  7  1  0
 11  5  1  0
  1 12  1  1
  1 13  1  0
  2 14  1  6
  2 15  1  0
  3 16  1  1
  4 17  1  1
  4 18  1  0
  5 19  1  1
  5 20  1  0
  8 21  1  1
  8 22  1  0
  9 23  1  0
 10 24  1  0
 11 25  1  6
M  END
$$$$

     RDKit          3D

 49 48  0  0  0  0  0  0  0  0999 V2000
    0.1780   -1.6240   -2.8050 C   0  0  2  0  0  0  0  0  0  0  0  0
   -2.6060   -5.8230   -3.3920 C   0  0  1  0  0  0  0  0  0  0  0  0
    0.4840   -2.8630   -3.4400 C   0  0  1  0  0  0  0  0  0  0  0  0
   -3.7840   -6.6600   -3.2980 C   0  0  1  0  0  0  0  0  0  0  0  0
   -5.2390   -7.4940   -0.6580 C   0  0  1  0  0  0  0  0  0  0  0  0
   -0.1110    0.6420    1.3280 C   0  0  1  0  0  0  0  0  0  0  0  0
    0.9180    0.6540   -2.1370 C   0  0  2  0  0  0  0  0  0  0  0  0
    1.3160   -0.7660   -2.6750 C   0  0  2  0  0  0  0  0  0  0  0  0
    2.2710   -0.8580   -3.6680 O   0  0  0  0  0  0  0  0  0  0  0  0
   -0.6780   -3.7900   -3.9060 C   0  0  0  0  0  0  0  0  0  0  0  0
   -5.3640   -6.0590   -1.1170 C   0  0  0  0  0  0  0  0  0  0  0  0
    0.3950    0.8380   -0.9590 O   0  0  0  0  0  0  0  0  0  0  0  0
    0.2020   -1.5300    2.1820 O   0  0  0  0  0  0  0  0  0  0  0  0
   -0.1970   -0.4720    2.4220 C   0  0  0  0  0  0  0  0  0  0  0  0
   -0.5640   -5.0720   -4.2380 C   0  0  0  0  0  0  0  0  0  0  0  0
   -1.7790   -5.9870   -4.5450 C   0  0  2  0  0  0  0  0  0  0  0  0
   -4.3230   -8.3820   -1.3580 C   0  0  1  0  0  0  0  0  0  0  0  0
   -3.9160   -7.8180   -2.7740 C   0  0  1  0  0  0  0  0  0  0  0  0
    0.5980   -0.0470    0.1160 C   0  0  2  0  0  0  0  0  0  0  0  0
   -0.8284   -1.3553   -2.4516 H   0  0  0  0  0  0  0  0  0  0  0  0
   -0.0468   -1.1774   -3.7848 H   0  0  0  0  0  0  0  0  0  0  0  0
   -2.3585   -5.0917   -2.6085 H   0  0  0  0  0  0  0  0  0  0  0  0
   -2.0198   -6.5886   -2.8626 H   0  0  0  0  0  0  0  0  0  0  0  0
    1.5306   -3.1617   -3.5994 H   0  0  0  0  0  0  0  0  0  0  0  0
    0.4904   -3.3634   -2.4605 H   0  0  0  0  0  0  0  0  0  0  0  0
   -4.6976   -6.2378   -3.7420 H   0  0  0  0  0  0  0  0  0  0  0  0
   -3.5304   -7.1251   -4.2620 H   0  0  0  0  0  0  0  0  0  0  0  0
   -5.8318   -7.8615    0.1926 H   0  0  0  0  0  0  0  0  0  0  0  0
   -6.0465   -7.7845   -1.3462 H   0  0  0  0  0  0  0  0  0  0  0  0
   -0.4695    1.6797    1.3958 H   0  0  0  0  0  0  0  0  0  0  0  0
    0.8671    0.9541    1.7227 H   0  0  0  0  0  0  0  0  0  0  0  0
    1.0879    1.5291   -2.7815 H   0  0  0  0  0  0  0  0  0  0  0  0
    1.9242    0.7739   -1.7090 H   0  0  0  0  0  0  0  0  0  0  0  0
    1.9350   -1.1793   -1.8650 H   0  0  0  0  0  0  0  0  0  0  0  0
    2.9557   -0.9240   -4.3800 H   0  0  0  0  0  0  0  0  0  0  0  0
   -1.6818   -3.3441   -3.9656 H   0  0  0  0  0  0  0  0  0  0  0  0
   -5.4550   -5.0149   -1.4510 H   0  0  0  0  0  0  0  0  0  0  0  0
    0.0000    0.0000    0.0000 H   0  0  0  0  0  0  0  0  0  0  0  0
   -4.8721   -6.3196   -2.0657 H   0  0  0  0  0  0  0  0  0  0  0  0
   -0.6319   -0.2515    3.4080 H   0  0  0  0  0  0  0  0  0  0  0  0
    0.4445   -5.5071   -4.2983 H   0  0  0  0  0  0  0  0  0  0  0  0
   -1.9594   -6.6098   -5.4336 H   0  0  0  0  0  0  0  0  0  0  0  0
   -1.2671   -6.8301   -4.0580 H   0  0  0  0  0  0  0  0  0  0  0  0
   -3.9572   -9.3349   -0.9479 H   0  0  0  0  0  0  0  0  0  0  0  0
   -5.1774   -8.9054   -1.8120 H   0  0  0  0  0  0  0  0  0  0  0  0
   -3.6892   -8.6226   -3.4889 H   0  0  0  0  0  0  0  0  0  0  0  0
   -2.8612   -7.7973   -2.4626 H   0  0  0  0  0  0  0  0  0  0  0  0
    1.1345   -1.0072    0.1062 H   0  0  0  0  0  0  0  0  0  0  0  0
    1.5339    0.4734    0.3677 H   0  0  0  0  0  0  0  0  0  0  0  0
  1  8  1  0
  2  4  1  0
  3  1  1  0
  4 18  1  0
  6 14  1  0
  7 12  1  0
  8  9  1  0
  8  7  1  0
 10  3  1  0
 11  5  1  0
 12 19  1  0
 13 14  2  0
 15 10  2  3
 16 15  1  0
 16  2  1  0
 17  5  1  0
 18 17  1  0
 19  6  1  0
  1 20  1  1
  1 21  1  0
  2 22  1  1
  2 23  1  0
  3 24  1  6
  3 25  1  0
  4 26  1  6
  4 27  1  0
  5 28  1  1
  5 29  1  0
  6 30  1  6
  6 31  1  0
  7 32  1  6
  7 33  1  0
  8 34  1  1
  9 35  1  0
 10 36  1  0
 11 37  1  0
 11 38  1  0
 11 39  1  0
 14 40  1  0
 15 41  1  0
 16 42  1  6
 16 43  1  0
 17 44  1  1
 17 45  1  0
 18 46  1  6
 18 47  1  0
 19 48  1  6
 19 49  1  0
M  END
$$$$

     RDKit          3D

 25 24  0  0  0  0  0  0  0  0999 V2000
    1.2880   -0.9940   -1.6180 C   0  0  2  0  0  0  0  0  0  0  0  0
    2.9140   -1.9430    0.3100 S   0  0  0  0  0  0  0  0  0  0  0  0
    0.1860   -0.9320    2.3400 O   0  0  0  0  0  0  0  0  0  0  0  0
    2.6050   -0.9090   -1.2540 C   0  0  1  0  0  0  0  0  0  0  0  0
    1.2940   -1.8000   -2.9200 C   0  0  1  0  0  0  0  0  0  0  0  0
    0.3570   -0.4380    1.3040 C   0  0  1  0  0  0  0  0  0  0  0  0
    0.3830   -0.6060   -1.0050 O   0  0  0  0  0  0  0  0  0  0  0  0
   -0.0910   -2.1310   -3.2990 O   0  0  0  0  0  0  0  0  0  0  0  0
   -1.4240   -2.5650   -5.3110 O   0  0  0  0  0  0  0  0  0  0  0  0
   -0.4320   -1.7070   -4.6140 C   0  0  2  0  0  0  0  0  0  0  0  0
    0.5320    0.3130    0.1580 C   0  0  2  0  0  0  0  0  0  0  0  0
    1.1888   -1.9257   -1.0417 H   0  0  0  0  0  0  0  0  0  0  0  0
    3.1368   -2.6885    1.4376 H   0  0  0  0  0  0  0  0  0  0  0  0
    0.0401   -1.3535    3.2239 H   0  0  0  0  0  0  0  0  0  0  0  0
    3.3712   -0.3279   -1.7881 H   0  0  0  0  0  0  0  0  0  0  0  0
    2.3759   -0.0329   -0.6295 H   0  0  0  0  0  0  0  0  0  0  0  0
    2.1930   -2.0874   -3.4849 H   0  0  0  0  0  0  0  0  0  0  0  0
    1.3589   -2.7335   -2.3418 H   0  0  0  0  0  0  0  0  0  0  0  0
    0.5249   -1.3966    0.7912 H   0  0  0  0  0  0  0  0  0  0  0  0
   -0.7196   -0.5125    1.0908 H   0  0  0  0  0  0  0  0  0  0  0  0
   -2.0852   -3.1369   -5.7756 H   0  0  0  0  0  0  0  0  0  0  0  0
    0.0060   -0.8115   -5.0791 H   0  0  0  0  0  0  0  0  0  0  0  0
   -1.2491   -1.0948   -4.2047 H   0  0  0  0  0  0  0  0  0  0  0  0
    0.7427    1.3917    0.1125 H   0  0  0  0  0  0  0  0  0  0  0  0
   -0.5475    0.5227    0.1306 H   0  0  0  0  0  0  0  0  0  0  0  0
  1  5  1  0
  1  4  1  0
  1  7  1  0
  4  2  1  0
  6  3  1  0
  7 11  1  0
  8  5  1  0
  9 10  1  0
 10  8  1  0
 11  6  1  0
  1 12  1  6
  2 13  1  0
  3 14  1  0
  4 15  1  6
  4 16  1  0
  5 17  1  6
  5 18  1  0
  6 19  1  6
  6 20  1  0
  9 21  1  0
 10 22  1  6
 10 23  1  0
 11 24  1  1
 11 25  1  0
M  END
$$$$

     RDKit          3D

 26 25  0  0  0  0  0  0  0  0999 V2000
   -5.3260   -5.3040   -0.9090 C   0  0  1  0  0  0  0  0  0  0  0  0
   -4.7840   -3.5050    1.2330 C   0  0  0  0  0  0  0  0  0  0  0  0
   -2.5180   -4.6410   -3.6830 O   0  0  0  0  0  0  0  0  0  0  0  0
   -6.1020   -4.2110   -0.4830 O   0  0  0  0  0  0  0  0  0  0  0  0
   -3.1980   -5.5010   -3.2470 C   0  0  0  0  0  0  0  0  0  0  0  0
   -5.0570   -6.5510   -3.6530 O   0  0  0  0  0  0  0  0  0  0  0  0
   -4.9750   -6.1820    0.2060 C   0  0  1  0  0  0  0  0  0  0  0  0
   -6.1080   -3.9250    1.3030 C   0  0  1  0  0  0  0  0  0  0  0  0
   -4.6060   -5.7400   -3.3820 C   0  0  1  0  0  0  0  0  0  0  0  0
   -2.3450   -6.5730   -2.5370 O   0  0  0  0  0  0  0  0  0  0  0  0
   -5.5450   -5.9420   -2.2520 C   0  0  1  0  0  0  0  0  0  0  0  0
   -4.4330   -5.4090    1.2940 O   0  0  0  0  0  0  0  0  0  0  0  0
   -4.4079   -4.8061   -1.2542 H   0  0  0  0  0  0  0  0  0  0  0  0
   -3.7368   -3.1728    1.1776 H   0  0  0  0  0  0  0  0  0  0  0  0
    0.0000    0.0000    0.0000 H   0  0  0  0  0  0  0  0  0  0  0  0
   -4.8857   -3.0206    2.2153 H   0  0  0  0  0  0  0  0  0  0  0  0
   -5.5189   -7.3815   -3.9305 H   0  0  0  0  0  0  0  0  0  0  0  0
   -5.1058   -7.2742    0.2131 H   0  0  0  0  0  0  0  0  0  0  0  0
   -3.9641   -6.3057   -0.2097 H   0  0  0  0  0  0  0  0  0  0  0  0
   -6.8492   -4.0366    2.1081 H   0  0  0  0  0  0  0  0  0  0  0  0
   -6.4448   -2.8912    1.1363 H   0  0  0  0  0  0  0  0  0  0  0  0
   -4.4760   -4.8502   -4.0156 H   0  0  0  0  0  0  0  0  0  0  0  0
   -1.7977   -7.2608   -2.0815 H   0  0  0  0  0  0  0  0  0  0  0  0
   -6.4294   -6.5787   -2.4015 H   0  0  0  0  0  0  0  0  0  0  0  0
   -6.1228   -5.0635   -2.5751 H   0  0  0  0  0  0  0  0  0  0  0  0
   -4.0605   -4.8777    2.0417 H   0  0  0  0  0  0  0  0  0  0  0  0
  1 11  1  0
  1  4  1  0
  1  7  1  0
  2  8  1  0
  3  5  2  0
  4  8  1  0
  5 10  1  0
  7 12  1  0
  9  6  1  0
  9  5  1  0
  9 11  1  0
  1 13  1  6
  2 14  1  0
  2 15  1  0
  2 16  1  0
  6 17  1  0
  7 18  1  1
  7 19  1  0
  8 20  1  1
  8 21  1  0
  9 22  1  6
 10 23  1  0
 11 24  1  1
 11 25  1  0
 12 26  1  0
M  END
$$$$

     RDKit          3D

 48 49  0  0  0  0  0  0  0  0999 V2000
   -5.2200   -2.0410    1.7850 C   0  0  1  0  0  0  0  0  0  0  0  0
   -5.5660   -4.0190    0.0580 C   0  0  0  0  0  0  0  0  0  0  0  0
   -0.5830    0.6460   -0.7540 N   0  0  0  0  0  0  0  0  0  0  0  0
   -5.9220   -4.1510    2.3770 C   0  0  0  0  0  0  0  0  0  0  0  0
   -5.5460   -5.6610   -2.2600 C   0  0  0  0  0  0  0  0  0  0  0  0
   -4.3330   -4.3510   -0.5570 C   0  0  0  0  0  0  0  0  0  0  0  0
   -4.4710   -1.9570    2.9720 C   0  0  1  0  0  0  0  0  0  0  0  0
   -1.7830   -1.5050    2.9390 C   0  0  1  0  0  0  0  0  0  0  0  0
   -1.5310    0.7810   -0.1650 C   0  0  1  0  0  0  0  0  0  0  0  0
   -0.3370   -0.6090   -0.1000 C   0  0  1  0  0  0  0  0  0  0  0  0
   -1.8790   -0.1360    0.9710 C   0  0  1  0  0  0  0  0  0  0  0  0
   -1.1390   -1.7710    1.8560 N   0  0  0  0  0  0  0  0  0  0  0  0
   -1.1740   -0.9520    0.8240 C   0  0  2  0  0  0  0  0  0  0  0  0
   -5.4630   -0.8380    0.9670 C   0  0  0  0  0  0  0  0  0  0  0  0
   -6.7380   -5.2540   -1.7290 C   0  0  0  0  0  0  0  0  0  0  0  0
   -6.8030   -4.5820   -0.4230 C   0  0  0  0  0  0  0  0  0  0  0  0
   -3.2760   -0.6440    2.8250 S   0  0  0  0  0  0  0  0  0  0  0  0
   -5.5690   -3.2850    1.2920 C   0  0  2  0  0  0  0  0  0  0  0  0
    0.7100   -1.5200   -0.5950 C   0  0  0  0  0  0  0  0  0  0  0  0
   -4.4040   -5.3160   -1.6700 C   0  0  0  0  0  0  0  0  0  0  0  0
   -6.1567   -1.8450    2.3273 H   0  0  0  0  0  0  0  0  0  0  0  0
   -0.0909    1.1979   -1.4711 H   0  0  0  0  0  0  0  0  0  0  0  0
   -6.1931   -4.8160    3.2102 H   0  0  0  0  0  0  0  0  0  0  0  0
    0.0000    0.0000    0.0000 H   0  0  0  0  0  0  0  0  0  0  0  0
   -6.3001   -3.2872    2.9434 H   0  0  0  0  0  0  0  0  0  0  0  0
   -5.5307   -6.2730   -3.1739 H   0  0  0  0  0  0  0  0  0  0  0  0
   -3.3797   -3.9148   -0.2239 H   0  0  0  0  0  0  0  0  0  0  0  0
   -4.6024   -2.6014    3.8537 H   0  0  0  0  0  0  0  0  0  0  0  0
   -3.7398   -2.6686    2.5609 H   0  0  0  0  0  0  0  0  0  0  0  0
   -1.3902   -1.8198    3.9170 H   0  0  0  0  0  0  0  0  0  0  0  0
   -1.2403   -0.5523    3.0277 H   0  0  0  0  0  0  0  0  0  0  0  0
   -2.2165    1.6007   -0.4262 H   0  0  0  0  0  0  0  0  0  0  0  0
   -2.0598    0.1161   -0.8637 H   0  0  0  0  0  0  0  0  0  0  0  0
    0.5576   -0.5277    0.5349 H   0  0  0  0  0  0  0  0  0  0  0  0
   -2.6467   -0.0149    1.7495 H   0  0  0  0  0  0  0  0  0  0  0  0
   -2.6097   -0.6519    0.3307 H   0  0  0  0  0  0  0  0  0  0  0  0
   -0.5872   -2.6386    1.7953 H   0  0  0  0  0  0  0  0  0  0  0  0
   -1.2386   -1.9274    0.3197 H   0  0  0  0  0  0  0  0  0  0  0  0
   -5.6442    0.0592    0.3569 H   0  0  0  0  0  0  0  0  0  0  0  0
    0.0000    0.0000    0.0000 H   0  0  0  0  0  0  0  0  0  0  0  0
   -5.5266   -1.4642    0.0649 H   0  0  0  0  0  0  0  0  0  0  0  0
   -7.6671   -5.4328   -2.2900 H   0  0  0  0  0  0  0  0  0  0  0  0
   -7.7382   -4.5130    0.1520 H   0  0  0  0  0  0  0  0  0  0  0  0
   -4.5584   -3.6572    1.5159 H   0  0  0  0  0  0  0  0  0  0  0  0
    1.4916   -2.2001   -0.9645 H   0  0  0  0  0  0  0  0  0  0  0  0
    0.0000    0.0000    0.0000 H   0  0  0  0  0  0  0  0  0  0  0  0
    0.9402   -1.8171    0.4388 H   0  0  0  0  0  0  0  0  0  0  0  0
   -3.4696   -5.7718   -2.0292 H   0  0  0  0  0  0  0  0  0  0  0  0
  1 14  1  0
  1  7  1  0
  2 18  1  0
  3  9  1  0
  3 10  1  0
  5 15  2  0
  5 20  1  0
  6  2  1  0
  9 11  1  0
 10 19  1  0
 10 13  1  0
 12  8  1  0
 13 11  1  0
 13 12  1  0
 15 16  1  0
 16  2  2  0
 17  8  1  0
 17  7  1  0
 18  1  1  0
 18  4  1  0
 20  6  2  0
  1 21  1  1
  3 22  1  0
  4 23  1  0
  4 24  1  0
  4 25  1  0
  5 26  1  0
  6 27  1  0
  7 28  1  1
  7 29  1  0
  8 30  1  1
  8 31  1  0
  9 32  1  1
  9 33  1  0
 10 34  1  1
 11 35  1  1
 11 36  1  0
 12 37  1  0
 13 38  1  6
 14 39  1  0
 14 40  1  0
 14 41  1  0
 15 42  1  0
 16 43  1  0
 18 44  1  6
 19 45  1  0
 19 46  1  0
 19 47  1  0
 20 48  1  0
M  END
$$$$

     RDKit          3D

 15 16  0  0  0  0  0  0  0  0999 V2000
   -5.5870   -6.2080   -0.9870 C   0  0  2  0  0  0  0  0  0  0  0  0
   -7.7680   -4.4310   -4.2520 N   0  0  0  0  0  0  0  0  0  0  0  0
   -5.2670   -4.7830   -3.7340 C   0  0  1  0  0  0  0  0  0  0  0  0
   -4.4720   -6.7020   -2.0110 C   0  0  1  0  0  0  0  0  0  0  0  0
   -6.4170   -5.4410   -1.7510 N   0  0  0  0  0  0  0  0  0  0  0  0
   -5.2970   -5.6620   -2.6600 C   0  0  1  0  0  0  0  0  0  0  0  0
   -6.6110   -4.1540   -3.8410 C   0  0  0  0  0  0  0  0  0  0  0  0
   -5.7126   -6.4837    0.0705 H   0  0  0  0  0  0  0  0  0  0  0  0
   -8.7148   -4.6577   -4.5883 H   0  0  0  0  0  0  0  0  0  0  0  0
   -4.4047   -4.5868   -4.3882 H   0  0  0  0  0  0  0  0  0  0  0  0
   -5.5921   -5.5918   -4.4050 H   0  0  0  0  0  0  0  0  0  0  0  0
   -3.6222   -7.3867   -2.1486 H   0  0  0  0  0  0  0  0  0  0  0  0
   -5.1574   -7.4778   -2.3830 H   0  0  0  0  0  0  0  0  0  0  0  0
   -7.3306   -4.9671   -1.7093 H   0  0  0  0  0  0  0  0  0  0  0  0
   -6.5858   -3.1316   -3.4361 H   0  0  0  0  0  0  0  0  0  0  0  0
  1  4  1  0
  2  7  2  3
  5  1  1  0
  6  3  1  0
  6  4  1  0
  6  5  1  1
  6  1  1  0
  7  3  1  0
  1  8  1  1
  2  9  1  0
  3 10  1  6
  3 11  1  0
  4 12  1  1
  4 13  1  0
  5 14  1  0
  7 15  1  0
M  END
$$$$

     RDKit          3D

 23 22  0  0  0  0  0  0  0  0999 V2000
   -0.6320   -4.1670   -3.2560 N   0  0  0  0  0  0  0  0  0  0  0  0
   -0.6810   -3.2560   -2.3150 N   0  0  0  0  0  0  0  0  0  0  0  0
   -0.8200   -3.1520   -1.5250 O   0  0  0  0  0  0  0  0  0  0  0  0
   -3.3940   -6.2250   -5.0680 C   0  0  2  0  0  0  0  0  0  0  0  0
   -2.9440   -7.2880   -5.7900 C   0  0  1  0  0  0  0  0  0  0  0  0
   -0.8990   -5.3510   -3.4170 C   0  0  1  0  0  0  0  0  0  0  0  0
   -2.5320   -6.9920   -7.3280 C   0  0  0  0  0  0  0  0  0  0  0  0
   -0.3150   -2.0160   -2.1060 C   0  0  0  0  0  0  0  0  0  0  0  0
   -2.4540   -6.2780   -3.5720 S   0  0  0  0  0  0  0  0  0  0  0  0
   -0.2535   -3.7640   -4.1250 H   0  0  0  0  0  0  0  0  0  0  0  0
   -0.9901   -3.0247   -0.5581 H   0  0  0  0  0  0  0  0  0  0  0  0
   -4.1683   -5.4970   -5.3518 H   0  0  0  0  0  0  0  0  0  0  0  0
   -2.6253   -5.5869   -5.5284 H   0  0  0  0  0  0  0  0  0  0  0  0
   -2.8645   -8.2940   -5.3521 H   0  0  0  0  0  0  0  0  0  0  0  0
   -3.9738   -7.5078   -6.1082 H   0  0  0  0  0  0  0  0  0  0  0  0
   -0.0063   -5.9905   -3.4817 H   0  0  0  0  0  0  0  0  0  0  0  0
   -0.9225   -5.4940   -2.3266 H   0  0  0  0  0  0  0  0  0  0  0  0
   -2.2522   -6.7910   -8.3726 H   0  0  0  0  0  0  0  0  0  0  0  0
    0.0000    0.0000    0.0000 H   0  0  0  0  0  0  0  0  0  0  0  0
   -1.5722   -7.5055   -7.1697 H   0  0  0  0  0  0  0  0  0  0  0  0
   -0.0076   -0.9745   -1.9305 H   0  0  0  0  0  0  0  0  0  0  0  0
    0.0000    0.0000    0.0000 H   0  0  0  0  0  0  0  0  0  0  0  0
    0.7204   -2.3493   -1.9418 H   0  0  0  0  0  0  0  0  0  0  0  0
  1  2  1  0
  2  8  1  0
  2  3  1  0
  4  9  1  0
  5  4  1  0
  6  1  1  0
  7  5  1  0
  9  6  1  0
  1 10  1  0
  3 11  1  0
  4 12  1  1
  4 13  1  0
  5 14  1  1
  5 15  1  0
  6 16  1  6
  6 17  1  0
  7 18  1  0
  7 19  1  0
  7 20  1  0
  8 21  1  0
  8 22  1  0
  8 23  1  0
M  END
$$$$

     RDKit          3D

 13 12  0  0  0  0  0  0  0  0999 V2000
   -5.5690   -4.5490    0.8800 O   0  0  0  0  0  0  0  0  0  0  0  0
   -5.8750   -5.5470   -0.3000 C   0  0  1  0  0  0  0  0  0  0  0  0
   -4.9440   -4.9760   -3.5330 O   0  0  0  0  0  0  0  0  0  0  0  0
   -5.6910   -6.6930   -2.5170 O   0  0  0  0  0  0  0  0  0  0  0  0
   -7.2300   -5.3640   -0.9310 C   0  0  2  0  0  0  0  0  0  0  0  0
   -7.4120   -4.1180   -0.7600 O   0  0  0  0  0  0  0  0  0  0  0  0
   -5.5910   -5.5170   -2.2230 C   0  0  0  0  0  0  0  0  0  0  0  0
   -5.3767   -3.9219    1.6215 H   0  0  0  0  0  0  0  0  0  0  0  0
   -5.3436   -6.2788    0.3261 H   0  0  0  0  0  0  0  0  0  0  0  0
   -5.7724   -7.6502   -2.7563 H   0  0  0  0  0  0  0  0  0  0  0  0
   -7.8845   -6.1071   -1.4099 H   0  0  0  0  0  0  0  0  0  0  0  0
   -6.7512   -5.1610   -1.9003 H   0  0  0  0  0  0  0  0  0  0  0  0
   -7.5538   -3.1473   -0.6268 H   0  0  0  0  0  0  0  0  0  0  0  0
  2  1  1  0
  3  7  2  0
  4  7  1  0
  5  6  1  0
  5  2  1  0
  7  2  1  0
  1  8  1  0
  2  9  1  1
  4 10  1  0
  5 11  1  6
  5 12  1  0
  6 13  1  0
M  END
$$$$

     RDKit          3D

 24 23  0  0  0  0  0  0  0  0999 V2000
   -0.7500   -1.9550   -4.1250 O   0  0  0  0  0  0  0  0  0  0  0  0
   -1.3370   -5.0500   -4.7300 C   0  0  2  0  0  0  0  0  0  0  0  0
   -1.5680   -6.3470   -5.2490 C   0  0  1  0  0  0  0  0  0  0  0  0
   -2.6980   -7.1300   -4.7090 C   0  0  1  0  0  0  0  0  0  0  0  0
   -0.3710   -4.2150   -5.2800 N   0  0  0  0  0  0  0  0  0  0  0  0
   -2.4870   -7.8320   -3.4280 O   0  0  0  0  0  0  0  0  0  0  0  0
   -3.0370   -5.2560   -3.0330 O   0  0  0  0  0  0  0  0  0  0  0  0
    0.8280   -3.6420   -4.7210 C   0  0  1  0  0  0  0  0  0  0  0  0
   -1.8920   -4.9160   -3.4620 N   0  0  0  0  0  0  0  0  0  0  0  0
    0.4540   -2.6410   -3.7380 C   0  0  1  0  0  0  0  0  0  0  0  0
   -1.5785   -1.4830   -4.3913 H   0  0  0  0  0  0  0  0  0  0  0  0
   -1.8287   -4.2376   -5.2852 H   0  0  0  0  0  0  0  0  0  0  0  0
   -0.9210   -6.7618   -6.0360 H   0  0  0  0  0  0  0  0  0  0  0  0
   -0.9059   -6.7725   -4.4805 H   0  0  0  0  0  0  0  0  0  0  0  0
   -3.6592   -7.1877   -5.2408 H   0  0  0  0  0  0  0  0  0  0  0  0
   -2.3434   -8.0174   -5.2537 H   0  0  0  0  0  0  0  0  0  0  0  0
   -0.5427   -3.9601   -6.2631 H   0  0  0  0  0  0  0  0  0  0  0  0
   -2.3455   -8.3029   -2.5687 H   0  0  0  0  0  0  0  0  0  0  0  0
   -3.9302   -5.5212   -2.6984 H   0  0  0  0  0  0  0  0  0  0  0  0
    1.8572   -3.9179   -4.9943 H   0  0  0  0  0  0  0  0  0  0  0  0
    0.8259   -2.8717   -5.5062 H   0  0  0  0  0  0  0  0  0  0  0  0
   -1.2792   -4.4723   -2.7631 H   0  0  0  0  0  0  0  0  0  0  0  0
    1.0182   -2.4339   -2.8167 H   0  0  0  0  0  0  0  0  0  0  0  0
   -0.1458   -3.3914   -3.2021 H   0  0  0  0  0  0  0  0  0  0  0  0
  1 10  1  0
  2  3  1  0
  2  9  1  0
  3  4  1  0
  4  6  1  0
  5  2  1  0
  5  8  1  0
  8 10  1  0
  9  7  1  0
  1 11  1  0
  2 12  1  6
  3 13  1  6
  3 14  1  0
  4 15  1  6
  4 16  1  0
  5 17  1  0
  6 18  1  0
  7 19  1  0
  8 20  1  1
  8 21  1  0
  9 22  1  0
 10 23  1  1
 10 24  1  0
M  END
$$$$

     RDKit          3D

 26 26  0  0  0  0  0  0  0  0999 V2000
    3.2380   -2.0560    0.4140 C   0  0  0  0  0  0  0  0  0  0  0  0
    1.6270   -3.0470   -1.1850 C   0  0  0  0  0  0  0  0  0  0  0  0
   -1.3940   -3.8860   -5.8850 C   0  0  2  0  0  0  0  0  0  0  0  0
    0.0630   -3.3350   -3.0570 C   0  0  2  0  0  0  0  0  0  0  0  0
    1.8960   -1.7430   -0.3530 S   0  0  0  0  0  0  0  0  0  0  0  0
   -2.5970   -3.7090   -5.1450 O   0  0  0  0  0  0  0  0  0  0  0  0
    2.6080   -3.8570   -0.7160 N   0  0  0  0  0  0  0  0  0  0  0  0
    3.4720   -3.4020    0.2960 C   0  0  2  0  0  0  0  0  0  0  0  0
   -0.3640   -4.3350   -3.7090 C   0  0  1  0  0  0  0  0  0  0  0  0
   -0.1050   -5.9340   -5.5140 O   0  0  0  0  0  0  0  0  0  0  0  0
   -0.3490   -4.6240   -5.1770 C   0  0  1  0  0  0  0  0  0  0  0  0
    0.5230   -3.4970   -1.8560 C   0  0  2  0  0  0  0  0  0  0  0  0
    3.9820   -1.0570    0.9620 O   0  0  0  0  0  0  0  0  0  0  0  0
   -1.2613   -3.4992   -6.9062 H   0  0  0  0  0  0  0  0  0  0  0  0
   -1.7841   -4.8300   -6.2933 H   0  0  0  0  0  0  0  0  0  0  0  0
    0.0432   -2.3325   -3.5093 H   0  0  0  0  0  0  0  0  0  0  0  0
    1.0711   -3.4993   -3.4653 H   0  0  0  0  0  0  0  0  0  0  0  0
   -3.4337   -3.5859   -4.6303 H   0  0  0  0  0  0  0  0  0  0  0  0
    4.1890   -4.0030    0.8746 H   0  0  0  0  0  0  0  0  0  0  0  0
    4.2482   -3.2010   -0.4571 H   0  0  0  0  0  0  0  0  0  0  0  0
   -0.8223   -5.1220   -3.0921 H   0  0  0  0  0  0  0  0  0  0  0  0
   -1.3443   -3.8473   -3.8150 H   0  0  0  0  0  0  0  0  0  0  0  0
    0.0707   -6.8776   -5.7567 H   0  0  0  0  0  0  0  0  0  0  0  0
    0.5711   -4.1949   -5.6003 H   0  0  0  0  0  0  0  0  0  0  0  0
   -0.1187   -4.1413   -1.2371 H   0  0  0  0  0  0  0  0  0  0  0  0
    1.0866   -4.3802   -2.1910 H   0  0  0  0  0  0  0  0  0  0  0  0
  1 13  2  0
  2  7  2  0
  2  5  1  0
  3 11  1  0
  3  6  1  0
  4 12  1  0
  5  1  1  0
  7  8  1  0
  8  1  1  0
  9  4  1  0
 11 10  1  0
 11  9  1  0
 12  2  1  0
  3 14  1  6
  3 15  1  0
  4 16  1  1
  4 17  1  0
  6 18  1  0
  8 19  1  1
  8 20  1  0
  9 21  1  1
  9 22  1  0
 10 23  1  0
 11 24  1  6
 12 25  1  1
 12 26  1  0
M  END
$$$$

     RDKit          3D

 25 25  0  0  0  0  0  0  0  0999 V2000
   -7.0280   -7.5790    0.0180 C   0  0  1  0  0  0  0  0  0  0  0  0
   -6.5430   -6.5440    0.9800 C   0  0  1  0  0  0  0  0  0  0  0  0
   -5.0280   -6.3930    0.6800 C   0  0  1  0  0  0  0  0  0  0  0  0
   -4.9070   -4.8440    0.4030 N   0  0  0  0  0  0  0  0  0  0  0  0
   -6.5160   -7.0240   -1.2830 O   0  0  0  0  0  0  0  0  0  0  0  0
   -3.1020   -2.6790    2.1620 C   0  0  2  0  0  0  0  0  0  0  0  0
   -4.0220   -2.7300    1.3150 N   0  0  0  0  0  0  0  0  0  0  0  0
   -2.2940   -1.5280    2.9900 C   0  0  1  0  0  0  0  0  0  0  0  0
   -3.8740   -4.1870    0.6800 N   0  0  0  0  0  0  0  0  0  0  0  0
   -2.1600   -1.1280    1.6880 C   0  0  1  0  0  0  0  0  0  0  0  0
   -7.6030   -8.4971    0.2091 H   0  0  0  0  0  0  0  0  0  0  0  0
   -7.9657   -7.0188   -0.1120 H   0  0  0  0  0  0  0  0  0  0  0  0
   -7.1322   -6.0056    1.7370 H   0  0  0  0  0  0  0  0  0  0  0  0
   -6.3191   -7.3316    1.7145 H   0  0  0  0  0  0  0  0  0  0  0  0
   -4.2436   -7.1640    0.6645 H   0  0  0  0  0  0  0  0  0  0  0  0
   -5.2220   -6.5689   -0.3884 H   0  0  0  0  0  0  0  0  0  0  0  0
   -5.7068   -4.3531   -0.0216 H   0  0  0  0  0  0  0  0  0  0  0  0
   -6.1790   -6.6587   -2.1392 H   0  0  0  0  0  0  0  0  0  0  0  0
   -3.2855   -3.7226    2.4573 H   0  0  0  0  0  0  0  0  0  0  0  0
   -4.7128   -2.0023    1.0822 H   0  0  0  0  0  0  0  0  0  0  0  0
   -2.0152   -1.2381    4.0138 H   0  0  0  0  0  0  0  0  0  0  0  0
   -1.3684   -2.1163    2.9045 H   0  0  0  0  0  0  0  0  0  0  0  0
   -2.9408   -4.5838    0.4995 H   0  0  0  0  0  0  0  0  0  0  0  0
   -1.7828   -0.4245    0.9312 H   0  0  0  0  0  0  0  0  0  0  0  0
   -3.0856   -0.5397    1.7735 H   0  0  0  0  0  0  0  0  0  0  0  0
  1  2  1  0
  3  2  1  0
  4  3  1  0
  4  9  1  0
  5  1  1  0
  6  8  1  0
  7  6  1  0
  9  7  1  0
 10  6  1  0
 10  8  1  0
  1 11  1  1
  1 12  1  0
  2 13  1  1
  2 14  1  0
  3 15  1  1
  3 16  1  0
  4 17  1  0
  5 18  1  0
  6 19  1  6
  7 20  1  0
  8 21  1  1
  8 22  1  0
  9 23  1  0
 10 24  1  6
 10 25  1  0
M  END
$$$$

     RDKit          3D

 54 57  0  0  0  0  0  0  0  0999 V2000
    4.4300   -0.7000    0.7270 C   0  0  2  0  0  0  0  0  0  0  0  0
   -5.3740   -5.1030    1.6920 O   0  0  0  0  0  0  0  0  0  0  0  0
    0.4460   -0.9710    2.1190 N   0  0  0  0  0  0  0  0  0  0  0  0
    4.7950   -0.4240   -0.4730 O   0  0  0  0  0  0  0  0  0  0  0  0
    0.1170    0.4410    0.3370 N   0  0  0  0  0  0  0  0  0  0  0  0
   -2.9150   -1.1100    3.2210 C   0  0  1  0  0  0  0  0  0  0  0  0
   -6.1100   -3.8450    1.3870 C   0  0  2  0  0  0  0  0  0  0  0  0
   -3.9760   -1.1750    2.2440 C   0  0  1  0  0  0  0  0  0  0  0  0
   -0.9290    0.5910    1.1850 C   0  0  1  0  0  0  0  0  0  0  0  0
   -6.2360   -4.0750   -0.1330 C   0  0  1  0  0  0  0  0  0  0  0  0
   -4.3980   -2.4400    2.0590 O   0  0  0  0  0  0  0  0  0  0  0  0
   -0.8160   -0.4130    2.1140 N   0  0  0  0  0  0  0  0  0  0  0  0
    3.7030    0.1760   -1.2290 C   0  0  1  0  0  0  0  0  0  0  0  0
   -6.1340   -5.6090   -2.1150 C   0  0  2  0  0  0  0  0  0  0  0  0
   -5.7860   -2.7900    2.3650 C   0  0  1  0  0  0  0  0  0  0  0  0
   -1.7490   -0.6870    3.2110 N   0  0  0  0  0  0  0  0  0  0  0  0
   -5.9570   -5.1780   -0.6080 C   0  0  1  0  0  0  0  0  0  0  0  0
    2.4350   -0.6770   -1.2480 C   0  0  2  0  0  0  0  0  0  0  0  0
   -4.7300   -5.4510   -1.4740 C   0  0  1  0  0  0  0  0  0  0  0  0
    1.3580   -0.1630   -2.1910 C   0  0  0  0  0  0  0  0  0  0  0  0
    2.0820   -1.0500    0.1720 C   0  0  2  0  0  0  0  0  0  0  0  0
   -5.8960   -6.0180    0.7230 C   0  0  2  0  0  0  0  0  0  0  0  0
    0.8910   -0.5240    0.8810 C   0  0  0  0  0  0  0  0  0  0  0  0
    3.1790   -1.5420    1.0040 C   0  0  1  0  0  0  0  0  0  0  0  0
    5.0262   -0.3252    1.5720 H   0  0  0  0  0  0  0  0  0  0  0  0
    5.0403   -1.6149    0.7022 H   0  0  0  0  0  0  0  0  0  0  0  0
    0.2868    0.9551   -0.5392 H   0  0  0  0  0  0  0  0  0  0  0  0
   -3.2067   -1.5308    4.1946 H   0  0  0  0  0  0  0  0  0  0  0  0
   -2.5586   -2.0999    2.8999 H   0  0  0  0  0  0  0  0  0  0  0  0
   -7.1025   -3.4079    1.5713 H   0  0  0  0  0  0  0  0  0  0  0  0
   -4.3876   -0.3014    1.7173 H   0  0  0  0  0  0  0  0  0  0  0  0
   -3.2319   -1.3063    1.4446 H   0  0  0  0  0  0  0  0  0  0  0  0
   -1.7117    1.3625    1.1383 H   0  0  0  0  0  0  0  0  0  0  0  0
   -1.5393   -0.0666    0.5485 H   0  0  0  0  0  0  0  0  0  0  0  0
   -6.5730   -3.2593   -0.7896 H   0  0  0  0  0  0  0  0  0  0  0  0
   -5.1929   -3.7529   -0.2682 H   0  0  0  0  0  0  0  0  0  0  0  0
    3.7836    1.1485   -1.7367 H   0  0  0  0  0  0  0  0  0  0  0  0
    4.0563   -0.3290   -2.1401 H   0  0  0  0  0  0  0  0  0  0  0  0
   -6.7749   -5.8453   -2.9772 H   0  0  0  0  0  0  0  0  0  0  0  0
   -6.1541   -6.6658   -1.8104 H   0  0  0  0  0  0  0  0  0  0  0  0
   -6.4363   -2.3648    3.1436 H   0  0  0  0  0  0  0  0  0  0  0  0
   -5.4368   -3.5548    3.0743 H   0  0  0  0  0  0  0  0  0  0  0  0
   -1.3653   -0.4922    4.1468 H   0  0  0  0  0  0  0  0  0  0  0  0
    2.6022   -1.6444   -1.7441 H   0  0  0  0  0  0  0  0  0  0  0  0
   -3.6356   -5.5003   -1.5727 H   0  0  0  0  0  0  0  0  0  0  0  0
   -4.7099   -4.3942   -1.7786 H   0  0  0  0  0  0  0  0  0  0  0  0
    0.5791    0.2087   -2.8730 H   0  0  0  0  0  0  0  0  0  0  0  0
    0.0000    0.0000    0.0000 H   0  0  0  0  0  0  0  0  0  0  0  0
    1.7196    0.8653   -2.0434 H   0  0  0  0  0  0  0  0  0  0  0  0
    1.4945   -1.9126   -0.1756 H   0  0  0  0  0  0  0  0  0  0  0  0
   -6.1879   -7.0679    0.8734 H   0  0  0  0  0  0  0  0  0  0  0  0
   -4.8734   -6.3379    0.4742 H   0  0  0  0  0  0  0  0  0  0  0  0
    3.1169   -2.3802    1.7136 H   0  0  0  0  0  0  0  0  0  0  0  0
    2.8863   -0.8444    1.8025 H   0  0  0  0  0  0  0  0  0  0  0  0
  1 24  1  0
  4  1  1  0
  5 23  1  0
  5  9  1  0
  7  2  1  0
  7 15  1  0
  8  6  1  0
  9 12  1  0
 10  7  1  0
 11  8  1  0
 11 15  1  0
 12  3  1  0
 12 16  1  0
 13  4  1  0
 14 19  1  0
 17 14  1  0
 16  6  1  0
 17 10  1  0
 17 22  1  1
 18 20  1  0
 18 13  1  0
 18 21  1  0
 19 17  1  0
 21 23  1  0
 21 24  1  0
 22  2  1  0
 23  3  2  0
  1 25  1  1
  1 26  1  0
  5 27  1  0
  6 28  1  1
  6 29  1  0
  7 30  1  1
  8 31  1  6
  8 32  1  0
  9 33  1  1
  9 34  1  0
 10 35  1  6
 10 36  1  0
 13 37  1  6
 13 38  1  0
 14 39  1  6
 14 40  1  0
 15 41  1  1
 15 42  1  0
 16 43  1  0
 18 44  1  6
 19 45  1  1
 19 46  1  0
 20 47  1  0
 20 48  1  0
 20 49  1  0
 21 50  1  6
 22 51  1  1
 22 52  1  0
 24 53  1  1
 24 54  1  0
M  END
$$$$

     RDKit          3D

 35 35  0  0  0  0  0  0  0  0999 V2000
   -2.4480   -0.6640    2.6800 C   0  0  0  0  0  0  0  0  0  0  0  0
   -5.9400   -3.2470    1.8730 C   0  0  1  0  0  0  0  0  0  0  0  0
   -5.5350   -5.7100   -3.3720 C   0  0  1  0  0  0  0  0  0  0  0  0
   -4.1390   -0.1070    1.4510 N   0  0  0  0  0  0  0  0  0  0  0  0
   -3.0000    0.3230    1.9710 O   0  0  0  0  0  0  0  0  0  0  0  0
   -5.3490   -7.9310   -2.5380 O   0  0  0  0  0  0  0  0  0  0  0  0
   -0.9990   -0.7580    3.2010 C   0  0  1  0  0  0  0  0  0  0  0  0
    0.0030    0.0620    2.6070 C   0  0  1  0  0  0  0  0  0  0  0  0
   -3.3270   -1.6010    2.9530 N   0  0  0  0  0  0  0  0  0  0  0  0
    1.0140   -0.8510    1.4400 S   0  0  0  0  0  0  0  0  0  0  0  0
   -4.6940   -6.8840   -2.7620 C   0  0  0  0  0  0  0  0  0  0  0  0
   -6.1870   -5.0400   -2.2980 O   0  0  0  0  0  0  0  0  0  0  0  0
   -5.6820   -4.9630    0.0440 C   0  0  1  0  0  0  0  0  0  0  0  0
   -6.6510   -4.0480    0.8260 C   0  0  2  0  0  0  0  0  0  0  0  0
   -6.3720   -5.6500   -1.0060 C   0  0  1  0  0  0  0  0  0  0  0  0
   -4.9130   -2.3990    1.3570 N   0  0  0  0  0  0  0  0  0  0  0  0
   -3.5110   -6.7730   -2.5800 O   0  0  0  0  0  0  0  0  0  0  0  0
   -4.2380   -1.3760    1.9130 C   0  0  0  0  0  0  0  0  0  0  0  0
   -6.1866   -3.3065    2.9433 H   0  0  0  0  0  0  0  0  0  0  0  0
   -5.2078   -4.0585    1.9966 H   0  0  0  0  0  0  0  0  0  0  0  0
   -5.6083   -5.4504   -4.4384 H   0  0  0  0  0  0  0  0  0  0  0  0
   -6.3988   -6.3831   -3.4765 H   0  0  0  0  0  0  0  0  0  0  0  0
   -5.8656   -8.7568   -2.3613 H   0  0  0  0  0  0  0  0  0  0  0  0
   -0.7434   -1.4478    4.0188 H   0  0  0  0  0  0  0  0  0  0  0  0
   -0.7865   -1.5493    2.4671 H   0  0  0  0  0  0  0  0  0  0  0  0
    0.1405    1.1289    2.8368 H   0  0  0  0  0  0  0  0  0  0  0  0
    0.6991   -0.2021    3.4167 H   0  0  0  0  0  0  0  0  0  0  0  0
    1.7862   -1.5483    0.5487 H   0  0  0  0  0  0  0  0  0  0  0  0
   -4.6097   -5.0717    0.2637 H   0  0  0  0  0  0  0  0  0  0  0  0
   -5.9070   -5.7903    0.7332 H   0  0  0  0  0  0  0  0  0  0  0  0
   -7.7331   -3.9917    0.6365 H   0  0  0  0  0  0  0  0  0  0  0  0
   -6.8209   -4.8524    1.5568 H   0  0  0  0  0  0  0  0  0  0  0  0
   -6.9810   -6.5514   -0.8428 H   0  0  0  0  0  0  0  0  0  0  0  0
   -5.4861   -6.2794   -1.1763 H   0  0  0  0  0  0  0  0  0  0  0  0
   -4.6403   -2.6077    0.3859 H   0  0  0  0  0  0  0  0  0  0  0  0
  1  9  2  0
  1  7  1  0
  3 11  1  0
  3 12  1  0
  4 18  2  0
  4  5  1  0
  5  1  1  0
  8  7  1  0
 10  8  1  0
 11 17  2  0
 11  6  1  0
 12 15  1  0
 13 14  1  0
 14  2  1  0
 15 13  1  0
 16  2  1  0
 16 18  1  0
 18  9  1  0
  2 19  1  1
  2 20  1  0
  3 21  1  6
  3 22  1  0
  6 23  1  0
  7 24  1  1
  7 25  1  0
  8 26  1  6
  8 27  1  0
 10 28  1  0
 13 29  1  6
 13 30  1  0
 14 31  1  6
 14 32  1  0
 15 33  1  1
 15 34  1  0
 16 35  1  0
M  END
$$$$

     RDKit          3D

 10  9  0  0  0  0  0  0  0  0999 V2000
   -7.6810   -2.9860    3.1030 O   0  0  0  0  0  0  0  0  0  0  0  0
   -5.5050   -3.7320    3.1660 C   0  0  0  0  0  0  0  0  0  0  0  0
   -4.6240   -2.6680    3.6900 O   0  0  0  0  0  0  0  0  0  0  0  0
   -6.5060   -3.0460    2.4900 C   0  0  0  0  0  0  0  0  0  0  0  0
   -5.3420   -4.7110    4.0600 C   0  0  0  0  0  0  0  0  0  0  0  0
   -6.2610   -2.2650    1.5920 O   0  0  0  0  0  0  0  0  0  0  0  0
   -8.5578   -2.9412    3.5604 H   0  0  0  0  0  0  0  0  0  0  0  0
   -4.0337   -1.9550    4.0411 H   0  0  0  0  0  0  0  0  0  0  0  0
   -5.2078   -5.5172    4.7962 H   0  0  0  0  0  0  0  0  0  0  0  0
    0.0000    0.0000    0.0000 H   0  0  0  0  0  0  0  0  0  0  0  0
  2  3  1  0
  2  5  2  0
  4  1  1  0
  4  2  1  0
  6  4  2  0
  1  7  1  0
  3  8  1  0
  5  9  1  0
  5 10  1  0
M  END
$$$$

     RDKit          3D

 24 24  0  0  0  0  0  0  0  0999 V2000
   -5.2000   -7.0020   -0.8590 C   0  0  1  0  0  0  0  0  0  0  0  0
   -4.8320   -6.1590    2.7480 O   0  0  0  0  0  0  0  0  0  0  0  0
   -6.6140   -5.1000   -0.1990 C   0  0  1  0  0  0  0  0  0  0  0  0
   -6.5700   -5.3660    1.1370 C   0  0  1  0  0  0  0  0  0  0  0  0
   -5.4930   -6.5350    1.7290 C   0  0  1  0  0  0  0  0  0  0  0  0
   -6.6000   -5.6190   -3.3670 O   0  0  0  0  0  0  0  0  0  0  0  0
   -7.0780   -6.2540   -2.1340 C   0  0  1  0  0  0  0  0  0  0  0  0
   -7.1050   -7.8190   -2.1860 O   0  0  0  0  0  0  0  0  0  0  0  0
   -6.5970   -4.3820    2.1030 O   0  0  0  0  0  0  0  0  0  0  0  0
   -4.9310   -7.1200    0.6910 C   0  0  1  0  0  0  0  0  0  0  0  0
   -6.1870   -6.1030   -1.1980 N   0  0  0  0  0  0  0  0  0  0  0  0
   -4.6457   -7.5886   -1.6065 H   0  0  0  0  0  0  0  0  0  0  0  0
   -5.9522   -7.8016   -0.7893 H   0  0  0  0  0  0  0  0  0  0  0  0
   -4.3173   -5.8662    3.5414 H   0  0  0  0  0  0  0  0  0  0  0  0
   -6.9747   -4.1188   -0.5412 H   0  0  0  0  0  0  0  0  0  0  0  0
   -5.5875   -4.7072   -0.1546 H   0  0  0  0  0  0  0  0  0  0  0  0
   -7.5932   -5.7511    1.0156 H   0  0  0  0  0  0  0  0  0  0  0  0
   -5.9766   -7.3746    2.2498 H   0  0  0  0  0  0  0  0  0  0  0  0
   -6.2774   -5.1905   -4.1991 H   0  0  0  0  0  0  0  0  0  0  0  0
   -8.0700   -5.8043   -1.9799 H   0  0  0  0  0  0  0  0  0  0  0  0
   -7.1221   -8.8083   -2.2189 H   0  0  0  0  0  0  0  0  0  0  0  0
   -6.6164   -3.6757    2.7964 H   0  0  0  0  0  0  0  0  0  0  0  0
   -4.1247   -7.8206    0.9538 H   0  0  0  0  0  0  0  0  0  0  0  0
   -4.1988   -6.3017    0.6262 H   0  0  0  0  0  0  0  0  0  0  0  0
  1 10  1  0
  3  4  1  0
  4  5  1  0
  4  9  1  0
  5  2  1  0
  6  7  1  0
  7 11  1  0
  8  7  1  0
 10  5  1  0
 11  1  1  0
 11  3  1  0
  1 12  1  6
  1 13  1  0
  2 14  1  0
  3 15  1  6
  3 16  1  0
  4 17  1  1
  5 18  1  1
  6 19  1  0
  7 20  1  1
  8 21  1  0
  9 22  1  0
 10 23  1  1
 10 24  1  0
M  END
$$$$

     RDKit          3D

 57 58  0  0  0  0  0  0  0  0999 V2000
   -7.1260   -2.2490    2.2130 O   0  0  0  0  0  0  0  0  0  0  0  0
   -5.6340   -9.0330   -3.0480 O   0  0  0  0  0  0  0  0  0  0  0  0
   -3.6100   -1.8650    3.2080 O   0  0  0  0  0  0  0  0  0  0  0  0
   -5.4400   -6.1500   -1.0940 O   0  0  0  0  0  0  0  0  0  0  0  0
   -6.5060   -6.0090   -0.2320 C   0  0  2  0  0  0  0  0  0  0  0  0
   -1.6200   -4.5340   -3.4400 O   0  0  0  0  0  0  0  0  0  0  0  0
    0.3180    0.0930    3.0710 C   0  0  2  0  0  0  0  0  0  0  0  0
   -5.1280   -8.0910   -3.2210 C   0  0  0  0  0  0  0  0  0  0  0  0
   -5.2620   -3.3970    1.3200 C   0  0  2  0  0  0  0  0  0  0  0  0
   -0.6750   -2.8340   -4.8480 O   0  0  0  0  0  0  0  0  0  0  0  0
   -3.8420   -1.5530    1.9170 C   0  0  0  0  0  0  0  0  0  0  0  0
   -1.6380   -1.6970    4.9930 C   0  0  2  0  0  0  0  0  0  0  0  0
   -5.5510   -4.0190    0.2210 O   0  0  0  0  0  0  0  0  0  0  0  0
   -1.8150   -1.0020    2.1940 C   0  0  0  0  0  0  0  0  0  0  0  0
   -0.5490   -4.0550   -4.3710 P   0  0  0  0  0  0  0  0  0  0  0  0
   -6.7050   -4.6790   -0.0260 C   0  0  1  0  0  0  0  0  0  0  0  0
   -3.8790   -6.0440   -3.6190 N   0  0  0  0  0  0  0  0  0  0  0  0
   -6.0840   -4.5760   -2.7150 O   0  0  0  0  0  0  0  0  0  0  0  0
   -1.4890   -5.9900   -3.4830 C   0  0  1  0  0  0  0  0  0  0  0  0
   -6.0900   -6.5880    0.8430 C   0  0  0  0  0  0  0  0  0  0  0  0
   -2.2220   -1.5480    3.5600 C   0  0  0  0  0  0  0  0  0  0  0  0
   -5.4220   -5.6740   -2.3210 C   0  0  0  0  0  0  0  0  0  0  0  0
   -2.8770   -6.6140   -3.7390 C   0  0  0  0  0  0  0  0  0  0  0  0
   -0.5160   -0.3610    1.8730 C   0  0  2  0  0  0  0  0  0  0  0  0
   -2.8560   -7.5340   -4.3890 O   0  0  0  0  0  0  0  0  0  0  0  0
   -0.4730   -0.9880    5.0330 O   0  0  0  0  0  0  0  0  0  0  0  0
   -5.6510   -2.0560    1.8630 C   0  0  2  0  0  0  0  0  0  0  0  0
   -5.1510   -6.6250   -3.5020 C   0  0  2  0  0  0  0  0  0  0  0  0
   -0.5250    0.5560    4.2560 C   0  0  1  0  0  0  0  0  0  0  0  0
    0.5520   -4.6760   -4.9600 O   0  0  0  0  0  0  0  0  0  0  0  0
    0.0420    1.3630    5.3510 C   0  0  0  0  0  0  0  0  0  0  0  0
   -2.7680   -0.9770    1.3030 N   0  0  0  0  0  0  0  0  0  0  0  0
   -8.0815   -2.3740    2.4397 H   0  0  0  0  0  0  0  0  0  0  0  0
   -7.4546   -6.4349   -0.5909 H   0  0  0  0  0  0  0  0  0  0  0  0
    1.4180    0.0866    3.0782 H   0  0  0  0  0  0  0  0  0  0  0  0
    0.3094   -0.9336    3.4660 H   0  0  0  0  0  0  0  0  0  0  0  0
   -4.0584   -8.3401   -3.1578 H   0  0  0  0  0  0  0  0  0  0  0  0
   -4.5989   -3.9670    1.9874 H   0  0  0  0  0  0  0  0  0  0  0  0
   -6.1394   -3.8484    1.8062 H   0  0  0  0  0  0  0  0  0  0  0  0
   -2.0819   -2.2684    5.8215 H   0  0  0  0  0  0  0  0  0  0  0  0
   -2.1932   -0.8027    5.3123 H   0  0  0  0  0  0  0  0  0  0  0  0
   -7.6926   -4.1955   -0.0569 H   0  0  0  0  0  0  0  0  0  0  0  0
   -6.8295   -4.8645    1.0511 H   0  0  0  0  0  0  0  0  0  0  0  0
   -3.8314   -5.0154   -3.5961 H   0  0  0  0  0  0  0  0  0  0  0  0
   -0.5514   -6.5505   -3.3536 H   0  0  0  0  0  0  0  0  0  0  0  0
   -1.6674   -6.0381   -2.3986 H   0  0  0  0  0  0  0  0  0  0  0  0
   -5.7353   -7.0817    1.7597 H   0  0  0  0  0  0  0  0  0  0  0  0
    0.0000    0.0000    0.0000 H   0  0  0  0  0  0  0  0  0  0  0  0
   -6.7254   -5.9234    1.4468 H   0  0  0  0  0  0  0  0  0  0  0  0
   -0.1741   -0.2211    0.8369 H   0  0  0  0  0  0  0  0  0  0  0  0
   -1.0085    0.6221    1.8433 H   0  0  0  0  0  0  0  0  0  0  0  0
   -6.0036   -1.0240    2.0063 H   0  0  0  0  0  0  0  0  0  0  0  0
   -5.8656   -6.6723   -4.3370 H   0  0  0  0  0  0  0  0  0  0  0  0
   -1.3854    1.1330    3.8860 H   0  0  0  0  0  0  0  0  0  0  0  0
    0.4652    1.9654    6.1683 H   0  0  0  0  0  0  0  0  0  0  0  0
    0.0000    0.0000    0.0000 H   0  0  0  0  0  0  0  0  0  0  0  0
   -0.7019    2.1496    5.1565 H   0  0  0  0  0  0  0  0  0  0  0  0
  3 21  1  0
  4  5  1  0
  5 16  1  0
  5 20  1  0
  7 29  1  0
  8  2  2  0
  9 27  1  0
 10 15  2  0
 11  3  1  0
 12 26  1  0
 13  9  1  0
 14 21  2  0
 15  6  1  0
 16 13  1  0
 17 28  1  0
 18 22  2  0
 19  6  1  0
 21 12  1  0
 22  4  1  0
 23 17  1  0
 23 19  1  0
 24 14  1  0
 24  7  1  0
 25 23  2  0
 27 11  1  0
 27  1  1  0
 28  8  1  0
 28 22  1  0
 29 26  1  0
 29 31  1  0
 30 15  2  0
 32 11  2  0
 32 14  1  0
  1 33  1  0
  5 34  1  6
  7 35  1  6
  7 36  1  0
  8 37  1  0
  9 38  1  1
  9 39  1  0
 12 40  1  1
 12 41  1  0
 16 42  1  6
 16 43  1  0
 17 44  1  0
 19 45  1  1
 19 46  1  0
 20 47  1  0
 20 48  1  0
 20 49  1  0
 24 50  1  6
 24 51  1  0
 27 52  1  6
 28 53  1  6
 29 54  1  6
 31 55  1  0
 31 56  1  0
 31 57  1  0
M  END
$$$$

     RDKit          3D

 21 21  0  0  0  0  0  0  0  0999 V2000
   -5.9820   -5.7240    0.2200 F   0  0  0  0  0  0  0  0  0  0  0  0
   -7.6530   -4.4830   -0.9640 C   0  0  2  0  0  0  0  0  0  0  0  0
   -6.8350   -4.6620   -3.1430 C   0  0  0  0  0  0  0  0  0  0  0  0
   -5.8820   -5.8590   -1.5010 C   0  0  1  0  0  0  0  0  0  0  0  0
   -5.7470   -5.4020   -2.7680 C   0  0  0  0  0  0  0  0  0  0  0  0
   -4.8600   -7.0770   -4.4330 O   0  0  0  0  0  0  0  0  0  0  0  0
   -7.8390   -4.2720   -2.3230 C   0  0  2  0  0  0  0  0  0  0  0  0
   -5.3520   -6.8960   -1.1640 F   0  0  0  0  0  0  0  0  0  0  0  0
   -4.4970   -5.7830   -3.8330 P   0  0  2  0  0  0  0  0  0  0  0  0
   -3.2930   -5.5370   -3.0450 O   0  0  0  0  0  0  0  0  0  0  0  0
   -6.5770   -5.3120   -0.6790 C   0  0  1  0  0  0  0  0  0  0  0  0
   -4.6790   -4.7480   -4.9510 O   0  0  0  0  0  0  0  0  0  0  0  0
   -8.2947   -4.0374   -0.1896 H   0  0  0  0  0  0  0  0  0  0  0  0
   -6.9898   -3.6066   -0.9187 H   0  0  0  0  0  0  0  0  0  0  0  0
   -6.8992   -4.3588   -4.1984 H   0  0  0  0  0  0  0  0  0  0  0  0
   -6.7543   -6.4226   -1.8635 H   0  0  0  0  0  0  0  0  0  0  0  0
   -5.1042   -7.9474   -4.8366 H   0  0  0  0  0  0  0  0  0  0  0  0
   -8.7574   -3.8104   -2.7147 H   0  0  0  0  0  0  0  0  0  0  0  0
   -8.2999   -5.2666   -2.4143 H   0  0  0  0  0  0  0  0  0  0  0  0
   -2.4765   -5.3702   -2.5106 H   0  0  0  0  0  0  0  0  0  0  0  0
   -7.2500   -6.1821   -0.6690 H   0  0  0  0  0  0  0  0  0  0  0  0
  2 11  1  0
  3  5  2  0
  3  7  1  0
  4  8  1  0
  4 11  1  0
  5  4  1  0
  9  6  1  6
  7  2  1  0
  9 10  1  0
  9  5  1  0
 11  1  1  0
 12  9  2  0
  2 13  1  1
  2 14  1  0
  3 15  1  0
  4 16  1  6
  6 17  1  0
  7 18  1  1
  7 19  1  0
 10 20  1  0
 11 21  1  1
M  END
$$$$

     RDKit          3D

 30 29  0  0  0  0  0  0  0  0999 V2000
   -3.4720   -1.8330    1.9700 O   0  0  0  0  0  0  0  0  0  0  0  0
   -6.4280   -4.9170    0.2330 C   0  0  1  0  0  0  0  0  0  0  0  0
   -6.2410   -5.5720   -0.9270 C   0  0  1  0  0  0  0  0  0  0  0  0
   -3.3720   -5.3350   -3.0980 O   0  0  0  0  0  0  0  0  0  0  0  0
   -4.5110   -2.6970    3.9540 C   0  0  1  0  0  0  0  0  0  0  0  0
   -5.6500   -3.2070    3.0320 C   0  0  2  0  0  0  0  0  0  0  0  0
   -4.5140   -6.1020   -2.5240 C   0  0  1  0  0  0  0  0  0  0  0  0
   -3.6660   -1.6190    3.3670 C   0  0  1  0  0  0  0  0  0  0  0  0
   -4.9050   -5.5300   -1.2880 O   0  0  0  0  0  0  0  0  0  0  0  0
   -8.5880   -4.8610    1.2090 O   0  0  0  0  0  0  0  0  0  0  0  0
   -5.7690   -3.8150    0.7380 O   0  0  0  0  0  0  0  0  0  0  0  0
   -5.2280   -4.5760    3.1340 O   0  0  0  0  0  0  0  0  0  0  0  0
   -7.6740   -5.0540    0.8380 O   0  0  0  0  0  0  0  0  0  0  0  0
   -6.4840   -3.0800    1.7210 C   0  0  2  0  0  0  0  0  0  0  0  0
   -3.3374   -1.9815    1.0005 H   0  0  0  0  0  0  0  0  0  0  0  0
   -5.5679   -5.5758    0.4233 H   0  0  0  0  0  0  0  0  0  0  0  0
   -7.0343   -6.0688   -1.5048 H   0  0  0  0  0  0  0  0  0  0  0  0
   -6.4204   -4.6396   -1.4824 H   0  0  0  0  0  0  0  0  0  0  0  0
   -2.6135   -4.8256   -3.4792 H   0  0  0  0  0  0  0  0  0  0  0  0
   -4.3404   -3.1001    4.9632 H   0  0  0  0  0  0  0  0  0  0  0  0
   -3.8331   -3.4559    3.5363 H   0  0  0  0  0  0  0  0  0  0  0  0
   -6.3690   -2.4149    3.2883 H   0  0  0  0  0  0  0  0  0  0  0  0
   -4.9832   -6.9809   -2.9903 H   0  0  0  0  0  0  0  0  0  0  0  0
   -3.8073   -6.7593   -1.9963 H   0  0  0  0  0  0  0  0  0  0  0  0
   -3.2487   -0.7735    3.9336 H   0  0  0  0  0  0  0  0  0  0  0  0
   -4.5688   -1.0288    3.1512 H   0  0  0  0  0  0  0  0  0  0  0  0
   -9.4882   -4.6709    1.5744 H   0  0  0  0  0  0  0  0  0  0  0  0
   -4.9371   -5.5197    3.2043 H   0  0  0  0  0  0  0  0  0  0  0  0
   -7.4296   -2.5346    1.5854 H   0  0  0  0  0  0  0  0  0  0  0  0
   -7.0456   -3.9867    1.9904 H   0  0  0  0  0  0  0  0  0  0  0  0
  1  8  1  0
  2  3  1  0
  2 11  1  0
  2 13  1  0
  4  7  1  0
  6 12  1  0
  6  5  1  0
  7  9  1  0
  8  5  1  0
  9  3  1  0
 11 14  1  0
 13 10  1  0
 14  6  1  0
  1 15  1  0
  2 16  1  1
  3 17  1  6
  3 18  1  0
  4 19  1  0
  5 20  1  1
  5 21  1  0
  6 22  1  1
  7 23  1  6
  7 24  1  0
  8 25  1  1
  8 26  1  0
 10 27  1  0
 12 28  1  0
 14 29  1  6
 14 30  1  0
M  END
$$$$

     RDKit          3D

 38 39  0  0  0  0  0  0  0  0999 V2000
   -0.2360   -1.6040   -1.3890 C   0  0  1  0  0  0  0  0  0  0  0  0
   -0.3030   -5.4990   -2.1790 O   0  0  0  0  0  0  0  0  0  0  0  0
   -5.4220   -5.6810   -1.4780 C   0  0  2  0  0  0  0  0  0  0  0  0
    1.9960   -1.5780   -1.0050 C   0  0  1  0  0  0  0  0  0  0  0  0
    1.5940   -3.0300   -1.4380 C   0  0  1  0  0  0  0  0  0  0  0  0
    0.0710   -2.8120   -1.8390 C   0  0  0  0  0  0  0  0  0  0  0  0
   -6.2620   -5.0290   -2.4890 C   0  0  1  0  0  0  0  0  0  0  0  0
    0.0130   -0.5340   -1.5530 C   0  0  1  0  0  0  0  0  0  0  0  0
    1.7800   -0.5430   -1.2800 C   0  0  2  0  0  0  0  0  0  0  0  0
   -4.8910   -5.1090   -2.8570 N   0  0  0  0  0  0  0  0  0  0  0  0
   -2.7330   -5.5690   -4.2380 C   0  0  1  0  0  0  0  0  0  0  0  0
   -5.1250   -7.7020   -0.0580 O   0  0  0  0  0  0  0  0  0  0  0  0
   -2.5210   -4.9960   -2.7750 N   0  0  0  0  0  0  0  0  0  0  0  0
   -1.0000   -4.6820   -2.9740 C   0  0  1  0  0  0  0  0  0  0  0  0
   -0.9210   -3.4140   -2.4420 N   0  0  0  0  0  0  0  0  0  0  0  0
   -5.3080   -7.3190   -1.4900 C   0  0  1  0  0  0  0  0  0  0  0  0
   -4.4610   -5.4360   -4.4840 S   0  0  0  0  0  0  0  0  0  0  0  0
   -0.9853   -1.6890   -0.5881 H   0  0  0  0  0  0  0  0  0  0  0  0
    0.5693   -1.6771   -0.6433 H   0  0  0  0  0  0  0  0  0  0  0  0
    0.2134   -6.1043   -1.5900 H   0  0  0  0  0  0  0  0  0  0  0  0
   -5.3056   -5.5478   -0.3923 H   0  0  0  0  0  0  0  0  0  0  0  0
    2.7130   -1.6114   -0.1715 H   0  0  0  0  0  0  0  0  0  0  0  0
    2.8295   -1.5947   -1.7227 H   0  0  0  0  0  0  0  0  0  0  0  0
    2.1996   -3.9480   -1.4587 H   0  0  0  0  0  0  0  0  0  0  0  0
    1.2899   -3.2539   -0.4048 H   0  0  0  0  0  0  0  0  0  0  0  0
   -7.2727   -4.6997   -2.7719 H   0  0  0  0  0  0  0  0  0  0  0  0
   -6.0775   -4.0543   -2.0137 H   0  0  0  0  0  0  0  0  0  0  0  0
   -0.6491    0.3050   -1.8132 H   0  0  0  0  0  0  0  0  0  0  0  0
   -0.1511   -0.3320   -0.4842 H   0  0  0  0  0  0  0  0  0  0  0  0
    2.4847    0.2970   -1.3683 H   0  0  0  0  0  0  0  0  0  0  0  0
    1.6176   -0.2954   -0.2206 H   0  0  0  0  0  0  0  0  0  0  0  0
   -1.9744   -5.9578   -4.9333 H   0  0  0  0  0  0  0  0  0  0  0  0
   -2.8698   -6.5784   -3.8228 H   0  0  0  0  0  0  0  0  0  0  0  0
   -5.0037   -7.9559    0.8912 H   0  0  0  0  0  0  0  0  0  0  0  0
   -3.1588   -4.8735   -1.9756 H   0  0  0  0  0  0  0  0  0  0  0  0
   -0.6344   -4.7832   -4.0065 H   0  0  0  0  0  0  0  0  0  0  0  0
   -5.3559   -7.9879   -2.3619 H   0  0  0  0  0  0  0  0  0  0  0  0
   -4.2171   -7.2422   -1.6089 H   0  0  0  0  0  0  0  0  0  0  0  0
  3 16  1  0
  5  4  1  0
  6  5  1  0
  6  1  1  0
  7  3  1  0
  8  1  1  0
  8  9  1  0
  9  4  1  0
 10  7  1  0
 10  3  1  0
 11 13  1  0
 14 13  1  0
 14 15  1  0
 14  2  1  0
 15  6  2  3
 16 12  1  0
 17 11  1  0
 17 10  1  0
  1 18  1  1
  1 19  1  0
  2 20  1  0
  3 21  1  1
  4 22  1  1
  4 23  1  0
  5 24  1  6
  5 25  1  0
  7 26  1  6
  7 27  1  0
  8 28  1  6
  8 29  1  0
  9 30  1  6
  9 31  1  0
 11 32  1  6
 11 33  1  0
 12 34  1  0
 13 35  1  0
 14 36  1  6
 16 37  1  6
 16 38  1  0
M  END
$$$$

     RDKit          3D

 13 12  0  0  0  0  0  0  0  0999 V2000
   -6.4890   -4.4410    0.6240 C   0  0  1  0  0  0  0  0  0  0  0  0
   -6.9820   -2.3840    1.7250 O   0  0  0  0  0  0  0  0  0  0  0  0
   -5.8240   -5.5300    1.0510 C   0  0  1  0  0  0  0  0  0  0  0  0
   -6.8870   -3.7430    1.8590 C   0  0  1  0  0  0  0  0  0  0  0  0
   -5.0630   -6.3130    0.1370 O   0  0  0  0  0  0  0  0  0  0  0  0
   -6.6904   -4.1394   -0.4145 H   0  0  0  0  0  0  0  0  0  0  0  0
   -7.4307   -5.0092    0.6416 H   0  0  0  0  0  0  0  0  0  0  0  0
   -7.0507   -1.4012    1.6281 H   0  0  0  0  0  0  0  0  0  0  0  0
   -5.8685   -5.8170    2.1120 H   0  0  0  0  0  0  0  0  0  0  0  0
   -6.7088   -6.1506    0.8460 H   0  0  0  0  0  0  0  0  0  0  0  0
   -7.0898   -4.2673    2.8045 H   0  0  0  0  0  0  0  0  0  0  0  0
   -5.8290   -3.6411    2.1424 H   0  0  0  0  0  0  0  0  0  0  0  0
   -4.5339   -6.8574   -0.4985 H   0  0  0  0  0  0  0  0  0  0  0  0
  1  3  1  0
  1  4  1  0
  2  4  1  0
  5  3  1  0
  1  6  1  6
  1  7  1  0
  2  8  1  0
  3  9  1  1
  3 10  1  0
  4 11  1  1
  4 12  1  0
  5 13  1  0
M  END
$$$$

     RDKit          3D

 23 22  0  0  0  0  0  0  0  0999 V2000
   -5.9930   -3.3000    2.9800 C   0  0  1  0  0  0  0  0  0  0  0  0
   -6.4800   -4.9770   -1.6050 C   0  0  2  0  0  0  0  0  0  0  0  0
   -6.0060   -4.1600    0.5540 C   0  0  1  0  0  0  0  0  0  0  0  0
   -6.6170   -3.9260    1.9370 C   0  0  2  0  0  0  0  0  0  0  0  0
   -5.5960   -1.9110    2.9350 C   0  0  0  0  0  0  0  0  0  0  0  0
   -5.1740   -5.7500   -1.6610 C   0  0  0  0  0  0  0  0  0  0  0  0
   -6.5660   -5.3230   -0.1500 C   0  0  1  0  0  0  0  0  0  0  0  0
   -5.3930   -1.2200    1.8240 O   0  0  0  0  0  0  0  0  0  0  0  0
   -5.4220   -1.1030    4.1040 O   0  0  0  0  0  0  0  0  0  0  0  0
   -5.7842   -3.8781    3.8923 H   0  0  0  0  0  0  0  0  0  0  0  0
   -5.0149   -3.5928    2.5706 H   0  0  0  0  0  0  0  0  0  0  0  0
   -7.0944   -4.4105   -2.3203 H   0  0  0  0  0  0  0  0  0  0  0  0
   -5.9265   -4.0601   -1.3542 H   0  0  0  0  0  0  0  0  0  0  0  0
   -5.2214   -3.5184    0.1265 H   0  0  0  0  0  0  0  0  0  0  0  0
   -5.2351   -4.8032    1.0034 H   0  0  0  0  0  0  0  0  0  0  0  0
   -7.6409   -4.2909    2.1058 H   0  0  0  0  0  0  0  0  0  0  0  0
   -6.2166   -4.8923    2.2774 H   0  0  0  0  0  0  0  0  0  0  0  0
   -4.2280   -6.3099   -1.7016 H   0  0  0  0  0  0  0  0  0  0  0  0
    0.0000    0.0000    0.0000 H   0  0  0  0  0  0  0  0  0  0  0  0
   -5.2636   -5.9791   -0.5889 H   0  0  0  0  0  0  0  0  0  0  0  0
   -6.9624   -6.2474    0.2954 H   0  0  0  0  0  0  0  0  0  0  0  0
   -5.5647   -5.7758   -0.1985 H   0  0  0  0  0  0  0  0  0  0  0  0
   -5.3017   -0.5443    4.9124 H   0  0  0  0  0  0  0  0  0  0  0  0
  2  7  1  0
  3  4  1  0
  4  1  1  0
  5  1  1  0
  5  9  1  0
  6  2  1  0
  7  3  1  0
  8  5  2  0
  1 10  1  1
  1 11  1  0
  2 12  1  6
  2 13  1  0
  3 14  1  6
  3 15  1  0
  4 16  1  6
  4 17  1  0
  6 18  1  0
  6 19  1  0
  6 20  1  0
  7 21  1  1
  7 22  1  0
  9 23  1  0
M  END
$$$$

     RDKit          3D

 66 67  0  0  0  0  0  0  0  0999 V2000
    3.2910   -0.1640   -4.2470 O   0  0  0  0  0  0  0  0  0  0  0  0
    0.3960   -2.0710   -2.3920 O   0  0  0  0  0  0  0  0  0  0  0  0
   -8.2300   -5.6810    1.0840 N   0  0  0  0  0  0  0  0  0  0  0  0
  -10.3190   -6.2990    0.4740 C   0  0  0  0  0  0  0  0  0  0  0  0
   -4.4200   -1.0200    2.3570 C   0  0  1  0  0  0  0  0  0  0  0  0
   -6.5660   -7.1280   -0.4540 S   0  0  0  0  0  0  0  0  0  0  0  0
    2.3750   -2.2040   -3.4170 C   0  0  2  0  0  0  0  0  0  0  0  0
    4.4730   -3.1200   -3.5430 N   0  0  0  0  0  0  0  0  0  0  0  0
    0.0260   -1.0180   -0.5300 C   0  0  0  0  0  0  0  0  0  0  0  0
   -0.7940   -0.5960    1.8330 C   0  0  1  0  0  0  0  0  0  0  0  0
    0.3140   -0.7160   -2.0150 C   0  0  1  0  0  0  0  0  0  0  0  0
   -8.5140   -6.6730   -1.4680 C   0  0  0  0  0  0  0  0  0  0  0  0
  -10.4690   -6.8450    1.7690 C   0  0  1  0  0  0  0  0  0  0  0  0
   -5.8370   -4.5550    2.6340 O   0  0  0  0  0  0  0  0  0  0  0  0
   -3.0980   -0.4830    2.9230 C   0  0  0  0  0  0  0  0  0  0  0  0
    1.3420   -2.9820   -2.8210 C   0  0  0  0  0  0  0  0  0  0  0  0
   -9.3320   -7.0240    2.6150 C   0  0  1  0  0  0  0  0  0  0  0  0
   -2.2750   -0.4710    1.8430 N   0  0  0  0  0  0  0  0  0  0  0  0
   -8.2840   -6.9050   -0.0190 C   0  0  2  0  0  0  0  0  0  0  0  0
   -4.3890   -2.2640    1.7330 O   0  0  0  0  0  0  0  0  0  0  0  0
   -8.1130   -6.1580    2.2440 C   0  0  1  0  0  0  0  0  0  0  0  0
    1.9300   -1.0270   -4.2320 C   0  0  1  0  0  0  0  0  0  0  0  0
    1.1390   -4.1690   -2.5670 N   0  0  0  0  0  0  0  0  0  0  0  0
    1.1860   -0.7590   -3.2430 C   0  0  2  0  0  0  0  0  0  0  0  0
    3.3850   -2.8430   -4.2320 C   0  0  0  0  0  0  0  0  0  0  0  0
   -6.1540   -5.4310   -0.3170 C   0  0  1  0  0  0  0  0  0  0  0  0
   -7.0200   -4.8520    0.6560 C   0  0  2  0  0  0  0  0  0  0  0  0
   -0.2150   -0.4080    0.4810 C   0  0  0  0  0  0  0  0  0  0  0  0
   -5.6070   -2.8490    1.3900 N   0  0  0  0  0  0  0  0  0  0  0  0
   -2.8240   -0.3230    4.0380 O   0  0  0  0  0  0  0  0  0  0  0  0
   -6.0620   -4.0160    1.6600 C   0  0  0  0  0  0  0  0  0  0  0  0
  -11.7330   -6.8830    2.2710 O   0  0  0  0  0  0  0  0  0  0  0  0
    3.2730   -3.0150   -5.4420 O   0  0  0  0  0  0  0  0  0  0  0  0
    4.1270    0.3661   -4.2562 H   0  0  0  0  0  0  0  0  0  0  0  0
  -10.2023   -5.8741   -0.5339 H   0  0  0  0  0  0  0  0  0  0  0  0
    0.0000    0.0000    0.0000 H   0  0  0  0  0  0  0  0  0  0  0  0
   -9.7813   -7.2039    0.1547 H   0  0  0  0  0  0  0  0  0  0  0  0
   -5.3540   -0.4451    2.4411 H   0  0  0  0  0  0  0  0  0  0  0  0
   -4.2062   -0.5320    1.3947 H   0  0  0  0  0  0  0  0  0  0  0  0
    2.8277   -1.9204   -2.4554 H   0  0  0  0  0  0  0  0  0  0  0  0
    5.3237   -3.3366   -3.0043 H   0  0  0  0  0  0  0  0  0  0  0  0
    0.0000    0.0000    0.0000 H   0  0  0  0  0  0  0  0  0  0  0  0
    0.0465   -2.1011   -0.3390 H   0  0  0  0  0  0  0  0  0  0  0  0
   -0.1932   -0.8051    2.7304 H   0  0  0  0  0  0  0  0  0  0  0  0
   -0.8864   -1.6756    1.6433 H   0  0  0  0  0  0  0  0  0  0  0  0
   -0.0746    0.3078   -1.9115 H   0  0  0  0  0  0  0  0  0  0  0  0
   -8.6843   -6.5012   -2.5411 H   0  0  0  0  0  0  0  0  0  0  0  0
    0.0000    0.0000    0.0000 H   0  0  0  0  0  0  0  0  0  0  0  0
   -7.8265   -7.4971   -1.7091 H   0  0  0  0  0  0  0  0  0  0  0  0
  -10.3450   -7.9182    1.5620 H   0  0  0  0  0  0  0  0  0  0  0  0
   -9.3272   -7.7241    3.4634 H   0  0  0  0  0  0  0  0  0  0  0  0
   -8.9657   -7.8230    1.9536 H   0  0  0  0  0  0  0  0  0  0  0  0
   -2.7294   -0.3628    0.9250 H   0  0  0  0  0  0  0  0  0  0  0  0
   -9.0128   -7.5766    0.4583 H   0  0  0  0  0  0  0  0  0  0  0  0
   -7.2527   -5.9795    2.9058 H   0  0  0  0  0  0  0  0  0  0  0  0
   -8.6160   -5.2721    2.6590 H   0  0  0  0  0  0  0  0  0  0  0  0
    1.5033   -0.9978   -5.2455 H   0  0  0  0  0  0  0  0  0  0  0  0
    0.9691   -5.1624   -2.3544 H   0  0  0  0  0  0  0  0  0  0  0  0
    1.1340    0.3213   -3.4435 H   0  0  0  0  0  0  0  0  0  0  0  0
    0.2959   -0.9181   -3.8695 H   0  0  0  0  0  0  0  0  0  0  0  0
   -5.3683   -4.9065   -0.8805 H   0  0  0  0  0  0  0  0  0  0  0  0
   -6.8809   -5.1908   -1.1069 H   0  0  0  0  0  0  0  0  0  0  0  0
   -7.7277   -4.0994    0.2782 H   0  0  0  0  0  0  0  0  0  0  0  0
    0.1001    0.6390    0.3604 H   0  0  0  0  0  0  0  0  0  0  0  0
   -6.2370   -2.2523    0.8351 H   0  0  0  0  0  0  0  0  0  0  0  0
  -12.6527   -6.9107    2.6363 H   0  0  0  0  0  0  0  0  0  0  0  0
  2 11  1  0
  3 21  1  0
  5 15  1  0
  6 26  1  0
  6 19  1  0
  7 25  1  0
  7 16  1  0
  9 28  2  3
 10 18  1  0
 11  9  1  0
 13  4  1  0
 13 32  1  0
 13 17  1  0
 15 30  2  0
 16 23  2  3
 16  2  1  0
 18 15  1  0
 19 12  1  0
 19  3  1  0
 20  5  1  0
 21 17  1  0
 22  1  1  0
 22  7  1  0
 22 24  1  0
 24 11  1  0
 25  8  1  0
 26 27  1  0
 27  3  1  0
 27 31  1  0
 28 10  1  0
 29 31  1  0
 29 20  1  0
 31 14  2  0
 33 25  2  0
  1 34  1  0
  4 35  1  0
  4 36  1  0
  4 37  1  0
  5 38  1  1
  5 39  1  0
  7 40  1  1
  8 41  1  0
  8 42  1  0
  9 43  1  0
 10 44  1  1
 10 45  1  0
 11 46  1  6
 12 47  1  0
 12 48  1  0
 12 49  1  0
 13 50  1  6
 17 51  1  1
 17 52  1  0
 18 53  1  0
 19 54  1  1
 21 55  1  1
 21 56  1  0
 22 57  1  6
 23 58  1  0
 24 59  1  6
 24 60  1  0
 26 61  1  6
 26 62  1  0
 27 63  1  6
 28 64  1  0
 29 65  1  0
 32 66  1  0
M  END
$$$$

     RDKit          3D

 23 22  0  0  0  0  0  0  0  0999 V2000
   -4.9080   -1.7620    2.5910 C   0  0  2  0  0  0  0  0  0  0  0  0
   -6.2030   -1.5590    3.1000 O   0  0  0  0  0  0  0  0  0  0  0  0
    0.5100   -0.3110    1.6310 C   0  0  0  0  0  0  0  0  0  0  0  0
   -0.8190   -0.6660    1.7120 C   0  0  0  0  0  0  0  0  0  0  0  0
    1.1610    1.4720    0.0850 O   0  0  0  0  0  0  0  0  0  0  0  0
    2.7020   -0.5440    0.2310 O   0  0  0  0  0  0  0  0  0  0  0  0
   -3.8510   -0.8630    3.0940 C   0  0  1  0  0  0  0  0  0  0  0  0
   -1.5070   -1.1950    2.8710 C   0  0  1  0  0  0  0  0  0  0  0  0
   -2.8180   -1.4710    2.3230 N   0  0  0  0  0  0  0  0  0  0  0  0
    1.1950   -0.0400    0.2740 P   0  0  1  0  0  0  0  0  0  0  0  0
    0.5270   -0.6930   -0.9210 O   0  0  0  0  0  0  0  0  0  0  0  0
   -4.6936   -2.5510    1.8551 H   0  0  0  0  0  0  0  0  0  0  0  0
   -4.6972   -2.4672    3.4085 H   0  0  0  0  0  0  0  0  0  0  0  0
   -7.1147   -1.4161    3.4584 H   0  0  0  0  0  0  0  0  0  0  0  0
    1.0976   -0.2184    2.5563 H   0  0  0  0  0  0  0  0  0  0  0  0
   -1.4203   -0.5336    0.8005 H   0  0  0  0  0  0  0  0  0  0  0  0
    1.1389    2.4541   -0.0378 H   0  0  0  0  0  0  0  0  0  0  0  0
    3.6405   -0.8579    0.2042 H   0  0  0  0  0  0  0  0  0  0  0  0
   -3.8580   -0.0255    3.8071 H   0  0  0  0  0  0  0  0  0  0  0  0
   -3.6479   -1.5628    3.9180 H   0  0  0  0  0  0  0  0  0  0  0  0
   -1.1333   -1.3466    3.8944 H   0  0  0  0  0  0  0  0  0  0  0  0
   -1.8334   -0.1797    3.1406 H   0  0  0  0  0  0  0  0  0  0  0  0
   -2.9840   -2.0376    1.4790 H   0  0  0  0  0  0  0  0  0  0  0  0
  1  7  1  0
  1  2  1  0
  3  4  2  3
  4  8  1  0
 10  5  1  6
  6 10  1  0
  9  8  1  0
  9  7  1  0
 10  3  1  0
 11 10  2  0
  1 12  1  6
  1 13  1  0
  2 14  1  0
  3 15  1  0
  4 16  1  0
  5 17  1  0
  6 18  1  0
  7 19  1  1
  7 20  1  0
  8 21  1  1
  8 22  1  0
  9 23  1  0
M  END
$$$$

     RDKit          3D

 32 32  0  0  0  0  0  0  0  0999 V2000
    1.4110    0.2960   -0.8070 C   0  0  2  0  0  0  0  0  0  0  0  0
   -2.1370   -0.9620    2.6580 O   0  0  0  0  0  0  0  0  0  0  0  0
   -4.6240   -2.4230    1.4110 O   0  0  0  0  0  0  0  0  0  0  0  0
    0.1750   -0.5180    1.4000 C   0  0  1  0  0  0  0  0  0  0  0  0
    0.1800   -0.4290    2.8330 C   0  0  1  0  0  0  0  0  0  0  0  0
   -0.9420   -1.3380    3.3300 C   0  0  1  0  0  0  0  0  0  0  0  0
    1.4640   -0.3300    0.5710 C   0  0  2  0  0  0  0  0  0  0  0  0
   -3.3700   -1.3640    3.2250 C   0  0  1  0  0  0  0  0  0  0  0  0
    2.9550   -0.3240    1.0930 C   0  0  1  0  0  0  0  0  0  0  0  0
    2.6520    1.4860   -0.3580 C   0  0  1  0  0  0  0  0  0  0  0  0
    3.4760    0.7070    0.1140 C   0  0  2  0  0  0  0  0  0  0  0  0
   -4.4670   -1.2730    2.2160 C   0  0  1  0  0  0  0  0  0  0  0  0
    0.8341    0.0944   -1.7216 H   0  0  0  0  0  0  0  0  0  0  0  0
    2.1963   -0.3934   -1.1504 H   0  0  0  0  0  0  0  0  0  0  0  0
   -4.7340   -3.2290    0.8468 H   0  0  0  0  0  0  0  0  0  0  0  0
   -0.7715   -0.7255    0.8793 H   0  0  0  0  0  0  0  0  0  0  0  0
   -0.0251    0.5616    1.3336 H   0  0  0  0  0  0  0  0  0  0  0  0
    0.8592    0.1757    3.4519 H   0  0  0  0  0  0  0  0  0  0  0  0
   -0.5250    0.4139    2.7831 H   0  0  0  0  0  0  0  0  0  0  0  0
   -0.8431   -2.1409    4.0754 H   0  0  0  0  0  0  0  0  0  0  0  0
   -0.7163   -2.0554    2.5273 H   0  0  0  0  0  0  0  0  0  0  0  0
    1.1992   -1.3867    0.7233 H   0  0  0  0  0  0  0  0  0  0  0  0
   -3.5019   -1.6973    4.2650 H   0  0  0  0  0  0  0  0  0  0  0  0
   -3.5668   -0.3264    3.5326 H   0  0  0  0  0  0  0  0  0  0  0  0
    3.4505   -0.8834    1.9002 H   0  0  0  0  0  0  0  0  0  0  0  0
    3.2068   -1.1255    0.3829 H   0  0  0  0  0  0  0  0  0  0  0  0
    2.6751    2.5802   -0.4684 H   0  0  0  0  0  0  0  0  0  0  0  0
    2.1880    1.5958    0.6333 H   0  0  0  0  0  0  0  0  0  0  0  0
    4.5400    0.7559   -0.1609 H   0  0  0  0  0  0  0  0  0  0  0  0
    3.6587    1.4039    0.9452 H   0  0  0  0  0  0  0  0  0  0  0  0
   -5.1022   -0.3814    2.1082 H   0  0  0  0  0  0  0  0  0  0  0  0
   -5.1749   -1.6888    2.9481 H   0  0  0  0  0  0  0  0  0  0  0  0
  1 10  1  0
  1  7  1  0
  2  8  1  0
  2  6  1  0
  3 12  1  0
  4  5  1  0
  5  6  1  0
  7  9  1  0
  7  4  1  0
 10 11  1  0
 11  9  1  0
 12  8  1  0
  1 13  1  6
  1 14  1  0
  3 15  1  0
  4 16  1  1
  4 17  1  0
  5 18  1  1
  5 19  1  0
  6 20  1  1
  6 21  1  0
  7 22  1  6
  8 23  1  1
  8 24  1  0
  9 25  1  1
  9 26  1  0
 10 27  1  6
 10 28  1  0
 11 29  1  6
 11 30  1  0
 12 31  1  6
 12 32  1  0
M  END
$$$$

     RDKit          3D

 70 71  0  0  0  0  0  0  0  0999 V2000
   -1.7580    0.4450    1.6720 C   0  0  2  0  0  0  0  0  0  0  0  0
   -0.4780   -1.6540   -5.1700 C   0  0  1  0  0  0  0  0  0  0  0  0
    1.9880   -2.6580   -0.8310 C   0  0  1  0  0  0  0  0  0  0  0  0
    0.3460   -2.4350   -4.1020 C   0  0  2  0  0  0  0  0  0  0  0  0
   -2.1980   -1.1500    1.5380 C   0  0  1  0  0  0  0  0  0  0  0  0
    0.9620   -0.9800   -2.0060 O   0  0  0  0  0  0  0  0  0  0  0  0
   -5.1110   -5.1760    0.9050 C   0  0  0  0  0  0  0  0  0  0  0  0
    0.7610    0.3680    1.1750 C   0  0  1  0  0  0  0  0  0  0  0  0
   -1.2330   -1.8030    1.7670 O   0  0  0  0  0  0  0  0  0  0  0  0
   -0.4100   -3.7680   -5.0260 C   0  0  2  0  0  0  0  0  0  0  0  0
   -2.2570   -5.7070   -3.3740 C   0  0  1  0  0  0  0  0  0  0  0  0
   -5.5200   -2.8320    0.8640 O   0  0  0  0  0  0  0  0  0  0  0  0
   -6.3790   -6.9640   -2.2520 O   0  0  0  0  0  0  0  0  0  0  0  0
    1.5180   -1.7150    0.2740 O   0  0  0  0  0  0  0  0  0  0  0  0
   -4.5080   -5.1810   -2.1810 O   0  0  0  0  0  0  0  0  0  0  0  0
    2.2140   -1.6160   -1.9060 C   0  0  2  0  0  0  0  0  0  0  0  0
   -4.7330   -6.0990    2.0550 C   0  0  1  0  0  0  0  0  0  0  0  0
   -0.0950   -1.8180   -6.5320 O   0  0  0  0  0  0  0  0  0  0  0  0
   -3.6060   -1.3370    1.6420 C   0  0  0  0  0  0  0  0  0  0  0  0
   -3.8380   -5.9680   -3.2740 C   0  0  1  0  0  0  0  0  0  0  0  0
   -1.9100   -3.6810   -4.9000 O   0  0  0  0  0  0  0  0  0  0  0  0
   -0.4210    0.8740    1.9910 C   0  0  1  0  0  0  0  0  0  0  0  0
   -5.2660   -6.2550   -1.5730 C   0  0  1  0  0  0  0  0  0  0  0  0
   -5.0950   -7.4090    1.7490 O   0  0  0  0  0  0  0  0  0  0  0  0
    0.5170   -1.1110    0.7040 C   0  0  1  0  0  0  0  0  0  0  0  0
   -5.2200   -3.9020    0.9700 C   0  0  0  0  0  0  0  0  0  0  0  0
   -5.8000   -5.9320   -0.1420 C   0  0  1  0  0  0  0  0  0  0  0  0
   -1.9080   -5.3690   -4.7700 C   0  0  2  0  0  0  0  0  0  0  0  0
   -0.0190   -1.7910   -2.6150 C   0  0  1  0  0  0  0  0  0  0  0  0
   -5.2890   -7.4570    0.4090 C   0  0  2  0  0  0  0  0  0  0  0  0
   -2.7660    1.2810    2.3500 O   0  0  0  0  0  0  0  0  0  0  0  0
    0.1030   -1.6490    2.0420 C   0  0  1  0  0  0  0  0  0  0  0  0
   -1.7217    0.6185    0.5864 H   0  0  0  0  0  0  0  0  0  0  0  0
   -1.3186   -1.0045   -4.8843 H   0  0  0  0  0  0  0  0  0  0  0  0
    0.2115   -0.8018   -5.0787 H   0  0  0  0  0  0  0  0  0  0  0  0
    2.1206   -3.7499   -0.8425 H   0  0  0  0  0  0  0  0  0  0  0  0
    0.9483   -2.7807   -1.1685 H   0  0  0  0  0  0  0  0  0  0  0  0
    1.4027   -2.5648   -3.8255 H   0  0  0  0  0  0  0  0  0  0  0  0
   -2.4137   -1.8273    0.6985 H   0  0  0  0  0  0  0  0  0  0  0  0
    1.6616    0.9569    0.9467 H   0  0  0  0  0  0  0  0  0  0  0  0
    1.2369   -0.0034    2.0946 H   0  0  0  0  0  0  0  0  0  0  0  0
    0.1356   -4.5331   -5.5979 H   0  0  0  0  0  0  0  0  0  0  0  0
   -0.4479   -3.1273   -5.9193 H   0  0  0  0  0  0  0  0  0  0  0  0
   -1.5464   -5.7697   -2.5367 H   0  0  0  0  0  0  0  0  0  0  0  0
   -2.0948   -6.7730   -3.5915 H   0  0  0  0  0  0  0  0  0  0  0  0
   -7.1215   -7.4370   -2.7049 H   0  0  0  0  0  0  0  0  0  0  0  0
    3.1338   -1.4066   -2.4719 H   0  0  0  0  0  0  0  0  0  0  0  0
    2.5212   -0.8906   -1.1383 H   0  0  0  0  0  0  0  0  0  0  0  0
   -4.2466   -5.7793    2.9884 H   0  0  0  0  0  0  0  0  0  0  0  0
   -5.7196   -5.9332    2.5124 H   0  0  0  0  0  0  0  0  0  0  0  0
    0.1712   -1.9320   -7.4787 H   0  0  0  0  0  0  0  0  0  0  0  0
   -4.6935   -1.4814    1.7223 H   0  0  0  0  0  0  0  0  0  0  0  0
    0.0000    0.0000    0.0000 H   0  0  0  0  0  0  0  0  0  0  0  0
   -3.5253   -2.2678    1.0614 H   0  0  0  0  0  0  0  0  0  0  0  0
   -4.3790   -6.6559   -3.9404 H   0  0  0  0  0  0  0  0  0  0  0  0
   -3.6572   -6.7930   -2.5692 H   0  0  0  0  0  0  0  0  0  0  0  0
   -0.2529    1.5693    2.8266 H   0  0  0  0  0  0  0  0  0  0  0  0
   -0.3115    0.0219    2.6780 H   0  0  0  0  0  0  0  0  0  0  0  0
   -4.4198   -6.9554   -1.6315 H   0  0  0  0  0  0  0  0  0  0  0  0
   -0.1710   -1.2096   -0.1486 H   0  0  0  0  0  0  0  0  0  0  0  0
   -6.7683   -5.4211   -0.2488 H   0  0  0  0  0  0  0  0  0  0  0  0
   -1.6874   -6.0835   -5.5768 H   0  0  0  0  0  0  0  0  0  0  0  0
   -0.8423   -5.3468   -4.4982 H   0  0  0  0  0  0  0  0  0  0  0  0
   -0.9843   -1.9883   -2.1259 H   0  0  0  0  0  0  0  0  0  0  0  0
    0.4102   -2.6777   -2.1256 H   0  0  0  0  0  0  0  0  0  0  0  0
   -5.1392   -8.3443   -0.2237 H   0  0  0  0  0  0  0  0  0  0  0  0
   -4.2411   -7.1645    0.2468 H   0  0  0  0  0  0  0  0  0  0  0  0
   -3.4427    1.8422    2.8052 H   0  0  0  0  0  0  0  0  0  0  0  0
    0.6846   -1.8545    2.9528 H   0  0  0  0  0  0  0  0  0  0  0  0
    0.2937   -2.6733    1.6892 H   0  0  0  0  0  0  0  0  0  0  0  0
  1 22  1  0
  1 31  1  0
  3 14  1  0
  4  2  1  0
  4 29  1  0
  5 19  1  0
  5  1  1  0
  5  9  1  0
  6 16  1  0
  7 26  2  0
  7 17  1  0
  8 22  1  0
  9 32  1  0
 10 21  1  0
 10  4  1  0
 11 20  1  0
 12 26  2  0
 15 23  1  0
 16  3  1  0
 18  2  1  0
 20 15  1  0
 21 28  1  0
 23 13  1  0
 24 17  1  0
 25 14  1  0
 25  8  1  0
 25 32  1  0
 27 23  1  0
 27 30  1  0
 27  7  1  0
 28 11  1  0
 29  6  1  0
 30 24  1  0
  1 33  1  6
  2 34  1  6
  2 35  1  0
  3 36  1  1
  3 37  1  0
  4 38  1  6
  5 39  1  6
  8 40  1  6
  8 41  1  0
 10 42  1  6
 10 43  1  0
 11 44  1  1
 11 45  1  0
 13 46  1  0
 16 47  1  6
 16 48  1  0
 17 49  1  1
 17 50  1  0
 18 51  1  0
 19 52  1  0
 19 53  1  0
 19 54  1  0
 20 55  1  6
 20 56  1  0
 22 57  1  1
 22 58  1  0
 23 59  1  1
 25 60  1  6
 27 61  1  6
 28 62  1  6
 28 63  1  0
 29 64  1  6
 29 65  1  0
 30 66  1  6
 30 67  1  0
 31 68  1  0
 32 69  1  1
 32 70  1  0
M  END
$$$$

     RDKit          3D

 31 31  0  0  0  0  0  0  0  0999 V2000
   -5.1810   -7.3000   -3.6390 C   0  0  1  0  0  0  0  0  0  0  0  0
   -6.5090   -5.1970   -3.2170 C   0  0  0  0  0  0  0  0  0  0  0  0
   -1.5220   -5.9680   -3.5080 C   0  0  2  0  0  0  0  0  0  0  0  0
   -3.2290   -7.8650   -3.1130 C   0  0  1  0  0  0  0  0  0  0  0  0
   -4.3580   -8.2150   -3.4450 N   0  0  0  0  0  0  0  0  0  0  0  0
   -4.8390   -9.4300   -4.0210 O   0  0  0  0  0  0  0  0  0  0  0  0
    1.5480   -2.0780   -2.5470 C   0  0  0  0  0  0  0  0  0  0  0  0
    0.8850   -4.6830   -4.1730 O   0  0  0  0  0  0  0  0  0  0  0  0
   -2.9130   -6.4580   -3.6130 C   0  0  1  0  0  0  0  0  0  0  0  0
   -3.8580   -5.7450   -2.7440 O   0  0  0  0  0  0  0  0  0  0  0  0
   -0.0270   -3.9660   -3.7290 C   0  0  0  0  0  0  0  0  0  0  0  0
    0.2860   -2.5270   -3.3690 C   0  0  2  0  0  0  0  0  0  0  0  0
   -5.3540   -6.1540   -2.9970 C   0  0  2  0  0  0  0  0  0  0  0  0
   -1.3320   -4.4730   -3.3770 O   0  0  0  0  0  0  0  0  0  0  0  0
   -5.8739   -7.4707   -4.4761 H   0  0  0  0  0  0  0  0  0  0  0  0
   -5.8880   -7.7906   -2.9538 H   0  0  0  0  0  0  0  0  0  0  0  0
   -7.3471   -4.5026   -3.3766 H   0  0  0  0  0  0  0  0  0  0  0  0
    0.0000    0.0000    0.0000 H   0  0  0  0  0  0  0  0  0  0  0  0
   -6.1556   -5.0058   -4.2410 H   0  0  0  0  0  0  0  0  0  0  0  0
   -0.6656   -6.6581   -3.5244 H   0  0  0  0  0  0  0  0  0  0  0  0
   -1.5732   -6.0575   -2.4128 H   0  0  0  0  0  0  0  0  0  0  0  0
   -2.5337   -8.4864   -2.5295 H   0  0  0  0  0  0  0  0  0  0  0  0
   -2.8242   -8.2870   -4.0447 H   0  0  0  0  0  0  0  0  0  0  0  0
   -5.1725  -10.2723   -4.4203 H   0  0  0  0  0  0  0  0  0  0  0  0
    2.4313   -1.7637   -1.9717 H   0  0  0  0  0  0  0  0  0  0  0  0
    0.0000    0.0000    0.0000 H   0  0  0  0  0  0  0  0  0  0  0  0
    1.4373   -2.9580   -1.8963 H   0  0  0  0  0  0  0  0  0  0  0  0
   -3.0123   -6.3426   -4.7024 H   0  0  0  0  0  0  0  0  0  0  0  0
   -0.4144   -1.7479   -3.7043 H   0  0  0  0  0  0  0  0  0  0  0  0
   -0.2836   -2.6369   -2.4344 H   0  0  0  0  0  0  0  0  0  0  0  0
   -5.9745   -6.2054   -2.0902 H   0  0  0  0  0  0  0  0  0  0  0  0
  1  5  1  0
  1 13  1  0
  3 14  1  0
  5  4  1  0
  6  5  1  0
  8 11  2  0
  9  3  1  0
  9  4  1  0
  9 10  1  0
 11 14  1  0
 11 12  1  0
 12  7  1  0
 13  2  1  0
 13 10  1  0
  1 15  1  6
  1 16  1  0
  2 17  1  0
  2 18  1  0
  2 19  1  0
  3 20  1  6
  3 21  1  0
  4 22  1  1
  4 23  1  0
  6 24  1  0
  7 25  1  0
  7 26  1  0
  7 27  1  0
  9 28  1  6
 12 29  1  6
 12 30  1  0
 13 31  1  1
M  END
$$$$

     RDKit          3D

 50 50  0  0  0  0  0  0  0  0999 V2000
   -4.5360   -1.3250    2.3090 P   0  0  1  0  0  0  0  0  0  0  0  0
   -5.2900   -1.1170    3.6790 O   0  0  0  0  0  0  0  0  0  0  0  0
   -4.9270   -0.3610    1.3460 O   0  0  0  0  0  0  0  0  0  0  0  0
    1.9450   -2.7270   -2.2990 C   0  0  1  0  0  0  0  0  0  0  0  0
   -0.6770   -0.6770    1.8450 C   0  0  0  0  0  0  0  0  0  0  0  0
   -2.8550   -1.0890    2.9110 C   0  0  2  0  0  0  0  0  0  0  0  0
    1.8650   -1.3540   -1.6380 C   0  0  1  0  0  0  0  0  0  0  0  0
   -3.6960   -4.3240   -5.1960 O   0  0  0  0  0  0  0  0  0  0  0  0
   -3.2080   -5.4620   -4.9540 C   0  0  1  0  0  0  0  0  0  0  0  0
   -2.2550   -5.4190   -5.9090 C   0  0  2  0  0  0  0  0  0  0  0  0
   -2.8490   -0.7590    4.2310 O   0  0  0  0  0  0  0  0  0  0  0  0
    0.7230   -3.4010   -3.0270 C   0  0  1  0  0  0  0  0  0  0  0  0
   -1.3190   -4.4960   -4.9960 N   0  0  0  0  0  0  0  0  0  0  0  0
   -2.6340   -5.9720   -3.8800 C   0  0  1  0  0  0  0  0  0  0  0  0
    0.9760   -3.4020   -4.3910 C   0  0  0  0  0  0  0  0  0  0  0  0
    0.0540   -0.2700    0.7110 N   0  0  0  0  0  0  0  0  0  0  0  0
   -0.1740   -1.5340    2.4980 O   0  0  0  0  0  0  0  0  0  0  0  0
   -2.0170   -0.0930    2.1210 C   0  0  1  0  0  0  0  0  0  0  0  0
    0.0260   -3.9590   -5.4250 C   0  0  0  0  0  0  0  0  0  0  0  0
   -1.1650   -5.6040   -4.1210 C   0  0  1  0  0  0  0  0  0  0  0  0
    1.5050   -0.1590    0.5960 C   0  0  1  0  0  0  0  0  0  0  0  0
   -4.6810   -2.7260    1.8000 O   0  0  0  0  0  0  0  0  0  0  0  0
    2.1440   -1.3100   -0.1590 C   0  0  1  0  0  0  0  0  0  0  0  0
   -5.7632   -0.9865    4.5387 H   0  0  0  0  0  0  0  0  0  0  0  0
    2.9006   -3.2707   -2.2652 H   0  0  0  0  0  0  0  0  0  0  0  0
    1.6424   -3.2000   -1.3531 H   0  0  0  0  0  0  0  0  0  0  0  0
   -2.3720   -2.0659    2.7617 H   0  0  0  0  0  0  0  0  0  0  0  0
    1.6175   -0.4475   -2.2098 H   0  0  0  0  0  0  0  0  0  0  0  0
    0.7967   -1.5156   -1.4317 H   0  0  0  0  0  0  0  0  0  0  0  0
   -4.0789   -3.4310   -5.3859 H   0  0  0  0  0  0  0  0  0  0  0  0
   -4.0943   -6.1057   -4.8531 H   0  0  0  0  0  0  0  0  0  0  0  0
   -2.1594   -5.8488   -6.9170 H   0  0  0  0  0  0  0  0  0  0  0  0
   -1.7860   -6.3175   -5.4815 H   0  0  0  0  0  0  0  0  0  0  0  0
   -2.8446   -0.5189    5.1914 H   0  0  0  0  0  0  0  0  0  0  0  0
   -0.1770   -3.8023   -2.5382 H   0  0  0  0  0  0  0  0  0  0  0  0
    0.2357   -2.4191   -3.1181 H   0  0  0  0  0  0  0  0  0  0  0  0
   -3.0878   -6.5152   -3.0380 H   0  0  0  0  0  0  0  0  0  0  0  0
   -2.4831   -6.9228   -4.4121 H   0  0  0  0  0  0  0  0  0  0  0  0
    1.9258   -2.9712   -4.7407 H   0  0  0  0  0  0  0  0  0  0  0  0
   -0.4940   -0.0247   -0.1259 H   0  0  0  0  0  0  0  0  0  0  0  0
   -2.3513    0.9056    1.8030 H   0  0  0  0  0  0  0  0  0  0  0  0
   -2.3965   -0.5195    1.1807 H   0  0  0  0  0  0  0  0  0  0  0  0
    0.3128   -3.9735   -6.4869 H   0  0  0  0  0  0  0  0  0  0  0  0
   -0.2489   -6.0680   -3.7267 H   0  0  0  0  0  0  0  0  0  0  0  0
   -1.1932   -4.9249   -3.2561 H   0  0  0  0  0  0  0  0  0  0  0  0
    2.0803    0.6790    1.0165 H   0  0  0  0  0  0  0  0  0  0  0  0
    1.6221   -0.7127    1.5392 H   0  0  0  0  0  0  0  0  0  0  0  0
   -4.7769   -3.6521    1.4635 H   0  0  0  0  0  0  0  0  0  0  0  0
    2.7702   -2.0631    0.3417 H   0  0  0  0  0  0  0  0  0  0  0  0
    3.0353   -0.6929   -0.3455 H   0  0  0  0  0  0  0  0  0  0  0  0
  1  6  1  0
  1  2  1  1
  3  1  2  0
  4  7  1  0
  5 18  1  0
  5 17  2  0
  6 11  1  0
  7 23  1  0
  9  8  1  0
  9 14  1  0
 10 13  1  0
 10  9  1  0
 12  4  1  0
 13 20  1  0
 15 12  1  0
 16  5  1  0
 18  6  1  0
 19 13  1  0
 19 15  2  3
 20 14  1  0
 21 16  1  0
 22  1  1  0
 23 21  1  0
  2 24  1  0
  4 25  1  6
  4 26  1  0
  6 27  1  1
  7 28  1  6
  7 29  1  0
  8 30  1  0
  9 31  1  6
 10 32  1  6
 10 33  1  0
 11 34  1  0
 12 35  1  1
 12 36  1  0
 14 37  1  1
 14 38  1  0
 15 39  1  0
 16 40  1  0
 18 41  1  1
 18 42  1  0
 19 43  1  0
 20 44  1  6
 20 45  1  0
 21 46  1  1
 21 47  1  0
 22 48  1  0
 23 49  1  1
 23 50  1  0
M  END
$$$$

     RDKit          3D

 56 55  0  0  0  0  0  0  0  0999 V2000
   -2.2750   -5.6700   -5.0230 C   0  0  1  0  0  0  0  0  0  0  0  0
   -2.8980    0.3820    2.8030 O   0  0  0  0  0  0  0  0  0  0  0  0
   -2.0610   -0.4990    2.1090 C   0  0  1  0  0  0  0  0  0  0  0  0
   -0.1760   -1.4580    2.1550 O   0  0  0  0  0  0  0  0  0  0  0  0
    0.5000   -0.0240    0.3500 C   0  0  1  0  0  0  0  0  0  0  0  0
   -3.8980   -2.3700    3.4890 O   0  0  0  0  0  0  0  0  0  0  0  0
    0.5810   -3.6930   -4.0950 C   0  0  2  0  0  0  0  0  0  0  0  0
   -3.7070   -6.7430   -3.3880 O   0  0  0  0  0  0  0  0  0  0  0  0
   -0.8050   -3.7560   -4.7970 C   0  0  2  0  0  0  0  0  0  0  0  0
    0.6450   -0.3690    1.7830 C   0  0  2  0  0  0  0  0  0  0  0  0
   -2.2070   -2.7710    5.2110 O   0  0  0  0  0  0  0  0  0  0  0  0
    1.2210   -0.9820   -0.5550 C   0  0  1  0  0  0  0  0  0  0  0  0
   -4.4820   -4.8590   -4.5470 O   0  0  0  0  0  0  0  0  0  0  0  0
    0.7500   -0.4500   -1.9910 C   0  0  1  0  0  0  0  0  0  0  0  0
   -1.4370   -1.4600    3.1060 C   0  0  2  0  0  0  0  0  0  0  0  0
    0.7810   -1.7660   -2.5730 C   0  0  1  0  0  0  0  0  0  0  0  0
   -6.5870   -3.7460   -4.7590 C   0  0  0  0  0  0  0  0  0  0  0  0
   -2.7300   -1.7920    4.2580 C   0  0  1  0  0  0  0  0  0  0  0  0
   -1.6320   -4.6690   -4.2450 O   0  0  0  0  0  0  0  0  0  0  0  0
    0.5380   -2.7070   -3.1320 N   0  0  0  0  0  0  0  0  0  0  0  0
   -3.7290   -6.0570   -4.6150 C   0  0  1  0  0  0  0  0  0  0  0  0
   -5.8190   -5.0210   -4.9630 C   0  0  2  0  0  0  0  0  0  0  0  0
   -4.6800   -7.8410   -3.2410 C   0  0  0  0  0  0  0  0  0  0  0  0
   -1.7696   -6.1497   -5.8742 H   0  0  0  0  0  0  0  0  0  0  0  0
   -1.8799   -6.4461   -4.3510 H   0  0  0  0  0  0  0  0  0  0  0  0
   -3.4901    1.0053    3.2940 H   0  0  0  0  0  0  0  0  0  0  0  0
   -1.8846   -0.4960    1.0232 H   0  0  0  0  0  0  0  0  0  0  0  0
   -1.2173    0.1930    2.2480 H   0  0  0  0  0  0  0  0  0  0  0  0
   -0.0742    0.8412   -0.0128 H   0  0  0  0  0  0  0  0  0  0  0  0
    1.4037    0.6005    0.4089 H   0  0  0  0  0  0  0  0  0  0  0  0
   -4.6622   -2.7482    2.9859 H   0  0  0  0  0  0  0  0  0  0  0  0
    1.4489   -4.3276   -4.3273 H   0  0  0  0  0  0  0  0  0  0  0  0
    0.2395   -4.4312   -3.3544 H   0  0  0  0  0  0  0  0  0  0  0  0
   -1.0823   -3.1234   -5.6531 H   0  0  0  0  0  0  0  0  0  0  0  0
   -1.1894   -2.9906   -4.1068 H   0  0  0  0  0  0  0  0  0  0  0  0
    1.3139    0.1607    2.4773 H   0  0  0  0  0  0  0  0  0  0  0  0
   -0.1675    0.3290    2.0333 H   0  0  0  0  0  0  0  0  0  0  0  0
   -1.8531   -3.4335    5.8559 H   0  0  0  0  0  0  0  0  0  0  0  0
    1.8887   -1.8186   -0.3015 H   0  0  0  0  0  0  0  0  0  0  0  0
    0.3570   -1.6620   -0.5235 H   0  0  0  0  0  0  0  0  0  0  0  0
    0.4979    0.5460   -2.3841 H   0  0  0  0  0  0  0  0  0  0  0  0
    1.8006   -0.2978   -2.2792 H   0  0  0  0  0  0  0  0  0  0  0  0
   -1.0179   -0.6094    3.6635 H   0  0  0  0  0  0  0  0  0  0  0  0
    1.7627   -2.0752   -2.1848 H   0  0  0  0  0  0  0  0  0  0  0  0
    0.2967   -2.1750   -1.6740 H   0  0  0  0  0  0  0  0  0  0  0  0
   -7.1493   -2.8125   -4.6096 H   0  0  0  0  0  0  0  0  0  0  0  0
    0.0000    0.0000    0.0000 H   0  0  0  0  0  0  0  0  0  0  0  0
   -6.1525   -3.3364   -5.6828 H   0  0  0  0  0  0  0  0  0  0  0  0
   -3.0635   -0.8896    4.7914 H   0  0  0  0  0  0  0  0  0  0  0  0
   -0.2091   -3.0814   -2.5299 H   0  0  0  0  0  0  0  0  0  0  0  0
   -4.1932   -6.7320   -5.3491 H   0  0  0  0  0  0  0  0  0  0  0  0
   -6.2400   -5.9487   -5.3779 H   0  0  0  0  0  0  0  0  0  0  0  0
   -5.5435   -4.6930   -5.9762 H   0  0  0  0  0  0  0  0  0  0  0  0
   -5.4059   -8.6602   -3.1313 H   0  0  0  0  0  0  0  0  0  0  0  0
    0.0000    0.0000    0.0000 H   0  0  0  0  0  0  0  0  0  0  0  0
   -5.4689   -7.1978   -3.6580 H   0  0  0  0  0  0  0  0  0  0  0  0
  1 19  1  0
  3  2  1  0
  4 15  1  0
  5 10  1  0
  6 18  1  0
  7 20  1  0
  8 23  1  0
  9 19  1  0
  9  7  1  0
 10  4  1  0
 12  5  1  0
 14 12  1  0
 15  3  1  0
 15 18  1  0
 16 14  1  0
 18 11  1  0
 20 16  1  0
 21  1  1  0
 21 13  1  0
 21  8  1  0
 22 17  1  0
 22 13  1  0
  1 24  1  6
  1 25  1  0
  2 26  1  0
  3 27  1  6
  3 28  1  0
  5 29  1  6
  5 30  1  0
  6 31  1  0
  7 32  1  6
  7 33  1  0
  9 34  1  6
  9 35  1  0
 10 36  1  1
 10 37  1  0
 11 38  1  0
 12 39  1  6
 12 40  1  0
 14 41  1  1
 14 42  1  0
 15 43  1  1
 16 44  1  1
 16 45  1  0
 17 46  1  0
 17 47  1  0
 17 48  1  0
 18 49  1  1
 20 50  1  0
 21 51  1  6
 22 52  1  6
 22 53  1  0
 23 54  1  0
 23 55  1  0
 23 56  1  0
M  END
$$$$

     RDKit          3D

 35 35  0  0  0  0  0  0  0  0999 V2000
   -0.5360    1.3660    0.9800 C   0  0  0  0  0  0  0  0  0  0  0  0
   -5.5810   -6.8370   -0.6510 C   0  0  0  0  0  0  0  0  0  0  0  0
   -5.8190   -3.4240    1.5830 C   0  0  0  0  0  0  0  0  0  0  0  0
    0.9240   -0.4270   -0.2240 C   0  0  0  0  0  0  0  0  0  0  0  0
   -5.9850   -5.4890   -0.2640 C   0  0  1  0  0  0  0  0  0  0  0  0
   -5.0660   -7.5840    0.3090 C   0  0  0  0  0  0  0  0  0  0  0  0
   -0.8550   -0.9190    1.3050 O   0  0  0  0  0  0  0  0  0  0  0  0
   -1.7890   -0.8640    2.3860 C   0  0  1  0  0  0  0  0  0  0  0  0
   -5.3720   -6.0050    2.2380 C   0  0  0  0  0  0  0  0  0  0  0  0
   -4.4770   -8.0690    2.0110 O   0  0  0  0  0  0  0  0  0  0  0  0
   -2.9200   -1.7880    2.1530 O   0  0  0  0  0  0  0  0  0  0  0  0
   -4.9870   -7.2760    1.6890 C   0  0  0  0  0  0  0  0  0  0  0  0
   -5.2210   -2.1050    2.3750 C   0  0  0  0  0  0  0  0  0  0  0  0
   -5.7540   -4.9990    1.1290 C   0  0  0  0  0  0  0  0  0  0  0  0
   -3.8650   -1.6950    3.2670 C   0  0  1  0  0  0  0  0  0  0  0  0
    1.0920    0.0970    2.0940 O   0  0  0  0  0  0  0  0  0  0  0  0
    0.2160    0.1080    1.0100 C   0  0  2  0  0  0  0  0  0  0  0  0
   -1.1003    2.3100    0.9575 H   0  0  0  0  0  0  0  0  0  0  0  0
    0.0000    0.0000    0.0000 H   0  0  0  0  0  0  0  0  0  0  0  0
   -1.4571    0.8215    1.2352 H   0  0  0  0  0  0  0  0  0  0  0  0
   -5.6983   -7.2084   -1.6797 H   0  0  0  0  0  0  0  0  0  0  0  0
   -6.7435   -3.0536    1.1159 H   0  0  0  0  0  0  0  0  0  0  0  0
    1.4364   -0.8142   -1.1171 H   0  0  0  0  0  0  0  0  0  0  0  0
    0.0000    0.0000    0.0000 H   0  0  0  0  0  0  0  0  0  0  0  0
    1.3387    0.5729   -0.4196 H   0  0  0  0  0  0  0  0  0  0  0  0
   -6.4629   -4.8289   -1.0028 H   0  0  0  0  0  0  0  0  0  0  0  0
   -6.9727   -5.8706    0.0340 H   0  0  0  0  0  0  0  0  0  0  0  0
   -4.6515   -8.5555    0.0017 H   0  0  0  0  0  0  0  0  0  0  0  0
   -1.6809   -0.2209    3.2719 H   0  0  0  0  0  0  0  0  0  0  0  0
   -2.3380   -0.0620    1.8708 H   0  0  0  0  0  0  0  0  0  0  0  0
   -5.3923   -5.7766    3.3138 H   0  0  0  0  0  0  0  0  0  0  0  0
   -5.9104   -1.2517    2.2934 H   0  0  0  0  0  0  0  0  0  0  0  0
   -3.7301   -1.4418    4.3289 H   0  0  0  0  0  0  0  0  0  0  0  0
   -4.0337   -0.6330    3.0353 H   0  0  0  0  0  0  0  0  0  0  0  0
    1.7142    0.0892    2.8640 H   0  0  0  0  0  0  0  0  0  0  0  0
  1 17  1  0
  2  5  1  0
  2  6  2  0
  3 13  2  3
  4 17  1  0
  5 14  1  0
  6 12  1  0
  7  8  1  0
 11  8  1  0
 11 15  1  0
 12 10  2  0
 12  9  1  0
 13 15  1  0
 14  3  1  0
 14  9  2  0
 17  7  1  1
 17 16  1  0
  1 18  1  0
  1 19  1  0
  1 20  1  0
  2 21  1  0
  3 22  1  0
  4 23  1  0
  4 24  1  0
  4 25  1  0
  5 26  1  6
  5 27  1  0
  6 28  1  0
  8 29  1  1
  8 30  1  0
  9 31  1  0
 13 32  1  0
 15 33  1  1
 15 34  1  0
 16 35  1  0
M  END
$$$$

     RDKit          3D

 20 19  0  0  0  0  0  0  0  0999 V2000
   -5.4580   -2.4950    2.0160 O   0  0  0  0  0  0  0  0  0  0  0  0
   -6.1030   -5.0890    2.5710 C   0  0  1  0  0  0  0  0  0  0  0  0
   -5.9610   -3.2250    0.9670 C   0  0  2  0  0  0  0  0  0  0  0  0
   -3.5970    0.1580    2.9130 O   0  0  0  0  0  0  0  0  0  0  0  0
   -6.8330   -6.0160    3.1680 O   0  0  0  0  0  0  0  0  0  0  0  0
   -3.7630   -0.8850    2.2690 C   0  0  0  0  0  0  0  0  0  0  0  0
   -6.3910   -4.6870    1.2230 C   0  0  2  0  0  0  0  0  0  0  0  0
   -2.9050   -1.7210    2.1380 O   0  0  0  0  0  0  0  0  0  0  0  0
   -5.1030   -1.1680    1.7070 C   0  0  1  0  0  0  0  0  0  0  0  0
   -7.8550   -4.5570    1.0030 O   0  0  0  0  0  0  0  0  0  0  0  0
   -5.2672   -4.6214    3.1122 H   0  0  0  0  0  0  0  0  0  0  0  0
   -5.4233   -5.8672    2.1937 H   0  0  0  0  0  0  0  0  0  0  0  0
   -6.0557   -2.7786   -0.0339 H   0  0  0  0  0  0  0  0  0  0  0  0
   -6.9764   -2.8828    1.2157 H   0  0  0  0  0  0  0  0  0  0  0  0
   -3.4641    0.9927    3.4284 H   0  0  0  0  0  0  0  0  0  0  0  0
   -7.3795   -6.7100    3.6150 H   0  0  0  0  0  0  0  0  0  0  0  0
   -5.8858   -5.4391    0.5992 H   0  0  0  0  0  0  0  0  0  0  0  0
   -5.7213   -0.4567    1.1398 H   0  0  0  0  0  0  0  0  0  0  0  0
   -5.5680   -0.8256    2.6432 H   0  0  0  0  0  0  0  0  0  0  0  0
   -8.8303   -4.4704    0.8564 H   0  0  0  0  0  0  0  0  0  0  0  0
  2  5  1  0
  3  7  1  0
  3  1  1  0
  6  4  1  0
  7 10  1  0
  7  2  1  0
  8  6  2  0
  9  1  1  0
  9  6  1  0
  2 11  1  1
  2 12  1  0
  3 13  1  6
  3 14  1  0
  4 15  1  0
  5 16  1  0
  7 17  1  6
  9 18  1  6
  9 19  1  0
 10 20  1  0
M  END
$$$$

     RDKit          3D

 28 27  0  0  0  0  0  0  0  0999 V2000
   -5.1280   -6.2560   -1.0960 O   0  0  0  0  0  0  0  0  0  0  0  0
   -6.8730   -5.8910    0.3570 N   0  0  0  0  0  0  0  0  0  0  0  0
   -5.5290   -6.5650    0.2660 C   0  0  1  0  0  0  0  0  0  0  0  0
   -0.5520   -6.1830   -5.0880 O   0  0  0  0  0  0  0  0  0  0  0  0
   -2.7240   -5.0620   -4.1930 C   0  0  2  0  0  0  0  0  0  0  0  0
   -5.7900   -6.6980   -2.2890 C   0  0  1  0  0  0  0  0  0  0  0  0
   -2.1160   -7.3670   -4.7320 O   0  0  0  0  0  0  0  0  0  0  0  0
   -4.6380   -6.7340   -3.2370 C   0  0  1  0  0  0  0  0  0  0  0  0
   -7.6460   -5.2220    1.5140 C   0  0  0  0  0  0  0  0  0  0  0  0
   -5.3080   -4.6270   -4.2550 O   0  0  0  0  0  0  0  0  0  0  0  0
   -1.8050   -6.2710   -4.5850 C   0  0  0  0  0  0  0  0  0  0  0  0
   -7.4080   -6.2700   -0.5450 O   0  0  0  0  0  0  0  0  0  0  0  0
   -4.2150   -5.4700   -3.9950 C   0  0  1  0  0  0  0  0  0  0  0  0
   -4.9905   -7.1418    1.0323 H   0  0  0  0  0  0  0  0  0  0  0  0
   -5.0429   -5.6432    0.6182 H   0  0  0  0  0  0  0  0  0  0  0  0
   -2.3546   -4.0331   -4.0706 H   0  0  0  0  0  0  0  0  0  0  0  0
   -2.5288   -5.2588   -3.1285 H   0  0  0  0  0  0  0  0  0  0  0  0
   -6.8492   -6.9419   -2.4578 H   0  0  0  0  0  0  0  0  0  0  0  0
   -5.9865   -5.6521   -2.5675 H   0  0  0  0  0  0  0  0  0  0  0  0
   -2.3840   -8.3116   -4.8587 H   0  0  0  0  0  0  0  0  0  0  0  0
   -4.0884   -7.6740   -3.3931 H   0  0  0  0  0  0  0  0  0  0  0  0
   -5.3215   -6.9974   -4.0576 H   0  0  0  0  0  0  0  0  0  0  0  0
   -8.1967   -4.7454    2.3383 H   0  0  0  0  0  0  0  0  0  0  0  0
    0.0000    0.0000    0.0000 H   0  0  0  0  0  0  0  0  0  0  0  0
   -8.2054   -4.6133    0.7883 H   0  0  0  0  0  0  0  0  0  0  0  0
   -6.0784   -4.0328   -4.4383 H   0  0  0  0  0  0  0  0  0  0  0  0
   -7.8830   -6.6065   -1.3458 H   0  0  0  0  0  0  0  0  0  0  0  0
   -3.7052   -5.6672   -4.9496 H   0  0  0  0  0  0  0  0  0  0  0  0
  1  3  1  0
  2  9  1  0
  3  2  1  0
  4 11  2  0
  5 13  1  0
  6  1  1  0
  7 11  1  0
  8  6  1  0
 11  5  1  0
 12  2  1  0
 13 10  1  0
 13  8  1  0
  3 14  1  1
  3 15  1  0
  5 16  1  6
  5 17  1  0
  6 18  1  1
  6 19  1  0
  7 20  1  0
  8 21  1  1
  8 22  1  0
  9 23  1  0
  9 24  1  0
  9 25  1  0
 10 26  1  0
 12 27  1  0
 13 28  1  6
M  END
$$$$

     RDKit          3D

 57 57  0  0  0  0  0  0  0  0999 V2000
    0.9870    0.4820    0.3240 C   0  0  2  0  0  0  0  0  0  0  0  0
   -1.3330    0.8180    1.4080 N   0  0  0  0  0  0  0  0  0  0  0  0
   -3.8220   -2.0350    2.6120 O   0  0  0  0  0  0  0  0  0  0  0  0
   -2.3000    0.0870    2.3720 C   0  0  1  0  0  0  0  0  0  0  0  0
   -1.7680   -5.1530   -4.7990 C   0  0  1  0  0  0  0  0  0  0  0  0
   -0.2220   -5.0380   -4.9320 O   0  0  0  0  0  0  0  0  0  0  0  0
    0.4080   -0.3430   -0.7080 C   0  0  1  0  0  0  0  0  0  0  0  0
    0.2700   -0.8680    2.1360 O   0  0  0  0  0  0  0  0  0  0  0  0
   -2.8160   -6.2280   -4.2660 N   0  0  0  0  0  0  0  0  0  0  0  0
   -2.5870   -1.3270    2.1960 C   0  0  2  0  0  0  0  0  0  0  0  0
   -4.9950   -1.4630    1.9130 C   0  0  2  0  0  0  0  0  0  0  0  0
   -0.9440   -4.8790   -3.7190 C   0  0  1  0  0  0  0  0  0  0  0  0
   -5.1080   -5.8350   -3.4180 C   0  0  1  0  0  0  0  0  0  0  0  0
    0.4940   -1.3120   -2.8540 C   0  0  1  0  0  0  0  0  0  0  0  0
   -5.1580   -6.7090   -2.1040 C   0  0  1  0  0  0  0  0  0  0  0  0
    0.1900   -2.6050   -2.7710 O   0  0  0  0  0  0  0  0  0  0  0  0
   -3.7470   -5.6030   -3.5440 O   0  0  0  0  0  0  0  0  0  0  0  0
   -6.3140   -4.6030    0.7110 C   0  0  1  0  0  0  0  0  0  0  0  0
   -6.1320   -5.8650   -1.4260 O   0  0  0  0  0  0  0  0  0  0  0  0
   -5.7350   -3.3830    0.8600 O   0  0  0  0  0  0  0  0  0  0  0  0
   -5.6150   -5.5790   -0.1460 C   0  0  2  0  0  0  0  0  0  0  0  0
   -6.0110   -2.5890    2.0550 C   0  0  1  0  0  0  0  0  0  0  0  0
    1.8310   -3.5630   -4.2400 O   0  0  0  0  0  0  0  0  0  0  0  0
    1.2820   -3.3860   -2.9440 C   0  0  2  0  0  0  0  0  0  0  0  0
    1.2130   -1.0980   -1.5960 N   0  0  0  0  0  0  0  0  0  0  0  0
   -0.1150    0.0630    1.3620 C   0  0  0  0  0  0  0  0  0  0  0  0
    1.8619    1.1473    0.3673 H   0  0  0  0  0  0  0  0  0  0  0  0
    1.6131   -0.3625    0.6478 H   0  0  0  0  0  0  0  0  0  0  0  0
   -1.5293    1.6884    0.8934 H   0  0  0  0  0  0  0  0  0  0  0  0
   -2.7730    0.6418    3.1957 H   0  0  0  0  0  0  0  0  0  0  0  0
   -3.1457    0.3403    1.7158 H   0  0  0  0  0  0  0  0  0  0  0  0
   -2.4766   -4.8459   -5.5823 H   0  0  0  0  0  0  0  0  0  0  0  0
   -0.6866   -0.3869   -0.8079 H   0  0  0  0  0  0  0  0  0  0  0  0
    0.4375    0.5078   -1.4046 H   0  0  0  0  0  0  0  0  0  0  0  0
   -2.7803   -7.2409   -4.4492 H   0  0  0  0  0  0  0  0  0  0  0  0
   -1.8107   -1.9324    1.7053 H   0  0  0  0  0  0  0  0  0  0  0  0
   -2.1345   -1.5408    3.1756 H   0  0  0  0  0  0  0  0  0  0  0  0
   -5.1039   -0.4849    1.4217 H   0  0  0  0  0  0  0  0  0  0  0  0
   -5.3463   -1.0266    2.8596 H   0  0  0  0  0  0  0  0  0  0  0  0
   -0.8869   -4.6744   -2.6397 H   0  0  0  0  0  0  0  0  0  0  0  0
   -0.8467   -5.9564   -3.5199 H   0  0  0  0  0  0  0  0  0  0  0  0
   -5.9338   -5.4993   -4.0624 H   0  0  0  0  0  0  0  0  0  0  0  0
   -5.2079   -4.9211   -2.8139 H   0  0  0  0  0  0  0  0  0  0  0  0
    0.2657   -0.5939   -3.6554 H   0  0  0  0  0  0  0  0  0  0  0  0
   -0.4532   -1.0573   -2.3560 H   0  0  0  0  0  0  0  0  0  0  0  0
   -4.6391   -7.6318   -1.8054 H   0  0  0  0  0  0  0  0  0  0  0  0
   -4.3408   -6.1106   -1.6749 H   0  0  0  0  0  0  0  0  0  0  0  0
   -7.2631   -4.8522    1.2080 H   0  0  0  0  0  0  0  0  0  0  0  0
   -6.8691   -4.2327   -0.1635 H   0  0  0  0  0  0  0  0  0  0  0  0
   -4.7012   -6.0777    0.2094 H   0  0  0  0  0  0  0  0  0  0  0  0
   -5.0064   -4.7682   -0.5730 H   0  0  0  0  0  0  0  0  0  0  0  0
   -6.7551   -2.7592    2.8471 H   0  0  0  0  0  0  0  0  0  0  0  0
   -6.7466   -1.9964    1.4913 H   0  0  0  0  0  0  0  0  0  0  0  0
    2.2141   -3.6865   -5.1445 H   0  0  0  0  0  0  0  0  0  0  0  0
    1.7441   -3.8839   -2.0788 H   0  0  0  0  0  0  0  0  0  0  0  0
    1.9317   -2.5121   -2.7881 H   0  0  0  0  0  0  0  0  0  0  0  0
    2.1606   -1.4441   -1.3884 H   0  0  0  0  0  0  0  0  0  0  0  0
  1 26  1  0
  2  4  1  0
  5  9  1  0
  5 12  1  0
  6  5  1  0
  6 12  1  0
  7  1  1  0
  9 17  1  0
 10  4  1  0
 10  3  1  0
 11 22  1  0
 11  3  1  0
 13 15  1  0
 14 16  1  0
 14 25  1  0
 15 19  1  0
 17 13  1  0
 18 20  1  0
 19 21  1  0
 20 22  1  0
 21 18  1  0
 23 24  1  0
 24 16  1  0
 25  7  1  0
 26  2  1  0
 26  8  2  0
  1 27  1  6
  1 28  1  0
  2 29  1  0
  4 30  1  1
  4 31  1  0
  5 32  1  6
  7 33  1  1
  7 34  1  0
  9 35  1  0
 10 36  1  6
 10 37  1  0
 11 38  1  6
 11 39  1  0
 12 40  1  1
 12 41  1  0
 13 42  1  6
 13 43  1  0
 14 44  1  6
 14 45  1  0
 15 46  1  6
 15 47  1  0
 18 48  1  1
 18 49  1  0
 21 50  1  1
 21 51  1  0
 22 52  1  1
 22 53  1  0
 23 54  1  0
 24 55  1  1
 24 56  1  0
 25 57  1  0
M  END
$$$$

     RDKit          3D

 18 18  0  0  0  0  0  0  0  0999 V2000
   -5.5770   -4.0450    0.7620 N   0  0  0  0  0  0  0  0  0  0  0  0
   -6.4270   -5.9160   -0.2330 O   0  0  0  0  0  0  0  0  0  0  0  0
   -5.0500   -3.0720    1.5720 C   0  0  0  0  0  0  0  0  0  0  0  0
   -5.1140   -0.7970    2.4460 C   0  0  0  0  0  0  0  0  0  0  0  0
   -7.3140   -2.0650    0.8590 S   0  0  0  0  0  0  0  0  0  0  0  0
   -7.4040   -5.3780   -0.4580 C   0  0  0  0  0  0  0  0  0  0  0  0
   -5.7180   -1.9030    1.6930 C   0  0  0  0  0  0  0  0  0  0  0  0
   -7.6860   -4.7350    0.0160 N   0  0  0  0  0  0  0  0  0  0  0  0
   -8.1860   -6.4330   -1.1230 C   0  0  0  0  0  0  0  0  0  0  0  0
   -6.9920   -3.7440    0.4670 C   0  0  0  0  0  0  0  0  0  0  0  0
   -4.1056   -3.2389    2.1108 H   0  0  0  0  0  0  0  0  0  0  0  0
   -4.6614    0.0317    3.0102 H   0  0  0  0  0  0  0  0  0  0  0  0
    0.0000    0.0000    0.0000 H   0  0  0  0  0  0  0  0  0  0  0  0
   -5.5612   -0.0761    1.7458 H   0  0  0  0  0  0  0  0  0  0  0  0
   -8.6872   -4.7448    0.2578 H   0  0  0  0  0  0  0  0  0  0  0  0
   -8.7704   -7.2214   -1.6199 H   0  0  0  0  0  0  0  0  0  0  0  0
    0.0000    0.0000    0.0000 H   0  0  0  0  0  0  0  0  0  0  0  0
   -7.6696   -7.1952   -0.5210 H   0  0  0  0  0  0  0  0  0  0  0  0
  1  3  1  0
  3  7  2  0
  5  7  1  0
  6  2  2  0
  6  8  1  0
  7  4  1  0
  8 10  1  0
  9  6  1  0
 10  1  2  0
 10  5  1  0
  3 11  1  0
  4 12  1  0
  4 13  1  0
  4 14  1  0
  8 15  1  0
  9 16  1  0
  9 17  1  0
  9 18  1  0
M  END
$$$$

     RDKit          3D

 21 21  0  0  0  0  0  0  0  0999 V2000
   -1.0380   -5.7000   -4.4260 C   0  0  2  0  0  0  0  0  0  0  0  0
   -5.0850   -5.2630   -3.5960 O   0  0  0  0  0  0  0  0  0  0  0  0
   -1.3520   -2.5970   -5.6100 O   0  0  0  0  0  0  0  0  0  0  0  0
   -3.3620   -7.4950   -2.2960 O   0  0  0  0  0  0  0  0  0  0  0  0
   -1.8620   -6.5490   -6.6010 O   0  0  0  0  0  0  0  0  0  0  0  0
   -0.1430   -4.5050   -4.8070 C   0  0  1  0  0  0  0  0  0  0  0  0
   -0.8340   -3.1830   -4.6260 C   0  0  0  0  0  0  0  0  0  0  0  0
   -1.9660   -6.0710   -5.5180 C   0  0  0  0  0  0  0  0  0  0  0  0
   -1.7500   -5.8570   -3.0440 C   0  0  0  0  0  0  0  0  0  0  0  0
   -0.9660   -6.3930   -2.2600 O   0  0  0  0  0  0  0  0  0  0  0  0
   -3.2440   -5.5130   -5.1390 O   0  0  0  0  0  0  0  0  0  0  0  0
   -3.2200   -6.2200   -2.8330 C   0  0  1  0  0  0  0  0  0  0  0  0
   -4.0370   -6.0550   -4.0700 C   0  0  1  0  0  0  0  0  0  0  0  0
   -0.2079   -6.4023   -4.2597 H   0  0  0  0  0  0  0  0  0  0  0  0
   -5.8279   -4.7015   -3.2600 H   0  0  0  0  0  0  0  0  0  0  0  0
   -3.4631   -8.4026   -1.9137 H   0  0  0  0  0  0  0  0  0  0  0  0
    0.8896   -4.6084   -5.1718 H   0  0  0  0  0  0  0  0  0  0  0  0
   -0.5137   -4.5571   -5.8413 H   0  0  0  0  0  0  0  0  0  0  0  0
   -0.8868   -2.7256   -3.6270 H   0  0  0  0  0  0  0  0  0  0  0  0
   -3.6137   -5.5016   -2.0989 H   0  0  0  0  0  0  0  0  0  0  0  0
   -4.4215   -6.9732   -4.5380 H   0  0  0  0  0  0  0  0  0  0  0  0
  1  6  1  0
  1  9  1  0
  3  7  2  0
  5  8  2  0
  6  7  1  0
  8 11  1  0
  8  1  1  0
  9 12  1  0
  9 10  2  0
 11 13  1  0
 12  4  1  0
 13  2  1  0
 13 12  1  0
  1 14  1  1
  2 15  1  0
  4 16  1  0
  6 17  1  6
  6 18  1  0
  7 19  1  0
 12 20  1  1
 13 21  1  6
M  END
$$$$

     RDKit          3D

 60 60  0  0  0  0  0  0  0  0999 V2000
    0.9330   -0.6630   -0.1630 N   0  0  0  0  0  0  0  0  0  0  0  0
    0.6680   -0.5490    1.2340 C   0  0  1  0  0  0  0  0  0  0  0  0
   -0.2640   -3.3670   -3.9110 C   0  0  0  0  0  0  0  0  0  0  0  0
    0.9020   -1.3620   -3.5240 O   0  0  0  0  0  0  0  0  0  0  0  0
    2.3870   -1.6600   -1.7750 O   0  0  0  0  0  0  0  0  0  0  0  0
    3.0730   -1.5260   -5.5560 C   0  0  0  0  0  0  0  0  0  0  0  0
   -4.3150   -1.2050    2.9000 P   0  0  2  0  0  0  0  0  0  0  0  0
   -7.6490   -8.0750   -2.7290 C   0  0  0  0  0  0  0  0  0  0  0  0
   -1.3330   -1.2160    2.6770 C   0  0  2  0  0  0  0  0  0  0  0  0
    1.0180   -2.8710   -3.3910 C   0  0  1  0  0  0  0  0  0  0  0  0
   -7.0590   -7.5110   -1.6350 C   0  0  0  0  0  0  0  0  0  0  0  0
   -8.4580   -9.2090   -2.6270 C   0  0  0  0  0  0  0  0  0  0  0  0
   -5.3730   -2.4500    2.7290 O   0  0  0  0  0  0  0  0  0  0  0  0
   -6.0270   -6.3100   -1.7450 C   0  0  1  0  0  0  0  0  0  0  0  0
   -9.2350  -11.1800   -1.2170 O   0  0  0  0  0  0  0  0  0  0  0  0
   -0.8520   -0.2240    1.5760 C   0  0  1  0  0  0  0  0  0  0  0  0
   -7.9980   -9.3760   -0.2260 C   0  0  0  0  0  0  0  0  0  0  0  0
   -3.9920   -0.1430    2.1420 O   0  0  0  0  0  0  0  0  0  0  0  0
    2.3630   -2.7660   -2.6910 C   0  0  2  0  0  0  0  0  0  0  0  0
   -7.1400   -8.3030   -0.2800 C   0  0  0  0  0  0  0  0  0  0  0  0
   -0.7610   -2.6830   -5.0130 O   0  0  0  0  0  0  0  0  0  0  0  0
   -0.3560   -4.5580   -3.5830 O   0  0  0  0  0  0  0  0  0  0  0  0
   -5.8840   -3.9900    1.0840 C   0  0  1  0  0  0  0  0  0  0  0  0
    3.6870   -1.9260   -6.3120 N   0  0  0  0  0  0  0  0  0  0  0  0
    2.3630   -1.1130   -4.2770 C   0  0  2  0  0  0  0  0  0  0  0  0
   -5.0760   -3.5880    1.9530 N   0  0  0  0  0  0  0  0  0  0  0  0
   -2.8420   -1.8210    3.1460 O   0  0  0  0  0  0  0  0  0  0  0  0
   -5.8240   -4.6110   -0.0890 C   0  0  1  0  0  0  0  0  0  0  0  0
    2.1570   -1.5480   -0.3180 C   0  0  2  0  0  0  0  0  0  0  0  0
   -5.8480   -5.8770   -0.2410 O   0  0  0  0  0  0  0  0  0  0  0  0
   -8.4750   -9.9480   -1.4780 C   0  0  0  0  0  0  0  0  0  0  0  0
   -5.0600   -0.6550    4.2080 O   0  0  0  0  0  0  0  0  0  0  0  0
    0.3944   -0.2263   -0.9247 H   0  0  0  0  0  0  0  0  0  0  0  0
    1.4432   -0.6742    2.0043 H   0  0  0  0  0  0  0  0  0  0  0  0
    0.8879    0.5278    1.1878 H   0  0  0  0  0  0  0  0  0  0  0  0
   -7.4827   -7.6239   -3.7184 H   0  0  0  0  0  0  0  0  0  0  0  0
   -0.5066   -1.6116    3.2857 H   0  0  0  0  0  0  0  0  0  0  0  0
   -1.2158   -2.0535    1.9736 H   0  0  0  0  0  0  0  0  0  0  0  0
    1.4494   -2.9269   -4.4013 H   0  0  0  0  0  0  0  0  0  0  0  0
   -9.0864   -9.5094   -3.4784 H   0  0  0  0  0  0  0  0  0  0  0  0
   -5.5558   -5.8869   -2.6444 H   0  0  0  0  0  0  0  0  0  0  0  0
   -6.8622   -5.6019   -1.8495 H   0  0  0  0  0  0  0  0  0  0  0  0
   -9.7465  -12.0092   -1.0413 H   0  0  0  0  0  0  0  0  0  0  0  0
   -1.4602    0.5672    1.1133 H   0  0  0  0  0  0  0  0  0  0  0  0
   -1.1780   -0.9297    0.7977 H   0  0  0  0  0  0  0  0  0  0  0  0
   -8.3170   -9.7931    0.7406 H   0  0  0  0  0  0  0  0  0  0  0  0
    3.2083   -3.4484   -2.8635 H   0  0  0  0  0  0  0  0  0  0  0  0
    2.7295   -2.1092   -3.4937 H   0  0  0  0  0  0  0  0  0  0  0  0
   -6.5344   -8.0106    0.5905 H   0  0  0  0  0  0  0  0  0  0  0  0
   -0.4295   -5.5098   -3.3209 H   0  0  0  0  0  0  0  0  0  0  0  0
   -6.9233   -3.7693    1.3690 H   0  0  0  0  0  0  0  0  0  0  0  0
   -5.8178   -3.0182    0.5729 H   0  0  0  0  0  0  0  0  0  0  0  0
    3.0048   -0.4561   -3.6715 H   0  0  0  0  0  0  0  0  0  0  0  0
    1.9481   -0.2336   -4.7913 H   0  0  0  0  0  0  0  0  0  0  0  0
   -4.1900   -4.0920    2.1010 H   0  0  0  0  0  0  0  0  0  0  0  0
   -5.7483   -3.9891   -0.9932 H   0  0  0  0  0  0  0  0  0  0  0  0
   -4.7267   -4.6404   -0.0173 H   0  0  0  0  0  0  0  0  0  0  0  0
    2.7493   -2.0097    0.4857 H   0  0  0  0  0  0  0  0  0  0  0  0
    2.8040   -0.6591   -0.2842 H   0  0  0  0  0  0  0  0  0  0  0  0
   -5.5202   -0.3152    5.0160 H   0  0  0  0  0  0  0  0  0  0  0  0
  1  2  1  0
  2 16  1  0
  3 22  1  0
  3 10  1  0
  4 10  1  0
  5 29  1  0
  6 25  1  0
  7 18  2  0
  7 27  1  1
  7 32  1  0
  8 12  2  0
  8 11  1  0
  9 27  1  0
 10 19  1  0
 11 20  2  0
 12 31  1  0
 13  7  1  0
 14 11  1  0
 14 30  1  0
 16  9  1  0
 19  5  1  0
 20 17  1  0
 21  3  2  0
 23 26  1  0
 24  6  3  0
 25  4  1  0
 26 13  1  0
 28 23  1  0
 29  1  1  0
 30 28  1  0
 31 15  1  0
 31 17  2  0
  1 33  1  0
  2 34  1  1
  2 35  1  0
  8 36  1  0
  9 37  1  1
  9 38  1  0
 10 39  1  6
 12 40  1  0
 14 41  1  6
 14 42  1  0
 15 43  1  0
 16 44  1  6
 16 45  1  0
 17 46  1  0
 19 47  1  1
 19 48  1  0
 20 49  1  0
 22 50  1  0
 23 51  1  1
 23 52  1  0
 25 53  1  1
 25 54  1  0
 26 55  1  0
 28 56  1  6
 28 57  1  0
 29 58  1  1
 29 59  1  0
 32 60  1  0
M  END
$$$$

     RDKit          3D

 22 21  0  0  0  0  0  0  0  0999 V2000
    2.3150   -2.3980   -4.8580 O   0  0  0  0  0  0  0  0  0  0  0  0
   -0.1520   -4.7710   -5.7170 O   0  0  0  0  0  0  0  0  0  0  0  0
    0.3270   -1.9710   -3.7380 C   0  0  2  0  0  0  0  0  0  0  0  0
   -2.0900   -6.7750   -3.3250 O   0  0  0  0  0  0  0  0  0  0  0  0
    1.8120   -1.4910   -3.7530 C   0  0  1  0  0  0  0  0  0  0  0  0
   -3.2000   -5.1290   -4.3800 O   0  0  0  0  0  0  0  0  0  0  0  0
   -0.4220   -1.4140   -2.6420 O   0  0  0  0  0  0  0  0  0  0  0  0
    0.4520   -3.4900   -3.4220 C   0  0  1  0  0  0  0  0  0  0  0  0
   -2.1830   -5.7160   -4.0730 C   0  0  0  0  0  0  0  0  0  0  0  0
   -0.8720   -3.9850   -3.5560 N   0  0  0  0  0  0  0  0  0  0  0  0
   -0.8720   -5.1450   -4.4520 C   0  0  2  0  0  0  0  0  0  0  0  0
    2.6436   -2.9905   -5.5798 H   0  0  0  0  0  0  0  0  0  0  0  0
    0.3223   -4.5246   -6.5503 H   0  0  0  0  0  0  0  0  0  0  0  0
   -0.1758   -1.6944   -4.6764 H   0  0  0  0  0  0  0  0  0  0  0  0
   -2.0192   -7.5816   -2.7553 H   0  0  0  0  0  0  0  0  0  0  0  0
    2.3313   -0.7316   -3.1499 H   0  0  0  0  0  0  0  0  0  0  0  0
    1.5565   -0.7239   -4.4989 H   0  0  0  0  0  0  0  0  0  0  0  0
   -0.9371   -1.0310   -1.8883 H   0  0  0  0  0  0  0  0  0  0  0  0
    1.3593   -4.0519   -3.1556 H   0  0  0  0  0  0  0  0  0  0  0  0
    0.2671   -3.2837   -2.3574 H   0  0  0  0  0  0  0  0  0  0  0  0
   -1.7040   -3.5900   -3.0948 H   0  0  0  0  0  0  0  0  0  0  0  0
   -0.2912   -6.0784   -4.4887 H   0  0  0  0  0  0  0  0  0  0  0  0
  1  5  1  0
  3  8  1  0
  3  7  1  0
  5  3  1  0
  6  9  2  0
  9  4  1  0
 10  8  1  0
 11  2  1  0
 11  9  1  0
 11 10  1  0
  1 12  1  0
  2 13  1  0
  3 14  1  6
  4 15  1  0
  5 16  1  1
  5 17  1  0
  7 18  1  0
  8 19  1  1
  8 20  1  0
 10 21  1  0
 11 22  1  1
M  END
$$$$

     RDKit          3D

 21 20  0  0  0  0  0  0  0  0999 V2000
   -2.2400   -0.4490    3.0340 C   0  0  1  0  0  0  0  0  0  0  0  0
    0.5060   -0.8940   -0.9190 O   0  0  0  0  0  0  0  0  0  0  0  0
    1.1640   -0.1780    0.0890 C   0  0  1  0  0  0  0  0  0  0  0  0
   -0.0530   -0.8230    2.2260 C   0  0  2  0  0  0  0  0  0  0  0  0
    1.1010   -0.6700    1.5710 C   0  0  1  0  0  0  0  0  0  0  0  0
   -3.3050    0.1480    3.1290 O   0  0  0  0  0  0  0  0  0  0  0  0
   -2.6190   -1.7570    2.3630 O   0  0  0  0  0  0  0  0  0  0  0  0
   -1.0940    0.1850    2.3860 C   0  0  1  0  0  0  0  0  0  0  0  0
   -1.6060    0.8320    1.2230 O   0  0  0  0  0  0  0  0  0  0  0  0
   -1.8196   -0.5240    4.0477 H   0  0  0  0  0  0  0  0  0  0  0  0
    0.0409   -1.4001   -1.6315 H   0  0  0  0  0  0  0  0  0  0  0  0
    1.7266    0.7330   -0.1631 H   0  0  0  0  0  0  0  0  0  0  0  0
    0.2589    0.4258    0.2510 H   0  0  0  0  0  0  0  0  0  0  0  0
   -0.2354   -1.8039    2.6892 H   0  0  0  0  0  0  0  0  0  0  0  0
   -0.5327   -1.1714    1.2994 H   0  0  0  0  0  0  0  0  0  0  0  0
    2.0414   -0.8987    2.0938 H   0  0  0  0  0  0  0  0  0  0  0  0
    1.1606    0.3717    1.9194 H   0  0  0  0  0  0  0  0  0  0  0  0
   -4.1660    0.6306    3.2058 H   0  0  0  0  0  0  0  0  0  0  0  0
   -2.8662   -2.6100    1.9254 H   0  0  0  0  0  0  0  0  0  0  0  0
   -0.5870    0.9781    2.9551 H   0  0  0  0  0  0  0  0  0  0  0  0
   -1.9615    1.2812    0.4156 H   0  0  0  0  0  0  0  0  0  0  0  0
  1  6  1  0
  2  3  1  0
  3  5  1  0
  4  8  1  0
  5  4  1  0
  7  1  1  0
  8  9  1  0
  8  1  1  0
  1 10  1  1
  2 11  1  0
  3 12  1  6
  3 13  1  0
  4 14  1  1
  4 15  1  0
  5 16  1  1
  5 17  1  0
  6 18  1  0
  7 19  1  0
  8 20  1  1
  9 21  1  0
M  END
$$$$

     RDKit          3D

 10  9  0  0  0  0  0  0  0  0999 V2000
   -4.7590   -6.9570   -4.4460 O   0  0  0  0  0  0  0  0  0  0  0  0
   -6.1830   -5.8020   -3.1460 N   0  0  0  0  0  0  0  0  0  0  0  0
   -5.6600   -6.4530   -4.0510 C   0  0  0  0  0  0  0  0  0  0  0  0
   -5.2210   -5.6400   -2.1370 C   0  0  0  0  0  0  0  0  0  0  0  0
   -7.4930   -5.6780   -2.6960 O   0  0  0  0  0  0  0  0  0  0  0  0
   -6.4437   -6.5990   -4.8090 H   0  0  0  0  0  0  0  0  0  0  0  0
   -4.4670   -5.5130   -1.3462 H   0  0  0  0  0  0  0  0  0  0  0  0
    0.0000    0.0000    0.0000 H   0  0  0  0  0  0  0  0  0  0  0  0
   -5.9809   -5.1833   -1.4858 H   0  0  0  0  0  0  0  0  0  0  0  0
   -8.4256   -5.5897   -2.3757 H   0  0  0  0  0  0  0  0  0  0  0  0
  1  3  2  0
  2  5  1  0
  2  4  1  0
  3  2  1  0
  3  6  1  0
  4  7  1  0
  4  8  1  0
  4  9  1  0
  5 10  1  0
M  END
$$$$

     RDKit          3D

 15 15  0  0  0  0  0  0  0  0999 V2000
    1.5150   -4.8730   -6.3820 C   0  0  1  0  0  0  0  0  0  0  0  0
    0.5440   -4.1870   -5.4130 C   0  0  1  0  0  0  0  0  0  0  0  0
   -0.0300   -5.3610   -3.0150 O   0  0  0  0  0  0  0  0  0  0  0  0
    0.7790   -6.2260   -6.8080 O   0  0  0  0  0  0  0  0  0  0  0  0
   -0.8020   -5.0320   -5.3240 C   0  0  1  0  0  0  0  0  0  0  0  0
   -1.1550   -5.0950   -3.7920 C   0  0  2  0  0  0  0  0  0  0  0  0
   -1.9480   -4.3390   -4.7730 O   0  0  0  0  0  0  0  0  0  0  0  0
    2.5009   -4.5130   -6.7112 H   0  0  0  0  0  0  0  0  0  0  0  0
    1.9879   -5.3961   -5.5378 H   0  0  0  0  0  0  0  0  0  0  0  0
    0.7464   -3.2553   -4.8645 H   0  0  0  0  0  0  0  0  0  0  0  0
    0.1235   -3.6050   -6.2464 H   0  0  0  0  0  0  0  0  0  0  0  0
    0.7696   -5.5501   -2.4627 H   0  0  0  0  0  0  0  0  0  0  0  0
    0.3230   -7.0642   -7.0719 H   0  0  0  0  0  0  0  0  0  0  0  0
   -0.6872   -5.6865   -6.2006 H   0  0  0  0  0  0  0  0  0  0  0  0
   -1.5908   -5.4161   -2.8344 H   0  0  0  0  0  0  0  0  0  0  0  0
  1  2  1  0
  4  1  1  0
  5  2  1  0
  5  7  1  0
  5  6  1  0
  6  3  1  0
  7  6  1  0
  1  8  1  6
  1  9  1  0
  2 10  1  1
  2 11  1  0
  3 12  1  0
  4 13  1  0
  5 14  1  6
  6 15  1  6
M  END
$$$$

     RDKit          3D

 48 48  0  0  0  0  0  0  0  0999 V2000
   -4.1930   -4.9240   -4.0910 O   0  0  0  0  0  0  0  0  0  0  0  0
   -0.6280   -5.1530   -4.0110 C   0  0  2  0  0  0  0  0  0  0  0  0
    0.8280   -1.5920   -2.8060 O   0  0  0  0  0  0  0  0  0  0  0  0
    2.2000   -1.8670   -1.0650 C   0  0  0  0  0  0  0  0  0  0  0  0
    3.3150   -2.2590   -3.1820 C   0  0  0  0  0  0  0  0  0  0  0  0
   -5.8980   -6.6240   -2.3560 C   0  0  2  0  0  0  0  0  0  0  0  0
   -0.2850   -2.6750   -4.7990 C   0  0  1  0  0  0  0  0  0  0  0  0
    0.5300   -1.4320   -4.2170 C   0  0  2  0  0  0  0  0  0  0  0  0
    1.2340   -3.8280   -2.9510 O   0  0  0  0  0  0  0  0  0  0  0  0
    0.2940   -3.9390   -4.0540 C   0  0  1  0  0  0  0  0  0  0  0  0
   -0.8230   -5.7770   -5.2660 O   0  0  0  0  0  0  0  0  0  0  0  0
   -7.6600   -5.4550    0.5420 O   0  0  0  0  0  0  0  0  0  0  0  0
   -3.0330   -5.7840   -3.9160 C   0  0  1  0  0  0  0  0  0  0  0  0
   -5.6930   -5.1240   -0.7430 C   0  0  1  0  0  0  0  0  0  0  0  0
   -6.5330   -5.1480    0.4630 C   0  0  0  0  0  0  0  0  0  0  0  0
    1.9050   -2.4980   -2.4640 C   0  0  2  0  0  0  0  0  0  0  0  0
   -6.3400   -5.4340   -1.8510 C   0  0  1  0  0  0  0  0  0  0  0  0
   -2.0040   -4.8240   -3.6010 N   0  0  0  0  0  0  0  0  0  0  0  0
   -4.5220   -7.0900   -2.2690 C   0  0  1  0  0  0  0  0  0  0  0  0
   -3.5730   -6.9850   -3.2000 C   0  0  1  0  0  0  0  0  0  0  0  0
   -6.1060   -4.3720    1.5030 O   0  0  0  0  0  0  0  0  0  0  0  0
   -4.9825   -4.3387   -4.2101 H   0  0  0  0  0  0  0  0  0  0  0  0
   -0.1029   -5.8029   -3.2956 H   0  0  0  0  0  0  0  0  0  0  0  0
    2.4076   -1.4229   -0.0803 H   0  0  0  0  0  0  0  0  0  0  0  0
    0.0000    0.0000    0.0000 H   0  0  0  0  0  0  0  0  0  0  0  0
    1.7108   -2.7224   -0.5761 H   0  0  0  0  0  0  0  0  0  0  0  0
    4.2842   -2.0947   -3.6756 H   0  0  0  0  0  0  0  0  0  0  0  0
    0.0000    0.0000    0.0000 H   0  0  0  0  0  0  0  0  0  0  0  0
    3.8296   -2.7140   -2.3228 H   0  0  0  0  0  0  0  0  0  0  0  0
   -6.6295   -7.2719   -2.8611 H   0  0  0  0  0  0  0  0  0  0  0  0
   -6.1248   -7.1148   -1.3980 H   0  0  0  0  0  0  0  0  0  0  0  0
   -1.0809   -2.6545   -5.5580 H   0  0  0  0  0  0  0  0  0  0  0  0
    0.4678   -2.7974   -5.5917 H   0  0  0  0  0  0  0  0  0  0  0  0
    0.8299   -0.5584   -4.8143 H   0  0  0  0  0  0  0  0  0  0  0  0
   -0.4157   -0.9320   -3.9606 H   0  0  0  0  0  0  0  0  0  0  0  0
    1.0715   -4.1344   -4.8072 H   0  0  0  0  0  0  0  0  0  0  0  0
   -0.9594   -6.2136   -6.1440 H   0  0  0  0  0  0  0  0  0  0  0  0
   -2.4636   -6.3681   -4.6540 H   0  0  0  0  0  0  0  0  0  0  0  0
   -4.6227   -4.8708   -0.7239 H   0  0  0  0  0  0  0  0  0  0  0  0
   -5.4447   -6.1848   -0.5912 H   0  0  0  0  0  0  0  0  0  0  0  0
   -7.1288   -4.8173   -2.3064 H   0  0  0  0  0  0  0  0  0  0  0  0
   -7.0985   -5.9670   -1.2589 H   0  0  0  0  0  0  0  0  0  0  0  0
   -2.2221   -3.9452   -3.1100 H   0  0  0  0  0  0  0  0  0  0  0  0
   -4.2323   -7.5843   -1.3300 H   0  0  0  0  0  0  0  0  0  0  0  0
   -4.8246   -8.0615   -2.6870 H   0  0  0  0  0  0  0  0  0  0  0  0
   -3.1091   -7.9390   -3.4911 H   0  0  0  0  0  0  0  0  0  0  0  0
   -2.8152   -6.8566   -2.4131 H   0  0  0  0  0  0  0  0  0  0  0  0
   -5.7965   -3.8096    2.2567 H   0  0  0  0  0  0  0  0  0  0  0  0
  2 11  1  0
  2 18  1  0
  3 16  1  0
 16  5  1  6
  6 19  1  0
  6 17  1  0
  7  8  1  0
  7 10  1  0
  8  3  1  0
  9 16  1  0
 10  2  1  0
 10  9  1  0
 13  1  1  0
 13 18  1  0
 13 20  1  0
 14 15  1  0
 15 12  2  0
 15 21  1  0
 16  4  1  0
 17 14  1  0
 20 19  1  0
  1 22  1  0
  2 23  1  1
  4 24  1  0
  4 25  1  0
  4 26  1  0
  5 27  1  0
  5 28  1  0
  5 29  1  0
  6 30  1  6
  6 31  1  0
  7 32  1  6
  7 33  1  0
  8 34  1  6
  8 35  1  0
 10 36  1  6
 11 37  1  0
 13 38  1  6
 14 39  1  6
 14 40  1  0
 17 41  1  6
 17 42  1  0
 18 43  1  0
 19 44  1  1
 19 45  1  0
 20 46  1  6
 20 47  1  0
 21 48  1  0
M  END
$$$$

     RDKit          3D

 18 18  0  0  0  0  0  0  0  0999 V2000
    1.6430   -2.8580   -5.0710 C   0  0  1  0  0  0  0  0  0  0  0  0
   -0.6170   -1.0210   -5.0720 C   0  0  1  0  0  0  0  0  0  0  0  0
    1.5380   -1.5600   -4.1730 N   0  0  0  0  0  0  0  0  0  0  0  0
   -0.6820   -2.4270   -5.6030 C   0  0  1  0  0  0  0  0  0  0  0  0
   -1.6060   -2.6090   -6.7540 O   0  0  0  0  0  0  0  0  0  0  0  0
    0.5610   -3.1600   -5.9220 C   0  0  2  0  0  0  0  0  0  0  0  0
    0.8230   -0.5740   -5.1280 C   0  0  1  0  0  0  0  0  0  0  0  0
    2.5323   -3.5043   -5.0325 H   0  0  0  0  0  0  0  0  0  0  0  0
    1.1778   -3.4503   -4.2693 H   0  0  0  0  0  0  0  0  0  0  0  0
   -1.4672   -0.4254   -4.7080 H   0  0  0  0  0  0  0  0  0  0  0  0
   -0.4561   -1.4120   -4.0565 H   0  0  0  0  0  0  0  0  0  0  0  0
    1.8608   -1.4103   -3.2064 H   0  0  0  0  0  0  0  0  0  0  0  0
   -1.0636   -2.8859   -4.6790 H   0  0  0  0  0  0  0  0  0  0  0  0
   -2.2211   -2.7302   -7.5202 H   0  0  0  0  0  0  0  0  0  0  0  0
    0.6352   -3.8787   -6.7514 H   0  0  0  0  0  0  0  0  0  0  0  0
    0.8663   -2.3480   -6.5983 H   0  0  0  0  0  0  0  0  0  0  0  0
    1.2593    0.2529   -5.7076 H   0  0  0  0  0  0  0  0  0  0  0  0
    0.6431    0.1109   -4.2862 H   0  0  0  0  0  0  0  0  0  0  0  0
  1  3  1  0
  4  2  1  0
  5  4  1  0
  6  4  1  0
  6  1  1  0
  7  2  1  0
  7  3  1  0
  1  8  1  6
  1  9  1  0
  2 10  1  1
  2 11  1  0
  3 12  1  0
  4 13  1  1
  5 14  1  0
  6 15  1  6
  6 16  1  0
  7 17  1  6
  7 18  1  0
M  END
$$$$

     RDKit          3D

 16 16  0  0  0  0  0  0  0  0999 V2000
   -4.8990   -5.5330   -3.7690 O   0  0  0  0  0  0  0  0  0  0  0  0
   -5.3390   -5.7750   -1.5420 C   0  0  0  0  0  0  0  0  0  0  0  0
   -3.3940   -5.7560   -3.2340 C   0  0  0  0  0  0  0  0  0  0  0  0
   -2.4710   -5.5660   -3.5080 O   0  0  0  0  0  0  0  0  0  0  0  0
   -5.8520   -5.2110   -0.2430 C   0  0  2  0  0  0  0  0  0  0  0  0
   -6.9790   -4.4120   -0.2980 O   0  0  0  0  0  0  0  0  0  0  0  0
   -4.4820   -6.9980   -1.6940 O   0  0  0  0  0  0  0  0  0  0  0  0
   -5.2400   -4.5890    0.3640 O   0  0  0  0  0  0  0  0  0  0  0  0
   -5.5950   -5.1310   -2.7040 C   0  0  0  0  0  0  0  0  0  0  0  0
   -3.4750   -7.0120   -2.3460 C   0  0  1  0  0  0  0  0  0  0  0  0
   -5.9813   -6.2182    0.1799 H   0  0  0  0  0  0  0  0  0  0  0  0
   -7.7860   -3.8399   -0.3374 H   0  0  0  0  0  0  0  0  0  0  0  0
   -4.6700   -4.0097    0.9293 H   0  0  0  0  0  0  0  0  0  0  0  0
   -6.3361   -4.3206   -2.7672 H   0  0  0  0  0  0  0  0  0  0  0  0
   -2.7172   -7.8087   -2.3142 H   0  0  0  0  0  0  0  0  0  0  0  0
   -2.9472   -6.4778   -1.5423 H   0  0  0  0  0  0  0  0  0  0  0  0
  1  3  1  0
  1  9  1  0
  2  5  1  0
  3 10  1  0
  4  3  2  0
  5  8  1  0
  6  5  1  0
  7  2  1  0
  9  2  2  0
 10  7  1  0
  5 11  1  1
  6 12  1  0
  8 13  1  0
  9 14  1  0
 10 15  1  6
 10 16  1  0
M  END
$$$$

     RDKit          3D

  8  7  0  0  0  0  0  0  0  0999 V2000
    0.3580   -3.7680   -4.1540 C   0  0  0  0  0  0  0  0  0  0  0  0
    2.9970   -3.6470   -3.7430 O   0  0  0  0  0  0  0  0  0  0  0  0
    1.6660   -2.9860   -3.1970 P   0  0  0  0  0  0  0  0  0  0  0  0
   -0.4416   -4.2460   -4.7390 H   0  0  0  0  0  0  0  0  0  0  0  0
    0.0000    0.0000    0.0000 H   0  0  0  0  0  0  0  0  0  0  0  0
    0.4085   -2.9519   -4.8899 H   0  0  0  0  0  0  0  0  0  0  0  0
    3.8293   -4.0603   -4.0844 H   0  0  0  0  0  0  0  0  0  0  0  0
    1.5529   -2.1394   -2.3259 H   0  0  0  0  0  0  0  0  0  0  0  0
  1  3  1  0
  2  3  1  0
  1  4  1  0
  1  5  1  0
  1  6  1  0
  2  7  1  0
  3  8  1  0
M  END
$$$$

     RDKit          3D

 12 11  0  0  0  0  0  0  0  0999 V2000
   -5.9320   -4.9990   -3.1140 O   0  0  0  0  0  0  0  0  0  0  0  0
   -5.0760   -5.7290   -5.9420 O   0  0  0  0  0  0  0  0  0  0  0  0
   -4.5220   -5.3380   -4.7420 C   0  0  0  0  0  0  0  0  0  0  0  0
   -5.1240   -5.1120   -3.7850 C   0  0  2  0  0  0  0  0  0  0  0  0
   -3.2950   -5.2830   -4.6030 O   0  0  0  0  0  0  0  0  0  0  0  0
   -5.9900   -4.3820   -3.1960 C   0  0  0  0  0  0  0  0  0  0  0  0
   -4.2992   -4.8095   -3.1231 H   0  0  0  0  0  0  0  0  0  0  0  0
   -5.2470   -4.0680   -4.1089 H   0  0  0  0  0  0  0  0  0  0  0  0
   -2.3123   -5.2389   -4.4917 H   0  0  0  0  0  0  0  0  0  0  0  0
   -6.0921   -3.2963   -3.3403 H   0  0  0  0  0  0  0  0  0  0  0  0
    0.0000    0.0000    0.0000 H   0  0  0  0  0  0  0  0  0  0  0  0
   -5.4321   -4.4552   -4.1412 H   0  0  0  0  0  0  0  0  0  0  0  0
  2  3  2  0
  3  5  1  0
  3  4  1  0
  4  1  1  0
  6  1  1  0
  4  7  1  1
  4  8  1  0
  5  9  1  0
  6 10  1  0
  6 11  1  0
  6 12  1  0
M  END
$$$$

     RDKit          3D

 21 22  0  0  0  0  0  0  0  0999 V2000
   -5.3120   -3.9720    0.4390 C   0  0  0  0  0  0  0  0  0  0  0  0
   -5.5270   -1.9810    1.7350 C   0  0  0  0  0  0  0  0  0  0  0  0
   -5.4260   -6.5050    3.4200 C   0  0  1  0  0  0  0  0  0  0  0  0
   -5.3260   -4.6330   -0.7400 O   0  0  0  0  0  0  0  0  0  0  0  0
   -5.3370   -6.0510    1.7050 O   0  0  0  0  0  0  0  0  0  0  0  0
   -4.3190   -6.2960    4.0950 N   0  0  0  0  0  0  0  0  0  0  0  0
   -5.7930   -2.7140    2.8220 C   0  0  0  0  0  0  0  0  0  0  0  0
   -6.0390   -4.8410    3.9960 C   0  0  1  0  0  0  0  0  0  0  0  0
   -5.3550   -0.6290    1.8440 O   0  0  0  0  0  0  0  0  0  0  0  0
   -5.3320   -2.5790    0.4640 C   0  0  0  0  0  0  0  0  0  0  0  0
   -5.4960   -4.7830    1.6350 C   0  0  0  0  0  0  0  0  0  0  0  0
   -5.7420   -4.1250    2.8890 C   0  0  0  0  0  0  0  0  0  0  0  0
   -5.8598   -7.5099    3.5296 H   0  0  0  0  0  0  0  0  0  0  0  0
   -5.3363   -5.1171   -1.6035 H   0  0  0  0  0  0  0  0  0  0  0  0
   -3.4508   -6.1321    4.6244 H   0  0  0  0  0  0  0  0  0  0  0  0
    0.0000    0.0000    0.0000 H   0  0  0  0  0  0  0  0  0  0  0  0
   -6.0744   -2.1746    3.7385 H   0  0  0  0  0  0  0  0  0  0  0  0
   -6.5011   -4.5355    4.9463 H   0  0  0  0  0  0  0  0  0  0  0  0
   -5.0439   -4.6170    4.4079 H   0  0  0  0  0  0  0  0  0  0  0  0
   -5.2305    0.3500    1.9229 H   0  0  0  0  0  0  0  0  0  0  0  0
   -5.2040   -1.9784   -0.4486 H   0  0  0  0  0  0  0  0  0  0  0  0
  1 10  2  0
  1 11  1  0
  2  9  1  0
  2  7  2  0
  3  8  1  0
  3  6  1  0
  4  1  1  0
  5  3  1  0
  7 12  1  0
 10  2  1  0
 11  5  1  0
 11 12  2  0
 12  8  1  0
  3 13  1  6
  4 14  1  0
  6 15  1  0
  6 16  1  0
  7 17  1  0
  8 18  1  1
  8 19  1  0
  9 20  1  0
 10 21  1  0
M  END
$$$$

     RDKit          3D

 23 22  0  0  0  0  0  0  0  0999 V2000
   -3.9240   -4.8590   -4.1600 O   0  0  0  0  0  0  0  0  0  0  0  0
   -5.5360   -4.9760    2.5800 N   0  0  0  0  0  0  0  0  0  0  0  0
   -6.1270   -4.9910   -2.4320 O   0  0  0  0  0  0  0  0  0  0  0  0
   -5.1000   -5.6540   -2.2350 C   0  0  0  0  0  0  0  0  0  0  0  0
   -5.2010   -6.1100   -0.9800 C   0  0  1  0  0  0  0  0  0  0  0  0
   -4.2180   -6.9990   -3.8080 O   0  0  0  0  0  0  0  0  0  0  0  0
   -6.7350   -5.5950    0.8960 C   0  0  2  0  0  0  0  0  0  0  0  0
   -4.3960   -5.7340   -3.4820 C   0  0  0  0  0  0  0  0  0  0  0  0
   -5.6250   -5.5050    0.1250 C   0  0  1  0  0  0  0  0  0  0  0  0
   -7.1690   -5.8990    3.3530 O   0  0  0  0  0  0  0  0  0  0  0  0
   -4.6540   -5.4750    3.8110 C   0  0  0  0  0  0  0  0  0  0  0  0
   -6.5120   -5.2640    2.3560 C   0  0  0  0  0  0  0  0  0  0  0  0
   -5.0957   -4.2993    1.9404 H   0  0  0  0  0  0  0  0  0  0  0  0
   -4.8816   -7.1534   -0.8411 H   0  0  0  0  0  0  0  0  0  0  0  0
   -4.1759   -5.7687   -0.7735 H   0  0  0  0  0  0  0  0  0  0  0  0
   -4.0843   -7.9489   -4.0528 H   0  0  0  0  0  0  0  0  0  0  0  0
   -7.7172   -5.8847    0.4943 H   0  0  0  0  0  0  0  0  0  0  0  0
   -6.9629   -4.5385    0.6913 H   0  0  0  0  0  0  0  0  0  0  0  0
   -4.9090   -4.7588    0.4999 H   0  0  0  0  0  0  0  0  0  0  0  0
   -6.1121   -4.7307   -0.4859 H   0  0  0  0  0  0  0  0  0  0  0  0
   -4.0455   -5.8193    4.6603 H   0  0  0  0  0  0  0  0  0  0  0  0
    0.0000    0.0000    0.0000 H   0  0  0  0  0  0  0  0  0  0  0  0
   -5.0785   -4.6774    4.4384 H   0  0  0  0  0  0  0  0  0  0  0  0
  1  8  2  0
  2 11  1  0
  3  4  2  0
  4  5  1  0
  5  9  1  0
  6  8  1  0
  7 12  1  0
  8  4  1  0
  9  7  1  0
 12  2  1  0
 12 10  2  0
  2 13  1  0
  5 14  1  6
  5 15  1  0
  6 16  1  0
  7 17  1  1
  7 18  1  0
  9 19  1  1
  9 20  1  0
 11 21  1  0
 11 22  1  0
 11 23  1  0
M  END
$$$$

     RDKit          3D

 15 14  0  0  0  0  0  0  0  0999 V2000
    1.5050   -1.8530   -3.5380 C   0  0  0  0  0  0  0  0  0  0  0  0
    0.9790   -0.1070   -1.7030 C   0  0  1  0  0  0  0  0  0  0  0  0
   -0.4440    1.1390   -0.4380 O   0  0  0  0  0  0  0  0  0  0  0  0
    0.5780   -0.1360   -0.1800 C   0  0  1  0  0  0  0  0  0  0  0  0
    1.2430   -1.4930   -2.2840 C   0  0  1  0  0  0  0  0  0  0  0  0
    1.8460   -1.0610   -4.3950 O   0  0  0  0  0  0  0  0  0  0  0  0
    1.7470   -3.1940   -3.6590 O   0  0  0  0  0  0  0  0  0  0  0  0
    1.0606    0.8201   -2.2893 H   0  0  0  0  0  0  0  0  0  0  0  0
    2.0392   -0.0227   -1.4222 H   0  0  0  0  0  0  0  0  0  0  0  0
   -1.0556    1.9020   -0.5924 H   0  0  0  0  0  0  0  0  0  0  0  0
    0.8594   -0.7475    0.6900 H   0  0  0  0  0  0  0  0  0  0  0  0
    1.3946    0.5648    0.0483 H   0  0  0  0  0  0  0  0  0  0  0  0
    1.2121   -2.3183   -1.5574 H   0  0  0  0  0  0  0  0  0  0  0  0
    2.3193   -1.3671   -2.0953 H   0  0  0  0  0  0  0  0  0  0  0  0
    1.9221   -4.1644   -3.7466 H   0  0  0  0  0  0  0  0  0  0  0  0
  1  5  1  0
  2  4  1  0
  3  4  1  0
  5  2  1  0
  6  1  2  0
  7  1  1  0
  2  8  1  6
  2  9  1  0
  3 10  1  0
  4 11  1  1
  4 12  1  0
  5 13  1  1
  5 14  1  0
  7 15  1  0
M  END
$$$$

     RDKit          3D

 31 31  0  0  0  0  0  0  0  0999 V2000
   -5.4760   -5.9600    1.1720 C   0  0  0  0  0  0  0  0  0  0  0  0
   -4.6320   -6.3970    2.0850 O   0  0  0  0  0  0  0  0  0  0  0  0
   -5.7840   -6.8090    0.3810 O   0  0  0  0  0  0  0  0  0  0  0  0
   -3.5310   -6.6940   -3.7100 C   0  0  2  0  0  0  0  0  0  0  0  0
   -4.7210   -2.1760    2.7440 P   0  0  2  0  0  0  0  0  0  0  0  0
   -2.4510   -6.4530   -4.6590 O   0  0  0  0  0  0  0  0  0  0  0  0
   -5.4250   -0.9600    2.4300 O   0  0  0  0  0  0  0  0  0  0  0  0
   -4.0230   -2.0890    3.9760 O   0  0  0  0  0  0  0  0  0  0  0  0
   -4.1060   -5.7230   -2.6850 C   0  0  1  0  0  0  0  0  0  0  0  0
   -3.1750   -1.8440    2.1630 O   0  0  0  0  0  0  0  0  0  0  0  0
   -6.9410   -5.4910   -0.7980 O   0  0  0  0  0  0  0  0  0  0  0  0
   -5.8800   -6.3920   -1.0010 C   0  0  1  0  0  0  0  0  0  0  0  0
   -6.7560   -4.6400    0.3280 C   0  0  0  0  0  0  0  0  0  0  0  0
   -6.2050   -5.1880    1.7820 C   0  0  2  0  0  0  0  0  0  0  0  0
   -5.3400   -4.2760    2.5000 O   0  0  0  0  0  0  0  0  0  0  0  0
   -5.2340   -5.9490   -2.3520 C   0  0  2  0  0  0  0  0  0  0  0  0
   -7.0110   -3.4580    0.3520 O   0  0  0  0  0  0  0  0  0  0  0  0
   -5.9360   -3.3720    2.6950 O   0  0  0  0  0  0  0  0  0  0  0  0
   -6.2490   -6.5790   -3.2440 N   0  0  0  0  0  0  0  0  0  0  0  0
   -3.9850   -7.6956   -3.7367 H   0  0  0  0  0  0  0  0  0  0  0  0
   -4.2622   -6.3427   -4.4529 H   0  0  0  0  0  0  0  0  0  0  0  0
   -1.7175   -6.2893   -5.3035 H   0  0  0  0  0  0  0  0  0  0  0  0
   -5.9091   -0.1239    2.2141 H   0  0  0  0  0  0  0  0  0  0  0  0
   -3.5359   -2.0283    4.8357 H   0  0  0  0  0  0  0  0  0  0  0  0
   -3.5283   -4.8783   -2.2816 H   0  0  0  0  0  0  0  0  0  0  0  0
   -4.4748   -5.0819   -3.4992 H   0  0  0  0  0  0  0  0  0  0  0  0
   -5.4674   -7.3487   -1.3537 H   0  0  0  0  0  0  0  0  0  0  0  0
   -6.9450   -5.4741    2.5439 H   0  0  0  0  0  0  0  0  0  0  0  0
   -4.9229   -4.8941   -2.3291 H   0  0  0  0  0  0  0  0  0  0  0  0
   -6.9502   -7.0142   -3.8602 H   0  0  0  0  0  0  0  0  0  0  0  0
    0.0000    0.0000    0.0000 H   0  0  0  0  0  0  0  0  0  0  0  0
  1 14  1  0
  1  2  2  0
  3  1  1  0
  4  9  1  0
  5  8  1  1
  6  4  1  0
  7  5  1  0
  9 16  1  0
 10  5  2  0
 11 13  1  0
 12 16  1  0
 12 11  1  0
 12  3  1  0
 13 17  2  0
 13 14  1  0
 14 15  1  0
 15 18  1  0
 16 19  1  0
 18  5  1  0
  4 20  1  1
  4 21  1  0
  6 22  1  0
  7 23  1  0
  8 24  1  0
  9 25  1  1
  9 26  1  0
 12 27  1  6
 14 28  1  1
 16 29  1  1
 19 30  1  0
 19 31  1  0
M  END
$$$$

     RDKit          3D

 17 17  0  0  0  0  0  0  0  0999 V2000
   -4.8330   -7.0200   -4.6240 O   0  0  0  0  0  0  0  0  0  0  0  0
   -5.1090   -5.1810   -0.4790 N   0  0  0  0  0  0  0  0  0  0  0  0
   -5.1930   -6.6010   -3.4430 C   0  0  1  0  0  0  0  0  0  0  0  0
   -3.0680   -6.1590   -3.1920 O   0  0  0  0  0  0  0  0  0  0  0  0
   -3.2490   -6.8590   -4.2050 C   0  0  0  0  0  0  0  0  0  0  0  0
   -5.4280   -5.2370   -1.7240 N   0  0  0  0  0  0  0  0  0  0  0  0
   -7.1210   -4.2530   -0.2050 O   0  0  0  0  0  0  0  0  0  0  0  0
   -5.8990   -4.3790    0.2100 C   0  0  0  0  0  0  0  0  0  0  0  0
   -5.5580   -3.6670    1.1600 O   0  0  0  0  0  0  0  0  0  0  0  0
   -2.7320   -7.5130   -5.1580 O   0  0  0  0  0  0  0  0  0  0  0  0
   -4.5120   -5.5080   -2.7810 C   0  0  2  0  0  0  0  0  0  0  0  0
   -4.3239   -5.7042   -0.0656 H   0  0  0  0  0  0  0  0  0  0  0  0
   -6.0370   -7.0912   -2.9357 H   0  0  0  0  0  0  0  0  0  0  0  0
   -4.4983   -7.3157   -2.9777 H   0  0  0  0  0  0  0  0  0  0  0  0
   -6.4139   -5.0747   -1.9740 H   0  0  0  0  0  0  0  0  0  0  0  0
   -5.2847   -3.0963    1.9214 H   0  0  0  0  0  0  0  0  0  0  0  0
   -4.2556   -4.4390   -2.8183 H   0  0  0  0  0  0  0  0  0  0  0  0
  1  5  1  0
  1  3  1  0
  2  8  1  0
  3 11  1  0
  4 11  1  0
  5  4  1  0
  6  2  1  0
  7  8  2  0
  8  9  1  0
 10  5  2  0
 11  6  1  0
  2 12  1  0
  3 13  1  1
  3 14  1  0
  6 15  1  0
  9 16  1  0
 11 17  1  6
M  END
$$$$

     RDKit          3D

 17 16  0  0  0  0  0  0  0  0999 V2000
   -5.0210   -2.5950    3.4080 C   0  0  1  0  0  0  0  0  0  0  0  0
   -6.5500   -5.2410    1.7700 O   0  0  0  0  0  0  0  0  0  0  0  0
   -7.8680   -3.6580    2.5190 O   0  0  0  0  0  0  0  0  0  0  0  0
   -5.5970   -3.3020    2.4530 C   0  0  1  0  0  0  0  0  0  0  0  0
   -6.6930   -4.1340    2.3410 C   0  0  0  0  0  0  0  0  0  0  0  0
   -3.1740    0.3170    4.0120 O   0  0  0  0  0  0  0  0  0  0  0  0
   -3.3350   -0.8290    3.6200 C   0  0  0  0  0  0  0  0  0  0  0  0
   -2.4820   -1.7400    3.4910 O   0  0  0  0  0  0  0  0  0  0  0  0
   -4.6200   -1.1790    3.0510 C   0  0  1  0  0  0  0  0  0  0  0  0
   -4.8419   -3.0125    4.4098 H   0  0  0  0  0  0  0  0  0  0  0  0
   -4.0350   -2.9567    3.0810 H   0  0  0  0  0  0  0  0  0  0  0  0
   -8.7767   -3.2899    2.6567 H   0  0  0  0  0  0  0  0  0  0  0  0
   -5.0639   -3.2018    1.4960 H   0  0  0  0  0  0  0  0  0  0  0  0
   -4.9677   -4.1659    2.7131 H   0  0  0  0  0  0  0  0  0  0  0  0
   -3.0435    1.2455    4.3296 H   0  0  0  0  0  0  0  0  0  0  0  0
   -5.2292   -0.5004    2.4358 H   0  0  0  0  0  0  0  0  0  0  0  0
   -5.1221   -0.8084    3.9569 H   0  0  0  0  0  0  0  0  0  0  0  0
  2  5  2  0
  4  1  1  0
  5  4  1  0
  5  3  1  0
  7  6  1  0
  8  7  2  0
  9  1  1  0
  9  7  1  0
  1 10  1  1
  1 11  1  0
  3 12  1  0
  4 13  1  6
  4 14  1  0
  6 15  1  0
  9 16  1  6
  9 17  1  0
M  END
$$$$

     RDKit          3D

 45 44  0  0  0  0  0  0  0  0999 V2000
   -5.3010   -5.2640   -3.6470 C   0  0  1  0  0  0  0  0  0  0  0  0
   -1.2310   -4.4800   -4.4490 C   0  0  0  0  0  0  0  0  0  0  0  0
   -2.5630   -6.6830   -5.6550 C   0  0  1  0  0  0  0  0  0  0  0  0
   -6.6440   -5.3010   -3.0350 C   0  0  1  0  0  0  0  0  0  0  0  0
   -3.3300   -6.9460   -4.4370 C   0  0  2  0  0  0  0  0  0  0  0  0
   -6.6700   -4.6960   -1.6560 C   0  0  0  0  0  0  0  0  0  0  0  0
   -5.5620   -3.7340    0.9500 C   0  0  1  0  0  0  0  0  0  0  0  0
   -1.7450   -4.0350   -5.4600 O   0  0  0  0  0  0  0  0  0  0  0  0
   -1.4770   -6.6920   -6.5310 O   0  0  0  0  0  0  0  0  0  0  0  0
   -5.1690   -6.0920    1.4480 O   0  0  0  0  0  0  0  0  0  0  0  0
   -0.8140   -3.7720   -3.4900 O   0  0  0  0  0  0  0  0  0  0  0  0
   -4.8360   -1.1110    2.4210 O   0  0  0  0  0  0  0  0  0  0  0  0
   -5.5110   -3.3260    2.2460 N   0  0  0  0  0  0  0  0  0  0  0  0
   -5.4180   -7.1290   -5.0690 O   0  0  0  0  0  0  0  0  0  0  0  0
   -1.4440   -5.9450   -4.1090 C   0  0  1  0  0  0  0  0  0  0  0  0
   -6.1890   -5.1530    0.8980 C   0  0  2  0  0  0  0  0  0  0  0  0
   -6.6000   -5.6590   -0.4870 C   0  0  0  0  0  0  0  0  0  0  0  0
   -6.0270   -2.1580    4.2340 C   0  0  0  0  0  0  0  0  0  0  0  0
   -5.3380   -2.1160    2.8500 C   0  0  0  0  0  0  0  0  0  0  0  0
   -4.7470   -6.4780   -4.3590 C   0  0  0  0  0  0  0  0  0  0  0  0
   -2.6900   -6.1140   -3.4530 O   0  0  0  0  0  0  0  0  0  0  0  0
   -2.9320   -8.3700   -3.9690 C   0  0  0  0  0  0  0  0  0  0  0  0
   -4.6983   -4.3459   -3.5847 H   0  0  0  0  0  0  0  0  0  0  0  0
   -4.8610   -5.6170   -2.7027 H   0  0  0  0  0  0  0  0  0  0  0  0
   -3.3072   -6.1378   -6.2541 H   0  0  0  0  0  0  0  0  0  0  0  0
   -2.2106   -5.7326   -5.2278 H   0  0  0  0  0  0  0  0  0  0  0  0
   -7.5293   -5.7243   -3.5321 H   0  0  0  0  0  0  0  0  0  0  0  0
   -6.4182   -6.2853   -2.5989 H   0  0  0  0  0  0  0  0  0  0  0  0
   -6.7365   -3.6085   -1.5043 H   0  0  0  0  0  0  0  0  0  0  0  0
   -5.2160   -3.1542    0.0816 H   0  0  0  0  0  0  0  0  0  0  0  0
   -4.5615   -4.1798    1.0510 H   0  0  0  0  0  0  0  0  0  0  0  0
   -0.7065   -6.6984   -7.1525 H   0  0  0  0  0  0  0  0  0  0  0  0
   -4.4920   -6.7153    1.8131 H   0  0  0  0  0  0  0  0  0  0  0  0
   -0.4871   -3.2170   -2.7382 H   0  0  0  0  0  0  0  0  0  0  0  0
   -5.6286   -4.0986    2.9170 H   0  0  0  0  0  0  0  0  0  0  0  0
   -0.7362   -6.7554   -4.3378 H   0  0  0  0  0  0  0  0  0  0  0  0
   -0.9531   -5.7907   -3.1368 H   0  0  0  0  0  0  0  0  0  0  0  0
   -7.1256   -5.1005    1.4725 H   0  0  0  0  0  0  0  0  0  0  0  0
   -6.8446   -6.7213   -0.6342 H   0  0  0  0  0  0  0  0  0  0  0  0
   -6.5170   -2.1879    5.2184 H   0  0  0  0  0  0  0  0  0  0  0  0
    0.0000    0.0000    0.0000 H   0  0  0  0  0  0  0  0  0  0  0  0
   -6.5228   -1.2005    4.0162 H   0  0  0  0  0  0  0  0  0  0  0  0
   -2.6497   -9.3800   -3.6371 H   0  0  0  0  0  0  0  0  0  0  0  0
    0.0000    0.0000    0.0000 H   0  0  0  0  0  0  0  0  0  0  0  0
   -3.7974   -8.3888   -3.2902 H   0  0  0  0  0  0  0  0  0  0  0  0
  1  4  1  0
  2 15  1  0
  2 11  1  0
  3  5  1  0
  4  6  1  0
  5 20  1  0
  5 22  1  0
  5 21  1  1
  6 17  2  3
  7 13  1  0
  8  2  2  0
  9  3  1  0
 12 19  2  0
 13 19  1  0
 14 20  2  0
 15 21  1  0
 16  7  1  0
 16 10  1  0
 17 16  1  0
 19 18  1  0
 20  1  1  0
  1 23  1  6
  1 24  1  0
  3 25  1  6
  3 26  1  0
  4 27  1  6
  4 28  1  0
  6 29  1  0
  7 30  1  6
  7 31  1  0
  9 32  1  0
 10 33  1  0
 11 34  1  0
 13 35  1  0
 15 36  1  6
 15 37  1  0
 16 38  1  1
 17 39  1  0
 18 40  1  0
 18 41  1  0
 18 42  1  0
 22 43  1  0
 22 44  1  0
 22 45  1  0
M  END
$$$$

     RDKit          3D

 10  9  0  0  0  0  0  0  0  0999 V2000
   -4.7390   -0.9610    3.5040 O   0  0  0  0  0  0  0  0  0  0  0  0
   -4.9600   -3.1710    3.8430 C   0  0  0  0  0  0  0  0  0  0  0  0
   -4.2140   -5.4280    3.2130 O   0  0  0  0  0  0  0  0  0  0  0  0
   -4.7330   -1.7560    5.5780 O   0  0  0  0  0  0  0  0  0  0  0  0
   -4.8110   -4.2980    2.8120 N   0  0  0  0  0  0  0  0  0  0  0  0
   -4.4520   -4.4200    4.9260 O   0  0  0  0  0  0  0  0  0  0  0  0
   -4.8940   -1.8220    4.3040 C   0  0  0  0  0  0  0  0  0  0  0  0
   -3.7727   -6.2632    3.5094 H   0  0  0  0  0  0  0  0  0  0  0  0
   -4.6090   -1.7052    6.5589 H   0  0  0  0  0  0  0  0  0  0  0  0
   -5.1571   -4.1895    1.8480 H   0  0  0  0  0  0  0  0  0  0  0  0
  1  7  2  0
  2  7  1  0
  2  6  2  0
  5  3  1  0
  5  2  1  0
  7  4  1  0
  3  8  1  0
  4  9  1  0
  5 10  1  0
M  END
$$$$

     RDKit          3D

 28 28  0  0  0  0  0  0  0  0999 V2000
   -6.3860   -4.5810   -2.9200 C   0  0  1  0  0  0  0  0  0  0  0  0
   -5.7340   -3.8940    1.4670 C   0  0  1  0  0  0  0  0  0  0  0  0
   -5.7280   -5.4510   -1.9390 C   0  0  2  0  0  0  0  0  0  0  0  0
   -6.2590   -4.6770   -4.1880 C   0  0  1  0  0  0  0  0  0  0  0  0
   -5.2210   -5.8210   -4.5630 C   0  0  1  0  0  0  0  0  0  0  0  0
   -5.1450   -6.5360   -2.2280 C   0  0  1  0  0  0  0  0  0  0  0  0
   -6.4630   -1.9490    2.6450 O   0  0  0  0  0  0  0  0  0  0  0  0
   -6.7710   -2.8780    1.9610 C   0  0  0  0  0  0  0  0  0  0  0  0
   -3.5100   -7.1510   -4.0060 O   0  0  0  0  0  0  0  0  0  0  0  0
   -4.5800   -6.6790   -3.6340 C   0  0  0  0  0  0  0  0  0  0  0  0
   -6.2850   -4.1620    0.0810 N   0  0  0  0  0  0  0  0  0  0  0  0
   -4.7050   -7.5850   -1.3610 O   0  0  0  0  0  0  0  0  0  0  0  0
   -5.5000   -5.1710   -0.5440 N   0  0  0  0  0  0  0  0  0  0  0  0
   -8.3590   -2.9380    1.6440 O   0  0  0  0  0  0  0  0  0  0  0  0
   -7.0392   -3.7844   -2.5343 H   0  0  0  0  0  0  0  0  0  0  0  0
   -5.5278   -3.8937   -2.8861 H   0  0  0  0  0  0  0  0  0  0  0  0
   -4.8484   -4.3076    1.9716 H   0  0  0  0  0  0  0  0  0  0  0  0
   -6.3464   -4.7145    1.8691 H   0  0  0  0  0  0  0  0  0  0  0  0
   -4.7571   -4.9981   -2.1886 H   0  0  0  0  0  0  0  0  0  0  0  0
   -6.7944   -4.0537   -4.9194 H   0  0  0  0  0  0  0  0  0  0  0  0
   -5.4403   -3.9428   -4.1616 H   0  0  0  0  0  0  0  0  0  0  0  0
   -4.9810   -5.9578   -5.6277 H   0  0  0  0  0  0  0  0  0  0  0  0
   -4.3942   -5.1016   -4.4691 H   0  0  0  0  0  0  0  0  0  0  0  0
   -6.1549   -6.6760   -1.8150 H   0  0  0  0  0  0  0  0  0  0  0  0
   -6.2076   -1.1788    3.2121 H   0  0  0  0  0  0  0  0  0  0  0  0
   -7.0973   -3.6897   -0.3409 H   0  0  0  0  0  0  0  0  0  0  0  0
   -4.4004   -8.3111   -0.7609 H   0  0  0  0  0  0  0  0  0  0  0  0
   -4.7860   -5.6888   -0.0120 H   0  0  0  0  0  0  0  0  0  0  0  0
  1  3  1  0
  2  8  1  0
  3 13  1  0
  4  1  1  0
  5  4  1  0
  5 10  1  0
  6  3  1  0
  6 12  1  0
  8  7  1  0
  9 10  2  0
 10  6  1  0
 11  2  1  0
 13 11  1  0
 14  8  2  0
  1 15  1  6
  1 16  1  0
  2 17  1  6
  2 18  1  0
  3 19  1  1
  4 20  1  6
  4 21  1  0
  5 22  1  6
  5 23  1  0
  6 24  1  6
  7 25  1  0
 11 26  1  0
 12 27  1  0
 13 28  1  0
M  END
$$$$

     RDKit          3D

 15 14  0  0  0  0  0  0  0  0999 V2000
   -2.3910    0.5440    2.6150 C   0  0  0  0  0  0  0  0  0  0  0  0
   -1.0260    1.3150    0.7360 C   0  0  0  0  0  0  0  0  0  0  0  0
   -0.7350   -0.6170    2.0740 C   0  0  0  0  0  0  0  0  0  0  0  0
   -2.3400    1.3110    2.2140 C   0  0  0  0  0  0  0  0  0  0  0  0
   -0.3450    0.4360    0.9610 C   0  0  0  0  0  0  0  0  0  0  0  0
   -0.0820   -1.5770    2.5330 N   0  0  0  0  0  0  0  0  0  0  0  0
   -1.5510   -0.5920    2.7270 N   0  0  0  0  0  0  0  0  0  0  0  0
   -3.3333    0.4238    3.1696 H   0  0  0  0  0  0  0  0  0  0  0  0
   -1.6863    2.1673    0.5178 H   0  0  0  0  0  0  0  0  0  0  0  0
    0.0000    0.0000    0.0000 H   0  0  0  0  0  0  0  0  0  0  0  0
   -2.2753    2.2841    1.7052 H   0  0  0  0  0  0  0  0  0  0  0  0
    0.0000    0.0000    0.0000 H   0  0  0  0  0  0  0  0  0  0  0  0
    0.5938    0.3154    0.4005 H   0  0  0  0  0  0  0  0  0  0  0  0
    0.4567   -2.3690    2.9117 H   0  0  0  0  0  0  0  0  0  0  0  0
   -1.7326   -1.3438    3.4073 H   0  0  0  0  0  0  0  0  0  0  0  0
  1  7  1  0
  2  5  2  0
  3  6  2  3
  3  7  1  0
  4  1  2  0
  5  3  1  0
  1  8  1  0
  2  9  1  0
  2 10  1  0
  4 11  1  0
  4 12  1  0
  5 13  1  0
  6 14  1  0
  7 15  1  0
M  END
$$$$

     RDKit          3D

 47 46  0  0  0  0  0  0  0  0999 V2000
    2.5550    0.3200   -2.8920 C   0  0  1  0  0  0  0  0  0  0  0  0
    0.8040   -0.6690   -1.2470 C   0  0  0  0  0  0  0  0  0  0  0  0
   -5.1310   -5.0520   -1.4220 C   0  0  2  0  0  0  0  0  0  0  0  0
    1.3770   -0.4120   -2.5540 C   0  0  1  0  0  0  0  0  0  0  0  0
    0.5870   -2.5300   -3.6150 C   0  0  1  0  0  0  0  0  0  0  0  0
    2.3030    1.7140   -2.9770 O   0  0  0  0  0  0  0  0  0  0  0  0
   -0.3750   -3.5380   -2.9110 N   0  0  0  0  0  0  0  0  0  0  0  0
   -7.6720   -3.8040    1.7630 C   0  0  0  0  0  0  0  0  0  0  0  0
   -1.7970   -5.4390   -2.8980 C   0  0  1  0  0  0  0  0  0  0  0  0
   -4.0410   -5.8980   -2.2440 C   0  0  1  0  0  0  0  0  0  0  0  0
   -8.8900   -4.1100    1.7080 O   0  0  0  0  0  0  0  0  0  0  0  0
   -6.6320   -5.6180    0.5350 C   0  0  1  0  0  0  0  0  0  0  0  0
   -6.5790   -4.9070    1.9520 C   0  0  1  0  0  0  0  0  0  0  0  0
   -5.4400   -4.2520    2.4430 O   0  0  0  0  0  0  0  0  0  0  0  0
   -3.0820   -5.0460   -2.9890 N   0  0  0  0  0  0  0  0  0  0  0  0
   -7.2830   -2.6780    1.4730 O   0  0  0  0  0  0  0  0  0  0  0  0
   -0.8310   -4.6510   -3.6700 C   0  0  1  0  0  0  0  0  0  0  0  0
   -5.1970   -5.6970    0.0010 C   0  0  1  0  0  0  0  0  0  0  0  0
    0.4950   -1.0640   -3.6590 C   0  0  2  0  0  0  0  0  0  0  0  0
    3.5387   -0.1406   -3.0655 H   0  0  0  0  0  0  0  0  0  0  0  0
    2.3158    0.2116   -3.9602 H   0  0  0  0  0  0  0  0  0  0  0  0
    0.3693   -0.8640   -0.2555 H   0  0  0  0  0  0  0  0  0  0  0  0
    0.0000    0.0000    0.0000 H   0  0  0  0  0  0  0  0  0  0  0  0
   -0.1523   -0.9382   -1.7192 H   0  0  0  0  0  0  0  0  0  0  0  0
   -5.7133   -4.1928   -1.7863 H   0  0  0  0  0  0  0  0  0  0  0  0
   -4.3406   -4.3697   -1.0761 H   0  0  0  0  0  0  0  0  0  0  0  0
    1.9725   -1.3334   -2.4741 H   0  0  0  0  0  0  0  0  0  0  0  0
    1.4425   -2.9735   -4.1456 H   0  0  0  0  0  0  0  0  0  0  0  0
   -0.0160   -2.5954   -4.5326 H   0  0  0  0  0  0  0  0  0  0  0  0
    2.1272    2.6865   -3.0363 H   0  0  0  0  0  0  0  0  0  0  0  0
   -0.6686   -3.4021   -1.9331 H   0  0  0  0  0  0  0  0  0  0  0  0
   -1.4911   -6.2979   -2.2826 H   0  0  0  0  0  0  0  0  0  0  0  0
   -1.9404   -6.1074   -3.7597 H   0  0  0  0  0  0  0  0  0  0  0  0
   -4.0088   -6.9975   -2.2536 H   0  0  0  0  0  0  0  0  0  0  0  0
   -4.7092   -5.9099   -3.1177 H   0  0  0  0  0  0  0  0  0  0  0  0
   -9.8492   -4.3510    1.6647 H   0  0  0  0  0  0  0  0  0  0  0  0
   -7.5351   -5.9876    0.0273 H   0  0  0  0  0  0  0  0  0  0  0  0
   -6.7591   -4.6395    0.0488 H   0  0  0  0  0  0  0  0  0  0  0  0
   -6.6682   -5.7149    2.6932 H   0  0  0  0  0  0  0  0  0  0  0  0
   -4.6361   -3.7897    2.7896 H   0  0  0  0  0  0  0  0  0  0  0  0
   -3.3750   -4.2210   -3.5317 H   0  0  0  0  0  0  0  0  0  0  0  0
   -0.5045   -4.8877   -4.6934 H   0  0  0  0  0  0  0  0  0  0  0  0
   -0.0102   -5.2623   -3.2668 H   0  0  0  0  0  0  0  0  0  0  0  0
   -4.3444   -6.1396    0.5368 H   0  0  0  0  0  0  0  0  0  0  0  0
   -4.9745   -4.7197    0.4543 H   0  0  0  0  0  0  0  0  0  0  0  0
   -0.1172   -0.5008   -4.3787 H   0  0  0  0  0  0  0  0  0  0  0  0
   -0.3549   -1.0964   -2.9615 H   0  0  0  0  0  0  0  0  0  0  0  0
  1  4  1  0
  3 18  1  0
  4  2  1  0
  5  7  1  0
  6  1  1  0
  8 13  1  0
 10  3  1  0
 11  8  1  0
 12 13  1  0
 13 14  1  0
 15  9  1  0
 15 10  1  0
 16  8  2  0
 17  7  1  0
 17  9  1  0
 18 12  1  0
 19  5  1  0
 19  4  1  0
  1 20  1  6
  1 21  1  0
  2 22  1  0
  2 23  1  0
  2 24  1  0
  3 25  1  6
  3 26  1  0
  4 27  1  1
  5 28  1  6
  5 29  1  0
  6 30  1  0
  7 31  1  0
  9 32  1  1
  9 33  1  0
 10 34  1  1
 10 35  1  0
 11 36  1  0
 12 37  1  1
 12 38  1  0
 13 39  1  1
 14 40  1  0
 15 41  1  0
 17 42  1  6
 17 43  1  0
 18 44  1  6
 18 45  1  0
 19 46  1  6
 19 47  1  0
M  END
$$$$

     RDKit          3D

 32 32  0  0  0  0  0  0  0  0999 V2000
   -0.7570   -2.8430   -3.6930 O   0  0  0  0  0  0  0  0  0  0  0  0
   -0.7260   -4.2190   -3.9790 C   0  0  1  0  0  0  0  0  0  0  0  0
    0.4540   -2.0630   -3.9910 C   0  0  1  0  0  0  0  0  0  0  0  0
    1.0730   -1.2830   -2.9670 C   0  0  1  0  0  0  0  0  0  0  0  0
   -3.9050   -7.6300   -2.7580 C   0  0  0  0  0  0  0  0  0  0  0  0
    0.2070   -0.1170   -2.5960 N   0  0  0  0  0  0  0  0  0  0  0  0
   -4.5510   -6.3700   -2.9980 C   0  0  2  0  0  0  0  0  0  0  0  0
   -2.4770   -3.6710   -5.6960 O   0  0  0  0  0  0  0  0  0  0  0  0
   -2.8340   -7.9550   -3.5200 C   0  0  0  0  0  0  0  0  0  0  0  0
   -4.0270   -5.4060   -3.8960 C   0  0  1  0  0  0  0  0  0  0  0  0
   -5.8800   -5.9460   -1.9880 Cl  0  0  0  0  0  0  0  0  0  0  0  0
   -2.3690   -7.0350   -4.4150 C   0  0  2  0  0  0  0  0  0  0  0  0
   -1.7900   -4.7270   -5.0710 C   0  0  2  0  0  0  0  0  0  0  0  0
   -2.7470   -5.7080   -4.4130 C   0  0  1  0  0  0  0  0  0  0  0  0
   -0.0193   -4.9036   -3.4872 H   0  0  0  0  0  0  0  0  0  0  0  0
   -1.4592   -4.4017   -3.1796 H   0  0  0  0  0  0  0  0  0  0  0  0
    0.8834   -2.0804   -5.0036 H   0  0  0  0  0  0  0  0  0  0  0  0
   -0.1699   -1.2012   -4.2704 H   0  0  0  0  0  0  0  0  0  0  0  0
    2.0498   -1.5069   -2.5135 H   0  0  0  0  0  0  0  0  0  0  0  0
    1.5695   -0.6703   -3.7339 H   0  0  0  0  0  0  0  0  0  0  0  0
   -4.2703   -8.3124   -1.9764 H   0  0  0  0  0  0  0  0  0  0  0  0
   -0.3880    0.6842   -2.3411 H   0  0  0  0  0  0  0  0  0  0  0  0
    0.0000    0.0000    0.0000 H   0  0  0  0  0  0  0  0  0  0  0  0
   -4.9308   -6.7580   -3.9547 H   0  0  0  0  0  0  0  0  0  0  0  0
   -2.9606   -2.9276   -6.1360 H   0  0  0  0  0  0  0  0  0  0  0  0
   -2.3498   -8.9376   -3.4202 H   0  0  0  0  0  0  0  0  0  0  0  0
   -4.5752   -4.4924   -4.1695 H   0  0  0  0  0  0  0  0  0  0  0  0
   -3.5611   -4.8742   -3.0533 H   0  0  0  0  0  0  0  0  0  0  0  0
   -1.6533   -7.3702   -5.1801 H   0  0  0  0  0  0  0  0  0  0  0  0
   -1.5347   -6.7984   -3.7383 H   0  0  0  0  0  0  0  0  0  0  0  0
   -1.2401   -5.2356   -5.8766 H   0  0  0  0  0  0  0  0  0  0  0  0
   -2.2338   -5.5633   -3.4509 H   0  0  0  0  0  0  0  0  0  0  0  0
  2  1  1  0
  3  1  1  0
  3  4  1  0
  4  6  1  0
  7  5  1  0
  7 11  1  0
  9  5  2  0
 10  7  1  0
 12 14  1  0
 12  9  1  0
 13  8  1  0
 13  2  1  0
 14 13  1  0
 14 10  1  0
  2 15  1  1
  2 16  1  0
  3 17  1  6
  3 18  1  0
  4 19  1  1
  4 20  1  0
  5 21  1  0
  6 22  1  0
  6 23  1  0
  7 24  1  6
  8 25  1  0
  9 26  1  0
 10 27  1  6
 10 28  1  0
 12 29  1  6
 12 30  1  0
 13 31  1  6
 14 32  1  1
M  END
$$$$

     RDKit          3D

 27 29  0  0  0  0  0  0  0  0999 V2000
   -1.2300   -0.1750    5.2250 C   0  0  0  0  0  0  0  0  0  0  0  0
   -0.3280    1.7860    1.1390 C   0  0  0  0  0  0  0  0  0  0  0  0
   -1.3520    1.6590    3.5380 C   0  0  1  0  0  0  0  0  0  0  0  0
    0.4860    0.4050    4.1930 C   0  0  1  0  0  0  0  0  0  0  0  0
   -0.3180   -0.1680    3.9500 C   0  0  1  0  0  0  0  0  0  0  0  0
    0.0960    0.8150    1.9500 C   0  0  0  0  0  0  0  0  0  0  0  0
    0.3970    1.2150    3.3270 C   0  0  1  0  0  0  0  0  0  0  0  0
    0.2790   -0.6670    1.9590 C   0  0  1  0  0  0  0  0  0  0  0  0
   -1.0140   -0.8000    3.1470 C   0  0  2  0  0  0  0  0  0  0  0  0
   -1.6300    0.3190    3.0800 C   0  0  1  0  0  0  0  0  0  0  0  0
   -2.1400    0.5490    1.7700 C   0  0  0  0  0  0  0  0  0  0  0  0
   -1.8700   -0.1799    6.1197 H   0  0  0  0  0  0  0  0  0  0  0  0
    0.0000    0.0000    0.0000 H   0  0  0  0  0  0  0  0  0  0  0  0
   -1.2940   -1.2719    5.1732 H   0  0  0  0  0  0  0  0  0  0  0  0
   -0.6775    2.5865    0.4704 H   0  0  0  0  0  0  0  0  0  0  0  0
    0.0000    0.0000    0.0000 H   0  0  0  0  0  0  0  0  0  0  0  0
   -1.9288    2.5376    3.8627 H   0  0  0  0  0  0  0  0  0  0  0  0
   -1.3854    2.0208    2.4997 H   0  0  0  0  0  0  0  0  0  0  0  0
    1.2165    0.3057    5.0094 H   0  0  0  0  0  0  0  0  0  0  0  0
    1.1238   -0.2159    3.5467 H   0  0  0  0  0  0  0  0  0  0  0  0
    1.3171    1.8124    3.4073 H   0  0  0  0  0  0  0  0  0  0  0  0
    0.9418   -1.3763    1.4418 H   0  0  0  0  0  0  0  0  0  0  0  0
    1.0150   -0.5712    2.7708 H   0  0  0  0  0  0  0  0  0  0  0  0
   -1.5495   -1.7595    3.1979 H   0  0  0  0  0  0  0  0  0  0  0  0
   -2.5338    0.7266    0.7584 H   0  0  0  0  0  0  0  0  0  0  0  0
    0.0000    0.0000    0.0000 H   0  0  0  0  0  0  0  0  0  0  0  0
   -2.4594   -0.5019    1.7098 H   0  0  0  0  0  0  0  0  0  0  0  0
  2  6  2  0
  5  4  1  0
  5  1  1  6
  6  8  1  0
  6  7  1  0
  7  3  1  0
  7  4  1  0
  9  8  1  0
  9  5  1  0
 10 11  1  1
 10  9  1  0
 10  3  1  0
 10  5  1  0
  1 12  1  0
  1 13  1  0
  1 14  1  0
  2 15  1  0
  2 16  1  0
  3 17  1  1
  3 18  1  0
  4 19  1  1
  4 20  1  0
  7 21  1  6
  8 22  1  6
  8 23  1  0
  9 24  1  1
 11 25  1  0
 11 26  1  0
 11 27  1  0
M  END
$$$$

     RDKit          3D

 23 24  0  0  0  0  0  0  0  0999 V2000
   -1.8120   -4.3720   -5.6810 N   0  0  0  0  0  0  0  0  0  0  0  0
    0.6540   -2.5530   -3.0940 C   0  0  1  0  0  0  0  0  0  0  0  0
   -1.6710   -5.0830   -4.3500 C   0  0  0  0  0  0  0  0  0  0  0  0
   -1.2520   -3.1850   -5.7440 C   0  0  1  0  0  0  0  0  0  0  0  0
   -2.4100   -6.1370   -4.1900 C   0  0  0  0  0  0  0  0  0  0  0  0
   -0.9460   -2.6050   -4.9850 O   0  0  0  0  0  0  0  0  0  0  0  0
    0.0670   -3.6350   -4.0640 C   0  0  2  0  0  0  0  0  0  0  0  0
   -0.6580   -4.5300   -3.5180 C   0  0  0  0  0  0  0  0  0  0  0  0
    1.3850   -1.3170   -3.6470 C   0  0  2  0  0  0  0  0  0  0  0  0
    0.2500   -1.3990   -3.2200 C   0  0  2  0  0  0  0  0  0  0  0  0
   -2.3112   -4.7895   -6.4793 H   0  0  0  0  0  0  0  0  0  0  0  0
    0.8186   -3.3115   -2.3145 H   0  0  0  0  0  0  0  0  0  0  0  0
   -1.1000   -2.7768   -6.7541 H   0  0  0  0  0  0  0  0  0  0  0  0
   -2.2453   -2.7142   -5.7033 H   0  0  0  0  0  0  0  0  0  0  0  0
   -3.0367   -7.0308   -4.0543 H   0  0  0  0  0  0  0  0  0  0  0  0
    0.0000    0.0000    0.0000 H   0  0  0  0  0  0  0  0  0  0  0  0
   -3.2928   -5.5676   -4.5163 H   0  0  0  0  0  0  0  0  0  0  0  0
    0.8479   -4.2210   -4.5707 H   0  0  0  0  0  0  0  0  0  0  0  0
   -0.5108   -4.8522   -2.4766 H   0  0  0  0  0  0  0  0  0  0  0  0
    2.2449   -0.7856   -4.0808 H   0  0  0  0  0  0  0  0  0  0  0  0
    1.7481   -1.0795   -2.6362 H   0  0  0  0  0  0  0  0  0  0  0  0
   -0.6436   -0.7822   -3.0439 H   0  0  0  0  0  0  0  0  0  0  0  0
   -0.1131   -1.6365   -4.2308 H   0  0  0  0  0  0  0  0  0  0  0  0
  1  3  1  0
  3  5  1  0
  3  8  2  0
  4  1  1  0
  4  6  1  0
  6  7  1  0
  7  8  1  0
  7  2  1  0
  9 10  1  0
  9  2  1  0
 10  2  1  0
  1 11  1  0
  2 12  1  1
  4 13  1  6
  4 14  1  0
  5 15  1  0
  5 16  1  0
  5 17  1  0
  7 18  1  6
  8 19  1  0
  9 20  1  6
  9 21  1  0
 10 22  1  1
 10 23  1  0
M  END
$$$$

     RDKit          3D

 46 45  0  0  0  0  0  0  0  0999 V2000
   -3.3430   -5.0880   -2.7410 O   0  0  0  0  0  0  0  0  0  0  0  0
   -0.6740    0.7000    3.5370 C   0  0  2  0  0  0  0  0  0  0  0  0
   -4.2850   -2.0710    1.9570 O   0  0  0  0  0  0  0  0  0  0  0  0
    0.5350   -0.6030   -2.9330 C   0  0  2  0  0  0  0  0  0  0  0  0
   -5.4560   -1.7650    1.5690 C   0  0  1  0  0  0  0  0  0  0  0  0
    0.4220   -0.0910   -4.2260 C   0  0  1  0  0  0  0  0  0  0  0  0
    0.1710    0.9590   -1.1010 N   0  0  0  0  0  0  0  0  0  0  0  0
    0.3430    1.2250    1.3400 C   0  0  2  0  0  0  0  0  0  0  0  0
   -6.4010   -2.7710    1.1630 C   0  0  0  0  0  0  0  0  0  0  0  0
   -3.3780   -1.6640    2.7710 N   0  0  0  0  0  0  0  0  0  0  0  0
    0.4570    0.1390    0.1210 C   0  0  1  0  0  0  0  0  0  0  0  0
   -6.4090   -3.7440    0.4290 C   0  0  0  0  0  0  0  0  0  0  0  0
    0.5150   -0.0020   -5.5200 C   0  0  0  0  0  0  0  0  0  0  0  0
   -4.6350   -5.5040   -2.0940 C   0  0  1  0  0  0  0  0  0  0  0  0
   -5.8450   -4.5570   -0.3300 N   0  0  0  0  0  0  0  0  0  0  0  0
   -4.8000   -4.4820   -1.0760 N   0  0  0  0  0  0  0  0  0  0  0  0
    0.0630    0.5260    2.3810 O   0  0  0  0  0  0  0  0  0  0  0  0
   -2.4790   -0.6680    2.5170 O   0  0  0  0  0  0  0  0  0  0  0  0
   -1.5550   -0.5390    3.6370 C   0  0  1  0  0  0  0  0  0  0  0  0
    1.1370    0.5110   -2.0810 C   0  0  1  0  0  0  0  0  0  0  0  0
   -2.4923   -4.8141   -3.1670 H   0  0  0  0  0  0  0  0  0  0  0  0
   -0.6333    1.5497    4.2344 H   0  0  0  0  0  0  0  0  0  0  0  0
    0.1105    0.1887    4.1141 H   0  0  0  0  0  0  0  0  0  0  0  0
    0.2474   -1.6095   -2.5949 H   0  0  0  0  0  0  0  0  0  0  0  0
   -0.4752   -0.2358   -2.6993 H   0  0  0  0  0  0  0  0  0  0  0  0
   -5.7539   -0.7064    1.5430 H   0  0  0  0  0  0  0  0  0  0  0  0
   -5.0928   -1.6882    0.5335 H   0  0  0  0  0  0  0  0  0  0  0  0
   -0.0683    0.8688   -4.0061 H   0  0  0  0  0  0  0  0  0  0  0  0
    1.4066    0.3883   -4.1223 H   0  0  0  0  0  0  0  0  0  0  0  0
   -0.5534    1.6819   -1.2174 H   0  0  0  0  0  0  0  0  0  0  0  0
    0.4769    2.3152    1.2810 H   0  0  0  0  0  0  0  0  0  0  0  0
    1.4164    1.1045    1.5478 H   0  0  0  0  0  0  0  0  0  0  0  0
   -7.3789   -2.6220    1.6442 H   0  0  0  0  0  0  0  0  0  0  0  0
   -3.3247   -2.1266    3.6897 H   0  0  0  0  0  0  0  0  0  0  0  0
    0.6880   -0.9347    0.1833 H   0  0  0  0  0  0  0  0  0  0  0  0
    1.5291    0.3638    0.0210 H   0  0  0  0  0  0  0  0  0  0  0  0
   -7.4569   -4.0783    0.4437 H   0  0  0  0  0  0  0  0  0  0  0  0
    0.5937    0.0733   -6.6146 H   0  0  0  0  0  0  0  0  0  0  0  0
    0.0000    0.0000    0.0000 H   0  0  0  0  0  0  0  0  0  0  0  0
    1.5616    0.3223   -5.4225 H   0  0  0  0  0  0  0  0  0  0  0  0
   -5.2853   -6.3592   -2.3302 H   0  0  0  0  0  0  0  0  0  0  0  0
   -4.0766   -6.1261   -1.3790 H   0  0  0  0  0  0  0  0  0  0  0  0
   -1.4997   -1.2596    4.4663 H   0  0  0  0  0  0  0  0  0  0  0  0
   -2.3077    0.0409    4.1912 H   0  0  0  0  0  0  0  0  0  0  0  0
    2.1543    0.9137   -2.1949 H   0  0  0  0  0  0  0  0  0  0  0  0
    0.7609    1.2595   -2.7939 H   0  0  0  0  0  0  0  0  0  0  0  0
  1 14  1  0
  2 19  1  0
  3 10  1  0
  4 20  1  0
  5  3  1  0
  6  4  1  0
  7 11  1  0
  8 17  1  0
  9  5  1  0
 11  8  1  0
 12  9  2  3
 13  6  1  0
 14 16  1  0
 15 12  1  0
 16 15  2  3
 17  2  1  0
 18 10  1  0
 18 19  1  0
 20  7  1  0
  1 21  1  0
  2 22  1  1
  2 23  1  0
  4 24  1  6
  4 25  1  0
  5 26  1  1
  5 27  1  0
  6 28  1  1
  6 29  1  0
  7 30  1  0
  8 31  1  6
  8 32  1  0
  9 33  1  0
 10 34  1  0
 11 35  1  1
 11 36  1  0
 12 37  1  0
 13 38  1  0
 13 39  1  0
 13 40  1  0
 14 41  1  6
 14 42  1  0
 19 43  1  1
 19 44  1  0
 20 45  1  1
 20 46  1  0
M  END
$$$$

     RDKit          3D

 16 16  0  0  0  0  0  0  0  0999 V2000
   -5.1240   -5.3400   -1.2590 C   0  0  2  0  0  0  0  0  0  0  0  0
   -5.8800   -5.2420    0.5040 C   0  0  0  0  0  0  0  0  0  0  0  0
   -7.3050   -4.1780   -2.5290 O   0  0  0  0  0  0  0  0  0  0  0  0
   -5.2560   -5.3730   -2.8930 O   0  0  0  0  0  0  0  0  0  0  0  0
   -5.4410   -4.4200    1.1370 O   0  0  0  0  0  0  0  0  0  0  0  0
   -6.4620   -6.2270    1.0030 C   0  0  0  0  0  0  0  0  0  0  0  0
   -6.7680   -5.0130   -2.3630 C   0  0  1  0  0  0  0  0  0  0  0  0
   -5.7900   -5.0870   -0.9860 C   0  0  2  0  0  0  0  0  0  0  0  0
   -4.2420   -5.6281   -0.6681 H   0  0  0  0  0  0  0  0  0  0  0  0
   -5.4959   -6.3740   -1.2081 H   0  0  0  0  0  0  0  0  0  0  0  0
   -7.8332   -3.3567   -2.6923 H   0  0  0  0  0  0  0  0  0  0  0  0
   -6.9749   -7.0951    1.4428 H   0  0  0  0  0  0  0  0  0  0  0  0
    0.0000    0.0000    0.0000 H   0  0  0  0  0  0  0  0  0  0  0  0
   -6.9971   -5.5602    1.6951 H   0  0  0  0  0  0  0  0  0  0  0  0
   -7.6788   -5.5473   -2.6712 H   0  0  0  0  0  0  0  0  0  0  0  0
   -6.3163   -4.2091   -0.5831 H   0  0  0  0  0  0  0  0  0  0  0  0
  1  8  1  0
  2  6  1  0
  2  5  2  0
  4  7  1  0
  4  1  1  0
  7  3  1  0
  7  8  1  0
  8  2  1  0
  1  9  1  6
  1 10  1  0
  3 11  1  0
  6 12  1  0
  6 13  1  0
  6 14  1  0
  7 15  1  1
  8 16  1  1
M  END
$$$$

     RDKit          3D

 47 46  0  0  0  0  0  0  0  0999 V2000
   -2.0900   -5.3750   -4.2220 C   0  0  2  0  0  0  0  0  0  0  0  0
   -1.6880   -4.5460   -5.0850 C   0  0  1  0  0  0  0  0  0  0  0  0
    1.1480   -2.6830   -3.2640 C   0  0  0  0  0  0  0  0  0  0  0  0
    1.1340   -0.6060   -0.2970 O   0  0  0  0  0  0  0  0  0  0  0  0
    1.5580   -1.0170   -1.4180 C   0  0  1  0  0  0  0  0  0  0  0  0
    1.1690    0.7350    1.8950 O   0  0  0  0  0  0  0  0  0  0  0  0
   -2.6160   -3.8540   -6.0100 O   0  0  0  0  0  0  0  0  0  0  0  0
   -5.4930   -5.8950   -1.9840 C   0  0  2  0  0  0  0  0  0  0  0  0
   -7.8170   -4.3910   -2.1850 O   0  0  0  0  0  0  0  0  0  0  0  0
   -4.0300   -5.7700   -2.5030 C   0  0  2  0  0  0  0  0  0  0  0  0
   -0.3880   -3.8350   -4.9640 C   0  0  1  0  0  0  0  0  0  0  0  0
    1.6970   -2.3970   -1.9880 C   0  0  1  0  0  0  0  0  0  0  0  0
    2.3470    1.6460   -0.0470 O   0  0  0  0  0  0  0  0  0  0  0  0
   -3.6320   -5.2760   -3.8540 C   0  0  1  0  0  0  0  0  0  0  0  0
    1.1880    0.8940    0.2450 P   0  0  1  0  0  0  0  0  0  0  0  0
   -4.0390   -7.2020   -2.4020 C   0  0  0  0  0  0  0  0  0  0  0  0
    0.1640   -3.7410   -3.7020 C   0  0  0  0  0  0  0  0  0  0  0  0
    0.0340    1.4610   -0.5200 O   0  0  0  0  0  0  0  0  0  0  0  0
   -7.5640   -4.8520   -1.1050 C   0  0  1  0  0  0  0  0  0  0  0  0
   -6.0440   -4.9490   -0.8320 C   0  0  1  0  0  0  0  0  0  0  0  0
   -1.4199   -6.1136   -3.7578 H   0  0  0  0  0  0  0  0  0  0  0  0
   -2.3269   -6.0924   -5.0215 H   0  0  0  0  0  0  0  0  0  0  0  0
   -1.4528   -5.5118   -5.5561 H   0  0  0  0  0  0  0  0  0  0  0  0
    1.4983   -2.0224   -4.0708 H   0  0  0  0  0  0  0  0  0  0  0  0
    1.8836   -0.2152   -2.0970 H   0  0  0  0  0  0  0  0  0  0  0  0
    2.5767   -1.0836   -1.0083 H   0  0  0  0  0  0  0  0  0  0  0  0
    1.1577    0.6400    2.8804 H   0  0  0  0  0  0  0  0  0  0  0  0
   -3.2360   -3.3917   -6.6280 H   0  0  0  0  0  0  0  0  0  0  0  0
   -6.1581   -6.6530   -2.4234 H   0  0  0  0  0  0  0  0  0  0  0  0
   -5.8233   -5.1671   -2.7397 H   0  0  0  0  0  0  0  0  0  0  0  0
   -8.0255   -4.0111   -3.0751 H   0  0  0  0  0  0  0  0  0  0  0  0
   -3.3673   -5.0412   -2.0135 H   0  0  0  0  0  0  0  0  0  0  0  0
    0.1128   -3.4022   -5.8426 H   0  0  0  0  0  0  0  0  0  0  0  0
   -0.9216   -2.8870   -4.8012 H   0  0  0  0  0  0  0  0  0  0  0  0
    2.2204   -3.1810   -1.4211 H   0  0  0  0  0  0  0  0  0  0  0  0
    2.6461   -2.1058   -2.4616 H   0  0  0  0  0  0  0  0  0  0  0  0
    3.1596    2.1732   -0.2517 H   0  0  0  0  0  0  0  0  0  0  0  0
   -4.3691   -4.8643   -4.5591 H   0  0  0  0  0  0  0  0  0  0  0  0
   -3.7958   -6.2811   -4.2698 H   0  0  0  0  0  0  0  0  0  0  0  0
   -4.0459   -8.2993   -2.3246 H   0  0  0  0  0  0  0  0  0  0  0  0
    0.0000    0.0000    0.0000 H   0  0  0  0  0  0  0  0  0  0  0  0
   -4.6856   -7.1353   -1.5146 H   0  0  0  0  0  0  0  0  0  0  0  0
   -0.1360   -4.4945   -2.9589 H   0  0  0  0  0  0  0  0  0  0  0  0
   -8.3323   -5.1717   -0.3856 H   0  0  0  0  0  0  0  0  0  0  0  0
   -7.5504   -5.8625   -1.5395 H   0  0  0  0  0  0  0  0  0  0  0  0
   -5.4731   -4.4707   -0.0225 H   0  0  0  0  0  0  0  0  0  0  0  0
   -5.8731   -4.0705   -1.4716 H   0  0  0  0  0  0  0  0  0  0  0  0
  1 14  1  0
  2  7  1  0
  2 11  1  0
  2  1  1  0
  3 12  1  0
 15  4  1  6
  5  4  1  0
  8 20  1  0
  9 19  1  0
 10 16  1  0
 10  8  1  0
 11 17  1  0
 12  5  1  0
 13 15  1  0
 14 10  1  0
 15  6  1  0
 17  3  2  3
 18 15  2  0
 19 20  1  0
  1 21  1  1
  1 22  1  0
  2 23  1  6
  3 24  1  0
  5 25  1  6
  5 26  1  0
  6 27  1  0
  7 28  1  0
  8 29  1  6
  8 30  1  0
  9 31  1  0
 10 32  1  1
 11 33  1  6
 11 34  1  0
 12 35  1  1
 12 36  1  0
 13 37  1  0
 14 38  1  6
 14 39  1  0
 16 40  1  0
 16 41  1  0
 16 42  1  0
 17 43  1  0
 19 44  1  1
 19 45  1  0
 20 46  1  1
 20 47  1  0
M  END
$$$$

     RDKit          3D

 11 10  0  0  0  0  0  0  0  0999 V2000
   -4.7320   -1.7640    4.6180 N   0  0  0  0  0  0  0  0  0  0  0  0
   -5.0770   -3.1000    1.3940 O   0  0  0  0  0  0  0  0  0  0  0  0
   -2.6580   -1.7310    2.6600 O   0  0  0  0  0  0  0  0  0  0  0  0
   -3.7770   -1.3200    2.7810 C   0  0  0  0  0  0  0  0  0  0  0  0
   -5.3970   -3.1340    2.5220 C   0  0  0  0  0  0  0  0  0  0  0  0
   -6.2620   -3.8190    3.0600 O   0  0  0  0  0  0  0  0  0  0  0  0
   -4.7100   -2.1110    3.4380 C   0  0  0  0  0  0  0  0  0  0  0  0
   -4.1010   -0.1890    2.5710 O   0  0  0  0  0  0  0  0  0  0  0  0
   -4.7504   -1.4735    5.6060 H   0  0  0  0  0  0  0  0  0  0  0  0
   -1.7335   -2.0706    2.5600 H   0  0  0  0  0  0  0  0  0  0  0  0
   -6.9596   -4.3714    3.4939 H   0  0  0  0  0  0  0  0  0  0  0  0
  2  5  2  0
  3  4  1  0
  4  7  1  0
  5  6  1  0
  5  7  1  0
  7  1  2  3
  8  4  2  0
  1  9  1  0
  3 10  1  0
  6 11  1  0
M  END
$$$$

     RDKit          3D

 33 32  0  0  0  0  0  0  0  0999 V2000
   -3.9210   -4.4420   -5.0120 O   0  0  0  0  0  0  0  0  0  0  0  0
   -3.9150    0.1510    3.8260 O   0  0  0  0  0  0  0  0  0  0  0  0
   -4.7390   -2.5500    1.7590 O   0  0  0  0  0  0  0  0  0  0  0  0
   -2.2800   -5.8220   -3.9880 C   0  0  0  0  0  0  0  0  0  0  0  0
   -4.0160   -0.6610    2.9230 C   0  0  0  0  0  0  0  0  0  0  0  0
   -5.2650   -6.0070   -1.9150 C   0  0  0  0  0  0  0  0  0  0  0  0
   -5.0660   -5.5940   -0.5510 C   0  0  0  0  0  0  0  0  0  0  0  0
   -3.4200    0.0400    1.7160 O   0  0  0  0  0  0  0  0  0  0  0  0
   -4.7420   -5.3850   -4.2940 C   0  0  0  0  0  0  0  0  0  0  0  0
   -3.7240   -2.0780    2.7400 C   0  0  1  0  0  0  0  0  0  0  0  0
   -1.5460   -5.0200   -3.4070 O   0  0  0  0  0  0  0  0  0  0  0  0
   -5.8810   -4.7170    1.6660 C   0  0  2  0  0  0  0  0  0  0  0  0
   -6.0290   -5.9100   -4.3490 O   0  0  0  0  0  0  0  0  0  0  0  0
   -3.5690   -6.0920   -3.1020 C   0  0  1  0  0  0  0  0  0  0  0  0
   -4.8900   -7.2070   -2.9020 S   0  0  0  0  0  0  0  0  0  0  0  0
   -5.9070   -4.5190    0.2300 C   0  0  1  0  0  0  0  0  0  0  0  0
   -2.3610   -6.9520   -5.0060 O   0  0  0  0  0  0  0  0  0  0  0  0
   -2.5090    1.0600    2.1350 O   0  0  0  0  0  0  0  0  0  0  0  0
   -5.8700   -3.2760    2.2780 C   0  0  1  0  0  0  0  0  0  0  0  0
   -5.8677   -5.2575   -2.4489 H   0  0  0  0  0  0  0  0  0  0  0  0
   -4.2453   -6.0776   -0.0008 H   0  0  0  0  0  0  0  0  0  0  0  0
   -2.9294   -2.6676    3.2206 H   0  0  0  0  0  0  0  0  0  0  0  0
   -3.0408   -1.8306    1.9141 H   0  0  0  0  0  0  0  0  0  0  0  0
   -0.9565   -4.3759   -2.9404 H   0  0  0  0  0  0  0  0  0  0  0  0
   -5.8711   -5.6737    2.2087 H   0  0  0  0  0  0  0  0  0  0  0  0
   -6.9808   -4.7171    1.6859 H   0  0  0  0  0  0  0  0  0  0  0  0
   -6.9449   -6.2836   -4.3881 H   0  0  0  0  0  0  0  0  0  0  0  0
   -3.0480   -6.0206   -2.1358 H   0  0  0  0  0  0  0  0  0  0  0  0
   -6.4570   -3.7029   -0.2614 H   0  0  0  0  0  0  0  0  0  0  0  0
   -6.7965   -5.1621    0.1574 H   0  0  0  0  0  0  0  0  0  0  0  0
   -1.8785    1.7660    2.4250 H   0  0  0  0  0  0  0  0  0  0  0  0
   -6.6085   -2.8807    2.9910 H   0  0  0  0  0  0  0  0  0  0  0  0
   -6.4856   -2.9157    1.4406 H   0  0  0  0  0  0  0  0  0  0  0  0
  1  9  2  0
  3 19  1  0
  3 10  1  0
  4 11  1  0
  4 14  1  0
  5  2  2  0
  6  7  2  3
  7 16  1  0
  8 18  1  0
  8  5  1  0
  9 14  1  0
 10  5  1  0
 12 19  1  0
 13  9  1  0
 14 15  1  0
 15  6  1  0
 16 12  1  0
 17  4  2  0
  6 20  1  0
  7 21  1  0
 10 22  1  1
 10 23  1  0
 11 24  1  0
 12 25  1  6
 12 26  1  0
 13 27  1  0
 14 28  1  1
 16 29  1  1
 16 30  1  0
 18 31  1  0
 19 32  1  1
 19 33  1  0
M  END
$$$$

     RDKit          3D

 75 76  0  0  0  0  0  0  0  0999 V2000
   -2.0180   -0.8680    4.2390 O   0  0  0  0  0  0  0  0  0  0  0  0
   -4.5430   -6.0730   -3.3450 C   0  0  2  0  0  0  0  0  0  0  0  0
   -4.7030   -7.4890   -6.9190 O   0  0  0  0  0  0  0  0  0  0  0  0
   -5.5330   -8.2330   -4.8480 O   0  0  0  0  0  0  0  0  0  0  0  0
   -3.0540    1.1380    3.6780 O   0  0  0  0  0  0  0  0  0  0  0  0
    1.6540   -0.2270    2.5890 C   0  0  1  0  0  0  0  0  0  0  0  0
    0.9890    0.7180    3.2460 C   0  0  1  0  0  0  0  0  0  0  0  0
   -3.7700   -9.2630   -5.4000 O   0  0  0  0  0  0  0  0  0  0  0  0
   -4.6430   -7.8340   -5.4000 P   0  0  1  0  0  0  0  0  0  0  0  0
   -4.2720   -1.2650    5.0190 C   0  0  0  0  0  0  0  0  0  0  0  0
    0.9370   -1.0200    1.7860 C   0  0  1  0  0  0  0  0  0  0  0  0
   -0.3330   -1.1820    1.7790 C   0  0  0  0  0  0  0  0  0  0  0  0
   -4.0310   -6.6780   -4.5470 O   0  0  0  0  0  0  0  0  0  0  0  0
   -6.4700   -3.3230    0.8640 C   0  0  2  0  0  0  0  0  0  0  0  0
   -3.6230   -1.9580    2.1920 C   0  0  1  0  0  0  0  0  0  0  0  0
   -2.8600   -0.4580    2.1200 C   0  0  1  0  0  0  0  0  0  0  0  0
   -5.7910   -5.9790   -0.4390 C   0  0  2  0  0  0  0  0  0  0  0  0
   -3.9200   -0.8250    4.1870 C   0  0  0  0  0  0  0  0  0  0  0  0
   -2.8030   -0.1920    3.6420 C   0  0  1  0  0  0  0  0  0  0  0  0
   -3.7640   -6.9220   -2.1470 C   0  0  1  0  0  0  0  0  0  0  0  0
   -0.5150    0.9860    2.9130 C   0  0  1  0  0  0  0  0  0  0  0  0
   -6.3220   -5.2440   -4.3710 C   0  0  0  0  0  0  0  0  0  0  0  0
    2.9060   -0.2170    2.7490 N   0  0  0  0  0  0  0  0  0  0  0  0
   -5.7340   -5.5380   -2.9970 C   0  0  1  0  0  0  0  0  0  0  0  0
   -6.3960   -5.6920   -1.8170 C   0  0  2  0  0  0  0  0  0  0  0  0
    2.4420    0.8640    4.2570 C   0  0  1  0  0  0  0  0  0  0  0  0
   -5.0320   -1.7060    1.7020 C   0  0  2  0  0  0  0  0  0  0  0  0
   -5.5740   -4.5160    0.1180 C   0  0  2  0  0  0  0  0  0  0  0  0
   -2.1560   -7.2740   -2.3730 C   0  0  0  0  0  0  0  0  0  0  0  0
   -5.4370   -3.0760    1.7810 N   0  0  0  0  0  0  0  0  0  0  0  0
    3.4180    0.3770    3.8000 C   0  0  1  0  0  0  0  0  0  0  0  0
   -1.0940   -0.1920    2.2340 C   0  0  0  0  0  0  0  0  0  0  0  0
   -1.3680   -1.4277    4.7333 H   0  0  0  0  0  0  0  0  0  0  0  0
   -4.4301   -5.0161   -3.6283 H   0  0  0  0  0  0  0  0  0  0  0  0
   -6.3192   -8.5855   -4.3604 H   0  0  0  0  0  0  0  0  0  0  0  0
   -3.2375    2.1105    3.7043 H   0  0  0  0  0  0  0  0  0  0  0  0
    1.5560   -0.9615    3.4019 H   0  0  0  0  0  0  0  0  0  0  0  0
    1.2885    1.4561    2.4874 H   0  0  0  0  0  0  0  0  0  0  0  0
   -3.2539  -10.1078   -5.4000 H   0  0  0  0  0  0  0  0  0  0  0  0
   -4.6573   -1.7467    5.9298 H   0  0  0  0  0  0  0  0  0  0  0  0
    0.0000    0.0000    0.0000 H   0  0  0  0  0  0  0  0  0  0  0  0
    1.5048   -1.6013    1.0446 H   0  0  0  0  0  0  0  0  0  0  0  0
    1.0380   -1.8431    2.5087 H   0  0  0  0  0  0  0  0  0  0  0  0
   -0.7818   -2.1147    1.4067 H   0  0  0  0  0  0  0  0  0  0  0  0
   -7.4718   -2.8988    0.7017 H   0  0  0  0  0  0  0  0  0  0  0  0
   -6.0424   -2.5745    0.1807 H   0  0  0  0  0  0  0  0  0  0  0  0
   -3.1906   -2.9136    2.5234 H   0  0  0  0  0  0  0  0  0  0  0  0
   -3.9434   -1.7455    3.2226 H   0  0  0  0  0  0  0  0  0  0  0  0
   -3.3228    0.0040    1.2355 H   0  0  0  0  0  0  0  0  0  0  0  0
   -5.5673   -6.9456    0.0360 H   0  0  0  0  0  0  0  0  0  0  0  0
   -6.7994   -5.9966    0.0001 H   0  0  0  0  0  0  0  0  0  0  0  0
   -4.7091   -0.8530    3.4212 H   0  0  0  0  0  0  0  0  0  0  0  0
   -4.2942   -7.2395   -1.2370 H   0  0  0  0  0  0  0  0  0  0  0  0
   -4.0398   -7.8672   -2.6375 H   0  0  0  0  0  0  0  0  0  0  0  0
   -1.0601    1.9120    3.1486 H   0  0  0  0  0  0  0  0  0  0  0  0
   -0.2245    1.4050    1.9383 H   0  0  0  0  0  0  0  0  0  0  0  0
   -6.7466   -5.0317   -5.3633 H   0  0  0  0  0  0  0  0  0  0  0  0
    0.0000    0.0000    0.0000 H   0  0  0  0  0  0  0  0  0  0  0  0
   -5.5150   -5.8254   -4.8408 H   0  0  0  0  0  0  0  0  0  0  0  0
    3.5209   -0.6720    2.0592 H   0  0  0  0  0  0  0  0  0  0  0  0
   -5.7576   -4.7317   -2.2492 H   0  0  0  0  0  0  0  0  0  0  0  0
   -7.4914   -5.5997   -1.8579 H   0  0  0  0  0  0  0  0  0  0  0  0
   -6.4800   -6.7725   -2.0052 H   0  0  0  0  0  0  0  0  0  0  0  0
    2.4346    1.3691    5.2341 H   0  0  0  0  0  0  0  0  0  0  0  0
    2.1962   -0.0892    4.7479 H   0  0  0  0  0  0  0  0  0  0  0  0
   -5.5595   -0.7913    1.3935 H   0  0  0  0  0  0  0  0  0  0  0  0
   -5.3643   -1.5480    2.7387 H   0  0  0  0  0  0  0  0  0  0  0  0
   -4.5333   -4.1911   -0.0282 H   0  0  0  0  0  0  0  0  0  0  0  0
   -5.8414   -4.1019   -0.8654 H   0  0  0  0  0  0  0  0  0  0  0  0
   -1.0914   -7.5070   -2.5226 H   0  0  0  0  0  0  0  0  0  0  0  0
    0.0000    0.0000    0.0000 H   0  0  0  0  0  0  0  0  0  0  0  0
   -2.0886   -7.6325   -1.3352 H   0  0  0  0  0  0  0  0  0  0  0  0
   -5.0305   -3.7771    2.4168 H   0  0  0  0  0  0  0  0  0  0  0  0
    4.4585    0.4122    4.1552 H   0  0  0  0  0  0  0  0  0  0  0  0
    3.5911    1.2844    3.2028 H   0  0  0  0  0  0  0  0  0  0  0  0
  2 24  1  0
  2 20  1  0
  3  9  2  0
  6 11  1  0
  6 23  1  0
  6  7  1  0
  7 21  1  0
  7 26  1  0
  9  8  1  6
  9  4  1  0
  9 13  1  0
 12 11  1  0
 12 32  2  0
 13  2  1  0
 14 30  1  0
 16 15  1  0
 16 32  1  0
 16 19  1  0
 17 28  1  0
 18 10  2  0
 19  5  1  6
 19 18  1  0
 19  1  1  0
 23 31  1  0
 24 22  1  0
 24 25  1  0
 25 17  1  0
 27 30  1  0
 27 15  1  0
 28 14  1  0
 29 20  1  0
 31 26  1  0
 32 21  1  0
  1 33  1  0
  2 34  1  6
  4 35  1  0
  5 36  1  0
  6 37  1  1
  7 38  1  6
  8 39  1  0
 10 40  1  0
 10 41  1  0
 11 42  1  6
 11 43  1  0
 12 44  1  0
 14 45  1  1
 14 46  1  0
 15 47  1  1
 15 48  1  0
 16 49  1  6
 17 50  1  6
 17 51  1  0
 18 52  1  0
 20 53  1  1
 20 54  1  0
 21 55  1  1
 21 56  1  0
 22 57  1  0
 22 58  1  0
 22 59  1  0
 23 60  1  0
 24 61  1  1
 25 62  1  1
 25 63  1  0
 26 64  1  1
 26 65  1  0
 27 66  1  6
 27 67  1  0
 28 68  1  1
 28 69  1  0
 29 70  1  0
 29 71  1  0
 29 72  1  0
 30 73  1  0
 31 74  1  1
 31 75  1  0
M  END
$$$$

     RDKit          3D

 25 25  0  0  0  0  0  0  0  0999 V2000
   -6.8520   -5.1690   -0.7720 C   0  0  0  0  0  0  0  0  0  0  0  0
   -8.1540   -6.1870   -0.9700 S   0  0  0  0  0  0  0  0  0  0  0  0
   -5.7330   -4.4480   -4.0510 O   0  0  0  0  0  0  0  0  0  0  0  0
   -6.7690   -4.3170    0.1280 N   0  0  0  0  0  0  0  0  0  0  0  0
   -5.8640   -5.3940   -1.5860 N   0  0  0  0  0  0  0  0  0  0  0  0
   -5.1900   -6.6060   -4.7530 O   0  0  0  0  0  0  0  0  0  0  0  0
   -5.5860   -1.7230    2.9400 O   0  0  0  0  0  0  0  0  0  0  0  0
   -5.4840   -4.2950    2.7860 O   0  0  0  0  0  0  0  0  0  0  0  0
   -7.7760   -3.2070    0.3840 C   0  0  1  0  0  0  0  0  0  0  0  0
   -6.3330   -6.1400   -2.6860 C   0  0  1  0  0  0  0  0  0  0  0  0
   -5.5540   -5.8570   -3.8850 C   0  0  0  0  0  0  0  0  0  0  0  0
   -5.9150   -2.9490    2.0670 P   0  0  0  0  0  0  0  0  0  0  0  0
   -7.3140   -6.9810   -2.2520 C   0  0  2  0  0  0  0  0  0  0  0  0
   -7.5730   -2.8430    1.8380 C   0  0  1  0  0  0  0  0  0  0  0  0
   -5.8569   -3.4725   -4.1659 H   0  0  0  0  0  0  0  0  0  0  0  0
   -5.9510   -4.3665    0.7520 H   0  0  0  0  0  0  0  0  0  0  0  0
   -5.3746   -0.9352    3.5010 H   0  0  0  0  0  0  0  0  0  0  0  0
   -5.2149   -5.1353    3.2349 H   0  0  0  0  0  0  0  0  0  0  0  0
   -8.4908   -2.7678   -0.3275 H   0  0  0  0  0  0  0  0  0  0  0  0
   -8.5270   -3.9557    0.6763 H   0  0  0  0  0  0  0  0  0  0  0  0
   -7.0962   -5.4177   -3.0113 H   0  0  0  0  0  0  0  0  0  0  0  0
   -7.5311   -7.9843   -2.6473 H   0  0  0  0  0  0  0  0  0  0  0  0
   -6.6161   -7.4191   -1.5233 H   0  0  0  0  0  0  0  0  0  0  0  0
   -8.3397   -2.5703    2.5781 H   0  0  0  0  0  0  0  0  0  0  0  0
   -7.6793   -3.9015    2.1178 H   0  0  0  0  0  0  0  0  0  0  0  0
  1  4  1  0
  2  1  1  0
  3 11  1  0
  4  9  1  0
  5  1  2  0
  6 11  2  0
  9 14  1  0
 10 11  1  0
 10 13  1  0
 10  5  1  0
 12  8  1  0
 12  7  1  0
 13  2  1  0
 14 12  1  0
  3 15  1  0
  4 16  1  0
  7 17  1  0
  8 18  1  0
  9 19  1  6
  9 20  1  0
 10 21  1  6
 13 22  1  6
 13 23  1  0
 14 24  1  1
 14 25  1  0
M  END
$$$$

     RDKit          3D

 25 24  0  0  0  0  0  0  0  0999 V2000
   -4.6190   -6.4260   -0.8220 C   0  0  1  0  0  0  0  0  0  0  0  0
   -3.5260   -1.3610    2.4110 C   0  0  1  0  0  0  0  0  0  0  0  0
   -4.6960   -4.6290    0.2550 N   0  0  0  0  0  0  0  0  0  0  0  0
   -5.0310   -1.8140    1.9770 C   0  0  2  0  0  0  0  0  0  0  0  0
   -5.2830   -4.1130    1.1470 C   0  0  1  0  0  0  0  0  0  0  0  0
   -4.6830   -5.8540   -0.0620 O   0  0  0  0  0  0  0  0  0  0  0  0
   -4.0990   -6.4460   -2.3380 C   0  0  1  0  0  0  0  0  0  0  0  0
   -5.1520   -3.2530    2.3420 C   0  0  1  0  0  0  0  0  0  0  0  0
   -3.0870   -0.0710    1.9230 O   0  0  0  0  0  0  0  0  0  0  0  0
   -3.3530   -5.3230   -2.4620 O   0  0  0  0  0  0  0  0  0  0  0  0
   -5.0489   -7.4076   -0.5737 H   0  0  0  0  0  0  0  0  0  0  0  0
   -5.6055   -6.0807   -1.1649 H   0  0  0  0  0  0  0  0  0  0  0  0
   -2.8831   -1.9974    3.0369 H   0  0  0  0  0  0  0  0  0  0  0  0
   -3.1211   -1.8405    1.5076 H   0  0  0  0  0  0  0  0  0  0  0  0
   -4.1273   -4.0037   -0.3336 H   0  0  0  0  0  0  0  0  0  0  0  0
   -5.8017   -1.1839    1.5090 H   0  0  0  0  0  0  0  0  0  0  0  0
   -5.4035   -1.5302    2.9724 H   0  0  0  0  0  0  0  0  0  0  0  0
   -6.3452   -4.3801    1.0445 H   0  0  0  0  0  0  0  0  0  0  0  0
   -5.1191   -5.0043    1.7705 H   0  0  0  0  0  0  0  0  0  0  0  0
   -4.3032   -7.2047   -3.1078 H   0  0  0  0  0  0  0  0  0  0  0  0
   -4.9928   -5.8869   -2.6520 H   0  0  0  0  0  0  0  0  0  0  0  0
   -5.1447   -3.6299    3.3754 H   0  0  0  0  0  0  0  0  0  0  0  0
   -6.2462   -3.1495    2.3874 H   0  0  0  0  0  0  0  0  0  0  0  0
   -2.7867    0.8113    1.5892 H   0  0  0  0  0  0  0  0  0  0  0  0
   -2.8075   -4.5018   -2.5527 H   0  0  0  0  0  0  0  0  0  0  0  0
  1  6  1  0
  3  5  1  0
  4  8  1  0
  4  2  1  0
  5  8  1  0
  6  3  1  0
  7  1  1  0
  9  2  1  0
 10  7  1  0
  1 11  1  1
  1 12  1  0
  2 13  1  1
  2 14  1  0
  3 15  1  0
  4 16  1  6
  4 17  1  0
  5 18  1  6
  5 19  1  0
  7 20  1  6
  7 21  1  0
  8 22  1  1
  8 23  1  0
  9 24  1  0
 10 25  1  0
M  END
$$$$

     RDKit          3D

 19 18  0  0  0  0  0  0  0  0999 V2000
   -4.0670   -5.3130   -2.2640 C   0  0  2  0  0  0  0  0  0  0  0  0
   -3.3720   -4.6430   -2.7880 O   0  0  0  0  0  0  0  0  0  0  0  0
   -4.7400   -6.4600   -1.8920 N   0  0  0  0  0  0  0  0  0  0  0  0
   -5.0520   -4.0340   -0.0040 C   0  0  2  0  0  0  0  0  0  0  0  0
   -5.0260   -3.9310    1.3640 O   0  0  0  0  0  0  0  0  0  0  0  0
   -5.6920   -6.1490   -0.9490 C   0  0  1  0  0  0  0  0  0  0  0  0
   -5.5390   -5.3720    0.0230 C   0  0  1  0  0  0  0  0  0  0  0  0
   -4.7050   -5.8960    1.0780 O   0  0  0  0  0  0  0  0  0  0  0  0
   -4.5428   -4.5908   -1.5843 H   0  0  0  0  0  0  0  0  0  0  0  0
   -3.2969   -5.5190   -1.5060 H   0  0  0  0  0  0  0  0  0  0  0  0
   -2.7456   -4.0391   -3.2603 H   0  0  0  0  0  0  0  0  0  0  0  0
   -4.5573   -7.4032   -2.2634 H   0  0  0  0  0  0  0  0  0  0  0  0
   -4.7931   -3.3412   -0.8182 H   0  0  0  0  0  0  0  0  0  0  0  0
   -6.0857   -3.6579   -0.0127 H   0  0  0  0  0  0  0  0  0  0  0  0
   -5.0072   -3.8567    2.3510 H   0  0  0  0  0  0  0  0  0  0  0  0
   -6.6775   -6.6255   -1.0576 H   0  0  0  0  0  0  0  0  0  0  0  0
   -5.3529   -6.9917   -0.3287 H   0  0  0  0  0  0  0  0  0  0  0  0
   -6.6340   -5.3126    0.1098 H   0  0  0  0  0  0  0  0  0  0  0  0
   -4.1329   -6.2554    1.8016 H   0  0  0  0  0  0  0  0  0  0  0  0
  1  3  1  0
  2  1  1  0
  3  6  1  0
  4  7  1  0
  4  5  1  0
  6  7  1  0
  7  8  1  0
  1  9  1  1
  1 10  1  0
  2 11  1  0
  3 12  1  0
  4 13  1  6
  4 14  1  0
  5 15  1  0
  6 16  1  6
  6 17  1  0
  7 18  1  1
  8 19  1  0
M  END
$$$$

     RDKit          3D

 40 42  0  0  0  0  0  0  0  0999 V2000
   -4.8660   -4.8640   -0.9300 C   0  0  2  0  0  0  0  0  0  0  0  0
    0.4180   -1.5980   -3.4360 C   0  0  0  0  0  0  0  0  0  0  0  0
   -0.2270   -2.6130   -3.3460 O   0  0  0  0  0  0  0  0  0  0  0  0
   -4.6290   -1.8820    1.7750 C   0  0  0  0  0  0  0  0  0  0  0  0
   -4.0390   -2.6450   -0.3020 C   0  0  0  0  0  0  0  0  0  0  0  0
   -1.1790   -0.5500    0.5500 C   0  0  1  0  0  0  0  0  0  0  0  0
   -5.5310   -3.0130    1.9220 C   0  0  0  0  0  0  0  0  0  0  0  0
   -2.7500   -0.8060    0.6130 N   0  0  0  0  0  0  0  0  0  0  0  0
   -0.6610   -0.8340    1.5560 C   0  0  0  0  0  0  0  0  0  0  0  0
    2.0160   -0.9700    0.1980 S   0  0  0  0  0  0  0  0  0  0  0  0
   -5.5500   -4.0650    0.9250 C   0  0  0  0  0  0  0  0  0  0  0  0
    1.0270   -0.7470   -2.3100 C   0  0  1  0  0  0  0  0  0  0  0  0
   -5.6810   -7.0570    0.2890 O   0  0  0  0  0  0  0  0  0  0  0  0
   -0.1780   -1.8780    1.6850 O   0  0  0  0  0  0  0  0  0  0  0  0
   -3.7750   -1.8150    0.7260 C   0  0  0  0  0  0  0  0  0  0  0  0
   -5.0250   -6.0610   -0.1860 C   0  0  2  0  0  0  0  0  0  0  0  0
    0.6910   -0.9420   -0.9470 N   0  0  0  0  0  0  0  0  0  0  0  0
    0.6680   -1.0760   -4.5070 O   0  0  0  0  0  0  0  0  0  0  0  0
   -0.6790   -1.0260   -0.7750 C   0  0  1  0  0  0  0  0  0  0  0  0
   -5.9500   -5.1740    1.0250 C   0  0  2  0  0  0  0  0  0  0  0  0
   -5.0360   -3.7290   -0.1930 C   0  0  0  0  0  0  0  0  0  0  0  0
   -6.4930   -6.3560    0.9350 C   0  0  1  0  0  0  0  0  0  0  0  0
   -4.6273   -4.8521   -2.0037 H   0  0  0  0  0  0  0  0  0  0  0  0
   -3.7922   -4.8582   -0.6912 H   0  0  0  0  0  0  0  0  0  0  0  0
   -0.7565   -3.4462   -3.2721 H   0  0  0  0  0  0  0  0  0  0  0  0
   -4.6404   -1.0744    2.5218 H   0  0  0  0  0  0  0  0  0  0  0  0
   -3.4964   -2.5114   -1.2495 H   0  0  0  0  0  0  0  0  0  0  0  0
   -0.8755    0.5071    0.5280 H   0  0  0  0  0  0  0  0  0  0  0  0
   -6.2010   -3.0704    2.7925 H   0  0  0  0  0  0  0  0  0  0  0  0
   -3.2184    0.1090    0.5471 H   0  0  0  0  0  0  0  0  0  0  0  0
   -0.6316   -0.1090    2.3827 H   0  0  0  0  0  0  0  0  0  0  0  0
    3.0525   -0.9919    1.0937 H   0  0  0  0  0  0  0  0  0  0  0  0
    1.7488    0.0409   -2.5712 H   0  0  0  0  0  0  0  0  0  0  0  0
    0.2030   -0.0252   -2.4099 H   0  0  0  0  0  0  0  0  0  0  0  0
   -4.1850   -6.5805   -0.6702 H   0  0  0  0  0  0  0  0  0  0  0  0
   -1.3501   -1.4142   -1.5554 H   0  0  0  0  0  0  0  0  0  0  0  0
   -0.7924   -0.0106   -1.1826 H   0  0  0  0  0  0  0  0  0  0  0  0
   -6.4121   -4.6849    1.8952 H   0  0  0  0  0  0  0  0  0  0  0  0
   -7.4645   -6.6723    1.3427 H   0  0  0  0  0  0  0  0  0  0  0  0
   -6.0024   -6.6528    1.8737 H   0  0  0  0  0  0  0  0  0  0  0  0
  1 21  1  0
  2  3  1  0
  2 12  1  0
  4  7  1  0
  5 21  2  0
  5 15  1  0
  6 19  1  0
  6  8  1  0
  6  9  1  0
  8 15  1  0
  9 14  2  0
 11 20  1  0
 11  7  2  0
 12 17  1  0
 13 22  1  0
 15  4  2  0
 16  1  1  0
 16 13  1  0
 16 20  1  0
 17 19  1  0
 17 10  1  0
 18  2  2  0
 20 22  1  0
 21 11  1  0
  1 23  1  6
  1 24  1  0
  3 25  1  0
  4 26  1  0
  5 27  1  0
  6 28  1  6
  7 29  1  0
  8 30  1  0
  9 31  1  0
 10 32  1  0
 12 33  1  1
 12 34  1  0
 16 35  1  1
 19 36  1  6
 19 37  1  0
 20 38  1  1
 22 39  1  1
 22 40  1  0
M  END
$$$$

     RDKit          3D

 13 13  0  0  0  0  0  0  0  0999 V2000
   -3.1220    0.5670    2.5420 O   0  0  0  0  0  0  0  0  0  0  0  0
   -0.2720   -0.5490    4.6350 C   0  0  1  0  0  0  0  0  0  0  0  0
    0.6860    0.2550    3.7480 C   0  0  2  0  0  0  0  0  0  0  0  0
   -1.0140    0.7520    4.3280 C   0  0  1  0  0  0  0  0  0  0  0  0
    0.1160    0.6750    2.6580 O   0  0  0  0  0  0  0  0  0  0  0  0
   -2.6930   -0.1080    3.3190 C   0  0  0  0  0  0  0  0  0  0  0  0
   -2.2090    0.0890    4.8030 O   0  0  0  0  0  0  0  0  0  0  0  0
   -0.3687   -1.5023    5.1752 H   0  0  0  0  0  0  0  0  0  0  0  0
    0.1687   -0.0863    5.5304 H   0  0  0  0  0  0  0  0  0  0  0  0
    1.7850    0.2186    3.7196 H   0  0  0  0  0  0  0  0  0  0  0  0
   -1.3859    1.7775    4.1862 H   0  0  0  0  0  0  0  0  0  0  0  0
   -0.3182    0.9949    1.8278 H   0  0  0  0  0  0  0  0  0  0  0  0
   -2.5835   -1.1451    2.9692 H   0  0  0  0  0  0  0  0  0  0  0  0
  1  6  2  0
  3  5  1  0
  3  4  1  0
  3  2  1  0
  4  2  1  0
  4  7  1  0
  6  7  1  0
  2  8  1  1
  2  9  1  0
  3 10  1  1
  4 11  1  1
  5 12  1  0
  6 13  1  0
M  END
$$$$

     RDKit          3D

 16 16  0  0  0  0  0  0  0  0999 V2000
   -0.3830   -2.1920   -5.8620 C   0  0  0  0  0  0  0  0  0  0  0  0
   -1.5110   -2.2550   -3.4430 C   0  0  1  0  0  0  0  0  0  0  0  0
   -1.3970   -3.8740   -5.5010 C   0  0  1  0  0  0  0  0  0  0  0  0
   -0.8670   -1.5430   -4.7150 C   0  0  0  0  0  0  0  0  0  0  0  0
   -0.9560   -5.2430   -4.8480 C   0  0  0  0  0  0  0  0  0  0  0  0
   -1.2590   -3.5620   -4.2290 O   0  0  0  0  0  0  0  0  0  0  0  0
   -0.3600   -3.3480   -6.4020 C   0  0  1  0  0  0  0  0  0  0  0  0
   -0.3380   -5.9530   -5.0420 O   0  0  0  0  0  0  0  0  0  0  0  0
    0.1477   -1.4715   -6.5017 H   0  0  0  0  0  0  0  0  0  0  0  0
   -1.9328   -1.9585   -2.4713 H   0  0  0  0  0  0  0  0  0  0  0  0
   -2.5077   -2.1717   -3.9010 H   0  0  0  0  0  0  0  0  0  0  0  0
   -2.2782   -3.6537   -6.1215 H   0  0  0  0  0  0  0  0  0  0  0  0
   -0.7953   -0.4456   -4.6923 H   0  0  0  0  0  0  0  0  0  0  0  0
   -1.5072   -5.4368   -3.9160 H   0  0  0  0  0  0  0  0  0  0  0  0
    0.2176   -3.7860   -7.2294 H   0  0  0  0  0  0  0  0  0  0  0  0
    0.4178   -3.6644   -5.6915 H   0  0  0  0  0  0  0  0  0  0  0  0
  1  4  2  0
  3  5  1  0
  3  6  1  0
  4  2  1  0
  6  2  1  0
  7  1  1  0
  7  3  1  0
  8  5  2  0
  1  9  1  0
  2 10  1  1
  2 11  1  0
  3 12  1  6
  4 13  1  0
  5 14  1  0
  7 15  1  6
  7 16  1  0
M  END
$$$$

     RDKit          3D

 16 16  0  0  0  0  0  0  0  0999 V2000
   -5.9090   -6.3090   -1.8290 C   0  0  2  0  0  0  0  0  0  0  0  0
   -5.2540   -5.9870   -0.5470 N   0  0  0  0  0  0  0  0  0  0  0  0
   -7.1250   -6.4780   -1.6440 C   0  0  1  0  0  0  0  0  0  0  0  0
   -7.2850   -6.5800    0.5420 C   0  0  1  0  0  0  0  0  0  0  0  0
   -6.2880   -5.5880    0.3640 C   0  0  1  0  0  0  0  0  0  0  0  0
   -8.0490   -6.0110   -0.7060 N   0  0  0  0  0  0  0  0  0  0  0  0
   -5.3983   -6.3874   -2.8001 H   0  0  0  0  0  0  0  0  0  0  0  0
   -6.0851   -5.2380   -2.0080 H   0  0  0  0  0  0  0  0  0  0  0  0
   -4.2455   -6.0388   -0.3443 H   0  0  0  0  0  0  0  0  0  0  0  0
   -7.5784   -7.1486   -2.3888 H   0  0  0  0  0  0  0  0  0  0  0  0
   -6.9068   -7.3419   -0.9990 H   0  0  0  0  0  0  0  0  0  0  0  0
   -7.4526   -7.4016    1.2540 H   0  0  0  0  0  0  0  0  0  0  0  0
   -7.8468   -5.8978    1.1970 H   0  0  0  0  0  0  0  0  0  0  0  0
   -6.3054   -4.6126    0.8722 H   0  0  0  0  0  0  0  0  0  0  0  0
   -6.8610   -5.1622   -0.4729 H   0  0  0  0  0  0  0  0  0  0  0  0
   -8.9258   -5.4789   -0.8003 H   0  0  0  0  0  0  0  0  0  0  0  0
  1  3  1  0
  1  2  1  0
  2  5  1  0
  3  6  1  0
  5  4  1  0
  6  4  1  0
  1  7  1  6
  1  8  1  0
  2  9  1  0
  3 10  1  6
  3 11  1  0
  4 12  1  1
  4 13  1  0
  5 14  1  1
  5 15  1  0
  6 16  1  0
M  END
$$$$

     RDKit          3D

  9 10  0  0  0  0  0  0  0  0999 V2000
   -5.0890   -6.8570   -1.0720 N   0  0  0  0  0  0  0  0  0  0  0  0
   -5.2880   -6.9730    0.0530 C   0  0  1  0  0  0  0  0  0  0  0  0
   -5.4130   -7.6620    0.9980 N   0  0  0  0  0  0  0  0  0  0  0  0
   -5.3070   -6.0450    0.9990 N   0  0  0  0  0  0  0  0  0  0  0  0
   -5.6490   -5.7010    0.0150 N   0  0  0  0  0  0  0  0  0  0  0  0
   -4.9105   -6.7530   -2.0811 H   0  0  0  0  0  0  0  0  0  0  0  0
    0.0000    0.0000    0.0000 H   0  0  0  0  0  0  0  0  0  0  0  0
   -5.5121   -8.5764    1.4616 H   0  0  0  0  0  0  0  0  0  0  0  0
   -6.0073   -4.9195   -0.5523 H   0  0  0  0  0  0  0  0  0  0  0  0
  2  1  1  6
  2  3  1  0
  2  4  1  0
  3  4  1  0
  4  5  1  0
  5  2  1  0
  1  6  1  0
  1  7  1  0
  3  8  1  0
  5  9  1  0
M  END
$$$$

     RDKit          3D

 11 10  0  0  0  0  0  0  0  0999 V2000
   -4.7430   -2.5610    3.2380 O   0  0  0  0  0  0  0  0  0  0  0  0
   -7.3490   -3.1330    2.9690 O   0  0  0  0  0  0  0  0  0  0  0  0
   -7.2070   -5.4660   -0.2930 O   0  0  0  0  0  0  0  0  0  0  0  0
   -7.5750   -3.4030   -0.1800 O   0  0  0  0  0  0  0  0  0  0  0  0
   -5.7330   -3.9340    1.1130 C   0  0  2  0  0  0  0  0  0  0  0  0
   -5.8320   -3.3560    2.9100 P   0  0  0  0  0  0  0  0  0  0  0  0
   -6.9110   -4.2220    0.2310 C   0  0  0  0  0  0  0  0  0  0  0  0
   -5.5430   -4.7470    2.1820 O   0  0  0  0  0  0  0  0  0  0  0  0
   -8.1559   -2.6865   -0.5396 H   0  0  0  0  0  0  0  0  0  0  0  0
   -5.0507   -3.0975    0.9017 H   0  0  0  0  0  0  0  0  0  0  0  0
   -5.1093   -4.5984    0.4969 H   0  0  0  0  0  0  0  0  0  0  0  0
  3  7  2  0
  4  7  1  0
  5  8  1  0
  6  2  2  0
  6  1  2  0
  7  5  1  0
  8  6  1  0
  4  9  1  0
  5 10  1  1
  5 11  1  0
M  END
$$$$

     RDKit          3D

 38 39  0  0  0  0  0  0  0  0999 V2000
   -4.6170   -2.7100    3.0250 N   0  0  0  0  0  0  0  0  0  0  0  0
   -2.6870   -0.5750    2.0180 C   0  0  0  0  0  0  0  0  0  0  0  0
   -0.1900   -0.9630    3.1060 C   0  0  0  0  0  0  0  0  0  0  0  0
   -6.4740   -5.1130   -0.8920 C   0  0  1  0  0  0  0  0  0  0  0  0
   -1.5430   -0.1640    1.4300 C   0  0  0  0  0  0  0  0  0  0  0  0
   -5.9050   -6.4090   -0.5820 N   0  0  0  0  0  0  0  0  0  0  0  0
   -2.5820   -1.2670    3.2060 C   0  0  0  0  0  0  0  0  0  0  0  0
   -3.8570   -1.8310    3.9070 C   0  0  1  0  0  0  0  0  0  0  0  0
   -6.8940   -3.4390    2.4520 C   0  0  2  0  0  0  0  0  0  0  0  0
   -0.3200   -0.3750    2.0390 C   0  0  0  0  0  0  0  0  0  0  0  0
   -5.2970   -6.5260    0.8770 C   0  0  1  0  0  0  0  0  0  0  0  0
   -6.0130   -5.6410    1.8650 C   0  0  1  0  0  0  0  0  0  0  0  0
   -7.3150   -4.3830    0.2130 C   0  0  1  0  0  0  0  0  0  0  0  0
   -1.3540   -1.4300    3.8130 C   0  0  0  0  0  0  0  0  0  0  0  0
   -6.3230   -4.2780    1.3810 C   0  0  1  0  0  0  0  0  0  0  0  0
   -5.8830   -2.7990    3.3280 C   0  0  1  0  0  0  0  0  0  0  0  0
   -4.1923   -3.2150    2.2341 H   0  0  0  0  0  0  0  0  0  0  0  0
   -3.6674   -0.3653    1.5655 H   0  0  0  0  0  0  0  0  0  0  0  0
    0.8136   -1.1337    3.5228 H   0  0  0  0  0  0  0  0  0  0  0  0
   -6.3199   -4.6519   -1.8787 H   0  0  0  0  0  0  0  0  0  0  0  0
   -7.3865   -5.6024   -1.2632 H   0  0  0  0  0  0  0  0  0  0  0  0
   -1.5847    0.3444    0.4554 H   0  0  0  0  0  0  0  0  0  0  0  0
   -5.8964   -7.1895   -1.2540 H   0  0  0  0  0  0  0  0  0  0  0  0
   -4.1476   -1.5944    4.9412 H   0  0  0  0  0  0  0  0  0  0  0  0
   -3.2773   -2.6937    4.2672 H   0  0  0  0  0  0  0  0  0  0  0  0
   -7.9766   -3.3002    2.5889 H   0  0  0  0  0  0  0  0  0  0  0  0
   -6.8667   -2.5663    1.7829 H   0  0  0  0  0  0  0  0  0  0  0  0
    0.5835    0.0048    1.5396 H   0  0  0  0  0  0  0  0  0  0  0  0
   -4.4503   -7.1778    1.1384 H   0  0  0  0  0  0  0  0  0  0  0  0
   -4.5974   -5.7078    0.6511 H   0  0  0  0  0  0  0  0  0  0  0  0
   -6.2855   -5.9842    2.8739 H   0  0  0  0  0  0  0  0  0  0  0  0
   -5.0451   -5.2850    2.2476 H   0  0  0  0  0  0  0  0  0  0  0  0
   -8.3567   -4.0331    0.1636 H   0  0  0  0  0  0  0  0  0  0  0  0
   -7.6598   -5.3559    0.5933 H   0  0  0  0  0  0  0  0  0  0  0  0
   -1.2671   -1.9007    4.8034 H   0  0  0  0  0  0  0  0  0  0  0  0
   -5.3893   -3.8004    1.0491 H   0  0  0  0  0  0  0  0  0  0  0  0
   -6.2189   -2.3759    4.2862 H   0  0  0  0  0  0  0  0  0  0  0  0
   -6.0686   -1.8327    2.8363 H   0  0  0  0  0  0  0  0  0  0  0  0
  1 16  1  0
  1  8  1  0
  2  7  2  0
  3 14  2  0
  4  6  1  0
  4 13  1  0
  5  2  1  0
  5 10  2  0
  6 11  1  0
  7 14  1  0
  7  8  1  0
  9 16  1  0
 10  3  1  0
 11 12  1  0
 13 15  1  0
 15 12  1  0
 15  9  1  0
  1 17  1  0
  2 18  1  0
  3 19  1  0
  4 20  1  6
  4 21  1  0
  5 22  1  0
  6 23  1  0
  8 24  1  1
  8 25  1  0
  9 26  1  1
  9 27  1  0
 10 28  1  0
 11 29  1  1
 11 30  1  0
 12 31  1  1
 12 32  1  0
 13 33  1  6
 13 34  1  0
 14 35  1  0
 15 36  1  6
 16 37  1  1
 16 38  1  0
M  END
$$$$

     RDKit          3D

 10  9  0  0  0  0  0  0  0  0999 V2000
   -4.5860   -3.9000    0.0150 O   0  0  0  0  0  0  0  0  0  0  0  0
   -5.9000   -6.4680   -1.3800 O   0  0  0  0  0  0  0  0  0  0  0  0
   -5.7790   -6.1010    0.2330 C   0  0  0  0  0  0  0  0  0  0  0  0
   -4.5160   -4.7740   -1.0570 N   0  0  0  0  0  0  0  0  0  0  0  0
   -5.2520   -5.7610   -0.9260 C   0  0  0  0  0  0  0  0  0  0  0  0
   -4.6360   -3.2752    0.7813 H   0  0  0  0  0  0  0  0  0  0  0  0
   -6.2189   -6.3848    1.2004 H   0  0  0  0  0  0  0  0  0  0  0  0
    0.0000    0.0000    0.0000 H   0  0  0  0  0  0  0  0  0  0  0  0
   -6.5736   -5.3537    0.0909 H   0  0  0  0  0  0  0  0  0  0  0  0
   -3.9140   -4.6190   -1.8783 H   0  0  0  0  0  0  0  0  0  0  0  0
  2  5  2  0
  4  5  1  0
  4  1  1  0
  5  3  1  0
  1  6  1  0
  3  7  1  0
  3  8  1  0
  3  9  1  0
  4 10  1  0
M  END
$$$$

     RDKit          3D

 41 40  0  0  0  0  0  0  0  0999 V2000
   -3.8030   -1.9170    1.8040 O   0  0  0  0  0  0  0  0  0  0  0  0
   -0.9360   -4.1510   -3.3440 O   0  0  0  0  0  0  0  0  0  0  0  0
   -4.9830   -2.4320    2.2810 C   0  0  0  0  0  0  0  0  0  0  0  0
   -0.7020   -4.3690   -4.7120 P   0  0  1  0  0  0  0  0  0  0  0  0
   -6.5810   -4.6930   -2.0350 C   0  0  2  0  0  0  0  0  0  0  0  0
   -4.6430   -5.9280   -2.1690 C   0  0  1  0  0  0  0  0  0  0  0  0
    0.7130   -4.5530   -4.9660 O   0  0  0  0  0  0  0  0  0  0  0  0
   -5.8170   -3.7860    0.4630 N   0  0  0  0  0  0  0  0  0  0  0  0
   -3.9950   -6.0170   -4.6890 C   0  0  2  0  0  0  0  0  0  0  0  0
   -5.0770   -7.4250   -4.6360 S   0  0  0  0  0  0  0  0  0  0  0  0
   -1.8570   -5.3450   -5.3210 O   0  0  0  0  0  0  0  0  0  0  0  0
   -6.0160   -5.7990   -2.6760 C   0  0  2  0  0  0  0  0  0  0  0  0
   -2.3810   -1.0460    3.8250 S   0  0  0  0  0  0  0  0  0  0  0  0
   -2.6160   -6.3310   -5.2790 C   0  0  2  0  0  0  0  0  0  0  0  0
   -1.1050   -3.0630   -5.4980 O   0  0  0  0  0  0  0  0  0  0  0  0
   -5.2370   -2.4570    3.4590 O   0  0  0  0  0  0  0  0  0  0  0  0
   -5.9840   -2.7680    1.2470 C   0  0  2  0  0  0  0  0  0  0  0  0
   -3.4350    0.2720    1.8870 O   0  0  0  0  0  0  0  0  0  0  0  0
   -3.7890   -5.4880   -3.3510 C   0  0  2  0  0  0  0  0  0  0  0  0
   -6.1700   -4.7750   -0.4840 C   0  0  1  0  0  0  0  0  0  0  0  0
   -3.2240   -0.8040    2.3120 C   0  0  0  0  0  0  0  0  0  0  0  0
   -1.1009   -3.9974   -2.3800 H   0  0  0  0  0  0  0  0  0  0  0  0
   -7.1942   -3.9104   -2.5057 H   0  0  0  0  0  0  0  0  0  0  0  0
   -5.6734   -4.1079   -2.2446 H   0  0  0  0  0  0  0  0  0  0  0  0
   -4.3115   -6.2621   -1.1748 H   0  0  0  0  0  0  0  0  0  0  0  0
   -4.6073   -6.9665   -2.5298 H   0  0  0  0  0  0  0  0  0  0  0  0
    1.6795   -4.6787   -5.1395 H   0  0  0  0  0  0  0  0  0  0  0  0
   -4.8264   -4.0117    0.6322 H   0  0  0  0  0  0  0  0  0  0  0  0
   -4.4943   -5.2857   -5.3416 H   0  0  0  0  0  0  0  0  0  0  0  0
   -5.9114   -8.5108   -4.5951 H   0  0  0  0  0  0  0  0  0  0  0  0
   -6.5051   -6.4480   -3.4174 H   0  0  0  0  0  0  0  0  0  0  0  0
   -6.3760   -6.4517   -1.8671 H   0  0  0  0  0  0  0  0  0  0  0  0
   -1.7206   -1.2356    5.0103 H   0  0  0  0  0  0  0  0  0  0  0  0
   -2.3247   -7.3314   -5.6315 H   0  0  0  0  0  0  0  0  0  0  0  0
   -2.2419   -6.5762   -4.2741 H   0  0  0  0  0  0  0  0  0  0  0  0
   -6.8842   -2.1446    1.1414 H   0  0  0  0  0  0  0  0  0  0  0  0
   -6.5128   -3.4095    1.9673 H   0  0  0  0  0  0  0  0  0  0  0  0
   -2.9923   -4.7475   -3.1870 H   0  0  0  0  0  0  0  0  0  0  0  0
   -4.5002   -4.6759   -3.5626 H   0  0  0  0  0  0  0  0  0  0  0  0
   -6.1616   -5.7984   -0.0808 H   0  0  0  0  0  0  0  0  0  0  0  0
   -5.1128   -4.8788   -0.7696 H   0  0  0  0  0  0  0  0  0  0  0  0
  1  3  1  0
  1 21  1  0
  3 16  2  0
  4  2  1  1
  5 20  1  0
  7  4  1  0
  8 17  1  0
  9 10  1  0
  9 19  1  0
 11 14  1  0
 11  4  1  0
 12  6  1  0
 12  5  1  0
 14  9  1  0
 15  4  2  0
 17  3  1  0
 18 21  2  0
 19  6  1  0
 20  8  1  0
 21 13  1  0
  2 22  1  0
  5 23  1  1
  5 24  1  0
  6 25  1  1
  6 26  1  0
  7 27  1  0
  8 28  1  0
  9 29  1  6
 10 30  1  0
 12 31  1  6
 12 32  1  0
 13 33  1  0
 14 34  1  6
 14 35  1  0
 17 36  1  6
 17 37  1  0
 19 38  1  1
 19 39  1  0
 20 40  1  1
 20 41  1  0
M  END
$$$$

     RDKit          3D

 22 22  0  0  0  0  0  0  0  0999 V2000
   -3.1460   -1.0060    3.2510 C   0  0  2  0  0  0  0  0  0  0  0  0
   -0.5150    0.4990    1.2490 S   0  0  0  0  0  0  0  0  0  0  0  0
   -3.1250   -3.0940    4.1960 O   0  0  0  0  0  0  0  0  0  0  0  0
   -2.6690    1.7180    1.5260 O   0  0  0  0  0  0  0  0  0  0  0  0
   -4.6300   -2.3210    2.3060 O   0  0  0  0  0  0  0  0  0  0  0  0
   -2.2730   -0.0900    2.8590 N   0  0  0  0  0  0  0  0  0  0  0  0
   -1.9230    0.7100    1.9800 C   0  0  0  0  0  0  0  0  0  0  0  0
   -1.0650   -1.8510    4.0550 C   0  0  1  0  0  0  0  0  0  0  0  0
   -2.4850   -1.9440    4.1950 C   0  0  1  0  0  0  0  0  0  0  0  0
   -4.5170   -1.1080    2.9860 C   0  0  1  0  0  0  0  0  0  0  0  0
   -1.1820   -0.3130    3.9990 C   0  0  1  0  0  0  0  0  0  0  0  0
   -3.3580   -0.3182    4.0829 H   0  0  0  0  0  0  0  0  0  0  0  0
    0.6903    0.3184    0.6232 H   0  0  0  0  0  0  0  0  0  0  0  0
   -3.6064   -3.9591    4.1968 H   0  0  0  0  0  0  0  0  0  0  0  0
   -4.7102   -3.1817    1.8235 H   0  0  0  0  0  0  0  0  0  0  0  0
   -0.2365   -2.5730    4.0072 H   0  0  0  0  0  0  0  0  0  0  0  0
   -1.1697   -1.8988    2.9610 H   0  0  0  0  0  0  0  0  0  0  0  0
   -2.5751   -1.6858    5.2605 H   0  0  0  0  0  0  0  0  0  0  0  0
   -5.3157   -0.3997    3.2511 H   0  0  0  0  0  0  0  0  0  0  0  0
   -4.3710   -0.5852    2.0292 H   0  0  0  0  0  0  0  0  0  0  0  0
   -0.6468    0.4400    4.5960 H   0  0  0  0  0  0  0  0  0  0  0  0
   -1.9796   -0.3461    4.7558 H   0  0  0  0  0  0  0  0  0  0  0  0
  1 10  1  0
  1  9  1  0
  2  7  1  0
  4  7  2  0
  5 10  1  0
  6  1  1  0
  6 11  1  0
  7  6  1  0
  8  9  1  0
  9  3  1  0
 11  8  1  0
  1 12  1  6
  2 13  1  0
  3 14  1  0
  5 15  1  0
  8 16  1  1
  8 17  1  0
  9 18  1  1
 10 19  1  1
 10 20  1  0
 11 21  1  1
 11 22  1  0
M  END
$$$$

     RDKit          3D

 17 17  0  0  0  0  0  0  0  0999 V2000
   -5.1300   -2.4610    1.4590 O   0  0  0  0  0  0  0  0  0  0  0  0
   -2.4720    1.0260    2.7830 S   0  0  0  0  0  0  0  0  0  0  0  0
   -1.8120   -0.5430    2.7060 C   0  0  1  0  0  0  0  0  0  0  0  0
   -5.6850   -2.4030    2.6340 C   0  0  0  0  0  0  0  0  0  0  0  0
   -6.7480   -3.1880    2.7980 O   0  0  0  0  0  0  0  0  0  0  0  0
   -2.7090   -1.4700    3.1310 C   0  0  1  0  0  0  0  0  0  0  0  0
   -5.1340   -1.5590    3.6910 C   0  0  0  0  0  0  0  0  0  0  0  0
   -3.8600   -0.7990    3.6260 C   0  0  2  0  0  0  0  0  0  0  0  0
   -3.8250    0.4960    3.7130 N   0  0  0  0  0  0  0  0  0  0  0  0
   -6.0280   -1.1020    4.4600 O   0  0  0  0  0  0  0  0  0  0  0  0
   -0.7944   -0.7744    2.3582 H   0  0  0  0  0  0  0  0  0  0  0  0
   -1.4361   -0.4353    3.7342 H   0  0  0  0  0  0  0  0  0  0  0  0
   -7.5383   -3.7716    2.9199 H   0  0  0  0  0  0  0  0  0  0  0  0
   -2.5679   -2.5604    3.0976 H   0  0  0  0  0  0  0  0  0  0  0  0
   -2.2612   -1.4428    4.1354 H   0  0  0  0  0  0  0  0  0  0  0  0
   -3.7624   -0.8610    4.7199 H   0  0  0  0  0  0  0  0  0  0  0  0
   -4.4802    1.0932    4.2374 H   0  0  0  0  0  0  0  0  0  0  0  0
  1  4  2  0
  2  9  1  0
  3  2  1  0
  3  6  1  0
  4  5  1  0
  4  7  1  0
  6  8  1  0
  7 10  2  0
  8  7  1  0
  8  9  1  0
  3 11  1  6
  3 12  1  0
  5 13  1  0
  6 14  1  6
  6 15  1  0
  8 16  1  1
  9 17  1  0
M  END
$$$$

     RDKit          3D

 49 50  0  0  0  0  0  0  0  0999 V2000
   -5.6870   -1.5480    3.2250 C   0  0  1  0  0  0  0  0  0  0  0  0
   -2.5370   -6.5670   -3.5040 C   0  0  1  0  0  0  0  0  0  0  0  0
    1.4880   -0.8680    1.2670 N   0  0  0  0  0  0  0  0  0  0  0  0
   -1.0470   -0.7380    2.1110 C   0  0  1  0  0  0  0  0  0  0  0  0
    3.1870   -0.6610    0.7190 S   0  0  0  0  0  0  0  0  0  0  0  0
   -6.9310   -3.5820    0.7170 C   0  0  1  0  0  0  0  0  0  0  0  0
   -6.5790   -2.7890    2.4490 C   0  0  1  0  0  0  0  0  0  0  0  0
    0.9300    0.5770    1.0990 C   0  0  1  0  0  0  0  0  0  0  0  0
   -6.6100   -5.9770   -0.4220 C   0  0  1  0  0  0  0  0  0  0  0  0
   -5.0590   -6.3950   -2.9170 O   0  0  0  0  0  0  0  0  0  0  0  0
   -3.1410   -1.6120    2.2410 O   0  0  0  0  0  0  0  0  0  0  0  0
   -3.7680   -7.0430   -2.7480 C   0  0  1  0  0  0  0  0  0  0  0  0
   -2.1870   -0.4320    2.0530 C   0  0  1  0  0  0  0  0  0  0  0  0
   -4.1200   -1.3530    2.7290 C   0  0  2  0  0  0  0  0  0  0  0  0
   -6.9050   -6.9420   -1.5060 O   0  0  0  0  0  0  0  0  0  0  0  0
   -6.0180   -7.0290   -2.5950 C   0  0  1  0  0  0  0  0  0  0  0  0
   -5.4250   -3.1090    1.2070 O   0  0  0  0  0  0  0  0  0  0  0  0
   -2.7860   -5.0750   -3.5430 O   0  0  0  0  0  0  0  0  0  0  0  0
    4.1440   -0.3260    2.2440 C   0  0  0  0  0  0  0  0  0  0  0  0
    3.1940   -2.3480    0.3240 O   0  0  0  0  0  0  0  0  0  0  0  0
    0.5320   -0.2300    2.1490 C   0  0  2  0  0  0  0  0  0  0  0  0
   -6.7140   -4.5400   -0.6570 C   0  0  1  0  0  0  0  0  0  0  0  0
   -6.1311   -0.9166    4.0087 H   0  0  0  0  0  0  0  0  0  0  0  0
   -5.3555   -2.2650    3.9905 H   0  0  0  0  0  0  0  0  0  0  0  0
   -1.6963   -7.1481   -3.9108 H   0  0  0  0  0  0  0  0  0  0  0  0
   -3.0769   -6.6820   -4.4555 H   0  0  0  0  0  0  0  0  0  0  0  0
   -1.0218   -1.8365    2.1619 H   0  0  0  0  0  0  0  0  0  0  0  0
   -1.0045   -0.7879    1.0130 H   0  0  0  0  0  0  0  0  0  0  0  0
   -7.9768   -3.6919    0.3941 H   0  0  0  0  0  0  0  0  0  0  0  0
   -7.2974   -2.8811    3.2769 H   0  0  0  0  0  0  0  0  0  0  0  0
    0.8856    1.5303    0.5519 H   0  0  0  0  0  0  0  0  0  0  0  0
    0.1041    0.1868    0.4861 H   0  0  0  0  0  0  0  0  0  0  0  0
   -6.3097   -6.3466    0.5696 H   0  0  0  0  0  0  0  0  0  0  0  0
   -5.5549   -5.9513   -0.7320 H   0  0  0  0  0  0  0  0  0  0  0  0
   -3.6799   -7.8957   -2.0586 H   0  0  0  0  0  0  0  0  0  0  0  0
   -3.5294   -6.3531   -1.9251 H   0  0  0  0  0  0  0  0  0  0  0  0
   -2.5280    0.5995    1.8808 H   0  0  0  0  0  0  0  0  0  0  0  0
   -2.1798   -0.6108    0.9676 H   0  0  0  0  0  0  0  0  0  0  0  0
   -3.9010   -0.3474    3.1173 H   0  0  0  0  0  0  0  0  0  0  0  0
   -4.4736   -0.9117    1.7855 H   0  0  0  0  0  0  0  0  0  0  0  0
   -6.2566   -7.8470   -3.2906 H   0  0  0  0  0  0  0  0  0  0  0  0
   -5.3746   -7.7084   -2.0167 H   0  0  0  0  0  0  0  0  0  0  0  0
   -2.9489   -4.0988   -3.5685 H   0  0  0  0  0  0  0  0  0  0  0  0
    4.7188   -0.1248    3.1600 H   0  0  0  0  0  0  0  0  0  0  0  0
    0.0000    0.0000    0.0000 H   0  0  0  0  0  0  0  0  0  0  0  0
    3.8502   -1.3076    2.6440 H   0  0  0  0  0  0  0  0  0  0  0  0
    0.5351   -0.1020    3.2415 H   0  0  0  0  0  0  0  0  0  0  0  0
   -6.6547   -4.1077   -1.6668 H   0  0  0  0  0  0  0  0  0  0  0  0
   -5.6233   -4.4439   -0.5518 H   0  0  0  0  0  0  0  0  0  0  0  0
  2 12  1  0
  3 21  1  0
  5  3  1  0
  5 19  1  1
  6 22  1  0
  6 17  1  0
  6  7  1  0
  7  1  1  0
  8  3  1  0
  8 21  1  0
 10 12  1  0
 10 16  1  0
 11 14  1  0
 13  4  1  0
 13 11  1  0
 14  1  1  0
 15  9  1  0
 16 15  1  0
 17  7  1  0
 18  2  1  0
 20  5  2  0
 21  4  1  0
 22  9  1  0
  1 23  1  1
  1 24  1  0
  2 25  1  6
  2 26  1  0
  4 27  1  1
  4 28  1  0
  6 29  1  6
  7 30  1  1
  8 31  1  1
  8 32  1  0
  9 33  1  1
  9 34  1  0
 12 35  1  1
 12 36  1  0
 13 37  1  6
 13 38  1  0
 14 39  1  1
 14 40  1  0
 16 41  1  6
 16 42  1  0
 18 43  1  0
 19 44  1  0
 19 45  1  0
 19 46  1  0
 21 47  1  1
 22 48  1  6
 22 49  1  0
M  END
$$$$

     RDKit          3D

 31 31  0  0  0  0  0  0  0  0999 V2000
    0.2150    0.9400    2.7500 C   0  0  1  0  0  0  0  0  0  0  0  0
   -4.7970   -3.2270    4.1450 O   0  0  0  0  0  0  0  0  0  0  0  0
   -1.6140   -0.2430    2.4700 C   0  0  0  0  0  0  0  0  0  0  0  0
    0.4030   -0.2430    3.4250 O   0  0  0  0  0  0  0  0  0  0  0  0
   -7.2140   -6.6840    4.1440 S   0  0  0  0  0  0  0  0  0  0  0  0
   -2.9290   -0.4320    1.9760 C   0  0  1  0  0  0  0  0  0  0  0  0
   -7.7120   -3.3120    1.1590 O   0  0  0  0  0  0  0  0  0  0  0  0
   -6.5440   -5.5840    2.9470 C   0  0  2  0  0  0  0  0  0  0  0  0
   -7.9730   -2.5660    4.5480 O   0  0  0  0  0  0  0  0  0  0  0  0
   -7.2520   -4.4320    3.1200 O   0  0  0  0  0  0  0  0  0  0  0  0
   -0.9410    0.9010    2.1340 N   0  0  0  0  0  0  0  0  0  0  0  0
   -5.3840   -2.4890    3.3490 C   0  0  0  0  0  0  0  0  0  0  0  0
   -0.9610   -2.0940    4.0890 O   0  0  0  0  0  0  0  0  0  0  0  0
    0.5930    2.1820    3.5590 C   0  0  0  0  0  0  0  0  0  0  0  0
   -3.5510   -1.3990    2.6810 O   0  0  0  0  0  0  0  0  0  0  0  0
   -6.9670   -2.3840    3.4050 C   0  0  1  0  0  0  0  0  0  0  0  0
   -0.7940   -0.9720    3.3000 C   0  0  0  0  0  0  0  0  0  0  0  0
   -4.8310   -1.6770    2.5240 N   0  0  0  0  0  0  0  0  0  0  0  0
   -7.4510   -3.3340    2.2530 C   0  0  0  0  0  0  0  0  0  0  0  0
    0.9497    1.0553    1.9395 H   0  0  0  0  0  0  0  0  0  0  0  0
   -7.7360   -7.5411    5.0766 H   0  0  0  0  0  0  0  0  0  0  0  0
   -3.3762    0.1273    1.1410 H   0  0  0  0  0  0  0  0  0  0  0  0
   -2.5550   -1.1876    1.2695 H   0  0  0  0  0  0  0  0  0  0  0  0
   -5.7383   -5.7804    2.2243 H   0  0  0  0  0  0  0  0  0  0  0  0
   -5.8013   -5.2378    3.6809 H   0  0  0  0  0  0  0  0  0  0  0  0
   -8.6225   -2.6835    5.2859 H   0  0  0  0  0  0  0  0  0  0  0  0
    0.8648    3.0751    4.1408 H   0  0  0  0  0  0  0  0  0  0  0  0
    0.0000    0.0000    0.0000 H   0  0  0  0  0  0  0  0  0  0  0  0
   -0.4523    2.5228    3.5242 H   0  0  0  0  0  0  0  0  0  0  0  0
   -7.0126   -1.2854    3.4381 H   0  0  0  0  0  0  0  0  0  0  0  0
   -5.3731   -1.2526    1.7579 H   0  0  0  0  0  0  0  0  0  0  0  0
  1  4  1  0
  1 14  1  0
  3 17  1  0
  6  3  1  0
  6 15  1  0
  7 19  2  0
  8 10  1  0
  8  5  1  0
 11  3  2  0
 11  1  1  0
 12 16  1  0
 12  2  2  0
 16  9  1  0
 17  4  1  0
 17 13  2  0
 18 15  1  0
 18 12  1  0
 19 10  1  0
 19 16  1  0
  1 20  1  6
  5 21  1  0
  6 22  1  6
  6 23  1  0
  8 24  1  6
  8 25  1  0
  9 26  1  0
 14 27  1  0
 14 28  1  0
 14 29  1  0
 16 30  1  6
 18 31  1  0
M  END
$$$$

     RDKit          3D

 43 44  0  0  0  0  0  0  0  0999 V2000
    0.2740   -0.0750   -0.0730 C   0  0  2  0  0  0  0  0  0  0  0  0
    2.1800   -1.6840   -1.8580 N   0  0  0  0  0  0  0  0  0  0  0  0
   -0.8780   -0.3680    2.0000 C   0  0  2  0  0  0  0  0  0  0  0  0
   -0.8050    0.0310    0.7930 C   0  0  1  0  0  0  0  0  0  0  0  0
   -5.5340   -3.4620    4.2570 C   0  0  1  0  0  0  0  0  0  0  0  0
    2.8830   -2.5200   -0.5490 N   0  0  0  0  0  0  0  0  0  0  0  0
   -5.6880   -0.8780    4.4870 C   0  0  0  0  0  0  0  0  0  0  0  0
    2.2400   -1.5220   -0.6120 C   0  0  0  0  0  0  0  0  0  0  0  0
   -5.8810   -3.2630    1.8410 O   0  0  0  0  0  0  0  0  0  0  0  0
    0.4340   -0.6190    2.5990 C   0  0  0  0  0  0  0  0  0  0  0  0
    2.9730   -2.7200   -2.1620 N   0  0  0  0  0  0  0  0  0  0  0  0
   -3.7790   -2.2720    3.3670 O   0  0  0  0  0  0  0  0  0  0  0  0
   -5.9020   -4.1180    2.9310 C   0  0  2  0  0  0  0  0  0  0  0  0
   -2.3470   -0.9970    2.9680 S   0  0  0  0  0  0  0  0  0  0  0  0
   -4.9850   -2.1110    3.8930 C   0  0  1  0  0  0  0  0  0  0  0  0
    3.1720   -3.3340   -1.3830 C   0  0  2  0  0  0  0  0  0  0  0  0
    1.3910   -0.7950    0.4920 C   0  0  1  0  0  0  0  0  0  0  0  0
   -7.1950   -4.5930    3.1750 O   0  0  0  0  0  0  0  0  0  0  0  0
   -8.1380   -4.2780    2.0030 C   0  0  0  0  0  0  0  0  0  0  0  0
    1.5570   -0.7950    1.8040 C   0  0  0  0  0  0  0  0  0  0  0  0
    0.2781    0.3473   -1.0887 H   0  0  0  0  0  0  0  0  0  0  0  0
   -0.1344   -1.0175   -0.4665 H   0  0  0  0  0  0  0  0  0  0  0  0
   -1.5924    0.4638    2.0881 H   0  0  0  0  0  0  0  0  0  0  0  0
   -1.7047    0.5178    0.3885 H   0  0  0  0  0  0  0  0  0  0  0  0
   -1.1778   -0.9447    0.4479 H   0  0  0  0  0  0  0  0  0  0  0  0
   -5.6463   -3.8869    5.2654 H   0  0  0  0  0  0  0  0  0  0  0  0
   -4.5234   -3.8910    4.1888 H   0  0  0  0  0  0  0  0  0  0  0  0
    3.2593   -2.7225    0.3882 H   0  0  0  0  0  0  0  0  0  0  0  0
   -6.1906    0.0035    4.9117 H   0  0  0  0  0  0  0  0  0  0  0  0
    0.0000    0.0000    0.0000 H   0  0  0  0  0  0  0  0  0  0  0  0
   -6.3715   -0.8527    3.6255 H   0  0  0  0  0  0  0  0  0  0  0  0
   -5.8660   -2.6521    1.0621 H   0  0  0  0  0  0  0  0  0  0  0  0
    0.5305   -0.6687    3.6936 H   0  0  0  0  0  0  0  0  0  0  0  0
    3.3481   -2.8780   -3.1082 H   0  0  0  0  0  0  0  0  0  0  0  0
   -5.1723   -4.8916    2.6496 H   0  0  0  0  0  0  0  0  0  0  0  0
   -5.2768   -1.3821    3.1226 H   0  0  0  0  0  0  0  0  0  0  0  0
    3.5259   -4.3737   -1.3220 H   0  0  0  0  0  0  0  0  0  0  0  0
    4.2130   -2.9788   -1.3690 H   0  0  0  0  0  0  0  0  0  0  0  0
    0.7607   -1.6904    0.5970 H   0  0  0  0  0  0  0  0  0  0  0  0
   -8.8129   -4.0525    1.1642 H   0  0  0  0  0  0  0  0  0  0  0  0
    0.0000    0.0000    0.0000 H   0  0  0  0  0  0  0  0  0  0  0  0
   -7.7912   -5.1820    1.4810 H   0  0  0  0  0  0  0  0  0  0  0  0
    2.5532   -0.9302    2.2504 H   0  0  0  0  0  0  0  0  0  0  0  0
  1 17  1  0
  1  4  1  0
  2  8  2  0
  3 10  1  0
  3 14  1  0
  4  3  1  0
  8  6  1  0
 11  2  1  0
 11 16  1  0
 12 15  1  0
 13  9  1  0
 13 18  1  0
 13  5  1  0
 14 12  1  0
 15  5  1  0
 15  7  1  0
 16  6  1  0
 17  8  1  0
 17 20  1  0
 19 18  1  0
 20 10  2  0
  1 21  1  6
  1 22  1  0
  3 23  1  1
  4 24  1  1
  4 25  1  0
  5 26  1  1
  5 27  1  0
  6 28  1  0
  7 29  1  0
  7 30  1  0
  7 31  1  0
  9 32  1  0
 10 33  1  0
 11 34  1  0
 13 35  1  6
 15 36  1  6
 16 37  1  6
 16 38  1  0
 17 39  1  1
 19 40  1  0
 19 41  1  0
 19 42  1  0
 20 43  1  0
M  END
$$$$

     RDKit          3D

 25 25  0  0  0  0  0  0  0  0999 V2000
   -4.2660   -7.5290   -3.0480 C   0  0  0  0  0  0  0  0  0  0  0  0
   -7.3050   -4.3770   -1.4860 C   0  0  0  0  0  0  0  0  0  0  0  0
   -7.4260   -4.4770    1.9050 O   0  0  0  0  0  0  0  0  0  0  0  0
   -5.6920   -5.4060   -0.1130 C   0  0  0  0  0  0  0  0  0  0  0  0
   -6.9380   -3.8180    1.0080 C   0  0  0  0  0  0  0  0  0  0  0  0
   -3.4830   -1.5230    2.2270 O   0  0  0  0  0  0  0  0  0  0  0  0
   -5.1960   -6.0830   -1.1820 C   0  0  0  0  0  0  0  0  0  0  0  0
   -5.7260   -2.1600    2.4930 C   0  0  1  0  0  0  0  0  0  0  0  0
   -6.6800   -4.5080   -0.2700 C   0  0  0  0  0  0  0  0  0  0  0  0
   -4.3020   -2.1740    2.9220 C   0  0  0  0  0  0  0  0  0  0  0  0
   -6.8600   -5.0760   -2.6050 C   0  0  0  0  0  0  0  0  0  0  0  0
   -5.7430   -5.8590   -2.4580 C   0  0  0  0  0  0  0  0  0  0  0  0
   -4.0050   -2.8310    3.9260 O   0  0  0  0  0  0  0  0  0  0  0  0
   -4.9380   -6.4240   -3.4390 O   0  0  0  0  0  0  0  0  0  0  0  0
   -5.9580   -2.9000    1.2800 O   0  0  0  0  0  0  0  0  0  0  0  0
   -3.7189   -8.4286   -2.7297 H   0  0  0  0  0  0  0  0  0  0  0  0
    0.0000    0.0000    0.0000 H   0  0  0  0  0  0  0  0  0  0  0  0
   -4.8625   -7.5649   -2.1244 H   0  0  0  0  0  0  0  0  0  0  0  0
   -8.1730   -3.7076   -1.5775 H   0  0  0  0  0  0  0  0  0  0  0  0
   -5.2813   -5.5946    0.8899 H   0  0  0  0  0  0  0  0  0  0  0  0
   -4.3729   -6.8007   -1.0501 H   0  0  0  0  0  0  0  0  0  0  0  0
   -6.5206   -1.6377    3.0459 H   0  0  0  0  0  0  0  0  0  0  0  0
   -5.5392   -1.2508    1.9026 H   0  0  0  0  0  0  0  0  0  0  0  0
   -7.3837   -5.0033   -3.5696 H   0  0  0  0  0  0  0  0  0  0  0  0
   -3.7671   -3.3572    4.7301 H   0  0  0  0  0  0  0  0  0  0  0  0
  2  9  2  0
  5 15  1  0
  5  3  2  0
  6 10  2  0
  7  4  2  0
  8 10  1  0
  9  4  1  0
  9  5  1  0
 10 13  1  0
 11 12  2  0
 11  2  1  0
 12  7  1  0
 14  1  1  0
 14 12  1  0
 15  8  1  0
  1 16  1  0
  1 17  1  0
  1 18  1  0
  2 19  1  0
  4 20  1  0
  7 21  1  0
  8 22  1  1
  8 23  1  0
 11 24  1  0
 13 25  1  0
M  END
$$$$

     RDKit          3D

  8  7  0  0  0  0  0  0  0  0999 V2000
   -2.5670   -4.6800   -5.1620 O   0  0  0  0  0  0  0  0  0  0  0  0
   -3.6710   -5.5740   -2.7910 O   0  0  0  0  0  0  0  0  0  0  0  0
   -2.6730   -6.0640   -3.2890 C   0  0  0  0  0  0  0  0  0  0  0  0
   -2.2340   -7.1730   -3.0110 O   0  0  0  0  0  0  0  0  0  0  0  0
   -0.6870   -5.6630   -4.3240 O   0  0  0  0  0  0  0  0  0  0  0  0
   -2.0030   -5.3110   -4.2520 C   0  0  0  0  0  0  0  0  0  0  0  0
   -4.4820   -5.1758   -2.3863 H   0  0  0  0  0  0  0  0  0  0  0  0
    0.2680   -5.9185   -4.3763 H   0  0  0  0  0  0  0  0  0  0  0  0
  1  6  2  0
  3  4  2  0
  3  2  1  0
  5  6  1  0
  6  3  1  0
  2  7  1  0
  5  8  1  0
M  END
$$$$
