3MI
     RDKit          3D

 27 29  0  0  0  0  0  0  0  0999 V2000
   -6.8560   -0.2490   -0.0030 O   0  0  0  0  0  0  0  0  0  0  0  0
   -5.9240    1.7660   -0.0080 O   0  0  0  0  0  0  0  0  0  0  0  0
   -4.2550   -1.4100    0.0050 C   0  0  0  0  0  0  0  0  0  0  0  0
   -3.0060   -1.9550    0.0040 C   0  0  0  0  0  0  0  0  0  0  0  0
    4.3140    0.2140   -0.0010 C   0  0  0  0  0  0  0  0  0  0  0  0
    2.3780   -1.1980   -0.0000 C   0  0  0  0  0  0  0  0  0  0  0  0
    2.1320    1.2040    0.0020 C   0  0  0  0  0  0  0  0  0  0  0  0
   -3.3070    0.8220    0.0000 C   0  0  0  0  0  0  0  0  0  0  0  0
   -0.5500   -1.3630    0.0020 N   0  0  0  0  0  0  0  0  0  0  0  0
   -0.7930    0.7990    0.0040 O   0  0  0  0  0  0  0  0  0  0  0  0
   -5.7780    0.5600   -0.0040 C   0  0  0  0  0  0  0  0  0  0  0  0
    3.7510   -1.0510   -0.0020 C   0  0  0  0  0  0  0  0  0  0  0  0
    3.5060    1.3380    0.0000 C   0  0  0  0  0  0  0  0  0  0  0  0
   -4.4220   -0.0180    0.0010 C   0  0  0  0  0  0  0  0  0  0  0  0
    1.5580   -0.0690    0.0010 C   0  0  0  0  0  0  0  0  0  0  0  0
    0.0880   -0.2190    0.0020 C   0  0  0  0  0  0  0  0  0  0  0  0
   -1.8790   -1.1240    0.0030 C   0  0  0  0  0  0  0  0  0  0  0  0
   -2.0380    0.2730    0.0040 C   0  0  0  0  0  0  0  0  0  0  0  0
    4.7730   -2.4540   -0.0040 Cl  0  0  0  0  0  0  0  0  0  0  0  0
    4.2220    2.9200    0.0010 Cl  0  0  0  0  0  0  0  0  0  0  0  0
   -7.7240    0.1760   -0.0060 H   0  0  0  0  0  0  0  0  0  0  0  0
   -5.1210   -2.0540    0.0060 H   0  0  0  0  0  0  0  0  0  0  0  0
   -2.8860   -3.0280    0.0040 H   0  0  0  0  0  0  0  0  0  0  0  0
    5.3890    0.3240    0.0020 H   0  0  0  0  0  0  0  0  0  0  0  0
    1.9390   -2.1850   -0.0000 H   0  0  0  0  0  0  0  0  0  0  0  0
    1.5020    2.0810    0.0030 H   0  0  0  0  0  0  0  0  0  0  0  0
   -3.4350    1.8940   -0.0030 H   0  0  0  0  0  0  0  0  0  0  0  0
  1 21  1  0
  2 11  2  0
  3 22  1  0
  4  3  2  0
  4 23  1  0
  5 12  2  0
  5 13  1  0
  5 24  1  0
  6 15  2  0
  6 25  1  0
  7 15  1  0
  7 26  1  0
  8 14  2  0
  8 27  1  0
  9 17  1  0
 10 18  1  0
 11  1  1  0
 12  6  1  0
 13  7  2  0
 14  3  1  0
 14 11  1  0
 15 16  1  0
 16  9  2  0
 16 10  1  0
 17  4  1  0
 18  8  1  0
 18 17  2  0
 19 12  1  0
 20 13  1  0
M  END
$$$$
