MODEL 1
REMARK VINA RESULT:    -4.906      0.000      0.000
REMARK INTER + INTRA:          -6.249
REMARK INTER:                  -5.767
REMARK INTRA:                  -0.482
REMARK UNBOUND:                -0.482
REMARK SMILES COc1cccc(C(=O)O)c1O
REMARK SMILES IDX 7 1 11 2 6 3 5 4 3 5 4 6 8 7 9 8 10 9 12 11 2 13 1 14
REMARK H PARENT 10 10 12 12
ROOT
ATOM      1  C   UNL     1       2.883  -3.625   4.358  1.00  0.00     0.105 A 
ATOM      2  C   UNL     1       2.830  -2.292   4.056  1.00  0.00     0.172 A 
ATOM      3  C   UNL     1       2.449  -4.039   5.705  1.00  0.00     0.020 A 
ATOM      4  C   UNL     1       1.695  -3.166   6.421  1.00  0.00     0.005 A 
ATOM      5  C   UNL     1       1.846  -1.410   4.666  1.00  0.00     0.161 A 
ATOM      6  C   UNL     1       1.367  -1.857   5.961  1.00  0.00     0.050 A 
ENDROOT
BRANCH   1   7
ATOM      7  C   UNL     1       3.280  -4.670   3.300  1.00  0.00     0.339 C 
ATOM      8  O   UNL     1       3.243  -3.932   1.848  1.00  0.00    -0.246 OA
BRANCH   7   9
ATOM      9  O   UNL     1       3.649  -5.655   3.251  1.00  0.00    -0.478 OA
ATOM     10  H   UNL     1       3.995  -6.582   3.205  1.00  0.00     0.297 HD
ENDBRANCH   7   9
ENDBRANCH   1   7
BRANCH   2  11
ATOM     11  O   UNL     1       3.712  -1.718   3.124  1.00  0.00    -0.504 OA
ATOM     12  H   UNL     1       4.333  -1.313   2.468  1.00  0.00     0.293 HD
ENDBRANCH   2  11
BRANCH   5  13
ATOM     13  O   UNL     1       1.767  -0.130   4.132  1.00  0.00    -0.493 OA
ATOM     14  C   UNL     1       1.331   1.070   3.932  1.00  0.00     0.278 C 
ENDBRANCH   5  13
TORSDOF 4
ENDMDL
MODEL 2
REMARK VINA RESULT:    -4.845      1.761      4.657
REMARK INTER + INTRA:          -6.177
REMARK INTER:                  -5.713
REMARK INTRA:                  -0.464
REMARK UNBOUND:                -0.482
REMARK SMILES COc1cccc(C(=O)O)c1O
REMARK SMILES IDX 7 1 11 2 6 3 5 4 3 5 4 6 8 7 9 8 10 9 12 11 2 13 1 14
REMARK H PARENT 10 10 12 12
ROOT
ATOM      1  C   UNL     1       2.302  -0.111   4.431  1.00  0.00     0.105 A 
ATOM      2  C   UNL     1       2.272  -1.454   4.176  1.00  0.00     0.172 A 
ATOM      3  C   UNL     1       3.558   0.458   4.954  1.00  0.00     0.020 A 
ATOM      4  C   UNL     1       4.692  -0.275   4.807  1.00  0.00     0.005 A 
ATOM      5  C   UNL     1       3.469  -2.184   3.784  1.00  0.00     0.161 A 
ATOM      6  C   UNL     1       4.709  -1.583   4.240  1.00  0.00     0.050 A 
ENDROOT
BRANCH   1   7
ATOM      7  C   UNL     1       1.107   0.796   4.088  1.00  0.00     0.339 C 
ATOM      8  O   UNL     1       0.140  -0.036   3.075  1.00  0.00    -0.246 OA
BRANCH   7   9
ATOM      9  O   UNL     1       0.697   1.720   4.380  1.00  0.00    -0.478 OA
ATOM     10  H   UNL     1       0.312   2.590   4.656  1.00  0.00     0.297 HD
ENDBRANCH   7   9
ENDBRANCH   1   7
BRANCH   2  11
ATOM     11  O   UNL     1       1.077  -2.188   4.260  1.00  0.00    -0.504 OA
ATOM     12  H   UNL     1       0.234  -2.706   4.319  1.00  0.00     0.293 HD
ENDBRANCH   2  11
BRANCH   5  13
ATOM     13  O   UNL     1       3.270  -3.493   3.363  1.00  0.00    -0.493 OA
ATOM     14  C   UNL     1       3.163  -4.779   3.429  1.00  0.00     0.278 C 
ENDBRANCH   5  13
TORSDOF 4
ENDMDL
MODEL 3
REMARK VINA RESULT:    -4.700      2.950      4.353
REMARK INTER + INTRA:          -6.006
REMARK INTER:                  -5.737
REMARK INTRA:                  -0.269
REMARK UNBOUND:                -0.482
REMARK SMILES COc1cccc(C(=O)O)c1O
REMARK SMILES IDX 7 1 11 2 6 3 5 4 3 5 4 6 8 7 9 8 10 9 12 11 2 13 1 14
REMARK H PARENT 10 10 12 12
ROOT
ATOM      1  C   UNL     1       2.197  -0.369   4.387  1.00  0.00     0.105 A 
ATOM      2  C   UNL     1       3.208  -0.185   5.290  1.00  0.00     0.172 A 
ATOM      3  C   UNL     1       1.821  -1.756   4.057  1.00  0.00     0.020 A 
ATOM      4  C   UNL     1       2.219  -2.738   4.906  1.00  0.00     0.005 A 
ATOM      5  C   UNL     1       3.469  -1.146   6.351  1.00  0.00     0.161 A 
ATOM      6  C   UNL     1       3.033  -2.497   6.052  1.00  0.00     0.050 A 
ENDROOT
BRANCH   1   7
ATOM      7  C   UNL     1       1.407   0.821   3.816  1.00  0.00     0.339 C 
ATOM      8  O   UNL     1       0.040   0.227   3.159  1.00  0.00    -0.246 OA
BRANCH   7   9
ATOM      9  O   UNL     1       1.441   1.873   3.812  1.00  0.00    -0.478 OA
ATOM     10  H   UNL     1       1.473   2.863   3.808  1.00  0.00     0.297 HD
ENDBRANCH   7   9
ENDBRANCH   1   7
BRANCH   2  11
ATOM     11  O   UNL     1       4.029   0.956   5.246  1.00  0.00    -0.504 OA
ATOM     12  H   UNL     1       4.607   1.759   5.215  1.00  0.00     0.293 HD
ENDBRANCH   2  11
BRANCH   5  13
ATOM     13  O   UNL     1       4.388  -0.749   7.315  1.00  0.00    -0.493 OA
ATOM     14  C   UNL     1       4.905  -0.559   8.484  1.00  0.00     0.278 C 
ENDBRANCH   5  13
TORSDOF 4
ENDMDL
MODEL 4
REMARK VINA RESULT:    -4.643      2.132      3.134
REMARK INTER + INTRA:          -5.939
REMARK INTER:                  -5.671
REMARK INTRA:                  -0.268
REMARK UNBOUND:                -0.482
REMARK SMILES COc1cccc(C(=O)O)c1O
REMARK SMILES IDX 7 1 11 2 6 3 5 4 3 5 4 6 8 7 9 8 10 9 12 11 2 13 1 14
REMARK H PARENT 10 10 12 12
ROOT
ATOM      1  C   UNL     1       2.811  -3.302   4.170  1.00  0.00     0.105 A 
ATOM      2  C   UNL     1       2.927  -3.322   5.533  1.00  0.00     0.172 A 
ATOM      3  C   UNL     1       2.510  -2.009   3.529  1.00  0.00     0.020 A 
ATOM      4  C   UNL     1       2.726  -0.880   4.253  1.00  0.00     0.005 A 
ATOM      5  C   UNL     1       3.394  -2.161   6.277  1.00  0.00     0.161 A 
ATOM      6  C   UNL     1       3.161  -0.893   5.611  1.00  0.00     0.050 A 
ENDROOT
BRANCH   1   7
ATOM      7  C   UNL     1       3.088  -4.557   3.325  1.00  0.00     0.339 C 
ATOM      8  O   UNL     1       3.322  -4.068   1.789  1.00  0.00    -0.246 OA
BRANCH   7   9
ATOM      9  O   UNL     1       3.262  -5.587   3.459  1.00  0.00    -0.478 OA
ATOM     10  H   UNL     1       3.426  -6.556   3.584  1.00  0.00     0.297 HD
ENDBRANCH   7   9
ENDBRANCH   1   7
BRANCH   2  11
ATOM     11  O   UNL     1       2.622  -4.475   6.277  1.00  0.00    -0.504 OA
ATOM     12  H   UNL     1       2.406  -5.287   6.800  1.00  0.00     0.293 HD
ENDBRANCH   2  11
BRANCH   5  13
ATOM     13  O   UNL     1       3.656  -2.370   7.625  1.00  0.00    -0.493 OA
ATOM     14  C   UNL     1       4.336  -2.563   8.707  1.00  0.00     0.278 C 
ENDBRANCH   5  13
TORSDOF 4
ENDMDL
MODEL 5
REMARK VINA RESULT:    -4.052      2.043      3.129
REMARK INTER + INTRA:          -5.245
REMARK INTER:                  -4.787
REMARK INTRA:                  -0.458
REMARK UNBOUND:                -0.482
REMARK SMILES COc1cccc(C(=O)O)c1O
REMARK SMILES IDX 7 1 11 2 6 3 5 4 3 5 4 6 8 7 9 8 10 9 12 11 2 13 1 14
REMARK H PARENT 10 10 12 12
ROOT
ATOM      1  C   UNL     1       2.547  -2.826   3.889  1.00  0.00     0.105 A 
ATOM      2  C   UNL     1       2.775  -2.991   5.228  1.00  0.00     0.172 A 
ATOM      3  C   UNL     1       1.989  -1.536   3.444  1.00  0.00     0.020 A 
ATOM      4  C   UNL     1       2.076  -0.483   4.297  1.00  0.00     0.005 A 
ATOM      5  C   UNL     1       3.105  -1.865   6.090  1.00  0.00     0.161 A 
ATOM      6  C   UNL     1       2.615  -0.585   5.613  1.00  0.00     0.050 A 
ENDROOT
BRANCH   1   7
ATOM      7  C   UNL     1       2.955  -3.904   2.870  1.00  0.00     0.339 C 
ATOM      8  O   UNL     1       2.506  -5.346   3.479  1.00  0.00    -0.246 OA
BRANCH   7   9
ATOM      9  O   UNL     1       3.334  -3.972   1.890  1.00  0.00    -0.478 OA
ATOM     10  H   UNL     1       3.690  -4.036   0.968  1.00  0.00     0.297 HD
ENDBRANCH   7   9
ENDBRANCH   1   7
BRANCH   2  11
ATOM     11  O   UNL     1       2.722  -4.260   5.829  1.00  0.00    -0.504 OA
ATOM     12  H   UNL     1       2.684  -5.155   6.252  1.00  0.00     0.293 HD
ENDBRANCH   2  11
BRANCH   5  13
ATOM     13  O   UNL     1       3.506  -2.188   7.381  1.00  0.00    -0.493 OA
ATOM     14  C   UNL     1       4.295  -2.415   8.379  1.00  0.00     0.278 C 
ENDBRANCH   5  13
TORSDOF 4
ENDMDL
MODEL 6
REMARK VINA RESULT:    -4.024      2.168      3.103
REMARK INTER + INTRA:          -5.212
REMARK INTER:                  -5.008
REMARK INTRA:                  -0.204
REMARK UNBOUND:                -0.482
REMARK SMILES COc1cccc(C(=O)O)c1O
REMARK SMILES IDX 7 1 11 2 6 3 5 4 3 5 4 6 8 7 9 8 10 9 12 11 2 13 1 14
REMARK H PARENT 10 10 12 12
ROOT
ATOM      1  C   UNL     1       2.450  -3.658   5.417  1.00  0.00     0.105 A 
ATOM      2  C   UNL     1       1.781  -2.480   5.226  1.00  0.00     0.172 A 
ATOM      3  C   UNL     1       2.995  -4.336   4.227  1.00  0.00     0.020 A 
ATOM      4  C   UNL     1       3.130  -3.604   3.091  1.00  0.00     0.005 A 
ATOM      5  C   UNL     1       2.108  -1.586   4.125  1.00  0.00     0.161 A 
ATOM      6  C   UNL     1       2.711  -2.246   2.981  1.00  0.00     0.050 A 
ENDROOT
BRANCH   1   7
ATOM      7  C   UNL     1       2.719  -4.206   6.830  1.00  0.00     0.339 C 
ATOM      8  O   UNL     1       3.566  -3.073   7.638  1.00  0.00    -0.246 OA
BRANCH   7   9
ATOM      9  O   UNL     1       2.442  -5.021   7.435  1.00  0.00    -0.478 OA
ATOM     10  H   UNL     1       2.183  -5.789   8.005  1.00  0.00     0.297 HD
ENDBRANCH   7   9
ENDBRANCH   1   7
BRANCH   2  11
ATOM     11  O   UNL     1       0.760  -2.069   6.100  1.00  0.00    -0.504 OA
ATOM     12  H   UNL     1       0.040  -1.779   6.715  1.00  0.00     0.293 HD
ENDBRANCH   2  11
BRANCH   5  13
ATOM     13  O   UNL     1       1.498  -0.339   4.155  1.00  0.00    -0.493 OA
ATOM     14  C   UNL     1       1.355   0.939   4.024  1.00  0.00     0.278 C 
ENDBRANCH   5  13
TORSDOF 4
ENDMDL
MODEL 7
REMARK VINA RESULT:    -3.964      2.278      4.672
REMARK INTER + INTRA:          -5.142
REMARK INTER:                  -4.858
REMARK INTRA:                  -0.284
REMARK UNBOUND:                -0.482
REMARK SMILES COc1cccc(C(=O)O)c1O
REMARK SMILES IDX 7 1 11 2 6 3 5 4 3 5 4 6 8 7 9 8 10 9 12 11 2 13 1 14
REMARK H PARENT 10 10 12 12
ROOT
ATOM      1  C   UNL     1       3.412   0.125   4.770  1.00  0.00     0.105 A 
ATOM      2  C   UNL     1       3.756  -1.131   4.353  1.00  0.00     0.172 A 
ATOM      3  C   UNL     1       2.123   0.670   4.307  1.00  0.00     0.020 A 
ATOM      4  C   UNL     1       1.206  -0.205   3.818  1.00  0.00     0.005 A 
ATOM      5  C   UNL     1       2.749  -2.141   4.059  1.00  0.00     0.161 A 
ATOM      6  C   UNL     1       1.459  -1.600   3.672  1.00  0.00     0.050 A 
ENDROOT
BRANCH   1   7
ATOM      7  C   UNL     1       4.284   0.903   5.771  1.00  0.00     0.339 C 
ATOM      8  O   UNL     1       4.695  -0.129   6.963  1.00  0.00    -0.246 OA
BRANCH   7   9
ATOM      9  O   UNL     1       4.756   1.840   5.858  1.00  0.00    -0.478 OA
ATOM     10  H   UNL     1       5.200   2.721   5.939  1.00  0.00     0.297 HD
ENDBRANCH   7   9
ENDBRANCH   1   7
BRANCH   2  11
ATOM     11  O   UNL     1       5.101  -1.511   4.209  1.00  0.00    -0.504 OA
ATOM     12  H   UNL     1       6.049  -1.780   4.108  1.00  0.00     0.293 HD
ENDBRANCH   2  11
BRANCH   5  13
ATOM     13  O   UNL     1       3.227  -3.426   3.838  1.00  0.00    -0.493 OA
ATOM     14  C   UNL     1       3.227  -4.671   3.490  1.00  0.00     0.278 C 
ENDBRANCH   5  13
TORSDOF 4
ENDMDL
MODEL 8
REMARK VINA RESULT:    -3.825      2.061      2.848
REMARK INTER + INTRA:          -4.978
REMARK INTER:                  -4.556
REMARK INTRA:                  -0.422
REMARK UNBOUND:                -0.482
REMARK SMILES COc1cccc(C(=O)O)c1O
REMARK SMILES IDX 7 1 11 2 6 3 5 4 3 5 4 6 8 7 9 8 10 9 12 11 2 13 1 14
REMARK H PARENT 10 10 12 12
ROOT
ATOM      1  C   UNL     1       2.619  -2.068   3.882  1.00  0.00     0.105 A 
ATOM      2  C   UNL     1       3.379  -1.398   4.801  1.00  0.00     0.172 A 
ATOM      3  C   UNL     1       1.350  -1.447   3.460  1.00  0.00     0.020 A 
ATOM      4  C   UNL     1       1.184  -0.122   3.706  1.00  0.00     0.005 A 
ATOM      5  C   UNL     1       3.364   0.056   4.889  1.00  0.00     0.161 A 
ATOM      6  C   UNL     1       2.141   0.669   4.407  1.00  0.00     0.050 A 
ENDROOT
BRANCH   1   7
ATOM      7  C   UNL     1       3.115  -3.371   3.231  1.00  0.00     0.339 C 
ATOM      8  O   UNL     1       3.338  -4.458   4.424  1.00  0.00    -0.246 OA
BRANCH   7   9
ATOM      9  O   UNL     1       3.253  -3.781   2.271  1.00  0.00    -0.478 OA
ATOM     10  H   UNL     1       3.383  -4.166   1.368  1.00  0.00     0.297 HD
ENDBRANCH   7   9
ENDBRANCH   1   7
BRANCH   2  11
ATOM     11  O   UNL     1       4.226  -2.082   5.689  1.00  0.00    -0.504 OA
ATOM     12  H   UNL     1       4.823  -2.564   6.314  1.00  0.00     0.293 HD
ENDBRANCH   2  11
BRANCH   5  13
ATOM     13  O   UNL     1       4.321   0.622   5.722  1.00  0.00    -0.493 OA
ATOM     14  C   UNL     1       4.904   1.500   6.469  1.00  0.00     0.278 C 
ENDBRANCH   5  13
TORSDOF 4
ENDMDL
MODEL 9
REMARK VINA RESULT:    -3.581      1.672      2.208
REMARK INTER + INTRA:          -4.691
REMARK INTER:                  -4.509
REMARK INTRA:                  -0.182
REMARK UNBOUND:                -0.482
REMARK SMILES COc1cccc(C(=O)O)c1O
REMARK SMILES IDX 7 1 11 2 6 3 5 4 3 5 4 6 8 7 9 8 10 9 12 11 2 13 1 14
REMARK H PARENT 10 10 12 12
ROOT
ATOM      1  C   UNL     1       3.432  -3.139   3.900  1.00  0.00     0.105 A 
ATOM      2  C   UNL     1       2.661  -2.098   3.461  1.00  0.00     0.172 A 
ATOM      3  C   UNL     1       4.748  -2.818   4.480  1.00  0.00     0.020 A 
ATOM      4  C   UNL     1       4.966  -1.539   4.880  1.00  0.00     0.005 A 
ATOM      5  C   UNL     1       2.741  -0.778   4.071  1.00  0.00     0.161 A 
ATOM      6  C   UNL     1       4.015  -0.491   4.703  1.00  0.00     0.050 A 
ENDROOT
BRANCH   1   7
ATOM      7  C   UNL     1       2.905  -4.585   3.889  1.00  0.00     0.339 C 
ATOM      8  O   UNL     1       2.592  -5.001   5.432  1.00  0.00    -0.246 OA
BRANCH   7   9
ATOM      9  O   UNL     1       2.607  -5.320   3.196  1.00  0.00    -0.478 OA
ATOM     10  H   UNL     1       2.326  -6.011   2.545  1.00  0.00     0.297 HD
ENDBRANCH   7   9
ENDBRANCH   1   7
BRANCH   2  11
ATOM     11  O   UNL     1       1.738  -2.262   2.414  1.00  0.00    -0.504 OA
ATOM     12  H   UNL     1       1.088  -2.377   1.676  1.00  0.00     0.293 HD
ENDBRANCH   2  11
BRANCH   5  13
ATOM     13  O   UNL     1       1.773   0.134   3.671  1.00  0.00    -0.493 OA
ATOM     14  C   UNL     1       0.899   1.082   3.756  1.00  0.00     0.278 C 
ENDBRANCH   5  13
TORSDOF 4
ENDMDL
