MODEL 1
REMARK VINA RESULT:    -4.779      0.000      0.000
REMARK INTER + INTRA:          -6.099
REMARK INTER:                  -5.618
REMARK INTRA:                  -0.481
REMARK UNBOUND:                -0.481
REMARK SMILES COc1cccc(C(=O)O)c1O
REMARK SMILES IDX 7 1 11 2 6 3 5 4 3 5 4 6 8 7 9 8 10 9 12 11 2 13 1 14
REMARK H PARENT 10 10 12 12
ROOT
ATOM      1  C   UNL     1       4.907   5.477   1.131  1.00  0.00     0.105 A 
ATOM      2  C   UNL     1       4.725   4.766   2.285  1.00  0.00     0.172 A 
ATOM      3  C   UNL     1       6.283   5.606   0.617  1.00  0.00     0.020 A 
ATOM      4  C   UNL     1       7.215   4.735   1.084  1.00  0.00     0.005 A 
ATOM      5  C   UNL     1       5.607   3.667   2.652  1.00  0.00     0.161 A 
ATOM      6  C   UNL     1       6.940   3.759   2.086  1.00  0.00     0.050 A 
ENDROOT
BRANCH   1   7
ATOM      7  C   UNL     1       3.712   6.035   0.338  1.00  0.00     0.339 C 
ATOM      8  O   UNL     1       2.377   5.260   0.859  1.00  0.00    -0.246 OA
BRANCH   7   9
ATOM      9  O   UNL     1       3.498   6.808  -0.343  1.00  0.00    -0.478 OA
ATOM     10  H   UNL     1       3.297   7.536  -0.984  1.00  0.00     0.297 HD
ENDBRANCH   7   9
ENDBRANCH   1   7
BRANCH   2  11
ATOM     11  O   UNL     1       3.663   5.050   3.160  1.00  0.00    -0.504 OA
ATOM     12  H   UNL     1       2.914   5.250   3.777  1.00  0.00     0.293 HD
ENDBRANCH   2  11
BRANCH   5  13
ATOM     13  O   UNL     1       5.202   2.902   3.738  1.00  0.00    -0.493 OA
ATOM     14  C   UNL     1       5.181   2.428   4.940  1.00  0.00     0.278 C 
ENDBRANCH   5  13
TORSDOF 4
ENDMDL
MODEL 2
REMARK VINA RESULT:    -4.739      2.875      4.379
REMARK INTER + INTRA:          -6.052
REMARK INTER:                  -5.783
REMARK INTRA:                  -0.269
REMARK UNBOUND:                -0.481
REMARK SMILES COc1cccc(C(=O)O)c1O
REMARK SMILES IDX 7 1 11 2 6 3 5 4 3 5 4 6 8 7 9 8 10 9 12 11 2 13 1 14
REMARK H PARENT 10 10 12 12
ROOT
ATOM      1  C   UNL     1       5.265   3.819   3.920  1.00  0.00     0.105 A 
ATOM      2  C   UNL     1       5.959   4.882   4.428  1.00  0.00     0.172 A 
ATOM      3  C   UNL     1       4.850   3.886   2.507  1.00  0.00     0.020 A 
ATOM      4  C   UNL     1       5.475   4.789   1.708  1.00  0.00     0.005 A 
ATOM      5  C   UNL     1       6.820   5.703   3.589  1.00  0.00     0.161 A 
ATOM      6  C   UNL     1       6.453   5.711   2.185  1.00  0.00     0.050 A 
ENDROOT
BRANCH   1   7
ATOM      7  C   UNL     1       5.015   2.552   4.757  1.00  0.00     0.339 C 
ATOM      8  O   UNL     1       4.635   1.352   3.722  1.00  0.00    -0.246 OA
BRANCH   7   9
ATOM      9  O   UNL     1       5.110   2.222   5.752  1.00  0.00    -0.478 OA
ATOM     10  H   UNL     1       5.200   1.912   6.688  1.00  0.00     0.297 HD
ENDBRANCH   7   9
ENDBRANCH   1   7
BRANCH   2  11
ATOM     11  O   UNL     1       5.890   5.217   5.791  1.00  0.00    -0.504 OA
ATOM     12  H   UNL     1       5.841   5.453   6.752  1.00  0.00     0.293 HD
ENDBRANCH   2  11
BRANCH   5  13
ATOM     13  O   UNL     1       7.619   6.622   4.257  1.00  0.00    -0.493 OA
ATOM     14  C   UNL     1       8.664   7.321   4.556  1.00  0.00     0.278 C 
ENDBRANCH   5  13
TORSDOF 4
ENDMDL
MODEL 3
REMARK VINA RESULT:    -4.728      2.265      3.251
REMARK INTER + INTRA:          -6.039
REMARK INTER:                  -5.770
REMARK INTRA:                  -0.269
REMARK UNBOUND:                -0.481
REMARK SMILES COc1cccc(C(=O)O)c1O
REMARK SMILES IDX 7 1 11 2 6 3 5 4 3 5 4 6 8 7 9 8 10 9 12 11 2 13 1 14
REMARK H PARENT 10 10 12 12
ROOT
ATOM      1  C   UNL     1       4.826   5.314   1.361  1.00  0.00     0.105 A 
ATOM      2  C   UNL     1       6.125   5.743   1.378  1.00  0.00     0.172 A 
ATOM      3  C   UNL     1       4.334   4.577   2.540  1.00  0.00     0.020 A 
ATOM      4  C   UNL     1       5.045   4.683   3.692  1.00  0.00     0.005 A 
ATOM      5  C   UNL     1       6.800   6.082   2.622  1.00  0.00     0.161 A 
ATOM      6  C   UNL     1       6.268   5.410   3.792  1.00  0.00     0.050 A 
ENDROOT
BRANCH   1   7
ATOM      7  C   UNL     1       3.879   5.675   0.203  1.00  0.00     0.339 C 
ATOM      8  O   UNL     1       2.355   5.446   0.732  1.00  0.00    -0.246 OA
BRANCH   7   9
ATOM      9  O   UNL     1       3.920   6.103  -0.758  1.00  0.00    -0.478 OA
ATOM     10  H   UNL     1       3.959   6.506  -1.662  1.00  0.00     0.297 HD
ENDBRANCH   7   9
ENDBRANCH   1   7
BRANCH   2  11
ATOM     11  O   UNL     1       6.860   5.897   0.190  1.00  0.00    -0.504 OA
ATOM     12  H   UNL     1       7.378   6.005  -0.647  1.00  0.00     0.293 HD
ENDBRANCH   2  11
BRANCH   5  13
ATOM     13  O   UNL     1       8.043   6.690   2.490  1.00  0.00    -0.493 OA
ATOM     14  C   UNL     1       9.058   7.437   2.776  1.00  0.00     0.278 C 
ENDBRANCH   5  13
TORSDOF 4
ENDMDL
MODEL 4
REMARK VINA RESULT:    -4.071      2.416      4.703
REMARK INTER + INTRA:          -5.266
REMARK INTER:                  -4.823
REMARK INTRA:                  -0.443
REMARK UNBOUND:                -0.481
REMARK SMILES COc1cccc(C(=O)O)c1O
REMARK SMILES IDX 7 1 11 2 6 3 5 4 3 5 4 6 8 7 9 8 10 9 12 11 2 13 1 14
REMARK H PARENT 10 10 12 12
ROOT
ATOM      1  C   UNL     1       5.766   3.639   4.408  1.00  0.00     0.105 A 
ATOM      2  C   UNL     1       6.302   3.875   3.172  1.00  0.00     0.172 A 
ATOM      3  C   UNL     1       5.678   4.775   5.344  1.00  0.00     0.020 A 
ATOM      4  C   UNL     1       5.780   6.027   4.827  1.00  0.00     0.005 A 
ATOM      5  C   UNL     1       6.190   5.176   2.527  1.00  0.00     0.161 A 
ATOM      6  C   UNL     1       6.032   6.286   3.448  1.00  0.00     0.050 A 
ENDROOT
BRANCH   1   7
ATOM      7  C   UNL     1       5.178   2.266   4.777  1.00  0.00     0.339 C 
ATOM      8  O   UNL     1       4.594   1.603   3.408  1.00  0.00    -0.246 OA
BRANCH   7   9
ATOM      9  O   UNL     1       5.132   1.613   5.601  1.00  0.00    -0.478 OA
ATOM     10  H   UNL     1       5.089   0.999   6.377  1.00  0.00     0.297 HD
ENDBRANCH   7   9
ENDBRANCH   1   7
BRANCH   2  11
ATOM     11  O   UNL     1       6.967   2.864   2.458  1.00  0.00    -0.504 OA
ATOM     12  H   UNL     1       7.436   2.152   1.955  1.00  0.00     0.293 HD
ENDBRANCH   2  11
BRANCH   5  13
ATOM     13  O   UNL     1       6.598   5.231   1.200  1.00  0.00    -0.493 OA
ATOM     14  C   UNL     1       7.100   5.710   0.111  1.00  0.00     0.278 C 
ENDBRANCH   5  13
TORSDOF 4
ENDMDL
MODEL 5
REMARK VINA RESULT:    -4.051      2.206      3.294
REMARK INTER + INTRA:          -5.243
REMARK INTER:                  -4.801
REMARK INTRA:                  -0.443
REMARK UNBOUND:                -0.481
REMARK SMILES COc1cccc(C(=O)O)c1O
REMARK SMILES IDX 7 1 11 2 6 3 5 4 3 5 4 6 8 7 9 8 10 9 12 11 2 13 1 14
REMARK H PARENT 10 10 12 12
ROOT
ATOM      1  C   UNL     1       4.665   4.947   1.777  1.00  0.00     0.105 A 
ATOM      2  C   UNL     1       5.881   5.549   1.606  1.00  0.00     0.172 A 
ATOM      3  C   UNL     1       4.511   4.029   2.920  1.00  0.00     0.020 A 
ATOM      4  C   UNL     1       5.424   4.111   3.922  1.00  0.00     0.005 A 
ATOM      5  C   UNL     1       6.751   5.847   2.735  1.00  0.00     0.161 A 
ATOM      6  C   UNL     1       6.548   4.987   3.886  1.00  0.00     0.050 A 
ENDROOT
BRANCH   1   7
ATOM      7  C   UNL     1       3.467   5.292   0.875  1.00  0.00     0.339 C 
ATOM      8  O   UNL     1       4.021   5.389  -0.654  1.00  0.00    -0.246 OA
BRANCH   7   9
ATOM      9  O   UNL     1       2.420   5.382   0.939  1.00  0.00    -0.478 OA
ATOM     10  H   UNL     1       1.435   5.467   1.000  1.00  0.00     0.297 HD
ENDBRANCH   7   9
ENDBRANCH   1   7
BRANCH   2  11
ATOM     11  O   UNL     1       6.337   5.929   0.332  1.00  0.00    -0.504 OA
ATOM     12  H   UNL     1       6.658   6.196  -0.566  1.00  0.00     0.293 HD
ENDBRANCH   2  11
BRANCH   5  13
ATOM     13  O   UNL     1       7.861   6.633   2.453  1.00  0.00    -0.493 OA
ATOM     14  C   UNL     1       8.803   7.500   2.630  1.00  0.00     0.278 C 
ENDBRANCH   5  13
TORSDOF 4
ENDMDL
MODEL 6
REMARK VINA RESULT:    -3.999      2.525      4.228
REMARK INTER + INTRA:          -5.182
REMARK INTER:                  -4.723
REMARK INTRA:                  -0.459
REMARK UNBOUND:                -0.481
REMARK SMILES COc1cccc(C(=O)O)c1O
REMARK SMILES IDX 7 1 11 2 6 3 5 4 3 5 4 6 8 7 9 8 10 9 12 11 2 13 1 14
REMARK H PARENT 10 10 12 12
ROOT
ATOM      1  C   UNL     1       4.945   3.893   3.104  1.00  0.00     0.105 A 
ATOM      2  C   UNL     1       5.976   4.778   3.255  1.00  0.00     0.172 A 
ATOM      3  C   UNL     1       3.940   4.184   2.066  1.00  0.00     0.020 A 
ATOM      4  C   UNL     1       4.273   5.077   1.098  1.00  0.00     0.005 A 
ATOM      5  C   UNL     1       6.480   5.562   2.136  1.00  0.00     0.161 A 
ATOM      6  C   UNL     1       5.509   5.787   1.082  1.00  0.00     0.050 A 
ENDROOT
BRANCH   1   7
ATOM      7  C   UNL     1       4.888   2.585   3.913  1.00  0.00     0.339 C 
ATOM      8  O   UNL     1       5.052   2.977   5.486  1.00  0.00    -0.246 OA
BRANCH   7   9
ATOM      9  O   UNL     1       4.684   1.563   3.764  1.00  0.00    -0.478 OA
ATOM     10  H   UNL     1       4.491   0.602   3.623  1.00  0.00     0.297 HD
ENDBRANCH   7   9
ENDBRANCH   1   7
BRANCH   2  11
ATOM     11  O   UNL     1       6.612   4.957   4.496  1.00  0.00    -0.504 OA
ATOM     12  H   UNL     1       7.060   5.083   5.370  1.00  0.00     0.293 HD
ENDBRANCH   2  11
BRANCH   5  13
ATOM     13  O   UNL     1       7.650   6.272   2.372  1.00  0.00    -0.493 OA
ATOM     14  C   UNL     1       8.440   7.285   2.514  1.00  0.00     0.278 C 
ENDBRANCH   5  13
TORSDOF 4
ENDMDL
MODEL 7
REMARK VINA RESULT:    -3.966      2.421      4.616
REMARK INTER + INTRA:          -5.143
REMARK INTER:                  -4.940
REMARK INTRA:                  -0.204
REMARK UNBOUND:                -0.481
REMARK SMILES COc1cccc(C(=O)O)c1O
REMARK SMILES IDX 7 1 11 2 6 3 5 4 3 5 4 6 8 7 9 8 10 9 12 11 2 13 1 14
REMARK H PARENT 10 10 12 12
ROOT
ATOM      1  C   UNL     1       5.460   4.859   4.740  1.00  0.00     0.105 A 
ATOM      2  C   UNL     1       4.835   5.460   3.683  1.00  0.00     0.172 A 
ATOM      3  C   UNL     1       5.389   3.389   4.831  1.00  0.00     0.020 A 
ATOM      4  C   UNL     1       5.044   2.703   3.711  1.00  0.00     0.005 A 
ATOM      5  C   UNL     1       4.685   4.786   2.401  1.00  0.00     0.161 A 
ATOM      6  C   UNL     1       4.686   3.338   2.485  1.00  0.00     0.050 A 
ENDROOT
BRANCH   1   7
ATOM      7  C   UNL     1       6.298   5.672   5.742  1.00  0.00     0.339 C 
ATOM      8  O   UNL     1       7.459   6.440   4.895  1.00  0.00    -0.246 OA
BRANCH   7   9
ATOM      9  O   UNL     1       6.282   5.946   6.759  1.00  0.00    -0.478 OA
ATOM     10  H   UNL     1       6.268   6.203   7.715  1.00  0.00     0.297 HD
ENDBRANCH   7   9
ENDBRANCH   1   7
BRANCH   2  11
ATOM     11  O   UNL     1       4.326   6.766   3.780  1.00  0.00    -0.504 OA
ATOM     12  H   UNL     1       3.968   7.687   3.848  1.00  0.00     0.293 HD
ENDBRANCH   2  11
BRANCH   5  13
ATOM     13  O   UNL     1       4.213   5.570   1.356  1.00  0.00    -0.493 OA
ATOM     14  C   UNL     1       3.893   5.911   0.151  1.00  0.00     0.278 C 
ENDBRANCH   5  13
TORSDOF 4
ENDMDL
MODEL 8
REMARK VINA RESULT:    -3.965      2.178      3.109
REMARK INTER + INTRA:          -5.142
REMARK INTER:                  -4.887
REMARK INTRA:                  -0.254
REMARK UNBOUND:                -0.481
REMARK SMILES COc1cccc(C(=O)O)c1O
REMARK SMILES IDX 7 1 11 2 6 3 5 4 3 5 4 6 8 7 9 8 10 9 12 11 2 13 1 14
REMARK H PARENT 10 10 12 12
ROOT
ATOM      1  C   UNL     1       6.075   5.337   0.912  1.00  0.00     0.105 A 
ATOM      2  C   UNL     1       6.123   4.310   1.814  1.00  0.00     0.172 A 
ATOM      3  C   UNL     1       4.749   5.750   0.417  1.00  0.00     0.020 A 
ATOM      4  C   UNL     1       3.660   5.363   1.130  1.00  0.00     0.005 A 
ATOM      5  C   UNL     1       5.031   4.056   2.742  1.00  0.00     0.161 A 
ATOM      6  C   UNL     1       3.737   4.528   2.283  1.00  0.00     0.050 A 
ENDROOT
BRANCH   1   7
ATOM      7  C   UNL     1       7.344   6.107   0.507  1.00  0.00     0.339 C 
ATOM      8  O   UNL     1       8.147   6.476   1.875  1.00  0.00    -0.246 OA
BRANCH   7   9
ATOM      9  O   UNL     1       7.874   6.369  -0.364  1.00  0.00    -0.478 OA
ATOM     10  H   UNL     1       8.374   6.614  -1.183  1.00  0.00     0.297 HD
ENDBRANCH   7   9
ENDBRANCH   1   7
BRANCH   2  11
ATOM     11  O   UNL     1       7.242   3.464   1.899  1.00  0.00    -0.504 OA
ATOM     12  H   UNL     1       8.031   2.868   1.960  1.00  0.00     0.293 HD
ENDBRANCH   2  11
BRANCH   5  13
ATOM     13  O   UNL     1       5.284   3.116   3.733  1.00  0.00    -0.493 OA
ATOM     14  C   UNL     1       5.220   2.524   4.880  1.00  0.00     0.278 C 
ENDBRANCH   5  13
TORSDOF 4
ENDMDL
MODEL 9
REMARK VINA RESULT:    -3.577      7.285      7.915
REMARK INTER + INTRA:          -4.686
REMARK INTER:                  -4.504
REMARK INTRA:                  -0.182
REMARK UNBOUND:                -0.481
REMARK SMILES COc1cccc(C(=O)O)c1O
REMARK SMILES IDX 7 1 11 2 6 3 5 4 3 5 4 6 8 7 9 8 10 9 12 11 2 13 1 14
REMARK H PARENT 10 10 12 12
ROOT
ATOM      1  C   UNL     1       2.802  -1.595  -1.663  1.00  0.00     0.105 A 
ATOM      2  C   UNL     1       2.002  -0.685  -1.029  1.00  0.00     0.172 A 
ATOM      3  C   UNL     1       3.265  -2.759  -0.884  1.00  0.00     0.020 A 
ATOM      4  C   UNL     1       2.600  -3.056   0.261  1.00  0.00     0.005 A 
ATOM      5  C   UNL     1       1.109  -1.076   0.053  1.00  0.00     0.161 A 
ATOM      6  C   UNL     1       1.530  -2.264   0.773  1.00  0.00     0.050 A 
ENDROOT
BRANCH   1   7
ATOM      7  C   UNL     1       3.123  -1.471  -3.162  1.00  0.00     0.339 C 
ATOM      8  O   UNL     1       2.412  -2.726  -3.919  1.00  0.00    -0.246 OA
BRANCH   7   9
ATOM      9  O   UNL     1       3.566  -0.786  -3.829  1.00  0.00    -0.478 OA
ATOM     10  H   UNL     1       3.982  -0.143  -4.456  1.00  0.00     0.297 HD
ENDBRANCH   7   9
ENDBRANCH   1   7
BRANCH   2  11
ATOM     11  O   UNL     1       1.989   0.668  -1.408  1.00  0.00    -0.504 OA
ATOM     12  H   UNL     1       1.981   1.621  -1.675  1.00  0.00     0.293 HD
ENDBRANCH   2  11
BRANCH   5  13
ATOM     13  O   UNL     1       0.211  -0.106   0.478  1.00  0.00    -0.493 OA
ATOM     14  C   UNL     1      -0.426   0.681   1.281  1.00  0.00     0.278 C 
ENDBRANCH   5  13
TORSDOF 4
ENDMDL
