MODEL 1
REMARK VINA RESULT:    -4.915      0.000      0.000
REMARK INTER + INTRA:          -6.046
REMARK INTER:                  -5.777
REMARK INTRA:                  -0.268
REMARK UNBOUND:                -0.268
REMARK SMILES COc1cccc(C(=O)O)c1O
REMARK SMILES IDX 7 1 11 2 6 3 5 4 3 5 4 6 8 7 9 8 10 9 12 11 2 13 1 14
REMARK H PARENT 10 10 12 12
ROOT
ATOM      1  C   UNL     1      -0.418   6.003  -4.972  1.00  0.00     0.105 A 
ATOM      2  C   UNL     1      -0.852   7.200  -5.472  1.00  0.00     0.172 A 
ATOM      3  C   UNL     1      -0.905   4.773  -5.624  1.00  0.00     0.020 A 
ATOM      4  C   UNL     1      -1.436   4.887  -6.869  1.00  0.00     0.005 A 
ATOM      5  C   UNL     1      -1.194   7.362  -6.878  1.00  0.00     0.161 A 
ATOM      6  C   UNL     1      -1.604   6.135  -7.536  1.00  0.00     0.050 A 
ENDROOT
BRANCH   1   7
ATOM      7  C   UNL     1       0.621   5.937  -3.840  1.00  0.00     0.339 C 
ATOM      8  O   UNL     1       1.247   4.433  -3.840  1.00  0.00    -0.246 OA
BRANCH   7   9
ATOM      9  O   UNL     1       1.099   6.581  -3.158  1.00  0.00    -0.478 OA
ATOM     10  H   UNL     1       1.549   7.187  -2.516  1.00  0.00     0.297 HD
ENDBRANCH   7   9
ENDBRANCH   1   7
BRANCH   2  11
ATOM     11  O   UNL     1      -0.968   8.336  -4.653  1.00  0.00    -0.504 OA
ATOM     12  H   UNL     1      -1.049   9.136  -4.075  1.00  0.00     0.293 HD
ENDBRANCH   2  11
BRANCH   5  13
ATOM     13  O   UNL     1      -1.428   8.665  -7.298  1.00  0.00    -0.493 OA
ATOM     14  C   UNL     1      -1.539   9.674  -8.097  1.00  0.00     0.278 C 
ENDBRANCH   5  13
TORSDOF 4
ENDMDL
MODEL 2
REMARK VINA RESULT:    -4.872      3.139      4.074
REMARK INTER + INTRA:          -5.995
REMARK INTER:                  -5.733
REMARK INTRA:                  -0.263
REMARK UNBOUND:                -0.268
REMARK SMILES COc1cccc(C(=O)O)c1O
REMARK SMILES IDX 7 1 11 2 6 3 5 4 3 5 4 6 8 7 9 8 10 9 12 11 2 13 1 14
REMARK H PARENT 10 10 12 12
ROOT
ATOM      1  C   UNL     1      -2.582   4.400  -6.530  1.00  0.00     0.105 A 
ATOM      2  C   UNL     1      -2.256   5.132  -7.638  1.00  0.00     0.172 A 
ATOM      3  C   UNL     1      -1.923   4.752  -5.259  1.00  0.00     0.020 A 
ATOM      4  C   UNL     1      -1.335   5.973  -5.170  1.00  0.00     0.005 A 
ATOM      5  C   UNL     1      -1.851   6.528  -7.539  1.00  0.00     0.161 A 
ATOM      6  C   UNL     1      -1.268   6.889  -6.260  1.00  0.00     0.050 A 
ENDROOT
BRANCH   1   7
ATOM      7  C   UNL     1      -3.673   3.316  -6.580  1.00  0.00     0.339 C 
ATOM      8  O   UNL     1      -4.107   2.991  -5.043  1.00  0.00    -0.246 OA
BRANCH   7   9
ATOM      9  O   UNL     1      -4.269   2.816  -7.289  1.00  0.00    -0.478 OA
ATOM     10  H   UNL     1      -4.828   2.345  -7.957  1.00  0.00     0.297 HD
ENDBRANCH   7   9
ENDBRANCH   1   7
BRANCH   2  11
ATOM     11  O   UNL     1      -2.317   4.576  -8.927  1.00  0.00    -0.504 OA
ATOM     12  H   UNL     1      -2.360   4.184  -9.835  1.00  0.00     0.293 HD
ENDBRANCH   2  11
BRANCH   5  13
ATOM     13  O   UNL     1      -1.739   7.212  -8.742  1.00  0.00    -0.493 OA
ATOM     14  C   UNL     1      -2.070   7.970  -9.736  1.00  0.00     0.278 C 
ENDBRANCH   5  13
TORSDOF 4
ENDMDL
MODEL 3
REMARK VINA RESULT:    -4.700      1.984      3.159
REMARK INTER + INTRA:          -5.792
REMARK INTER:                  -5.362
REMARK INTRA:                  -0.430
REMARK UNBOUND:                -0.268
REMARK SMILES COc1cccc(C(=O)O)c1O
REMARK SMILES IDX 7 1 11 2 6 3 5 4 3 5 4 6 8 7 9 8 10 9 12 11 2 13 1 14
REMARK H PARENT 10 10 12 12
ROOT
ATOM      1  C   UNL     1      -0.030   5.731  -5.252  1.00  0.00     0.105 A 
ATOM      2  C   UNL     1      -1.030   4.818  -5.441  1.00  0.00     0.172 A 
ATOM      3  C   UNL     1       0.236   6.690  -6.340  1.00  0.00     0.020 A 
ATOM      4  C   UNL     1      -0.728   6.858  -7.282  1.00  0.00     0.005 A 
ATOM      5  C   UNL     1      -2.186   5.113  -6.276  1.00  0.00     0.161 A 
ATOM      6  C   UNL     1      -1.941   6.109  -7.302  1.00  0.00     0.050 A 
ENDROOT
BRANCH   1   7
ATOM      7  C   UNL     1       0.722   5.829  -3.913  1.00  0.00     0.339 C 
ATOM      8  O   UNL     1       1.403   4.377  -3.630  1.00  0.00    -0.246 OA
BRANCH   7   9
ATOM      9  O   UNL     1       0.997   6.557  -3.204  1.00  0.00    -0.478 OA
ATOM     10  H   UNL     1       1.255   7.242  -2.536  1.00  0.00     0.297 HD
ENDBRANCH   7   9
ENDBRANCH   1   7
BRANCH   2  11
ATOM     11  O   UNL     1      -0.998   3.558  -4.820  1.00  0.00    -0.504 OA
ATOM     12  H   UNL     1      -0.975   2.670  -4.382  1.00  0.00     0.293 HD
ENDBRANCH   2  11
BRANCH   5  13
ATOM     13  O   UNL     1      -3.220   4.186  -6.228  1.00  0.00    -0.493 OA
ATOM     14  C   UNL     1      -4.007   3.235  -6.610  1.00  0.00     0.278 C 
ENDBRANCH   5  13
TORSDOF 4
ENDMDL
MODEL 4
REMARK VINA RESULT:    -4.633      2.959      4.429
REMARK INTER + INTRA:          -5.714
REMARK INTER:                  -5.271
REMARK INTRA:                  -0.443
REMARK UNBOUND:                -0.268
REMARK SMILES COc1cccc(C(=O)O)c1O
REMARK SMILES IDX 7 1 11 2 6 3 5 4 3 5 4 6 8 7 9 8 10 9 12 11 2 13 1 14
REMARK H PARENT 10 10 12 12
ROOT
ATOM      1  C   UNL     1      -2.901   4.674  -6.453  1.00  0.00     0.105 A 
ATOM      2  C   UNL     1      -1.910   4.845  -5.526  1.00  0.00     0.172 A 
ATOM      3  C   UNL     1      -3.166   5.786  -7.384  1.00  0.00     0.020 A 
ATOM      4  C   UNL     1      -2.206   6.737  -7.520  1.00  0.00     0.005 A 
ATOM      5  C   UNL     1      -0.757   5.694  -5.789  1.00  0.00     0.161 A 
ATOM      6  C   UNL     1      -0.999   6.744  -6.760  1.00  0.00     0.050 A 
ENDROOT
BRANCH   1   7
ATOM      7  C   UNL     1      -3.644   3.334  -6.593  1.00  0.00     0.339 C 
ATOM      8  O   UNL     1      -4.183   2.919  -5.112  1.00  0.00    -0.246 OA
BRANCH   7   9
ATOM      9  O   UNL     1      -3.979   2.682  -7.349  1.00  0.00    -0.478 OA
ATOM     10  H   UNL     1      -4.294   2.069  -8.060  1.00  0.00     0.297 HD
ENDBRANCH   7   9
ENDBRANCH   1   7
BRANCH   2  11
ATOM     11  O   UNL     1      -1.950   4.190  -4.283  1.00  0.00    -0.504 OA
ATOM     12  H   UNL     1      -1.978   3.729  -3.408  1.00  0.00     0.293 HD
ENDBRANCH   2  11
BRANCH   5  13
ATOM     13  O   UNL     1       0.269   5.628  -4.855  1.00  0.00    -0.493 OA
ATOM     14  C   UNL     1       0.989   5.940  -3.829  1.00  0.00     0.278 C 
ENDBRANCH   5  13
TORSDOF 4
ENDMDL
MODEL 5
REMARK VINA RESULT:    -4.212      2.336      4.732
REMARK INTER + INTRA:          -5.219
REMARK INTER:                  -5.015
REMARK INTRA:                  -0.204
REMARK UNBOUND:                -0.268
REMARK SMILES COc1cccc(C(=O)O)c1O
REMARK SMILES IDX 7 1 11 2 6 3 5 4 3 5 4 6 8 7 9 8 10 9 12 11 2 13 1 14
REMARK H PARENT 10 10 12 12
ROOT
ATOM      1  C   UNL     1      -2.023   4.630  -7.755  1.00  0.00     0.105 A 
ATOM      2  C   UNL     1      -0.942   4.861  -6.948  1.00  0.00     0.172 A 
ATOM      3  C   UNL     1      -3.170   3.911  -7.171  1.00  0.00     0.020 A 
ATOM      4  C   UNL     1      -3.252   3.847  -5.817  1.00  0.00     0.005 A 
ATOM      5  C   UNL     1      -1.085   5.028  -5.509  1.00  0.00     0.161 A 
ATOM      6  C   UNL     1      -2.255   4.379  -4.947  1.00  0.00     0.050 A 
ENDROOT
BRANCH   1   7
ATOM      7  C   UNL     1      -2.087   5.190  -9.186  1.00  0.00     0.339 C 
ATOM      8  O   UNL     1      -1.961   6.811  -9.081  1.00  0.00    -0.246 OA
BRANCH   7   9
ATOM      9  O   UNL     1      -2.089   4.842 -10.180  1.00  0.00    -0.478 OA
ATOM     10  H   UNL     1      -2.091   4.515 -11.114  1.00  0.00     0.297 HD
ENDBRANCH   7   9
ENDBRANCH   1   7
BRANCH   2  11
ATOM     11  O   UNL     1       0.355   4.969  -7.477  1.00  0.00    -0.504 OA
ATOM     12  H   UNL     1       1.270   5.046  -7.849  1.00  0.00     0.293 HD
ENDBRANCH   2  11
BRANCH   5  13
ATOM     13  O   UNL     1       0.051   5.452  -4.833  1.00  0.00    -0.493 OA
ATOM     14  C   UNL     1       0.776   6.066  -3.957  1.00  0.00     0.278 C 
ENDBRANCH   5  13
TORSDOF 4
ENDMDL
MODEL 6
REMARK VINA RESULT:    -4.208      2.326      3.883
REMARK INTER + INTRA:          -5.215
REMARK INTER:                  -5.009
REMARK INTRA:                  -0.205
REMARK UNBOUND:                -0.268
REMARK SMILES COc1cccc(C(=O)O)c1O
REMARK SMILES IDX 7 1 11 2 6 3 5 4 3 5 4 6 8 7 9 8 10 9 12 11 2 13 1 14
REMARK H PARENT 10 10 12 12
ROOT
ATOM      1  C   UNL     1      -1.092   7.106  -4.904  1.00  0.00     0.105 A 
ATOM      2  C   UNL     1      -2.126   6.252  -5.173  1.00  0.00     0.172 A 
ATOM      3  C   UNL     1       0.142   6.529  -4.339  1.00  0.00     0.020 A 
ATOM      4  C   UNL     1       0.325   5.189  -4.459  1.00  0.00     0.005 A 
ATOM      5  C   UNL     1      -1.893   4.861  -5.535  1.00  0.00     0.161 A 
ATOM      6  C   UNL     1      -0.643   4.317  -5.038  1.00  0.00     0.050 A 
ENDROOT
BRANCH   1   7
ATOM      7  C   UNL     1      -1.169   8.597  -5.275  1.00  0.00     0.339 C 
ATOM      8  O   UNL     1      -1.419   8.688  -6.882  1.00  0.00    -0.246 OA
BRANCH   7   9
ATOM      9  O   UNL     1      -1.205   9.537  -4.800  1.00  0.00    -0.478 OA
ATOM     10  H   UNL     1      -1.239  10.420  -4.354  1.00  0.00     0.297 HD
ENDBRANCH   7   9
ENDBRANCH   1   7
BRANCH   2  11
ATOM     11  O   UNL     1      -3.462   6.685  -5.131  1.00  0.00    -0.504 OA
ATOM     12  H   UNL     1      -4.403   6.991  -5.102  1.00  0.00     0.293 HD
ENDBRANCH   2  11
BRANCH   5  13
ATOM     13  O   UNL     1      -3.006   4.156  -5.974  1.00  0.00    -0.493 OA
ATOM     14  C   UNL     1      -3.758   3.449  -6.752  1.00  0.00     0.278 C 
ENDBRANCH   5  13
TORSDOF 4
ENDMDL
MODEL 7
REMARK VINA RESULT:    -3.918      8.063      9.106
REMARK INTER + INTRA:          -4.874
REMARK INTER:                  -4.796
REMARK INTRA:                  -0.078
REMARK UNBOUND:                -0.268
REMARK SMILES COc1cccc(C(=O)O)c1O
REMARK SMILES IDX 7 1 11 2 6 3 5 4 3 5 4 6 8 7 9 8 10 9 12 11 2 13 1 14
REMARK H PARENT 10 10 12 12
ROOT
ATOM      1  C   UNL     1       2.517  -1.894  -3.352  1.00  0.00     0.105 A 
ATOM      2  C   UNL     1       1.539  -1.287  -2.613  1.00  0.00     0.172 A 
ATOM      3  C   UNL     1       2.096  -2.710  -4.506  1.00  0.00     0.020 A 
ATOM      4  C   UNL     1       0.839  -2.523  -4.985  1.00  0.00     0.005 A 
ATOM      5  C   UNL     1       0.276  -0.875  -3.209  1.00  0.00     0.161 A 
ATOM      6  C   UNL     1      -0.102  -1.634  -4.387  1.00  0.00     0.050 A 
ENDROOT
BRANCH   1   7
ATOM      7  C   UNL     1       4.008  -1.651  -3.060  1.00  0.00     0.339 C 
ATOM      8  O   UNL     1       4.695  -3.104  -2.794  1.00  0.00    -0.246 OA
BRANCH   7   9
ATOM      9  O   UNL     1       4.707  -0.863  -3.078  1.00  0.00    -0.478 OA
ATOM     10  H   UNL     1       5.364  -0.123  -3.096  1.00  0.00     0.297 HD
ENDBRANCH   7   9
ENDBRANCH   1   7
BRANCH   2  11
ATOM     11  O   UNL     1       1.719  -1.013  -1.246  1.00  0.00    -0.504 OA
ATOM     12  H   UNL     1       1.845  -0.821  -0.283  1.00  0.00     0.293 HD
ENDBRANCH   2  11
BRANCH   5  13
ATOM     13  O   UNL     1      -0.547  -0.097  -2.405  1.00  0.00    -0.493 OA
ATOM     14  C   UNL     1      -1.299   0.231  -1.407  1.00  0.00     0.278 C 
ENDBRANCH   5  13
TORSDOF 4
ENDMDL
MODEL 8
REMARK VINA RESULT:    -3.836      2.069      2.739
REMARK INTER + INTRA:          -4.777
REMARK INTER:                  -4.570
REMARK INTRA:                  -0.207
REMARK UNBOUND:                -0.268
REMARK SMILES COc1cccc(C(=O)O)c1O
REMARK SMILES IDX 7 1 11 2 6 3 5 4 3 5 4 6 8 7 9 8 10 9 12 11 2 13 1 14
REMARK H PARENT 10 10 12 12
ROOT
ATOM      1  C   UNL     1      -1.053   5.445  -5.837  1.00  0.00     0.105 A 
ATOM      2  C   UNL     1      -1.253   5.704  -7.165  1.00  0.00     0.172 A 
ATOM      3  C   UNL     1      -2.102   4.697  -5.120  1.00  0.00     0.020 A 
ATOM      4  C   UNL     1      -3.003   4.005  -5.864  1.00  0.00     0.005 A 
ATOM      5  C   UNL     1      -2.035   4.811  -8.008  1.00  0.00     0.161 A 
ATOM      6  C   UNL     1      -3.020   4.024  -7.290  1.00  0.00     0.050 A 
ENDROOT
BRANCH   1   7
ATOM      7  C   UNL     1       0.265   5.823  -5.138  1.00  0.00     0.339 C 
ATOM      8  O   UNL     1       0.116   5.416  -3.567  1.00  0.00    -0.246 OA
BRANCH   7   9
ATOM      9  O   UNL     1       1.230   6.162  -5.385  1.00  0.00    -0.478 OA
ATOM     10  H   UNL     1       2.138   6.481  -5.617  1.00  0.00     0.297 HD
ENDBRANCH   7   9
ENDBRANCH   1   7
BRANCH   2  11
ATOM     11  O   UNL     1      -0.694   6.836  -7.782  1.00  0.00    -0.504 OA
ATOM     12  H   UNL     1      -0.300   7.634  -8.216  1.00  0.00     0.293 HD
ENDBRANCH   2  11
BRANCH   5  13
ATOM     13  O   UNL     1      -1.999   5.079  -9.371  1.00  0.00    -0.493 OA
ATOM     14  C   UNL     1      -2.353   5.561 -10.516  1.00  0.00     0.278 C 
ENDBRANCH   5  13
TORSDOF 4
ENDMDL
