MODEL 1
REMARK VINA RESULT:    -4.908      0.000      0.000
REMARK INTER + INTRA:          -6.039
REMARK INTER:                  -5.769
REMARK INTRA:                  -0.270
REMARK UNBOUND:                -0.270
REMARK SMILES COc1cccc(C(=O)O)c1O
REMARK SMILES IDX 7 1 11 2 6 3 5 4 3 5 4 6 8 7 9 8 10 9 12 11 2 13 1 14
REMARK H PARENT 10 10 12 12
ROOT
ATOM      1  C   UNL     1      -4.117  -3.085  -5.466  1.00  0.00     0.105 A 
ATOM      2  C   UNL     1      -4.786  -3.090  -6.659  1.00  0.00     0.172 A 
ATOM      3  C   UNL     1      -4.518  -2.082  -4.462  1.00  0.00     0.020 A 
ATOM      4  C   UNL     1      -5.728  -1.485  -4.615  1.00  0.00     0.005 A 
ATOM      5  C   UNL     1      -6.175  -2.665  -6.758  1.00  0.00     0.161 A 
ATOM      6  C   UNL     1      -6.587  -1.732  -5.726  1.00  0.00     0.050 A 
ENDROOT
BRANCH   1   7
ATOM      7  C   UNL     1      -3.058  -4.152  -5.138  1.00  0.00     0.339 C 
ATOM      8  O   UNL     1      -2.896  -4.194  -3.517  1.00  0.00    -0.246 OA
BRANCH   7   9
ATOM      9  O   UNL     1      -2.502  -4.901  -5.626  1.00  0.00    -0.478 OA
ATOM     10  H   UNL     1      -1.978  -5.605  -6.085  1.00  0.00     0.297 HD
ENDBRANCH   7   9
ENDBRANCH   1   7
BRANCH   2  11
ATOM     11  O   UNL     1      -4.168  -3.529  -7.843  1.00  0.00    -0.504 OA
ATOM     12  H   UNL     1      -3.732  -3.837  -8.677  1.00  0.00     0.293 HD
ENDBRANCH   2  11
BRANCH   5  13
ATOM     13  O   UNL     1      -6.796  -2.903  -7.977  1.00  0.00    -0.493 OA
ATOM     14  C   UNL     1      -7.594  -3.438  -8.842  1.00  0.00     0.278 C 
ENDBRANCH   5  13
TORSDOF 4
ENDMDL
MODEL 2
REMARK VINA RESULT:    -4.897      2.218      3.261
REMARK INTER + INTRA:          -6.026
REMARK INTER:                  -5.540
REMARK INTRA:                  -0.486
REMARK UNBOUND:                -0.270
REMARK SMILES COc1cccc(C(=O)O)c1O
REMARK SMILES IDX 7 1 11 2 6 3 5 4 3 5 4 6 8 7 9 8 10 9 12 11 2 13 1 14
REMARK H PARENT 10 10 12 12
ROOT
ATOM      1  C   UNL     1      -4.077  -3.279  -5.625  1.00  0.00     0.105 A 
ATOM      2  C   UNL     1      -4.616  -2.280  -4.863  1.00  0.00     0.172 A 
ATOM      3  C   UNL     1      -4.231  -3.183  -7.088  1.00  0.00     0.020 A 
ATOM      4  C   UNL     1      -4.556  -1.972  -7.610  1.00  0.00     0.005 A 
ATOM      5  C   UNL     1      -4.738  -0.918  -5.365  1.00  0.00     0.161 A 
ATOM      6  C   UNL     1      -4.819  -0.821  -6.810  1.00  0.00     0.050 A 
ENDROOT
BRANCH   1   7
ATOM      7  C   UNL     1      -3.247  -4.409  -4.992  1.00  0.00     0.339 C 
ATOM      8  O   UNL     1      -2.894  -3.958  -3.467  1.00  0.00    -0.246 OA
BRANCH   7   9
ATOM      9  O   UNL     1      -2.937  -5.391  -5.211  1.00  0.00    -0.478 OA
ATOM     10  H   UNL     1      -2.645  -6.315  -5.419  1.00  0.00     0.297 HD
ENDBRANCH   7   9
ENDBRANCH   1   7
BRANCH   2  11
ATOM     11  O   UNL     1      -5.058  -2.518  -3.551  1.00  0.00    -0.504 OA
ATOM     12  H   UNL     1      -5.370  -2.685  -2.626  1.00  0.00     0.293 HD
ENDBRANCH   2  11
BRANCH   5  13
ATOM     13  O   UNL     1      -5.116   0.039  -4.432  1.00  0.00    -0.493 OA
ATOM     14  C   UNL     1      -5.765   1.028  -3.912  1.00  0.00     0.278 C 
ENDBRANCH   5  13
TORSDOF 4
ENDMDL
MODEL 3
REMARK VINA RESULT:    -4.885      2.993      4.005
REMARK INTER + INTRA:          -6.012
REMARK INTER:                  -5.741
REMARK INTRA:                  -0.271
REMARK UNBOUND:                -0.270
REMARK SMILES COc1cccc(C(=O)O)c1O
REMARK SMILES IDX 7 1 11 2 6 3 5 4 3 5 4 6 8 7 9 8 10 9 12 11 2 13 1 14
REMARK H PARENT 10 10 12 12
ROOT
ATOM      1  C   UNL     1      -5.645  -0.647  -4.569  1.00  0.00     0.105 A 
ATOM      2  C   UNL     1      -6.810  -1.186  -5.040  1.00  0.00     0.172 A 
ATOM      3  C   UNL     1      -4.392  -1.372  -4.851  1.00  0.00     0.020 A 
ATOM      4  C   UNL     1      -4.410  -2.299  -5.843  1.00  0.00     0.005 A 
ATOM      5  C   UNL     1      -6.843  -1.991  -6.253  1.00  0.00     0.161 A 
ATOM      6  C   UNL     1      -5.588  -2.647  -6.567  1.00  0.00     0.050 A 
ENDROOT
BRANCH   1   7
ATOM      7  C   UNL     1      -5.624   0.720  -3.862  1.00  0.00     0.339 C 
ATOM      8  O   UNL     1      -4.089   1.265  -3.902  1.00  0.00    -0.246 OA
BRANCH   7   9
ATOM      9  O   UNL     1      -6.299   1.422  -3.464  1.00  0.00    -0.478 OA
ATOM     10  H   UNL     1      -6.934   2.084  -3.089  1.00  0.00     0.297 HD
ENDBRANCH   7   9
ENDBRANCH   1   7
BRANCH   2  11
ATOM     11  O   UNL     1      -8.034  -0.970  -4.385  1.00  0.00    -0.504 OA
ATOM     12  H   UNL     1      -8.896  -0.817  -3.923  1.00  0.00     0.293 HD
ENDBRANCH   2  11
BRANCH   5  13
ATOM     13  O   UNL     1      -8.107  -2.312  -6.732  1.00  0.00    -0.493 OA
ATOM     14  C   UNL     1      -9.131  -2.329  -7.520  1.00  0.00     0.278 C 
ENDBRANCH   5  13
TORSDOF 4
ENDMDL
MODEL 4
REMARK VINA RESULT:    -4.839      2.854      4.365
REMARK INTER + INTRA:          -5.958
REMARK INTER:                  -5.535
REMARK INTRA:                  -0.422
REMARK UNBOUND:                -0.270
REMARK SMILES COc1cccc(C(=O)O)c1O
REMARK SMILES IDX 7 1 11 2 6 3 5 4 3 5 4 6 8 7 9 8 10 9 12 11 2 13 1 14
REMARK H PARENT 10 10 12 12
ROOT
ATOM      1  C   UNL     1      -5.884  -0.531  -4.537  1.00  0.00     0.105 A 
ATOM      2  C   UNL     1      -4.930  -1.483  -4.768  1.00  0.00     0.172 A 
ATOM      3  C   UNL     1      -7.294  -0.963  -4.532  1.00  0.00     0.020 A 
ATOM      4  C   UNL     1      -7.547  -2.289  -4.388  1.00  0.00     0.005 A 
ATOM      5  C   UNL     1      -5.130  -2.874  -4.384  1.00  0.00     0.161 A 
ATOM      6  C   UNL     1      -6.522  -3.277  -4.311  1.00  0.00     0.050 A 
ENDROOT
BRANCH   1   7
ATOM      7  C   UNL     1      -5.501   0.918  -4.190  1.00  0.00     0.339 C 
ATOM      8  O   UNL     1      -3.912   0.929  -3.830  1.00  0.00    -0.246 OA
BRANCH   7   9
ATOM      9  O   UNL     1      -5.924   1.882  -4.211  1.00  0.00    -0.478 OA
ATOM     10  H   UNL     1      -6.321   2.789  -4.231  1.00  0.00     0.297 HD
ENDBRANCH   7   9
ENDBRANCH   1   7
BRANCH   2  11
ATOM     11  O   UNL     1      -3.702  -1.158  -5.368  1.00  0.00    -0.504 OA
ATOM     12  H   UNL     1      -2.836  -0.929  -5.791  1.00  0.00     0.293 HD
ENDBRANCH   2  11
BRANCH   5  13
ATOM     13  O   UNL     1      -4.016  -3.697  -4.491  1.00  0.00    -0.493 OA
ATOM     14  C   UNL     1      -3.088  -4.407  -5.043  1.00  0.00     0.278 C 
ENDBRANCH   5  13
TORSDOF 4
ENDMDL
MODEL 5
REMARK VINA RESULT:    -4.238      2.819      3.680
REMARK INTER + INTRA:          -5.251
REMARK INTER:                  -4.785
REMARK INTRA:                  -0.466
REMARK UNBOUND:                -0.270
REMARK SMILES COc1cccc(C(=O)O)c1O
REMARK SMILES IDX 7 1 11 2 6 3 5 4 3 5 4 6 8 7 9 8 10 9 12 11 2 13 1 14
REMARK H PARENT 10 10 12 12
ROOT
ATOM      1  C   UNL     1      -5.015  -0.993  -4.446  1.00  0.00     0.105 A 
ATOM      2  C   UNL     1      -6.195  -1.385  -5.016  1.00  0.00     0.172 A 
ATOM      3  C   UNL     1      -3.925  -1.984  -4.382  1.00  0.00     0.020 A 
ATOM      4  C   UNL     1      -4.010  -3.069  -5.193  1.00  0.00     0.005 A 
ATOM      5  C   UNL     1      -6.239  -2.394  -6.065  1.00  0.00     0.161 A 
ATOM      6  C   UNL     1      -5.126  -3.325  -6.043  1.00  0.00     0.050 A 
ENDROOT
BRANCH   1   7
ATOM      7  C   UNL     1      -4.792   0.457  -3.984  1.00  0.00     0.339 C 
ATOM      8  O   UNL     1      -6.128   0.922  -3.177  1.00  0.00    -0.246 OA
BRANCH   7   9
ATOM      9  O   UNL     1      -4.022   1.175  -3.952  1.00  0.00    -0.478 OA
ATOM     10  H   UNL     1      -3.299   1.850  -3.921  1.00  0.00     0.297 HD
ENDBRANCH   7   9
ENDBRANCH   1   7
BRANCH   2  11
ATOM     11  O   UNL     1      -7.420  -0.815  -4.629  1.00  0.00    -0.504 OA
ATOM     12  H   UNL     1      -8.282  -0.413  -4.356  1.00  0.00     0.293 HD
ENDBRANCH   2  11
BRANCH   5  13
ATOM     13  O   UNL     1      -7.465  -2.559  -6.696  1.00  0.00    -0.493 OA
ATOM     14  C   UNL     1      -8.316  -2.835  -7.629  1.00  0.00     0.278 C 
ENDBRANCH   5  13
TORSDOF 4
ENDMDL
MODEL 6
REMARK VINA RESULT:    -4.199      2.239      4.653
REMARK INTER + INTRA:          -5.205
REMARK INTER:                  -5.000
REMARK INTRA:                  -0.205
REMARK UNBOUND:                -0.270
REMARK SMILES COc1cccc(C(=O)O)c1O
REMARK SMILES IDX 7 1 11 2 6 3 5 4 3 5 4 6 8 7 9 8 10 9 12 11 2 13 1 14
REMARK H PARENT 10 10 12 12
ROOT
ATOM      1  C   UNL     1      -6.825  -1.161  -4.440  1.00  0.00     0.105 A 
ATOM      2  C   UNL     1      -6.023  -2.264  -4.347  1.00  0.00     0.172 A 
ATOM      3  C   UNL     1      -6.205   0.157  -4.210  1.00  0.00     0.020 A 
ATOM      4  C   UNL     1      -4.852   0.239  -4.287  1.00  0.00     0.005 A 
ATOM      5  C   UNL     1      -4.604  -2.206  -4.668  1.00  0.00     0.161 A 
ATOM      6  C   UNL     1      -4.011  -0.891  -4.509  1.00  0.00     0.050 A 
ENDROOT
BRANCH   1   7
ATOM      7  C   UNL     1      -8.298  -1.276  -4.871  1.00  0.00     0.339 C 
ATOM      8  O   UNL     1      -8.322  -1.989  -6.336  1.00  0.00    -0.246 OA
BRANCH   7   9
ATOM      9  O   UNL     1      -9.260  -1.126  -4.472  1.00  0.00    -0.478 OA
ATOM     10  H   UNL     1     -10.165  -0.985  -4.095  1.00  0.00     0.297 HD
ENDBRANCH   7   9
ENDBRANCH   1   7
BRANCH   2  11
ATOM     11  O   UNL     1      -6.537  -3.513  -3.959  1.00  0.00    -0.504 OA
ATOM     12  H   UNL     1      -6.900  -4.393  -3.685  1.00  0.00     0.293 HD
ENDBRANCH   2  11
BRANCH   5  13
ATOM     13  O   UNL     1      -3.945  -3.427  -4.727  1.00  0.00    -0.493 OA
ATOM     14  C   UNL     1      -3.195  -4.374  -5.187  1.00  0.00     0.278 C 
ENDBRANCH   5  13
TORSDOF 4
ENDMDL
MODEL 7
REMARK VINA RESULT:    -4.162      2.225      3.785
REMARK INTER + INTRA:          -5.162
REMARK INTER:                  -4.836
REMARK INTRA:                  -0.326
REMARK UNBOUND:                -0.270
REMARK SMILES COc1cccc(C(=O)O)c1O
REMARK SMILES IDX 7 1 11 2 6 3 5 4 3 5 4 6 8 7 9 8 10 9 12 11 2 13 1 14
REMARK H PARENT 10 10 12 12
ROOT
ATOM      1  C   UNL     1      -4.330  -2.986  -6.742  1.00  0.00     0.105 A 
ATOM      2  C   UNL     1      -4.686  -1.740  -6.304  1.00  0.00     0.172 A 
ATOM      3  C   UNL     1      -3.603  -3.858  -5.802  1.00  0.00     0.020 A 
ATOM      4  C   UNL     1      -3.649  -3.542  -4.482  1.00  0.00     0.005 A 
ATOM      5  C   UNL     1      -4.967  -1.474  -4.900  1.00  0.00     0.161 A 
ATOM      6  C   UNL     1      -4.305  -2.380  -3.979  1.00  0.00     0.050 A 
ENDROOT
BRANCH   1   7
ATOM      7  C   UNL     1      -4.763  -3.502  -8.125  1.00  0.00     0.339 C 
ATOM      8  O   UNL     1      -6.319  -3.071  -8.341  1.00  0.00    -0.246 OA
BRANCH   7   9
ATOM      9  O   UNL     1      -4.338  -3.948  -8.979  1.00  0.00    -0.478 OA
ATOM     10  H   UNL     1      -3.938  -4.366  -9.782  1.00  0.00     0.297 HD
ENDBRANCH   7   9
ENDBRANCH   1   7
BRANCH   2  11
ATOM     11  O   UNL     1      -4.819  -0.661  -7.196  1.00  0.00    -0.504 OA
ATOM     12  H   UNL     1      -4.913   0.098  -7.824  1.00  0.00     0.293 HD
ENDBRANCH   2  11
BRANCH   5  13
ATOM     13  O   UNL     1      -5.507  -0.226  -4.616  1.00  0.00    -0.493 OA
ATOM     14  C   UNL     1      -5.725   0.879  -3.983  1.00  0.00     0.278 C 
ENDBRANCH   5  13
TORSDOF 4
ENDMDL
MODEL 8
REMARK VINA RESULT:    -3.982      1.834      2.446
REMARK INTER + INTRA:          -4.950
REMARK INTER:                  -4.707
REMARK INTRA:                  -0.244
REMARK UNBOUND:                -0.270
REMARK SMILES COc1cccc(C(=O)O)c1O
REMARK SMILES IDX 7 1 11 2 6 3 5 4 3 5 4 6 8 7 9 8 10 9 12 11 2 13 1 14
REMARK H PARENT 10 10 12 12
ROOT
ATOM      1  C   UNL     1      -4.760  -2.384  -4.969  1.00  0.00     0.105 A 
ATOM      2  C   UNL     1      -6.099  -2.322  -5.241  1.00  0.00     0.172 A 
ATOM      3  C   UNL     1      -4.070  -1.122  -4.645  1.00  0.00     0.020 A 
ATOM      4  C   UNL     1      -4.834  -0.061  -4.277  1.00  0.00     0.005 A 
ATOM      5  C   UNL     1      -6.954  -1.308  -4.641  1.00  0.00     0.161 A 
ATOM      6  C   UNL     1      -6.259  -0.093  -4.258  1.00  0.00     0.050 A 
ENDROOT
BRANCH   1   7
ATOM      7  C   UNL     1      -4.018  -3.730  -4.898  1.00  0.00     0.339 C 
ATOM      8  O   UNL     1      -3.071  -3.695  -3.573  1.00  0.00    -0.246 OA
BRANCH   7   9
ATOM      9  O   UNL     1      -4.018  -4.667  -5.379  1.00  0.00    -0.478 OA
ATOM     10  H   UNL     1      -4.017  -5.547  -5.832  1.00  0.00     0.297 HD
ENDBRANCH   7   9
ENDBRANCH   1   7
BRANCH   2  11
ATOM     11  O   UNL     1      -6.715  -3.251  -6.096  1.00  0.00    -0.504 OA
ATOM     12  H   UNL     1      -7.149  -3.906  -6.699  1.00  0.00     0.293 HD
ENDBRANCH   2  11
BRANCH   5  13
ATOM     13  O   UNL     1      -8.319  -1.473  -4.839  1.00  0.00    -0.493 OA
ATOM     14  C   UNL     1      -9.541  -1.174  -5.137  1.00  0.00     0.278 C 
ENDBRANCH   5  13
TORSDOF 4
ENDMDL
