MODEL 1
REMARK VINA RESULT:    -4.843      0.000      0.000
REMARK INTER + INTRA:          -6.153
REMARK INTER:                  -5.692
REMARK INTRA:                  -0.461
REMARK UNBOUND:                -0.461
REMARK SMILES COc1cccc(C(=O)O)c1O
REMARK SMILES IDX 7 1 11 2 6 3 5 4 3 5 4 6 8 7 9 8 10 9 12 11 2 13 1 14
REMARK H PARENT 10 10 12 12
ROOT
ATOM      1  C   UNL     1      -3.889  -1.696  -6.354  1.00  0.00     0.105 A 
ATOM      2  C   UNL     1      -3.565  -2.495  -5.292  1.00  0.00     0.172 A 
ATOM      3  C   UNL     1      -5.314  -1.588  -6.718  1.00  0.00     0.020 A 
ATOM      4  C   UNL     1      -6.232  -1.968  -5.792  1.00  0.00     0.005 A 
ATOM      5  C   UNL     1      -4.484  -2.700  -4.182  1.00  0.00     0.161 A 
ATOM      6  C   UNL     1      -5.883  -2.523  -4.526  1.00  0.00     0.050 A 
ENDROOT
BRANCH   1   7
ATOM      7  C   UNL     1      -2.823  -0.857  -7.079  1.00  0.00     0.339 C 
ATOM      8  O   UNL     1      -1.469  -0.904  -6.176  1.00  0.00    -0.246 OA
BRANCH   7   9
ATOM      9  O   UNL     1      -2.687  -0.363  -7.999  1.00  0.00    -0.478 OA
ATOM     10  H   UNL     1      -2.558   0.101  -8.865  1.00  0.00     0.297 HD
ENDBRANCH   7   9
ENDBRANCH   1   7
BRANCH   2  11
ATOM     11  O   UNL     1      -2.318  -3.138  -5.214  1.00  0.00    -0.504 OA
ATOM     12  H   UNL     1      -1.439  -3.591  -5.159  1.00  0.00     0.293 HD
ENDBRANCH   2  11
BRANCH   5  13
ATOM     13  O   UNL     1      -3.964  -3.367  -3.080  1.00  0.00    -0.493 OA
ATOM     14  C   UNL     1      -3.914  -4.164  -2.064  1.00  0.00     0.278 C 
ENDBRANCH   5  13
TORSDOF 4
ENDMDL
MODEL 2
REMARK VINA RESULT:    -4.842      1.759      4.660
REMARK INTER + INTRA:          -6.153
REMARK INTER:                  -5.673
REMARK INTRA:                  -0.480
REMARK UNBOUND:                -0.461
REMARK SMILES COc1cccc(C(=O)O)c1O
REMARK SMILES IDX 7 1 11 2 6 3 5 4 3 5 4 6 8 7 9 8 10 9 12 11 2 13 1 14
REMARK H PARENT 10 10 12 12
ROOT
ATOM      1  C   UNL     1      -3.985  -4.032  -3.674  1.00  0.00     0.105 A 
ATOM      2  C   UNL     1      -3.852  -2.916  -4.453  1.00  0.00     0.172 A 
ATOM      3  C   UNL     1      -3.959  -5.344  -4.347  1.00  0.00     0.020 A 
ATOM      4  C   UNL     1      -3.449  -5.397  -5.605  1.00  0.00     0.005 A 
ATOM      5  C   UNL     1      -3.091  -2.938  -5.694  1.00  0.00     0.161 A 
ATOM      6  C   UNL     1      -3.006  -4.245  -6.319  1.00  0.00     0.050 A 
ENDROOT
BRANCH   1   7
ATOM      7  C   UNL     1      -4.053  -3.934  -2.140  1.00  0.00     0.339 C 
ATOM      8  O   UNL     1      -3.600  -2.424  -1.728  1.00  0.00    -0.246 OA
BRANCH   7   9
ATOM      9  O   UNL     1      -4.389  -4.501  -1.318  1.00  0.00    -0.478 OA
ATOM     10  H   UNL     1      -4.704  -5.034  -0.546  1.00  0.00     0.297 HD
ENDBRANCH   7   9
ENDBRANCH   1   7
BRANCH   2  11
ATOM     11  O   UNL     1      -4.427  -1.690  -4.079  1.00  0.00    -0.504 OA
ATOM     12  H   UNL     1      -4.833  -0.826  -3.816  1.00  0.00     0.293 HD
ENDBRANCH   2  11
BRANCH   5  13
ATOM     13  O   UNL     1      -2.865  -1.702  -6.288  1.00  0.00    -0.493 OA
ATOM     14  C   UNL     1      -2.980  -0.728  -7.128  1.00  0.00     0.278 C 
ENDBRANCH   5  13
TORSDOF 4
ENDMDL
MODEL 3
REMARK VINA RESULT:    -4.731      2.224      3.216
REMARK INTER + INTRA:          -6.022
REMARK INTER:                  -5.751
REMARK INTRA:                  -0.271
REMARK UNBOUND:                -0.461
REMARK SMILES COc1cccc(C(=O)O)c1O
REMARK SMILES IDX 7 1 11 2 6 3 5 4 3 5 4 6 8 7 9 8 10 9 12 11 2 13 1 14
REMARK H PARENT 10 10 12 12
ROOT
ATOM      1  C   UNL     1      -3.775  -1.887  -6.090  1.00  0.00     0.105 A 
ATOM      2  C   UNL     1      -4.987  -2.339  -6.534  1.00  0.00     0.172 A 
ATOM      3  C   UNL     1      -3.184  -2.555  -4.916  1.00  0.00     0.020 A 
ATOM      4  C   UNL     1      -3.669  -3.777  -4.575  1.00  0.00     0.005 A 
ATOM      5  C   UNL     1      -5.392  -3.728  -6.366  1.00  0.00     0.161 A 
ATOM      6  C   UNL     1      -4.755  -4.404  -5.252  1.00  0.00     0.050 A 
ENDROOT
BRANCH   1   7
ATOM      7  C   UNL     1      -3.002  -0.794  -6.849  1.00  0.00     0.339 C 
ATOM      8  O   UNL     1      -1.443  -0.888  -6.384  1.00  0.00    -0.246 OA
BRANCH   7   9
ATOM      9  O   UNL     1      -3.159  -0.097  -7.622  1.00  0.00    -0.478 OA
ATOM     10  H   UNL     1      -3.306   0.559  -8.349  1.00  0.00     0.297 HD
ENDBRANCH   7   9
ENDBRANCH   1   7
BRANCH   2  11
ATOM     11  O   UNL     1      -5.890  -1.486  -7.191  1.00  0.00    -0.504 OA
ATOM     12  H   UNL     1      -6.526  -0.886  -7.655  1.00  0.00     0.293 HD
ENDBRANCH   2  11
BRANCH   5  13
ATOM     13  O   UNL     1      -6.553  -4.104  -7.031  1.00  0.00    -0.493 OA
ATOM     14  C   UNL     1      -7.317  -4.724  -7.868  1.00  0.00     0.278 C 
ENDBRANCH   5  13
TORSDOF 4
ENDMDL
MODEL 4
REMARK VINA RESULT:    -4.661      2.894      4.441
REMARK INTER + INTRA:          -5.940
REMARK INTER:                  -5.678
REMARK INTRA:                  -0.262
REMARK UNBOUND:                -0.461
REMARK SMILES COc1cccc(C(=O)O)c1O
REMARK SMILES IDX 7 1 11 2 6 3 5 4 3 5 4 6 8 7 9 8 10 9 12 11 2 13 1 14
REMARK H PARENT 10 10 12 12
ROOT
ATOM      1  C   UNL     1      -3.817  -3.662  -3.629  1.00  0.00     0.105 A 
ATOM      2  C   UNL     1      -4.299  -4.600  -4.500  1.00  0.00     0.172 A 
ATOM      3  C   UNL     1      -3.326  -2.392  -4.195  1.00  0.00     0.020 A 
ATOM      4  C   UNL     1      -3.706  -2.077  -5.460  1.00  0.00     0.005 A 
ATOM      5  C   UNL     1      -4.925  -4.224  -5.759  1.00  0.00     0.161 A 
ATOM      6  C   UNL     1      -4.492  -2.940  -6.279  1.00  0.00     0.050 A 
ENDROOT
BRANCH   1   7
ATOM      7  C   UNL     1      -3.882  -3.875  -2.107  1.00  0.00     0.339 C 
ATOM      8  O   UNL     1      -3.646  -2.426  -1.401  1.00  0.00    -0.246 OA
BRANCH   7   9
ATOM      9  O   UNL     1      -4.122  -4.633  -1.416  1.00  0.00    -0.478 OA
ATOM     10  H   UNL     1      -4.348  -5.346  -0.768  1.00  0.00     0.297 HD
ENDBRANCH   7   9
ENDBRANCH   1   7
BRANCH   2  11
ATOM     11  O   UNL     1      -4.231  -5.973  -4.207  1.00  0.00    -0.504 OA
ATOM     12  H   UNL     1      -4.183  -6.941  -4.001  1.00  0.00     0.293 HD
ENDBRANCH   2  11
BRANCH   5  13
ATOM     13  O   UNL     1      -5.547  -5.251  -6.458  1.00  0.00    -0.493 OA
ATOM     14  C   UNL     1      -6.497  -6.003  -6.907  1.00  0.00     0.278 C 
ENDBRANCH   5  13
TORSDOF 4
ENDMDL
MODEL 5
REMARK VINA RESULT:    -4.430      1.357      1.439
REMARK INTER + INTRA:          -5.669
REMARK INTER:                  -5.250
REMARK INTRA:                  -0.418
REMARK UNBOUND:                -0.461
REMARK SMILES COc1cccc(C(=O)O)c1O
REMARK SMILES IDX 7 1 11 2 6 3 5 4 3 5 4 6 8 7 9 8 10 9 12 11 2 13 1 14
REMARK H PARENT 10 10 12 12
ROOT
ATOM      1  C   UNL     1      -3.224  -2.267  -6.329  1.00  0.00     0.105 A 
ATOM      2  C   UNL     1      -3.193  -2.581  -4.998  1.00  0.00     0.172 A 
ATOM      3  C   UNL     1      -3.783  -3.269  -7.255  1.00  0.00     0.020 A 
ATOM      4  C   UNL     1      -4.552  -4.256  -6.728  1.00  0.00     0.005 A 
ATOM      5  C   UNL     1      -4.183  -3.465  -4.399  1.00  0.00     0.161 A 
ATOM      6  C   UNL     1      -4.784  -4.404  -5.329  1.00  0.00     0.050 A 
ENDROOT
BRANCH   1   7
ATOM      7  C   UNL     1      -2.791  -0.880  -6.834  1.00  0.00     0.339 C 
ATOM      8  O   UNL     1      -1.227  -0.679  -6.426  1.00  0.00    -0.246 OA
BRANCH   7   9
ATOM      9  O   UNL     1      -3.164  -0.095  -7.428  1.00  0.00    -0.478 OA
ATOM     10  H   UNL     1      -3.515   0.644  -7.988  1.00  0.00     0.297 HD
ENDBRANCH   7   9
ENDBRANCH   1   7
BRANCH   2  11
ATOM     11  O   UNL     1      -2.215  -2.046  -4.143  1.00  0.00    -0.504 OA
ATOM     12  H   UNL     1      -1.526  -1.669  -3.540  1.00  0.00     0.293 HD
ENDBRANCH   2  11
BRANCH   5  13
ATOM     13  O   UNL     1      -4.162  -3.547  -3.013  1.00  0.00    -0.493 OA
ATOM     14  C   UNL     1      -3.961  -4.040  -1.835  1.00  0.00     0.278 C 
ENDBRANCH   5  13
TORSDOF 4
ENDMDL
MODEL 6
REMARK VINA RESULT:    -4.119      2.038      2.995
REMARK INTER + INTRA:          -5.303
REMARK INTER:                  -4.841
REMARK INTRA:                  -0.462
REMARK UNBOUND:                -0.461
REMARK SMILES COc1cccc(C(=O)O)c1O
REMARK SMILES IDX 7 1 11 2 6 3 5 4 3 5 4 6 8 7 9 8 10 9 12 11 2 13 1 14
REMARK H PARENT 10 10 12 12
ROOT
ATOM      1  C   UNL     1      -3.503  -1.937  -5.393  1.00  0.00     0.105 A 
ATOM      2  C   UNL     1      -4.640  -2.516  -5.885  1.00  0.00     0.172 A 
ATOM      3  C   UNL     1      -3.156  -2.202  -3.985  1.00  0.00     0.020 A 
ATOM      4  C   UNL     1      -3.748  -3.263  -3.378  1.00  0.00     0.005 A 
ATOM      5  C   UNL     1      -5.132  -3.788  -5.376  1.00  0.00     0.161 A 
ATOM      6  C   UNL     1      -4.729  -4.080  -4.013  1.00  0.00     0.050 A 
ENDROOT
BRANCH   1   7
ATOM      7  C   UNL     1      -2.562  -1.125  -6.299  1.00  0.00     0.339 C 
ATOM      8  O   UNL     1      -3.491  -0.161  -7.227  1.00  0.00    -0.246 OA
BRANCH   7   9
ATOM      9  O   UNL     1      -1.532  -0.944  -6.421  1.00  0.00    -0.478 OA
ATOM     10  H   UNL     1      -0.563  -0.774  -6.536  1.00  0.00     0.297 HD
ENDBRANCH   7   9
ENDBRANCH   1   7
BRANCH   2  11
ATOM     11  O   UNL     1      -5.376  -1.918  -6.923  1.00  0.00    -0.504 OA
ATOM     12  H   UNL     1      -5.894  -1.496  -7.654  1.00  0.00     0.293 HD
ENDBRANCH   2  11
BRANCH   5  13
ATOM     13  O   UNL     1      -6.176  -4.363  -6.089  1.00  0.00    -0.493 OA
ATOM     14  C   UNL     1      -6.798  -5.192  -6.861  1.00  0.00     0.278 C 
ENDBRANCH   5  13
TORSDOF 4
ENDMDL
MODEL 7
REMARK VINA RESULT:    -4.063      2.345      4.651
REMARK INTER + INTRA:          -5.237
REMARK INTER:                  -4.940
REMARK INTRA:                  -0.297
REMARK UNBOUND:                -0.461
REMARK SMILES COc1cccc(C(=O)O)c1O
REMARK SMILES IDX 7 1 11 2 6 3 5 4 3 5 4 6 8 7 9 8 10 9 12 11 2 13 1 14
REMARK H PARENT 10 10 12 12
ROOT
ATOM      1  C   UNL     1      -3.862  -4.908  -4.352  1.00  0.00     0.105 A 
ATOM      2  C   UNL     1      -3.336  -4.045  -5.273  1.00  0.00     0.172 A 
ATOM      3  C   UNL     1      -3.957  -4.443  -2.956  1.00  0.00     0.020 A 
ATOM      4  C   UNL     1      -3.873  -3.106  -2.729  1.00  0.00     0.005 A 
ATOM      5  C   UNL     1      -3.466  -2.602  -5.130  1.00  0.00     0.161 A 
ATOM      6  C   UNL     1      -3.632  -2.152  -3.760  1.00  0.00     0.050 A 
ENDROOT
BRANCH   1   7
ATOM      7  C   UNL     1      -4.432  -6.274  -4.769  1.00  0.00     0.339 C 
ATOM      8  O   UNL     1      -5.339  -6.037  -6.101  1.00  0.00    -0.246 OA
BRANCH   7   9
ATOM      9  O   UNL     1      -4.332  -7.292  -4.515  1.00  0.00    -0.478 OA
ATOM     10  H   UNL     1      -4.239  -8.248  -4.277  1.00  0.00     0.297 HD
ENDBRANCH   7   9
ENDBRANCH   1   7
BRANCH   2  11
ATOM     11  O   UNL     1      -2.663  -4.514  -6.414  1.00  0.00    -0.504 OA
ATOM     12  H   UNL     1      -2.189  -4.844  -7.218  1.00  0.00     0.293 HD
ENDBRANCH   2  11
BRANCH   5  13
ATOM     13  O   UNL     1      -3.067  -1.846  -6.224  1.00  0.00    -0.493 OA
ATOM     14  C   UNL     1      -3.055  -0.885  -7.089  1.00  0.00     0.278 C 
ENDBRANCH   5  13
TORSDOF 4
ENDMDL
MODEL 8
REMARK VINA RESULT:    -4.035      2.160      3.106
REMARK INTER + INTRA:          -5.204
REMARK INTER:                  -4.939
REMARK INTRA:                  -0.265
REMARK UNBOUND:                -0.461
REMARK SMILES COc1cccc(C(=O)O)c1O
REMARK SMILES IDX 7 1 11 2 6 3 5 4 3 5 4 6 8 7 9 8 10 9 12 11 2 13 1 14
REMARK H PARENT 10 10 12 12
ROOT
ATOM      1  C   UNL     1      -5.033  -1.771  -6.358  1.00  0.00     0.105 A 
ATOM      2  C   UNL     1      -5.020  -2.185  -5.054  1.00  0.00     0.172 A 
ATOM      3  C   UNL     1      -3.794  -1.183  -6.900  1.00  0.00     0.020 A 
ATOM      4  C   UNL     1      -2.638  -1.416  -6.227  1.00  0.00     0.005 A 
ATOM      5  C   UNL     1      -3.802  -2.661  -4.416  1.00  0.00     0.161 A 
ATOM      6  C   UNL     1      -2.580  -2.136  -4.998  1.00  0.00     0.050 A 
ENDROOT
BRANCH   1   7
ATOM      7  C   UNL     1      -6.257  -2.003  -7.260  1.00  0.00     0.339 C 
ATOM      8  O   UNL     1      -6.728  -3.549  -7.053  1.00  0.00    -0.246 OA
BRANCH   7   9
ATOM      9  O   UNL     1      -6.914  -1.452  -7.871  1.00  0.00    -0.478 OA
ATOM     10  H   UNL     1      -7.531  -0.934  -8.447  1.00  0.00     0.297 HD
ENDBRANCH   7   9
ENDBRANCH   1   7
BRANCH   2  11
ATOM     11  O   UNL     1      -6.191  -2.191  -4.277  1.00  0.00    -0.504 OA
ATOM     12  H   UNL     1      -7.016  -2.195  -3.730  1.00  0.00     0.293 HD
ENDBRANCH   2  11
BRANCH   5  13
ATOM     13  O   UNL     1      -3.960  -3.237  -3.161  1.00  0.00    -0.493 OA
ATOM     14  C   UNL     1      -3.967  -4.144  -2.242  1.00  0.00     0.278 C 
ENDBRANCH   5  13
TORSDOF 4
ENDMDL
MODEL 9
REMARK VINA RESULT:    -3.726      2.286      4.413
REMARK INTER + INTRA:          -4.841
REMARK INTER:                  -4.405
REMARK INTRA:                  -0.436
REMARK UNBOUND:                -0.461
REMARK SMILES COc1cccc(C(=O)O)c1O
REMARK SMILES IDX 7 1 11 2 6 3 5 4 3 5 4 6 8 7 9 8 10 9 12 11 2 13 1 14
REMARK H PARENT 10 10 12 12
ROOT
ATOM      1  C   UNL     1      -3.791  -2.720  -4.390  1.00  0.00     0.105 A 
ATOM      2  C   UNL     1      -4.751  -2.944  -5.338  1.00  0.00     0.172 A 
ATOM      3  C   UNL     1      -2.566  -2.015  -4.811  1.00  0.00     0.020 A 
ATOM      4  C   UNL     1      -2.607  -1.319  -5.976  1.00  0.00     0.005 A 
ATOM      5  C   UNL     1      -4.936  -2.042  -6.466  1.00  0.00     0.161 A 
ATOM      6  C   UNL     1      -3.747  -1.296  -6.833  1.00  0.00     0.050 A 
ENDROOT
BRANCH   1   7
ATOM      7  C   UNL     1      -4.020  -3.093  -2.915  1.00  0.00     0.339 C 
ATOM      8  O   UNL     1      -4.335  -4.690  -2.859  1.00  0.00    -0.246 OA
BRANCH   7   9
ATOM      9  O   UNL     1      -3.938  -2.657  -1.960  1.00  0.00    -0.478 OA
ATOM     10  H   UNL     1      -3.861  -2.248  -1.061  1.00  0.00     0.297 HD
ENDBRANCH   7   9
ENDBRANCH   1   7
BRANCH   2  11
ATOM     11  O   UNL     1      -5.619  -4.046  -5.254  1.00  0.00    -0.504 OA
ATOM     12  H   UNL     1      -6.231  -4.822  -5.194  1.00  0.00     0.293 HD
ENDBRANCH   2  11
BRANCH   5  13
ATOM     13  O   UNL     1      -6.065  -2.268  -7.243  1.00  0.00    -0.493 OA
ATOM     14  C   UNL     1      -7.108  -2.010  -7.961  1.00  0.00     0.278 C 
ENDBRANCH   5  13
TORSDOF 4
ENDMDL
