MODEL 1
REMARK VINA RESULT:    -4.949      0.000      0.000
REMARK INTER + INTRA:          -6.087
REMARK INTER:                  -5.817
REMARK INTRA:                  -0.269
REMARK UNBOUND:                -0.269
REMARK SMILES COc1cccc(C(=O)O)c1O
REMARK SMILES IDX 7 1 11 2 6 3 5 4 3 5 4 6 8 7 9 8 10 9 12 11 2 13 1 14
REMARK H PARENT 10 10 12 12
ROOT
ATOM      1  C   UNL     1       4.134   0.839  -6.534  1.00  0.00     0.105 A 
ATOM      2  C   UNL     1       5.071   1.365  -7.380  1.00  0.00     0.172 A 
ATOM      3  C   UNL     1       2.820   1.506  -6.469  1.00  0.00     0.020 A 
ATOM      4  C   UNL     1       2.487   2.345  -7.484  1.00  0.00     0.005 A 
ATOM      5  C   UNL     1       4.692   2.063  -8.600  1.00  0.00     0.161 A 
ATOM      6  C   UNL     1       3.369   2.658  -8.560  1.00  0.00     0.050 A 
ENDROOT
BRANCH   1   7
ATOM      7  C   UNL     1       4.398  -0.461  -5.756  1.00  0.00     0.339 C 
ATOM      8  O   UNL     1       2.962  -1.199  -5.538  1.00  0.00    -0.246 OA
BRANCH   7   9
ATOM      9  O   UNL     1       5.212  -1.040  -5.423  1.00  0.00    -0.478 OA
ATOM     10  H   UNL     1       5.977  -1.586  -5.110  1.00  0.00     0.297 HD
ENDBRANCH   7   9
ENDBRANCH   1   7
BRANCH   2  11
ATOM     11  O   UNL     1       6.446   1.236  -7.120  1.00  0.00    -0.504 OA
ATOM     12  H   UNL     1       7.414   1.146  -6.936  1.00  0.00     0.293 HD
ENDBRANCH   2  11
BRANCH   5  13
ATOM     13  O   UNL     1       5.731   2.374  -9.468  1.00  0.00    -0.493 OA
ATOM     14  C   UNL     1       6.348   2.906 -10.471  1.00  0.00     0.278 C 
ENDBRANCH   5  13
TORSDOF 4
ENDMDL
MODEL 2
REMARK VINA RESULT:    -4.915      2.875      3.756
REMARK INTER + INTRA:          -6.047
REMARK INTER:                  -5.776
REMARK INTRA:                  -0.271
REMARK UNBOUND:                -0.269
REMARK SMILES COc1cccc(C(=O)O)c1O
REMARK SMILES IDX 7 1 11 2 6 3 5 4 3 5 4 6 8 7 9 8 10 9 12 11 2 13 1 14
REMARK H PARENT 10 10 12 12
ROOT
ATOM      1  C   UNL     1       2.493   2.858  -6.716  1.00  0.00     0.105 A 
ATOM      2  C   UNL     1       2.698   2.982  -8.063  1.00  0.00     0.172 A 
ATOM      3  C   UNL     1       3.378   1.944  -5.972  1.00  0.00     0.020 A 
ATOM      4  C   UNL     1       4.543   1.573  -6.562  1.00  0.00     0.005 A 
ATOM      5  C   UNL     1       4.018   2.812  -8.653  1.00  0.00     0.161 A 
ATOM      6  C   UNL     1       4.912   1.969  -7.882  1.00  0.00     0.050 A 
ENDROOT
BRANCH   1   7
ATOM      7  C   UNL     1       1.449   3.717  -5.983  1.00  0.00     0.339 C 
ATOM      8  O   UNL     1       1.960   3.899  -4.447  1.00  0.00    -0.246 OA
BRANCH   7   9
ATOM      9  O   UNL     1       0.587   4.282  -6.199  1.00  0.00    -0.478 OA
ATOM     10  H   UNL     1      -0.224   4.814  -6.401  1.00  0.00     0.297 HD
ENDBRANCH   7   9
ENDBRANCH   1   7
BRANCH   2  11
ATOM     11  O   UNL     1       1.645   3.302  -8.937  1.00  0.00    -0.504 OA
ATOM     12  H   UNL     1       0.903   3.527  -9.552  1.00  0.00     0.293 HD
ENDBRANCH   2  11
BRANCH   5  13
ATOM     13  O   UNL     1       4.131   3.158  -9.994  1.00  0.00    -0.493 OA
ATOM     14  C   UNL     1       4.572   3.747 -11.056  1.00  0.00     0.278 C 
ENDBRANCH   5  13
TORSDOF 4
ENDMDL
MODEL 3
REMARK VINA RESULT:    -4.521      2.853      4.338
REMARK INTER + INTRA:          -5.583
REMARK INTER:                  -5.292
REMARK INTRA:                  -0.291
REMARK UNBOUND:                -0.269
REMARK SMILES COc1cccc(C(=O)O)c1O
REMARK SMILES IDX 7 1 11 2 6 3 5 4 3 5 4 6 8 7 9 8 10 9 12 11 2 13 1 14
REMARK H PARENT 10 10 12 12
ROOT
ATOM      1  C   UNL     1       2.753   3.322  -6.231  1.00  0.00     0.105 A 
ATOM      2  C   UNL     1       3.119   2.043  -5.912  1.00  0.00     0.172 A 
ATOM      3  C   UNL     1       3.614   4.064  -7.170  1.00  0.00     0.020 A 
ATOM      4  C   UNL     1       4.482   3.349  -7.931  1.00  0.00     0.005 A 
ATOM      5  C   UNL     1       3.851   1.202  -6.847  1.00  0.00     0.161 A 
ATOM      6  C   UNL     1       4.643   1.937  -7.816  1.00  0.00     0.050 A 
ENDROOT
BRANCH   1   7
ATOM      7  C   UNL     1       1.437   3.931  -5.717  1.00  0.00     0.339 C 
ATOM      8  O   UNL     1       1.591   4.135  -4.108  1.00  0.00    -0.246 OA
BRANCH   7   9
ATOM      9  O   UNL     1       0.540   4.330  -6.098  1.00  0.00    -0.478 OA
ATOM     10  H   UNL     1      -0.304   4.705  -6.456  1.00  0.00     0.297 HD
ENDBRANCH   7   9
ENDBRANCH   1   7
BRANCH   2  11
ATOM     11  O   UNL     1       2.783   1.475  -4.670  1.00  0.00    -0.504 OA
ATOM     12  H   UNL     1       2.547   1.075  -3.796  1.00  0.00     0.293 HD
ENDBRANCH   2  11
BRANCH   5  13
ATOM     13  O   UNL     1       3.988  -0.132  -6.483  1.00  0.00    -0.493 OA
ATOM     14  C   UNL     1       4.397  -1.169  -5.830  1.00  0.00     0.278 C 
ENDBRANCH   5  13
TORSDOF 4
ENDMDL
MODEL 4
REMARK VINA RESULT:    -4.458      0.753      1.187
REMARK INTER + INTRA:          -5.510
REMARK INTER:                  -5.046
REMARK INTRA:                  -0.464
REMARK UNBOUND:                -0.269
REMARK SMILES COc1cccc(C(=O)O)c1O
REMARK SMILES IDX 7 1 11 2 6 3 5 4 3 5 4 6 8 7 9 8 10 9 12 11 2 13 1 14
REMARK H PARENT 10 10 12 12
ROOT
ATOM      1  C   UNL     1       3.669   1.073  -6.229  1.00  0.00     0.105 A 
ATOM      2  C   UNL     1       4.601   1.546  -7.112  1.00  0.00     0.172 A 
ATOM      3  C   UNL     1       2.594   1.992  -5.812  1.00  0.00     0.020 A 
ATOM      4  C   UNL     1       2.372   3.092  -6.576  1.00  0.00     0.005 A 
ATOM      5  C   UNL     1       4.272   2.570  -8.093  1.00  0.00     0.161 A 
ATOM      6  C   UNL     1       3.167   3.429  -7.712  1.00  0.00     0.050 A 
ENDROOT
BRANCH   1   7
ATOM      7  C   UNL     1       3.676  -0.395  -5.768  1.00  0.00     0.339 C 
ATOM      8  O   UNL     1       5.196  -0.753  -5.306  1.00  0.00    -0.246 OA
BRANCH   7   9
ATOM      9  O   UNL     1       2.994  -1.174  -5.577  1.00  0.00    -0.478 OA
ATOM     10  H   UNL     1       2.353  -1.908  -5.398  1.00  0.00     0.297 HD
ENDBRANCH   7   9
ENDBRANCH   1   7
BRANCH   2  11
ATOM     11  O   UNL     1       5.915   1.048  -7.125  1.00  0.00    -0.504 OA
ATOM     12  H   UNL     1       6.841   0.698  -7.134  1.00  0.00     0.293 HD
ENDBRANCH   2  11
BRANCH   5  13
ATOM     13  O   UNL     1       5.243   2.820  -9.055  1.00  0.00    -0.493 OA
ATOM     14  C   UNL     1       5.771   2.984 -10.223  1.00  0.00     0.278 C 
ENDBRANCH   5  13
TORSDOF 4
ENDMDL
MODEL 5
REMARK VINA RESULT:    -4.346      2.059      3.231
REMARK INTER + INTRA:          -5.377
REMARK INTER:                  -5.074
REMARK INTRA:                  -0.304
REMARK UNBOUND:                -0.269
REMARK SMILES COc1cccc(C(=O)O)c1O
REMARK SMILES IDX 7 1 11 2 6 3 5 4 3 5 4 6 8 7 9 8 10 9 12 11 2 13 1 14
REMARK H PARENT 10 10 12 12
ROOT
ATOM      1  C   UNL     1       3.635   0.320  -6.763  1.00  0.00     0.105 A 
ATOM      2  C   UNL     1       2.751   1.286  -6.366  1.00  0.00     0.172 A 
ATOM      3  C   UNL     1       4.067   0.326  -8.172  1.00  0.00     0.020 A 
ATOM      4  C   UNL     1       3.871   1.463  -8.888  1.00  0.00     0.005 A 
ATOM      5  C   UNL     1       2.719   2.597  -6.997  1.00  0.00     0.161 A 
ATOM      6  C   UNL     1       3.212   2.614  -8.362  1.00  0.00     0.050 A 
ENDROOT
BRANCH   1   7
ATOM      7  C   UNL     1       4.240  -0.673  -5.755  1.00  0.00     0.339 C 
ATOM      8  O   UNL     1       3.036  -1.644  -5.245  1.00  0.00    -0.246 OA
BRANCH   7   9
ATOM      9  O   UNL     1       5.184  -0.962  -5.389  1.00  0.00    -0.478 OA
ATOM     10  H   UNL     1       6.071  -1.234  -5.044  1.00  0.00     0.297 HD
ENDBRANCH   7   9
ENDBRANCH   1   7
BRANCH   2  11
ATOM     11  O   UNL     1       1.846   1.062  -5.314  1.00  0.00    -0.504 OA
ATOM     12  H   UNL     1       1.209   0.905  -4.573  1.00  0.00     0.293 HD
ENDBRANCH   2  11
BRANCH   5  13
ATOM     13  O   UNL     1       1.920   3.549  -6.377  1.00  0.00    -0.493 OA
ATOM     14  C   UNL     1       1.499   4.365  -5.468  1.00  0.00     0.278 C 
ENDBRANCH   5  13
TORSDOF 4
ENDMDL
MODEL 6
REMARK VINA RESULT:    -4.336      1.871      2.373
REMARK INTER + INTRA:          -5.366
REMARK INTER:                  -5.107
REMARK INTRA:                  -0.260
REMARK UNBOUND:                -0.269
REMARK SMILES COc1cccc(C(=O)O)c1O
REMARK SMILES IDX 7 1 11 2 6 3 5 4 3 5 4 6 8 7 9 8 10 9 12 11 2 13 1 14
REMARK H PARENT 10 10 12 12
ROOT
ATOM      1  C   UNL     1       3.450   1.229  -6.758  1.00  0.00     0.105 A 
ATOM      2  C   UNL     1       3.332   1.822  -7.985  1.00  0.00     0.172 A 
ATOM      3  C   UNL     1       3.074   2.025  -5.576  1.00  0.00     0.020 A 
ATOM      4  C   UNL     1       2.305   3.127  -5.775  1.00  0.00     0.005 A 
ATOM      5  C   UNL     1       2.329   2.845  -8.245  1.00  0.00     0.161 A 
ATOM      6  C   UNL     1       1.908   3.580  -7.067  1.00  0.00     0.050 A 
ENDROOT
BRANCH   1   7
ATOM      7  C   UNL     1       3.859  -0.248  -6.619  1.00  0.00     0.339 C 
ATOM      8  O   UNL     1       3.001  -0.876  -5.385  1.00  0.00    -0.246 OA
BRANCH   7   9
ATOM      9  O   UNL     1       4.434  -0.968  -7.128  1.00  0.00    -0.478 OA
ATOM     10  H   UNL     1       4.974  -1.645  -7.607  1.00  0.00     0.297 HD
ENDBRANCH   7   9
ENDBRANCH   1   7
BRANCH   2  11
ATOM     11  O   UNL     1       4.160   1.452  -9.059  1.00  0.00    -0.504 OA
ATOM     12  H   UNL     1       4.743   1.192  -9.816  1.00  0.00     0.293 HD
ENDBRANCH   2  11
BRANCH   5  13
ATOM     13  O   UNL     1       2.180   3.223  -9.574  1.00  0.00    -0.493 OA
ATOM     14  C   UNL     1       2.017   3.992 -10.599  1.00  0.00     0.278 C 
ENDBRANCH   5  13
TORSDOF 4
ENDMDL
MODEL 7
REMARK VINA RESULT:    -4.297      2.513      3.468
REMARK INTER + INTRA:          -5.320
REMARK INTER:                  -5.148
REMARK INTRA:                  -0.172
REMARK UNBOUND:                -0.269
REMARK SMILES COc1cccc(C(=O)O)c1O
REMARK SMILES IDX 7 1 11 2 6 3 5 4 3 5 4 6 8 7 9 8 10 9 12 11 2 13 1 14
REMARK H PARENT 10 10 12 12
ROOT
ATOM      1  C   UNL     1       3.108   2.588  -6.690  1.00  0.00     0.105 A 
ATOM      2  C   UNL     1       4.294   2.609  -7.370  1.00  0.00     0.172 A 
ATOM      3  C   UNL     1       2.636   1.288  -6.179  1.00  0.00     0.020 A 
ATOM      4  C   UNL     1       3.542   0.281  -6.082  1.00  0.00     0.005 A 
ATOM      5  C   UNL     1       5.357   1.657  -7.082  1.00  0.00     0.161 A 
ATOM      6  C   UNL     1       4.896   0.404  -6.512  1.00  0.00     0.050 A 
ENDROOT
BRANCH   1   7
ATOM      7  C   UNL     1       2.343   3.885  -6.374  1.00  0.00     0.339 C 
ATOM      8  O   UNL     1       0.783   3.483  -6.129  1.00  0.00    -0.246 OA
BRANCH   7   9
ATOM      9  O   UNL     1       2.540   4.901  -6.180  1.00  0.00    -0.478 OA
ATOM     10  H   UNL     1       2.726   5.856  -5.997  1.00  0.00     0.297 HD
ENDBRANCH   7   9
ENDBRANCH   1   7
BRANCH   2  11
ATOM     11  O   UNL     1       4.549   3.568  -8.366  1.00  0.00    -0.504 OA
ATOM     12  H   UNL     1       4.729   4.243  -9.068  1.00  0.00     0.293 HD
ENDBRANCH   2  11
BRANCH   5  13
ATOM     13  O   UNL     1       6.577   1.906  -7.698  1.00  0.00    -0.493 OA
ATOM     14  C   UNL     1       7.678   1.675  -8.334  1.00  0.00     0.278 C 
ENDBRANCH   5  13
TORSDOF 4
ENDMDL
MODEL 8
REMARK VINA RESULT:    -4.186      1.772      2.637
REMARK INTER + INTRA:          -5.190
REMARK INTER:                  -4.706
REMARK INTRA:                  -0.483
REMARK UNBOUND:                -0.269
REMARK SMILES COc1cccc(C(=O)O)c1O
REMARK SMILES IDX 7 1 11 2 6 3 5 4 3 5 4 6 8 7 9 8 10 9 12 11 2 13 1 14
REMARK H PARENT 10 10 12 12
ROOT
ATOM      1  C   UNL     1       4.677   0.469  -6.941  1.00  0.00     0.105 A 
ATOM      2  C   UNL     1       3.635   0.896  -7.719  1.00  0.00     0.172 A 
ATOM      3  C   UNL     1       5.986   1.117  -7.137  1.00  0.00     0.020 A 
ATOM      4  C   UNL     1       6.009   2.311  -7.785  1.00  0.00     0.005 A 
ATOM      5  C   UNL     1       3.560   2.264  -8.211  1.00  0.00     0.161 A 
ATOM      6  C   UNL     1       4.846   2.924  -8.336  1.00  0.00     0.050 A 
ENDROOT
BRANCH   1   7
ATOM      7  C   UNL     1       4.470  -0.572  -5.828  1.00  0.00     0.339 C 
ATOM      8  O   UNL     1       2.865  -0.720  -5.590  1.00  0.00    -0.246 OA
BRANCH   7   9
ATOM      9  O   UNL     1       5.033  -1.262  -5.266  1.00  0.00    -0.478 OA
ATOM     10  H   UNL     1       5.563  -1.912  -4.739  1.00  0.00     0.297 HD
ENDBRANCH   7   9
ENDBRANCH   1   7
BRANCH   2  11
ATOM     11  O   UNL     1       2.578   0.036  -8.060  1.00  0.00    -0.504 OA
ATOM     12  H   UNL     1       1.832  -0.570  -8.301  1.00  0.00     0.293 HD
ENDBRANCH   2  11
BRANCH   5  13
ATOM     13  O   UNL     1       2.363   2.624  -8.818  1.00  0.00    -0.493 OA
ATOM     14  C   UNL     1       1.539   3.277  -9.569  1.00  0.00     0.278 C 
ENDBRANCH   5  13
TORSDOF 4
ENDMDL
MODEL 9
REMARK VINA RESULT:    -4.100      2.826      3.711
REMARK INTER + INTRA:          -5.088
REMARK INTER:                  -4.604
REMARK INTRA:                  -0.485
REMARK UNBOUND:                -0.269
REMARK SMILES COc1cccc(C(=O)O)c1O
REMARK SMILES IDX 7 1 11 2 6 3 5 4 3 5 4 6 8 7 9 8 10 9 12 11 2 13 1 14
REMARK H PARENT 10 10 12 12
ROOT
ATOM      1  C   UNL     1       2.418   3.591  -7.029  1.00  0.00     0.105 A 
ATOM      2  C   UNL     1       3.737   3.305  -6.807  1.00  0.00     0.172 A 
ATOM      3  C   UNL     1       1.906   3.434  -8.403  1.00  0.00     0.020 A 
ATOM      4  C   UNL     1       2.639   2.685  -9.267  1.00  0.00     0.005 A 
ATOM      5  C   UNL     1       4.448   2.313  -7.601  1.00  0.00     0.161 A 
ATOM      6  C   UNL     1       3.898   2.109  -8.929  1.00  0.00     0.050 A 
ENDROOT
BRANCH   1   7
ATOM      7  C   UNL     1       1.473   3.962  -5.872  1.00  0.00     0.339 C 
ATOM      8  O   UNL     1       2.186   3.480  -4.489  1.00  0.00    -0.246 OA
BRANCH   7   9
ATOM      9  O   UNL     1       0.584   4.502  -5.710  1.00  0.00    -0.478 OA
ATOM     10  H   UNL     1      -0.252   5.009  -5.557  1.00  0.00     0.297 HD
ENDBRANCH   7   9
ENDBRANCH   1   7
BRANCH   2  11
ATOM     11  O   UNL     1       4.462   3.942  -5.785  1.00  0.00    -0.504 OA
ATOM     12  H   UNL     1       4.972   4.390  -5.064  1.00  0.00     0.293 HD
ENDBRANCH   2  11
BRANCH   5  13
ATOM     13  O   UNL     1       5.717   1.973  -7.151  1.00  0.00    -0.493 OA
ATOM     14  C   UNL     1       6.973   1.671  -7.195  1.00  0.00     0.278 C 
ENDBRANCH   5  13
TORSDOF 4
ENDMDL
