MODEL 1
REMARK VINA RESULT:    -5.024      0.000      0.000
REMARK INTER + INTRA:          -6.174
REMARK INTER:                  -5.905
REMARK INTRA:                  -0.269
REMARK UNBOUND:                -0.269
REMARK SMILES COc1cccc(C(=O)O)c1O
REMARK SMILES IDX 7 1 11 2 6 3 5 4 3 5 4 6 8 7 9 8 10 9 12 11 2 13 1 14
REMARK H PARENT 10 10 12 12
ROOT
ATOM      1  C   UNL     1       5.172  -0.921  -5.462  1.00  0.00     0.105 A 
ATOM      2  C   UNL     1       5.781  -1.693  -6.413  1.00  0.00     0.172 A 
ATOM      3  C   UNL     1       5.497  -1.193  -4.050  1.00  0.00     0.020 A 
ATOM      4  C   UNL     1       6.619  -1.910  -3.787  1.00  0.00     0.005 A 
ATOM      5  C   UNL     1       7.104  -2.263  -6.201  1.00  0.00     0.161 A 
ATOM      6  C   UNL     1       7.450  -2.463  -4.806  1.00  0.00     0.050 A 
ENDROOT
BRANCH   1   7
ATOM      7  C   UNL     1       4.262   0.257  -5.851  1.00  0.00     0.339 C 
ATOM      8  O   UNL     1       4.095   1.199  -4.532  1.00  0.00    -0.246 OA
BRANCH   7   9
ATOM      9  O   UNL     1       3.815   0.670  -6.710  1.00  0.00    -0.478 OA
ATOM     10  H   UNL     1       3.394   1.059  -7.517  1.00  0.00     0.297 HD
ENDBRANCH   7   9
ENDBRANCH   1   7
BRANCH   2  11
ATOM     11  O   UNL     1       5.166  -1.953  -7.649  1.00  0.00    -0.504 OA
ATOM     12  H   UNL     1       4.732  -2.137  -8.520  1.00  0.00     0.293 HD
ENDBRANCH   2  11
BRANCH   5  13
ATOM     13  O   UNL     1       7.693  -2.857  -7.310  1.00  0.00    -0.493 OA
ATOM     14  C   UNL     1       8.612  -3.197  -8.152  1.00  0.00     0.278 C 
ENDBRANCH   5  13
TORSDOF 4
ENDMDL
MODEL 2
REMARK VINA RESULT:    -5.019      2.948      3.870
REMARK INTER + INTRA:          -6.168
REMARK INTER:                  -5.899
REMARK INTRA:                  -0.269
REMARK UNBOUND:                -0.269
REMARK SMILES COc1cccc(C(=O)O)c1O
REMARK SMILES IDX 7 1 11 2 6 3 5 4 3 5 4 6 8 7 9 8 10 9 12 11 2 13 1 14
REMARK H PARENT 10 10 12 12
ROOT
ATOM      1  C   UNL     1       6.006  -2.702  -3.459  1.00  0.00     0.105 A 
ATOM      2  C   UNL     1       7.264  -2.721  -3.995  1.00  0.00     0.172 A 
ATOM      3  C   UNL     1       4.927  -2.105  -4.268  1.00  0.00     0.020 A 
ATOM      4  C   UNL     1       5.148  -1.952  -5.599  1.00  0.00     0.005 A 
ATOM      5  C   UNL     1       7.481  -2.797  -5.433  1.00  0.00     0.161 A 
ATOM      6  C   UNL     1       6.386  -2.274  -6.229  1.00  0.00     0.050 A 
ENDROOT
BRANCH   1   7
ATOM      7  C   UNL     1       5.701  -3.372  -2.108  1.00  0.00     0.339 C 
ATOM      8  O   UNL     1       4.087  -3.568  -2.015  1.00  0.00    -0.246 OA
BRANCH   7   9
ATOM      9  O   UNL     1       6.215  -3.813  -1.302  1.00  0.00    -0.478 OA
ATOM     10  H   UNL     1       6.699  -4.227  -0.544  1.00  0.00     0.297 HD
ENDBRANCH   7   9
ENDBRANCH   1   7
BRANCH   2  11
ATOM     11  O   UNL     1       8.408  -2.689  -3.178  1.00  0.00    -0.504 OA
ATOM     12  H   UNL     1       9.213  -2.667  -2.603  1.00  0.00     0.293 HD
ENDBRANCH   2  11
BRANCH   5  13
ATOM     13  O   UNL     1       8.793  -3.009  -5.837  1.00  0.00    -0.493 OA
ATOM     14  C   UNL     1       9.783  -3.449  -6.540  1.00  0.00     0.278 C 
ENDBRANCH   5  13
TORSDOF 4
ENDMDL
MODEL 3
REMARK VINA RESULT:    -4.373      2.812      4.347
REMARK INTER + INTRA:          -5.409
REMARK INTER:                  -4.991
REMARK INTRA:                  -0.419
REMARK UNBOUND:                -0.269
REMARK SMILES COc1cccc(C(=O)O)c1O
REMARK SMILES IDX 7 1 11 2 6 3 5 4 3 5 4 6 8 7 9 8 10 9 12 11 2 13 1 14
REMARK H PARENT 10 10 12 12
ROOT
ATOM      1  C   UNL     1       5.948  -2.960  -3.465  1.00  0.00     0.105 A 
ATOM      2  C   UNL     1       5.237  -1.938  -4.030  1.00  0.00     0.172 A 
ATOM      3  C   UNL     1       7.055  -3.539  -4.248  1.00  0.00     0.020 A 
ATOM      4  C   UNL     1       7.537  -2.814  -5.290  1.00  0.00     0.005 A 
ATOM      5  C   UNL     1       5.849  -1.015  -4.977  1.00  0.00     0.161 A 
ATOM      6  C   UNL     1       6.983  -1.564  -5.696  1.00  0.00     0.050 A 
ENDROOT
BRANCH   1   7
ATOM      7  C   UNL     1       5.675  -3.423  -2.023  1.00  0.00     0.339 C 
ATOM      8  O   UNL     1       4.067  -3.639  -1.876  1.00  0.00    -0.246 OA
BRANCH   7   9
ATOM      9  O   UNL     1       6.210  -3.724  -1.167  1.00  0.00    -0.478 OA
ATOM     10  H   UNL     1       6.712  -4.006  -0.362  1.00  0.00     0.297 HD
ENDBRANCH   7   9
ENDBRANCH   1   7
BRANCH   2  11
ATOM     11  O   UNL     1       3.888  -1.718  -3.706  1.00  0.00    -0.504 OA
ATOM     12  H   UNL     1       2.937  -1.563  -3.478  1.00  0.00     0.293 HD
ENDBRANCH   2  11
BRANCH   5  13
ATOM     13  O   UNL     1       5.083   0.090  -5.325  1.00  0.00    -0.493 OA
ATOM     14  C   UNL     1       4.179   0.793  -5.925  1.00  0.00     0.278 C 
ENDBRANCH   5  13
TORSDOF 4
ENDMDL
MODEL 4
REMARK VINA RESULT:    -4.345      2.674      3.806
REMARK INTER + INTRA:          -5.376
REMARK INTER:                  -5.174
REMARK INTRA:                  -0.202
REMARK UNBOUND:                -0.269
REMARK SMILES COc1cccc(C(=O)O)c1O
REMARK SMILES IDX 7 1 11 2 6 3 5 4 3 5 4 6 8 7 9 8 10 9 12 11 2 13 1 14
REMARK H PARENT 10 10 12 12
ROOT
ATOM      1  C   UNL     1       5.957  -2.298  -3.387  1.00  0.00     0.105 A 
ATOM      2  C   UNL     1       7.032  -2.331  -4.233  1.00  0.00     0.172 A 
ATOM      3  C   UNL     1       4.862  -1.364  -3.709  1.00  0.00     0.020 A 
ATOM      4  C   UNL     1       4.801  -0.876  -4.975  1.00  0.00     0.005 A 
ATOM      5  C   UNL     1       6.897  -2.031  -5.651  1.00  0.00     0.161 A 
ATOM      6  C   UNL     1       5.775  -1.169  -5.974  1.00  0.00     0.050 A 
ENDROOT
BRANCH   1   7
ATOM      7  C   UNL     1       5.841  -3.271  -2.201  1.00  0.00     0.339 C 
ATOM      8  O   UNL     1       5.658  -4.768  -2.817  1.00  0.00    -0.246 OA
BRANCH   7   9
ATOM      9  O   UNL     1       5.941  -3.268  -1.153  1.00  0.00    -0.478 OA
ATOM     10  H   UNL     1       6.034  -3.264  -0.167  1.00  0.00     0.297 HD
ENDBRANCH   7   9
ENDBRANCH   1   7
BRANCH   2  11
ATOM     11  O   UNL     1       8.314  -2.677  -3.773  1.00  0.00    -0.504 OA
ATOM     12  H   UNL     1       9.217  -2.921  -3.449  1.00  0.00     0.293 HD
ENDBRANCH   2  11
BRANCH   5  13
ATOM     13  O   UNL     1       8.014  -2.291  -6.434  1.00  0.00    -0.493 OA
ATOM     14  C   UNL     1       8.781  -2.895  -7.281  1.00  0.00     0.278 C 
ENDBRANCH   5  13
TORSDOF 4
ENDMDL
MODEL 5
REMARK VINA RESULT:    -4.337      1.055      1.443
REMARK INTER + INTRA:          -5.367
REMARK INTER:                  -4.900
REMARK INTRA:                  -0.467
REMARK UNBOUND:                -0.269
REMARK SMILES COc1cccc(C(=O)O)c1O
REMARK SMILES IDX 7 1 11 2 6 3 5 4 3 5 4 6 8 7 9 8 10 9 12 11 2 13 1 14
REMARK H PARENT 10 10 12 12
ROOT
ATOM      1  C   UNL     1       4.855  -1.139  -4.726  1.00  0.00     0.105 A 
ATOM      2  C   UNL     1       5.659  -1.834  -5.588  1.00  0.00     0.172 A 
ATOM      3  C   UNL     1       4.589  -1.739  -3.406  1.00  0.00     0.020 A 
ATOM      4  C   UNL     1       5.420  -2.726  -2.982  1.00  0.00     0.005 A 
ATOM      5  C   UNL     1       6.713  -2.716  -5.106  1.00  0.00     0.161 A 
ATOM      6  C   UNL     1       6.482  -3.249  -3.776  1.00  0.00     0.050 A 
ENDROOT
BRANCH   1   7
ATOM      7  C   UNL     1       4.332   0.265  -5.076  1.00  0.00     0.339 C 
ATOM      8  O   UNL     1       3.815   0.221  -6.620  1.00  0.00    -0.246 OA
BRANCH   7   9
ATOM      9  O   UNL     1       4.127   1.181  -4.599  1.00  0.00    -0.478 OA
ATOM     10  H   UNL     1       3.933   2.043  -4.152  1.00  0.00     0.297 HD
ENDBRANCH   7   9
ENDBRANCH   1   7
BRANCH   2  11
ATOM     11  O   UNL     1       5.517  -1.711  -6.980  1.00  0.00    -0.504 OA
ATOM     12  H   UNL     1       5.418  -1.625  -7.962  1.00  0.00     0.293 HD
ENDBRANCH   2  11
BRANCH   5  13
ATOM     13  O   UNL     1       7.581  -3.206  -6.073  1.00  0.00    -0.493 OA
ATOM     14  C   UNL     1       8.675  -3.372  -6.740  1.00  0.00     0.278 C 
ENDBRANCH   5  13
TORSDOF 4
ENDMDL
MODEL 6
REMARK VINA RESULT:    -4.249      2.312      3.826
REMARK INTER + INTRA:          -5.263
REMARK INTER:                  -4.983
REMARK INTRA:                  -0.280
REMARK UNBOUND:                -0.269
REMARK SMILES COc1cccc(C(=O)O)c1O
REMARK SMILES IDX 7 1 11 2 6 3 5 4 3 5 4 6 8 7 9 8 10 9 12 11 2 13 1 14
REMARK H PARENT 10 10 12 12
ROOT
ATOM      1  C   UNL     1       5.114  -1.719  -6.569  1.00  0.00     0.105 A 
ATOM      2  C   UNL     1       5.139  -2.576  -5.503  1.00  0.00     0.172 A 
ATOM      3  C   UNL     1       4.660  -0.338  -6.325  1.00  0.00     0.020 A 
ATOM      4  C   UNL     1       4.650   0.105  -5.041  1.00  0.00     0.005 A 
ATOM      5  C   UNL     1       5.369  -2.101  -4.147  1.00  0.00     0.161 A 
ATOM      6  C   UNL     1       4.988  -0.718  -3.927  1.00  0.00     0.050 A 
ENDROOT
BRANCH   1   7
ATOM      7  C   UNL     1       5.638  -2.145  -7.952  1.00  0.00     0.339 C 
ATOM      8  O   UNL     1       7.063  -2.900  -7.721  1.00  0.00    -0.246 OA
BRANCH   7   9
ATOM      9  O   UNL     1       5.313  -2.179  -8.952  1.00  0.00    -0.478 OA
ATOM     10  H   UNL     1       5.006  -2.211  -9.894  1.00  0.00     0.297 HD
ENDBRANCH   7   9
ENDBRANCH   1   7
BRANCH   2  11
ATOM     11  O   UNL     1       4.966  -3.960  -5.673  1.00  0.00    -0.504 OA
ATOM     12  H   UNL     1       4.844  -4.935  -5.793  1.00  0.00     0.293 HD
ENDBRANCH   2  11
BRANCH   5  13
ATOM     13  O   UNL     1       5.569  -3.084  -3.186  1.00  0.00    -0.493 OA
ATOM     14  C   UNL     1       5.773  -3.614  -2.025  1.00  0.00     0.278 C 
ENDBRANCH   5  13
TORSDOF 4
ENDMDL
MODEL 7
REMARK VINA RESULT:    -4.209      2.306      4.603
REMARK INTER + INTRA:          -5.216
REMARK INTER:                  -4.876
REMARK INTRA:                  -0.340
REMARK UNBOUND:                -0.269
REMARK SMILES COc1cccc(C(=O)O)c1O
REMARK SMILES IDX 7 1 11 2 6 3 5 4 3 5 4 6 8 7 9 8 10 9 12 11 2 13 1 14
REMARK H PARENT 10 10 12 12
ROOT
ATOM      1  C   UNL     1       7.322  -2.482  -3.390  1.00  0.00     0.105 A 
ATOM      2  C   UNL     1       6.730  -1.510  -4.149  1.00  0.00     0.172 A 
ATOM      3  C   UNL     1       6.466  -3.236  -2.456  1.00  0.00     0.020 A 
ATOM      4  C   UNL     1       5.123  -3.193  -2.656  1.00  0.00     0.005 A 
ATOM      5  C   UNL     1       5.336  -1.603  -4.557  1.00  0.00     0.161 A 
ATOM      6  C   UNL     1       4.509  -2.406  -3.674  1.00  0.00     0.050 A 
ENDROOT
BRANCH   1   7
ATOM      7  C   UNL     1       8.804  -2.850  -3.575  1.00  0.00     0.339 C 
ATOM      8  O   UNL     1       9.114  -2.834  -5.174  1.00  0.00    -0.246 OA
BRANCH   7   9
ATOM      9  O   UNL     1       9.667  -3.006  -2.991  1.00  0.00    -0.478 OA
ATOM     10  H   UNL     1      10.478  -3.152  -2.442  1.00  0.00     0.297 HD
ENDBRANCH   7   9
ENDBRANCH   1   7
BRANCH   2  11
ATOM     11  O   UNL     1       7.450  -0.386  -4.589  1.00  0.00    -0.504 OA
ATOM     12  H   UNL     1       7.956   0.406  -4.899  1.00  0.00     0.293 HD
ENDBRANCH   2  11
BRANCH   5  13
ATOM     13  O   UNL     1       4.912  -0.660  -5.484  1.00  0.00    -0.493 OA
ATOM     14  C   UNL     1       4.366   0.415  -5.950  1.00  0.00     0.278 C 
ENDBRANCH   5  13
TORSDOF 4
ENDMDL
MODEL 8
REMARK VINA RESULT:    -4.184      1.834      2.417
REMARK INTER + INTRA:          -5.188
REMARK INTER:                  -4.957
REMARK INTRA:                  -0.231
REMARK UNBOUND:                -0.269
REMARK SMILES COc1cccc(C(=O)O)c1O
REMARK SMILES IDX 7 1 11 2 6 3 5 4 3 5 4 6 8 7 9 8 10 9 12 11 2 13 1 14
REMARK H PARENT 10 10 12 12
ROOT
ATOM      1  C   UNL     1       5.443  -1.266  -4.736  1.00  0.00     0.105 A 
ATOM      2  C   UNL     1       6.747  -1.679  -4.766  1.00  0.00     0.172 A 
ATOM      3  C   UNL     1       4.504  -2.029  -3.894  1.00  0.00     0.020 A 
ATOM      4  C   UNL     1       5.028  -2.836  -2.936  1.00  0.00     0.005 A 
ATOM      5  C   UNL     1       7.365  -2.338  -3.624  1.00  0.00     0.161 A 
ATOM      6  C   UNL     1       6.430  -3.028  -2.756  1.00  0.00     0.050 A 
ENDROOT
BRANCH   1   7
ATOM      7  C   UNL     1       4.990   0.008  -5.470  1.00  0.00     0.339 C 
ATOM      8  O   UNL     1       4.117   0.892  -4.416  1.00  0.00    -0.246 OA
BRANCH   7   9
ATOM      9  O   UNL     1       5.154   0.504  -6.384  1.00  0.00    -0.478 OA
ATOM     10  H   UNL     1       5.308   0.970  -7.244  1.00  0.00     0.297 HD
ENDBRANCH   7   9
ENDBRANCH   1   7
BRANCH   2  11
ATOM     11  O   UNL     1       7.557  -1.464  -5.894  1.00  0.00    -0.504 OA
ATOM     12  H   UNL     1       8.128  -1.313  -6.689  1.00  0.00     0.293 HD
ENDBRANCH   2  11
BRANCH   5  13
ATOM     13  O   UNL     1       8.739  -2.527  -3.705  1.00  0.00    -0.493 OA
ATOM     14  C   UNL     1       9.877  -3.138  -3.676  1.00  0.00     0.278 C 
ENDBRANCH   5  13
TORSDOF 4
ENDMDL
MODEL 9
REMARK VINA RESULT:    -4.016      1.817      2.676
REMARK INTER + INTRA:          -4.990
REMARK INTER:                  -4.543
REMARK INTRA:                  -0.447
REMARK UNBOUND:                -0.269
REMARK SMILES COc1cccc(C(=O)O)c1O
REMARK SMILES IDX 7 1 11 2 6 3 5 4 3 5 4 6 8 7 9 8 10 9 12 11 2 13 1 14
REMARK H PARENT 10 10 12 12
ROOT
ATOM      1  C   UNL     1       5.350  -0.704  -5.959  1.00  0.00     0.105 A 
ATOM      2  C   UNL     1       6.404  -0.861  -5.102  1.00  0.00     0.172 A 
ATOM      3  C   UNL     1       5.292  -1.586  -7.140  1.00  0.00     0.020 A 
ATOM      4  C   UNL     1       6.048  -2.714  -7.122  1.00  0.00     0.005 A 
ATOM      5  C   UNL     1       7.055  -2.150  -4.919  1.00  0.00     0.161 A 
ATOM      6  C   UNL     1       6.936  -3.044  -6.056  1.00  0.00     0.050 A 
ENDROOT
BRANCH   1   7
ATOM      7  C   UNL     1       4.209   0.281  -5.653  1.00  0.00     0.339 C 
ATOM      8  O   UNL     1       4.081   0.390  -4.033  1.00  0.00    -0.246 OA
BRANCH   7   9
ATOM      9  O   UNL     1       3.577   0.953  -6.161  1.00  0.00    -0.478 OA
ATOM     10  H   UNL     1       2.983   1.586  -6.639  1.00  0.00     0.297 HD
ENDBRANCH   7   9
ENDBRANCH   1   7
BRANCH   2  11
ATOM     11  O   UNL     1       6.893   0.214  -4.340  1.00  0.00    -0.504 OA
ATOM     12  H   UNL     1       7.238   0.971  -3.803  1.00  0.00     0.293 HD
ENDBRANCH   2  11
BRANCH   5  13
ATOM     13  O   UNL     1       7.976  -2.222  -3.882  1.00  0.00    -0.493 OA
ATOM     14  C   UNL     1       9.022  -2.592  -3.220  1.00  0.00     0.278 C 
ENDBRANCH   5  13
TORSDOF 4
ENDMDL
