MODEL 1
REMARK VINA RESULT:    -5.025      0.000      0.000
REMARK INTER + INTRA:          -6.175
REMARK INTER:                  -5.906
REMARK INTRA:                  -0.269
REMARK UNBOUND:                -0.269
REMARK SMILES COc1cccc(C(=O)O)c1O
REMARK SMILES IDX 7 1 11 2 6 3 5 4 3 5 4 6 8 7 9 8 10 9 12 11 2 13 1 14
REMARK H PARENT 10 10 12 12
ROOT
ATOM      1  C   UNL     1      -7.890   2.668  -0.052  1.00  0.00     0.105 A 
ATOM      2  C   UNL     1      -9.245   2.649   0.132  1.00  0.00     0.172 A 
ATOM      3  C   UNL     1      -7.388   2.654  -1.438  1.00  0.00     0.020 A 
ATOM      4  C   UNL     1      -8.256   2.988  -2.427  1.00  0.00     0.005 A 
ATOM      5  C   UNL     1     -10.157   3.233  -0.842  1.00  0.00     0.161 A 
ATOM      6  C   UNL     1      -9.632   3.283  -2.194  1.00  0.00     0.050 A 
ENDROOT
BRANCH   1   7
ATOM      7  C   UNL     1      -6.923   2.807   1.136  1.00  0.00     0.339 C 
ATOM      8  O   UNL     1      -5.591   3.571   0.594  1.00  0.00    -0.246 OA
BRANCH   7   9
ATOM      9  O   UNL     1      -6.911   2.649   2.177  1.00  0.00    -0.478 OA
ATOM     10  H   UNL     1      -6.899   2.501   3.156  1.00  0.00     0.297 HD
ENDBRANCH   7   9
ENDBRANCH   1   7
BRANCH   2  11
ATOM     11  O   UNL     1      -9.820   2.082   1.282  1.00  0.00    -0.504 OA
ATOM     12  H   UNL     1     -10.224   1.682   2.093  1.00  0.00     0.293 HD
ENDBRANCH   2  11
BRANCH   5  13
ATOM     13  O   UNL     1     -11.486   3.326  -0.448  1.00  0.00    -0.493 OA
ATOM     14  C   UNL     1     -12.743   3.620  -0.501  1.00  0.00     0.278 C 
ENDBRANCH   5  13
TORSDOF 4
ENDMDL
MODEL 2
REMARK VINA RESULT:    -5.005      2.773      3.678
REMARK INTER + INTRA:          -6.152
REMARK INTER:                  -5.881
REMARK INTRA:                  -0.270
REMARK UNBOUND:                -0.269
REMARK SMILES COc1cccc(C(=O)O)c1O
REMARK SMILES IDX 7 1 11 2 6 3 5 4 3 5 4 6 8 7 9 8 10 9 12 11 2 13 1 14
REMARK H PARENT 10 10 12 12
ROOT
ATOM      1  C   UNL     1      -7.978   2.243  -2.528  1.00  0.00     0.105 A 
ATOM      2  C   UNL     1      -9.083   3.038  -2.659  1.00  0.00     0.172 A 
ATOM      3  C   UNL     1      -7.472   1.994  -1.166  1.00  0.00     0.020 A 
ATOM      4  C   UNL     1      -8.310   2.242  -0.126  1.00  0.00     0.005 A 
ATOM      5  C   UNL     1     -10.101   3.107  -1.620  1.00  0.00     0.161 A 
ATOM      6  C   UNL     1      -9.616   2.792  -0.289  1.00  0.00     0.050 A 
ENDROOT
BRANCH   1   7
ATOM      7  C   UNL     1      -7.344   1.547  -3.745  1.00  0.00     0.339 C 
ATOM      8  O   UNL     1      -6.667   0.162  -3.216  1.00  0.00    -0.246 OA
BRANCH   7   9
ATOM      9  O   UNL     1      -7.306   1.648  -4.792  1.00  0.00    -0.478 OA
ATOM     10  H   UNL     1      -7.271   1.743  -5.777  1.00  0.00     0.297 HD
ENDBRANCH   7   9
ENDBRANCH   1   7
BRANCH   2  11
ATOM     11  O   UNL     1      -9.298   3.808  -3.815  1.00  0.00    -0.504 OA
ATOM     12  H   UNL     1      -9.449   4.351  -4.629  1.00  0.00     0.293 HD
ENDBRANCH   2  11
BRANCH   5  13
ATOM     13  O   UNL     1     -11.263   3.791  -1.955  1.00  0.00    -0.493 OA
ATOM     14  C   UNL     1     -12.525   4.026  -2.105  1.00  0.00     0.278 C 
ENDBRANCH   5  13
TORSDOF 4
ENDMDL
MODEL 3
REMARK VINA RESULT:    -4.337      2.076      3.201
REMARK INTER + INTRA:          -5.366
REMARK INTER:                  -5.009
REMARK INTRA:                  -0.357
REMARK UNBOUND:                -0.269
REMARK SMILES COc1cccc(C(=O)O)c1O
REMARK SMILES IDX 7 1 11 2 6 3 5 4 3 5 4 6 8 7 9 8 10 9 12 11 2 13 1 14
REMARK H PARENT 10 10 12 12
ROOT
ATOM      1  C   UNL     1      -7.451   3.248  -0.032  1.00  0.00     0.105 A 
ATOM      2  C   UNL     1      -7.155   2.562  -1.177  1.00  0.00     0.172 A 
ATOM      3  C   UNL     1      -8.624   4.140  -0.053  1.00  0.00     0.020 A 
ATOM      4  C   UNL     1      -9.536   3.960  -1.044  1.00  0.00     0.005 A 
ATOM      5  C   UNL     1      -8.192   2.166  -2.120  1.00  0.00     0.161 A 
ATOM      6  C   UNL     1      -9.376   3.004  -2.089  1.00  0.00     0.050 A 
ENDROOT
BRANCH   1   7
ATOM      7  C   UNL     1      -6.656   3.020   1.265  1.00  0.00     0.339 C 
ATOM      8  O   UNL     1      -5.147   3.582   1.017  1.00  0.00    -0.246 OA
BRANCH   7   9
ATOM      9  O   UNL     1      -6.821   2.711   2.259  1.00  0.00    -0.478 OA
ATOM     10  H   UNL     1      -6.976   2.421   3.192  1.00  0.00     0.297 HD
ENDBRANCH   7   9
ENDBRANCH   1   7
BRANCH   2  11
ATOM     11  O   UNL     1      -5.836   2.187  -1.486  1.00  0.00    -0.504 OA
ATOM     12  H   UNL     1      -4.907   1.924  -1.704  1.00  0.00     0.293 HD
ENDBRANCH   2  11
BRANCH   5  13
ATOM     13  O   UNL     1      -7.791   1.308  -3.137  1.00  0.00    -0.493 OA
ATOM     14  C   UNL     1      -7.391   0.922  -4.303  1.00  0.00     0.278 C 
ENDBRANCH   5  13
TORSDOF 4
ENDMDL
MODEL 4
REMARK VINA RESULT:    -4.318      2.675      4.238
REMARK INTER + INTRA:          -5.345
REMARK INTER:                  -4.947
REMARK INTRA:                  -0.397
REMARK UNBOUND:                -0.269
REMARK SMILES COc1cccc(C(=O)O)c1O
REMARK SMILES IDX 7 1 11 2 6 3 5 4 3 5 4 6 8 7 9 8 10 9 12 11 2 13 1 14
REMARK H PARENT 10 10 12 12
ROOT
ATOM      1  C   UNL     1      -8.112   2.012  -2.670  1.00  0.00     0.105 A 
ATOM      2  C   UNL     1      -7.528   2.235  -1.454  1.00  0.00     0.172 A 
ATOM      3  C   UNL     1      -9.497   2.481  -2.860  1.00  0.00     0.020 A 
ATOM      4  C   UNL     1      -9.975   3.405  -1.987  1.00  0.00     0.005 A 
ATOM      5  C   UNL     1      -7.891   3.379  -0.630  1.00  0.00     0.161 A 
ATOM      6  C   UNL     1      -9.230   3.884  -0.869  1.00  0.00     0.050 A 
ENDROOT
BRANCH   1   7
ATOM      7  C   UNL     1      -7.322   1.391  -3.836  1.00  0.00     0.339 C 
ATOM      8  O   UNL     1      -6.538   0.087  -3.253  1.00  0.00    -0.246 OA
BRANCH   7   9
ATOM      9  O   UNL     1      -7.222   1.498  -4.878  1.00  0.00    -0.478 OA
ATOM     10  H   UNL     1      -7.127   1.599  -5.859  1.00  0.00     0.297 HD
ENDBRANCH   7   9
ENDBRANCH   1   7
BRANCH   2  11
ATOM     11  O   UNL     1      -6.532   1.379  -0.952  1.00  0.00    -0.504 OA
ATOM     12  H   UNL     1      -5.831   0.776  -0.599  1.00  0.00     0.293 HD
ENDBRANCH   2  11
BRANCH   5  13
ATOM     13  O   UNL     1      -7.091   3.602   0.483  1.00  0.00    -0.493 OA
ATOM     14  C   UNL     1      -6.569   3.419   1.651  1.00  0.00     0.278 C 
ENDBRANCH   5  13
TORSDOF 4
ENDMDL
MODEL 5
REMARK VINA RESULT:    -4.278      2.425      3.436
REMARK INTER + INTRA:          -5.297
REMARK INTER:                  -5.030
REMARK INTRA:                  -0.267
REMARK UNBOUND:                -0.269
REMARK SMILES COc1cccc(C(=O)O)c1O
REMARK SMILES IDX 7 1 11 2 6 3 5 4 3 5 4 6 8 7 9 8 10 9 12 11 2 13 1 14
REMARK H PARENT 10 10 12 12
ROOT
ATOM      1  C   UNL     1      -7.995   2.097  -1.818  1.00  0.00     0.105 A 
ATOM      2  C   UNL     1      -9.149   2.365  -1.135  1.00  0.00     0.172 A 
ATOM      3  C   UNL     1      -6.723   2.527  -1.208  1.00  0.00     0.020 A 
ATOM      4  C   UNL     1      -6.726   2.818   0.118  1.00  0.00     0.005 A 
ATOM      5  C   UNL     1      -9.176   2.438   0.319  1.00  0.00     0.161 A 
ATOM      6  C   UNL     1      -7.904   2.792   0.922  1.00  0.00     0.050 A 
ENDROOT
BRANCH   1   7
ATOM      7  C   UNL     1      -8.009   1.283  -3.124  1.00  0.00     0.339 C 
ATOM      8  O   UNL     1      -6.621   0.433  -3.183  1.00  0.00    -0.246 OA
BRANCH   7   9
ATOM      9  O   UNL     1      -8.669   1.047  -3.910  1.00  0.00    -0.478 OA
ATOM     10  H   UNL     1      -9.288   0.826  -4.650  1.00  0.00     0.297 HD
ENDBRANCH   7   9
ENDBRANCH   1   7
BRANCH   2  11
ATOM     11  O   UNL     1     -10.368   2.561  -1.806  1.00  0.00    -0.504 OA
ATOM     12  H   UNL     1     -11.227   2.699  -2.278  1.00  0.00     0.293 HD
ENDBRANCH   2  11
BRANCH   5  13
ATOM     13  O   UNL     1     -10.436   2.519   0.898  1.00  0.00    -0.493 OA
ATOM     14  C   UNL     1     -11.469   2.175   1.594  1.00  0.00     0.278 C 
ENDBRANCH   5  13
TORSDOF 4
ENDMDL
MODEL 6
REMARK VINA RESULT:    -3.777      2.434      2.985
REMARK INTER + INTRA:          -4.709
REMARK INTER:                  -4.541
REMARK INTRA:                  -0.168
REMARK UNBOUND:                -0.269
REMARK SMILES COc1cccc(C(=O)O)c1O
REMARK SMILES IDX 7 1 11 2 6 3 5 4 3 5 4 6 8 7 9 8 10 9 12 11 2 13 1 14
REMARK H PARENT 10 10 12 12
ROOT
ATOM      1  C   UNL     1      -8.400   1.970  -2.366  1.00  0.00     0.105 A 
ATOM      2  C   UNL     1      -9.196   1.654  -1.299  1.00  0.00     0.172 A 
ATOM      3  C   UNL     1      -8.865   3.034  -3.274  1.00  0.00     0.020 A 
ATOM      4  C   UNL     1      -9.833   3.873  -2.821  1.00  0.00     0.005 A 
ATOM      5  C   UNL     1     -10.059   2.644  -0.671  1.00  0.00     0.161 A 
ATOM      6  C   UNL     1     -10.458   3.729  -1.548  1.00  0.00     0.050 A 
ENDROOT
BRANCH   1   7
ATOM      7  C   UNL     1      -7.021   1.316  -2.556  1.00  0.00     0.339 C 
ATOM      8  O   UNL     1      -7.064   0.487  -3.958  1.00  0.00    -0.246 OA
BRANCH   7   9
ATOM      9  O   UNL     1      -6.064   1.328  -2.116  1.00  0.00    -0.478 OA
ATOM     10  H   UNL     1      -5.165   1.340  -1.702  1.00  0.00     0.297 HD
ENDBRANCH   7   9
ENDBRANCH   1   7
BRANCH   2  11
ATOM     11  O   UNL     1      -9.200   0.362  -0.747  1.00  0.00    -0.504 OA
ATOM     12  H   UNL     1      -9.203  -0.548  -0.358  1.00  0.00     0.293 HD
ENDBRANCH   2  11
BRANCH   5  13
ATOM     13  O   UNL     1     -10.663   2.254   0.518  1.00  0.00    -0.493 OA
ATOM     14  C   UNL     1     -11.452   2.292   1.541  1.00  0.00     0.278 C 
ENDBRANCH   5  13
TORSDOF 4
ENDMDL
MODEL 7
REMARK VINA RESULT:    -3.761      1.830      2.683
REMARK INTER + INTRA:          -4.690
REMARK INTER:                  -4.522
REMARK INTRA:                  -0.168
REMARK UNBOUND:                -0.269
REMARK SMILES COc1cccc(C(=O)O)c1O
REMARK SMILES IDX 7 1 11 2 6 3 5 4 3 5 4 6 8 7 9 8 10 9 12 11 2 13 1 14
REMARK H PARENT 10 10 12 12
ROOT
ATOM      1  C   UNL     1      -8.035   3.071  -0.207  1.00  0.00     0.105 A 
ATOM      2  C   UNL     1      -8.536   3.767  -1.273  1.00  0.00     0.172 A 
ATOM      3  C   UNL     1      -9.001   2.468   0.730  1.00  0.00     0.020 A 
ATOM      4  C   UNL     1     -10.282   2.316   0.306  1.00  0.00     0.005 A 
ATOM      5  C   UNL     1      -9.820   3.429  -1.870  1.00  0.00     0.161 A 
ATOM      6  C   UNL     1     -10.744   2.771  -0.964  1.00  0.00     0.050 A 
ENDROOT
BRANCH   1   7
ATOM      7  C   UNL     1      -6.524   2.834  -0.045  1.00  0.00     0.339 C 
ATOM      8  O   UNL     1      -6.076   3.495   1.375  1.00  0.00    -0.246 OA
BRANCH   7   9
ATOM      9  O   UNL     1      -5.744   2.305  -0.516  1.00  0.00    -0.478 OA
ATOM     10  H   UNL     1      -5.011   1.808  -0.958  1.00  0.00     0.297 HD
ENDBRANCH   7   9
ENDBRANCH   1   7
BRANCH   2  11
ATOM     11  O   UNL     1      -7.821   4.828  -1.855  1.00  0.00    -0.504 OA
ATOM     12  H   UNL     1      -7.318   5.575  -2.265  1.00  0.00     0.293 HD
ENDBRANCH   2  11
BRANCH   5  13
ATOM     13  O   UNL     1     -10.123   4.076  -3.061  1.00  0.00    -0.493 OA
ATOM     14  C   UNL     1     -10.827   4.511  -4.054  1.00  0.00     0.278 C 
ENDBRANCH   5  13
TORSDOF 4
ENDMDL
MODEL 8
REMARK VINA RESULT:    -3.750      2.108      4.529
REMARK INTER + INTRA:          -4.677
REMARK INTER:                  -4.347
REMARK INTRA:                  -0.331
REMARK UNBOUND:                -0.269
REMARK SMILES COc1cccc(C(=O)O)c1O
REMARK SMILES IDX 7 1 11 2 6 3 5 4 3 5 4 6 8 7 9 8 10 9 12 11 2 13 1 14
REMARK H PARENT 10 10 12 12
ROOT
ATOM      1  C   UNL     1      -8.752   3.244  -3.013  1.00  0.00     0.105 A 
ATOM      2  C   UNL     1      -8.277   3.533  -1.764  1.00  0.00     0.172 A 
ATOM      3  C   UNL     1      -8.144   2.108  -3.730  1.00  0.00     0.020 A 
ATOM      4  C   UNL     1      -7.435   1.208  -3.001  1.00  0.00     0.005 A 
ATOM      5  C   UNL     1      -7.732   2.498  -0.896  1.00  0.00     0.161 A 
ATOM      6  C   UNL     1      -7.199   1.348  -1.602  1.00  0.00     0.050 A 
ENDROOT
BRANCH   1   7
ATOM      7  C   UNL     1      -9.948   4.006  -3.611  1.00  0.00     0.339 C 
ATOM      8  O   UNL     1     -11.051   4.188  -2.425  1.00  0.00    -0.246 OA
BRANCH   7   9
ATOM      9  O   UNL     1     -10.210   4.511  -4.497  1.00  0.00    -0.478 OA
ATOM     10  H   UNL     1     -10.457   4.985  -5.330  1.00  0.00     0.297 HD
ENDBRANCH   7   9
ENDBRANCH   1   7
BRANCH   2  11
ATOM     11  O   UNL     1      -8.313   4.841  -1.251  1.00  0.00    -0.504 OA
ATOM     12  H   UNL     1      -8.338   5.763  -0.890  1.00  0.00     0.293 HD
ENDBRANCH   2  11
BRANCH   5  13
ATOM     13  O   UNL     1      -7.469   2.882   0.413  1.00  0.00    -0.493 OA
ATOM     14  C   UNL     1      -6.787   3.185   1.468  1.00  0.00     0.278 C 
ENDBRANCH   5  13
TORSDOF 4
ENDMDL
MODEL 9
REMARK VINA RESULT:    -3.659      2.397      3.528
REMARK INTER + INTRA:          -4.570
REMARK INTER:                  -4.196
REMARK INTRA:                  -0.374
REMARK UNBOUND:                -0.269
REMARK SMILES COc1cccc(C(=O)O)c1O
REMARK SMILES IDX 7 1 11 2 6 3 5 4 3 5 4 6 8 7 9 8 10 9 12 11 2 13 1 14
REMARK H PARENT 10 10 12 12
ROOT
ATOM      1  C   UNL     1      -9.951   2.510   0.412  1.00  0.00     0.105 A 
ATOM      2  C   UNL     1     -10.162   2.773  -0.914  1.00  0.00     0.172 A 
ATOM      3  C   UNL     1      -8.556   2.467   0.887  1.00  0.00     0.020 A 
ATOM      4  C   UNL     1      -7.605   3.039   0.104  1.00  0.00     0.005 A 
ATOM      5  C   UNL     1      -9.241   3.596  -1.685  1.00  0.00     0.161 A 
ATOM      6  C   UNL     1      -7.883   3.609  -1.173  1.00  0.00     0.050 A 
ENDROOT
BRANCH   1   7
ATOM      7  C   UNL     1     -11.125   2.367   1.396  1.00  0.00     0.339 C 
ATOM      8  O   UNL     1     -12.461   2.920   0.645  1.00  0.00    -0.246 OA
BRANCH   7   9
ATOM      9  O   UNL     1     -11.329   1.943   2.338  1.00  0.00    -0.478 OA
ATOM     10  H   UNL     1     -11.522   1.545   3.224  1.00  0.00     0.297 HD
ENDBRANCH   7   9
ENDBRANCH   1   7
BRANCH   2  11
ATOM     11  O   UNL     1     -11.292   2.278  -1.587  1.00  0.00    -0.504 OA
ATOM     12  H   UNL     1     -12.088   1.930  -2.062  1.00  0.00     0.293 HD
ENDBRANCH   2  11
BRANCH   5  13
ATOM     13  O   UNL     1      -9.667   3.951  -2.958  1.00  0.00    -0.493 OA
ATOM     14  C   UNL     1     -10.448   4.381  -3.894  1.00  0.00     0.278 C 
ENDBRANCH   5  13
TORSDOF 4
ENDMDL
