MODEL 1
REMARK VINA RESULT:    -5.036      0.000      0.000
REMARK INTER + INTRA:          -6.401
REMARK INTER:                  -5.919
REMARK INTRA:                  -0.482
REMARK UNBOUND:                -0.482
REMARK SMILES COc1cccc(C(=O)O)c1O
REMARK SMILES IDX 7 1 11 2 6 3 5 4 3 5 4 6 8 7 9 8 10 9 12 11 2 13 1 14
REMARK H PARENT 10 10 12 12
ROOT
ATOM      1  C   UNL     1       7.104  -1.517  -0.849  1.00  0.00     0.105 A 
ATOM      2  C   UNL     1       6.447  -2.686  -1.117  1.00  0.00     0.172 A 
ATOM      3  C   UNL     1       8.109  -1.058  -1.825  1.00  0.00     0.020 A 
ATOM      4  C   UNL     1       8.068  -1.594  -3.072  1.00  0.00     0.005 A 
ATOM      5  C   UNL     1       6.202  -3.128  -2.482  1.00  0.00     0.161 A 
ATOM      6  C   UNL     1       7.151  -2.617  -3.454  1.00  0.00     0.050 A 
ENDROOT
BRANCH   1   7
ATOM      7  C   UNL     1       6.738  -0.654   0.372  1.00  0.00     0.339 C 
ATOM      8  O   UNL     1       5.320  -1.208   0.951  1.00  0.00    -0.246 OA
BRANCH   7   9
ATOM      9  O   UNL     1       7.165   0.094   0.977  1.00  0.00    -0.478 OA
ATOM     10  H   UNL     1       7.567   0.797   1.547  1.00  0.00     0.297 HD
ENDBRANCH   7   9
ENDBRANCH   1   7
BRANCH   2  11
ATOM     11  O   UNL     1       5.958  -3.504  -0.084  1.00  0.00    -0.504 OA
ATOM     12  H   UNL     1       5.614  -4.080   0.644  1.00  0.00     0.293 HD
ENDBRANCH   2  11
BRANCH   5  13
ATOM     13  O   UNL     1       5.357  -4.222  -2.622  1.00  0.00    -0.493 OA
ATOM     14  C   UNL     1       4.683  -5.160  -3.201  1.00  0.00     0.278 C 
ENDBRANCH   5  13
TORSDOF 4
ENDMDL
MODEL 2
REMARK VINA RESULT:    -4.986      1.797      4.665
REMARK INTER + INTRA:          -6.343
REMARK INTER:                  -5.860
REMARK INTRA:                  -0.484
REMARK UNBOUND:                -0.482
REMARK SMILES COc1cccc(C(=O)O)c1O
REMARK SMILES IDX 7 1 11 2 6 3 5 4 3 5 4 6 8 7 9 8 10 9 12 11 2 13 1 14
REMARK H PARENT 10 10 12 12
ROOT
ATOM      1  C   UNL     1       5.917  -4.578  -2.400  1.00  0.00     0.105 A 
ATOM      2  C   UNL     1       6.200  -3.284  -2.058  1.00  0.00     0.172 A 
ATOM      3  C   UNL     1       6.776  -5.637  -1.840  1.00  0.00     0.020 A 
ATOM      4  C   UNL     1       7.538  -5.326  -0.760  1.00  0.00     0.005 A 
ATOM      5  C   UNL     1       6.808  -2.949  -0.778  1.00  0.00     0.161 A 
ATOM      6  C   UNL     1       7.595  -4.019  -0.193  1.00  0.00     0.050 A 
ENDROOT
BRANCH   1   7
ATOM      7  C   UNL     1       4.686  -4.929  -3.253  1.00  0.00     0.339 C 
ATOM      8  O   UNL     1       3.731  -3.609  -3.296  1.00  0.00    -0.246 OA
BRANCH   7   9
ATOM      9  O   UNL     1       4.340  -5.706  -3.874  1.00  0.00    -0.478 OA
ATOM     10  H   UNL     1       4.014  -6.437  -4.457  1.00  0.00     0.297 HD
ENDBRANCH   7   9
ENDBRANCH   1   7
BRANCH   2  11
ATOM     11  O   UNL     1       5.897  -2.216  -2.919  1.00  0.00    -0.504 OA
ATOM     12  H   UNL     1       5.683  -1.464  -3.526  1.00  0.00     0.293 HD
ENDBRANCH   2  11
BRANCH   5  13
ATOM     13  O   UNL     1       6.862  -1.596  -0.469  1.00  0.00    -0.493 OA
ATOM     14  C   UNL     1       6.756  -0.511   0.225  1.00  0.00     0.278 C 
ENDBRANCH   5  13
TORSDOF 4
ENDMDL
MODEL 3
REMARK VINA RESULT:    -4.657      2.166      3.175
REMARK INTER + INTRA:          -5.956
REMARK INTER:                  -5.690
REMARK INTRA:                  -0.266
REMARK UNBOUND:                -0.482
REMARK SMILES COc1cccc(C(=O)O)c1O
REMARK SMILES IDX 7 1 11 2 6 3 5 4 3 5 4 6 8 7 9 8 10 9 12 11 2 13 1 14
REMARK H PARENT 10 10 12 12
ROOT
ATOM      1  C   UNL     1       6.858  -1.816  -0.842  1.00  0.00     0.105 A 
ATOM      2  C   UNL     1       8.029  -1.896  -1.543  1.00  0.00     0.172 A 
ATOM      3  C   UNL     1       5.865  -2.888  -1.045  1.00  0.00     0.020 A 
ATOM      4  C   UNL     1       6.295  -4.048  -1.604  1.00  0.00     0.005 A 
ATOM      5  C   UNL     1       8.601  -3.177  -1.932  1.00  0.00     0.161 A 
ATOM      6  C   UNL     1       7.631  -4.248  -2.061  1.00  0.00     0.050 A 
ENDROOT
BRANCH   1   7
ATOM      7  C   UNL     1       6.622  -0.709   0.201  1.00  0.00     0.339 C 
ATOM      8  O   UNL     1       5.315  -1.133   1.075  1.00  0.00    -0.246 OA
BRANCH   7   9
ATOM      9  O   UNL     1       7.097   0.157   0.566  1.00  0.00    -0.478 OA
ATOM     10  H   UNL     1       7.543   0.971   0.909  1.00  0.00     0.297 HD
ENDBRANCH   7   9
ENDBRANCH   1   7
BRANCH   2  11
ATOM     11  O   UNL     1       8.746  -0.742  -1.903  1.00  0.00    -0.504 OA
ATOM     12  H   UNL     1       9.252   0.071  -2.156  1.00  0.00     0.293 HD
ENDBRANCH   2  11
BRANCH   5  13
ATOM     13  O   UNL     1       9.884  -3.131  -2.462  1.00  0.00    -0.493 OA
ATOM     14  C   UNL     1      11.157  -3.333  -2.563  1.00  0.00     0.278 C 
ENDBRANCH   5  13
TORSDOF 4
ENDMDL
MODEL 4
REMARK VINA RESULT:    -4.624      2.918      4.433
REMARK INTER + INTRA:          -5.918
REMARK INTER:                  -5.649
REMARK INTRA:                  -0.268
REMARK UNBOUND:                -0.482
REMARK SMILES COc1cccc(C(=O)O)c1O
REMARK SMILES IDX 7 1 11 2 6 3 5 4 3 5 4 6 8 7 9 8 10 9 12 11 2 13 1 14
REMARK H PARENT 10 10 12 12
ROOT
ATOM      1  C   UNL     1       5.644  -4.253  -2.185  1.00  0.00     0.105 A 
ATOM      2  C   UNL     1       6.893  -4.793  -2.046  1.00  0.00     0.172 A 
ATOM      3  C   UNL     1       5.358  -2.999  -1.464  1.00  0.00     0.020 A 
ATOM      4  C   UNL     1       6.414  -2.271  -1.020  1.00  0.00     0.005 A 
ATOM      5  C   UNL     1       8.062  -3.961  -1.803  1.00  0.00     0.161 A 
ATOM      6  C   UNL     1       7.769  -2.695  -1.158  1.00  0.00     0.050 A 
ENDROOT
BRANCH   1   7
ATOM      7  C   UNL     1       4.607  -4.869  -3.140  1.00  0.00     0.339 C 
ATOM      8  O   UNL     1       3.498  -3.721  -3.461  1.00  0.00    -0.246 OA
BRANCH   7   9
ATOM      9  O   UNL     1       4.464  -5.748  -3.703  1.00  0.00    -0.478 OA
ATOM     10  H   UNL     1       4.329  -6.574  -4.232  1.00  0.00     0.297 HD
ENDBRANCH   7   9
ENDBRANCH   1   7
BRANCH   2  11
ATOM     11  O   UNL     1       7.107  -6.178  -2.153  1.00  0.00    -0.504 OA
ATOM     12  H   UNL     1       7.258  -7.154  -2.229  1.00  0.00     0.293 HD
ENDBRANCH   2  11
BRANCH   5  13
ATOM     13  O   UNL     1       9.291  -4.605  -1.879  1.00  0.00    -0.493 OA
ATOM     14  C   UNL     1      10.433  -4.973  -2.357  1.00  0.00     0.278 C 
ENDBRANCH   5  13
TORSDOF 4
ENDMDL
MODEL 5
REMARK VINA RESULT:    -4.094      2.302      4.661
REMARK INTER + INTRA:          -5.295
REMARK INTER:                  -4.963
REMARK INTRA:                  -0.332
REMARK UNBOUND:                -0.482
REMARK SMILES COc1cccc(C(=O)O)c1O
REMARK SMILES IDX 7 1 11 2 6 3 5 4 3 5 4 6 8 7 9 8 10 9 12 11 2 13 1 14
REMARK H PARENT 10 10 12 12
ROOT
ATOM      1  C   UNL     1       6.700  -5.161  -1.795  1.00  0.00     0.105 A 
ATOM      2  C   UNL     1       6.870  -4.120  -0.924  1.00  0.00     0.172 A 
ATOM      3  C   UNL     1       5.518  -5.128  -2.676  1.00  0.00     0.020 A 
ATOM      4  C   UNL     1       4.886  -3.937  -2.840  1.00  0.00     0.005 A 
ATOM      5  C   UNL     1       6.388  -2.781  -1.229  1.00  0.00     0.161 A 
ATOM      6  C   UNL     1       5.269  -2.748  -2.153  1.00  0.00     0.050 A 
ENDROOT
BRANCH   1   7
ATOM      7  C   UNL     1       7.754  -6.273  -1.930  1.00  0.00     0.339 C 
ATOM      8  O   UNL     1       9.219  -5.561  -1.908  1.00  0.00    -0.246 OA
BRANCH   7   9
ATOM      9  O   UNL     1       7.809  -7.325  -1.931  1.00  0.00    -0.478 OA
ATOM     10  H   UNL     1       7.860  -8.314  -1.933  1.00  0.00     0.297 HD
ENDBRANCH   7   9
ENDBRANCH   1   7
BRANCH   2  11
ATOM     11  O   UNL     1       7.540  -4.293   0.300  1.00  0.00    -0.504 OA
ATOM     12  H   UNL     1       8.012  -4.415   1.162  1.00  0.00     0.293 HD
ENDBRANCH   2  11
BRANCH   5  13
ATOM     13  O   UNL     1       6.795  -1.778  -0.360  1.00  0.00    -0.493 OA
ATOM     14  C   UNL     1       6.823  -0.627   0.227  1.00  0.00     0.278 C 
ENDBRANCH   5  13
TORSDOF 4
ENDMDL
MODEL 6
REMARK VINA RESULT:    -4.089      2.152      3.091
REMARK INTER + INTRA:          -5.288
REMARK INTER:                  -4.960
REMARK INTRA:                  -0.328
REMARK UNBOUND:                -0.482
REMARK SMILES COc1cccc(C(=O)O)c1O
REMARK SMILES IDX 7 1 11 2 6 3 5 4 3 5 4 6 8 7 9 8 10 9 12 11 2 13 1 14
REMARK H PARENT 10 10 12 12
ROOT
ATOM      1  C   UNL     1       7.766  -1.340  -1.695  1.00  0.00     0.105 A 
ATOM      2  C   UNL     1       6.944  -2.147  -2.433  1.00  0.00     0.172 A 
ATOM      3  C   UNL     1       7.241  -0.809  -0.423  1.00  0.00     0.020 A 
ATOM      4  C   UNL     1       6.156  -1.422   0.116  1.00  0.00     0.005 A 
ATOM      5  C   UNL     1       5.933  -2.985  -1.804  1.00  0.00     0.161 A 
ATOM      6  C   UNL     1       5.469  -2.498  -0.519  1.00  0.00     0.050 A 
ENDROOT
BRANCH   1   7
ATOM      7  C   UNL     1       9.221  -1.078  -2.119  1.00  0.00     0.339 C 
ATOM      8  O   UNL     1       9.844  -2.496  -2.625  1.00  0.00    -0.246 OA
BRANCH   7   9
ATOM      9  O   UNL     1       9.875  -0.266  -2.267  1.00  0.00    -0.478 OA
ATOM     10  H   UNL     1      10.491   0.498  -2.405  1.00  0.00     0.297 HD
ENDBRANCH   7   9
ENDBRANCH   1   7
BRANCH   2  11
ATOM     11  O   UNL     1       7.053  -2.219  -3.832  1.00  0.00    -0.504 OA
ATOM     12  H   UNL     1       7.130  -2.270  -4.818  1.00  0.00     0.293 HD
ENDBRANCH   2  11
BRANCH   5  13
ATOM     13  O   UNL     1       5.302  -3.900  -2.638  1.00  0.00    -0.493 OA
ATOM     14  C   UNL     1       4.995  -5.038  -3.169  1.00  0.00     0.278 C 
ENDBRANCH   5  13
TORSDOF 4
ENDMDL
MODEL 7
REMARK VINA RESULT:    -3.839      2.309      4.419
REMARK INTER + INTRA:          -4.995
REMARK INTER:                  -4.751
REMARK INTRA:                  -0.245
REMARK UNBOUND:                -0.482
REMARK SMILES COc1cccc(C(=O)O)c1O
REMARK SMILES IDX 7 1 11 2 6 3 5 4 3 5 4 6 8 7 9 8 10 9 12 11 2 13 1 14
REMARK H PARENT 10 10 12 12
ROOT
ATOM      1  C   UNL     1       6.202  -3.285  -1.941  1.00  0.00     0.105 A 
ATOM      2  C   UNL     1       7.505  -2.945  -2.184  1.00  0.00     0.172 A 
ATOM      3  C   UNL     1       5.546  -2.681  -0.766  1.00  0.00     0.020 A 
ATOM      4  C   UNL     1       6.119  -1.577  -0.222  1.00  0.00     0.005 A 
ATOM      5  C   UNL     1       8.041  -1.647  -1.799  1.00  0.00     0.161 A 
ATOM      6  C   UNL     1       7.348  -1.023  -0.688  1.00  0.00     0.050 A 
ENDROOT
BRANCH   1   7
ATOM      7  C   UNL     1       5.414  -4.179  -2.913  1.00  0.00     0.339 C 
ATOM      8  O   UNL     1       3.929  -3.529  -3.078  1.00  0.00    -0.246 OA
BRANCH   7   9
ATOM      9  O   UNL     1       5.576  -4.998  -3.554  1.00  0.00    -0.478 OA
ATOM     10  H   UNL     1       5.729  -5.768  -4.158  1.00  0.00     0.297 HD
ENDBRANCH   7   9
ENDBRANCH   1   7
BRANCH   2  11
ATOM     11  O   UNL     1       8.382  -3.829  -2.837  1.00  0.00    -0.504 OA
ATOM     12  H   UNL     1       8.999  -4.451  -3.297  1.00  0.00     0.293 HD
ENDBRANCH   2  11
BRANCH   5  13
ATOM     13  O   UNL     1       9.312  -1.351  -2.275  1.00  0.00    -0.493 OA
ATOM     14  C   UNL     1      10.408  -0.694  -2.461  1.00  0.00     0.278 C 
ENDBRANCH   5  13
TORSDOF 4
ENDMDL
MODEL 8
REMARK VINA RESULT:    -3.352      1.894      2.166
REMARK INTER + INTRA:          -4.422
REMARK INTER:                  -4.146
REMARK INTRA:                  -0.276
REMARK UNBOUND:                -0.482
REMARK SMILES COc1cccc(C(=O)O)c1O
REMARK SMILES IDX 7 1 11 2 6 3 5 4 3 5 4 6 8 7 9 8 10 9 12 11 2 13 1 14
REMARK H PARENT 10 10 12 12
ROOT
ATOM      1  C   UNL     1       6.507  -2.494  -0.338  1.00  0.00     0.105 A 
ATOM      2  C   UNL     1       5.390  -2.634  -1.116  1.00  0.00     0.172 A 
ATOM      3  C   UNL     1       7.372  -3.675  -0.164  1.00  0.00     0.020 A 
ATOM      4  C   UNL     1       7.232  -4.696  -1.048  1.00  0.00     0.005 A 
ATOM      5  C   UNL     1       5.345  -3.579  -2.223  1.00  0.00     0.161 A 
ATOM      6  C   UNL     1       6.250  -4.705  -2.083  1.00  0.00     0.050 A 
ENDROOT
BRANCH   1   7
ATOM      7  C   UNL     1       6.906  -1.129   0.249  1.00  0.00     0.339 C 
ATOM      8  O   UNL     1       6.187   0.020  -0.655  1.00  0.00    -0.246 OA
BRANCH   7   9
ATOM      9  O   UNL     1       7.406  -0.737   1.089  1.00  0.00    -0.478 OA
ATOM     10  H   UNL     1       7.877  -0.368   1.878  1.00  0.00     0.297 HD
ENDBRANCH   7   9
ENDBRANCH   1   7
BRANCH   2  11
ATOM     11  O   UNL     1       4.242  -1.856  -0.895  1.00  0.00    -0.504 OA
ATOM     12  H   UNL     1       3.432  -1.307  -0.740  1.00  0.00     0.293 HD
ENDBRANCH   2  11
BRANCH   5  13
ATOM     13  O   UNL     1       4.236  -3.487  -3.053  1.00  0.00    -0.493 OA
ATOM     14  C   UNL     1       3.067  -3.126  -3.471  1.00  0.00     0.278 C 
ENDBRANCH   5  13
TORSDOF 4
ENDMDL
