MODEL 1
REMARK VINA RESULT:    -3.437      0.000      0.000
REMARK INTER + INTRA:          -4.215
REMARK INTER:                  -4.040
REMARK INTRA:                  -0.175
REMARK UNBOUND:                -0.175
REMARK SMILES COc1cccc(C(=O)O)c1O
REMARK SMILES IDX 7 1 11 2 6 3 5 4 3 5 4 6 8 7 9 8 10 9 12 11 2 13 1 14
REMARK H PARENT 10 10 12 12
ROOT
ATOM      1  C   UNL     1       0.046   4.264   0.101  1.00  0.00     0.105 A 
ATOM      2  C   UNL     1       0.066   2.999  -0.420  1.00  0.00     0.172 A 
ATOM      3  C   UNL     1      -0.635   4.459   1.394  1.00  0.00     0.020 A 
ATOM      4  C   UNL     1      -0.871   3.360   2.156  1.00  0.00     0.005 A 
ATOM      5  C   UNL     1       0.053   1.820   0.434  1.00  0.00     0.161 A 
ATOM      6  C   UNL     1      -0.554   2.035   1.735  1.00  0.00     0.050 A 
ENDROOT
BRANCH   1   7
ATOM      7  C   UNL     1       0.795   5.422  -0.580  1.00  0.00     0.339 C 
ATOM      8  O   UNL     1       2.389   5.111  -0.456  1.00  0.00    -0.246 OA
BRANCH   7   9
ATOM      9  O   UNL     1       0.587   6.272  -1.166  1.00  0.00    -0.478 OA
ATOM     10  H   UNL     1       0.391   7.071  -1.717  1.00  0.00     0.297 HD
ENDBRANCH   7   9
ENDBRANCH   1   7
BRANCH   2  11
ATOM     11  O   UNL     1       0.123   2.780  -1.807  1.00  0.00    -0.504 OA
ATOM     12  H   UNL     1       0.163   2.626  -2.785  1.00  0.00     0.293 HD
ENDBRANCH   2  11
BRANCH   5  13
ATOM     13  O   UNL     1       0.276   0.607  -0.204  1.00  0.00    -0.493 OA
ATOM     14  C   UNL     1       0.923  -0.365  -0.757  1.00  0.00     0.278 C 
ENDBRANCH   5  13
TORSDOF 4
ENDMDL
MODEL 2
REMARK VINA RESULT:    -3.346      5.117      8.604
REMARK INTER + INTRA:          -4.108
REMARK INTER:                  -3.848
REMARK INTRA:                  -0.260
REMARK UNBOUND:                -0.175
REMARK SMILES COc1cccc(C(=O)O)c1O
REMARK SMILES IDX 7 1 11 2 6 3 5 4 3 5 4 6 8 7 9 8 10 9 12 11 2 13 1 14
REMARK H PARENT 10 10 12 12
ROOT
ATOM      1  C   UNL     1       2.513  -4.896  -2.119  1.00  0.00     0.105 A 
ATOM      2  C   UNL     1       2.124  -3.692  -1.600  1.00  0.00     0.172 A 
ATOM      3  C   UNL     1       1.465  -5.902  -2.373  1.00  0.00     0.020 A 
ATOM      4  C   UNL     1       0.179  -5.471  -2.432  1.00  0.00     0.005 A 
ATOM      5  C   UNL     1       0.809  -3.131  -1.874  1.00  0.00     0.161 A 
ATOM      6  C   UNL     1      -0.205  -4.119  -2.194  1.00  0.00     0.050 A 
ENDROOT
BRANCH   1   7
ATOM      7  C   UNL     1       3.974  -5.158  -2.525  1.00  0.00     0.339 C 
ATOM      8  O   UNL     1       4.581  -3.757  -3.093  1.00  0.00    -0.246 OA
BRANCH   7   9
ATOM      9  O   UNL     1       4.697  -5.920  -2.453  1.00  0.00    -0.478 OA
ATOM     10  H   UNL     1       5.377  -6.637  -2.386  1.00  0.00     0.297 HD
ENDBRANCH   7   9
ENDBRANCH   1   7
BRANCH   2  11
ATOM     11  O   UNL     1       2.987  -2.930  -0.794  1.00  0.00    -0.504 OA
ATOM     12  H   UNL     1       3.595  -2.393  -0.226  1.00  0.00     0.293 HD
ENDBRANCH   2  11
BRANCH   5  13
ATOM     13  O   UNL     1       0.609  -1.822  -1.455  1.00  0.00    -0.493 OA
ATOM     14  C   UNL     1       0.880  -0.590  -1.172  1.00  0.00     0.278 C 
ENDBRANCH   5  13
TORSDOF 4
ENDMDL
MODEL 3
REMARK VINA RESULT:    -3.330      2.181      3.220
REMARK INTER + INTRA:          -4.089
REMARK INTER:                  -3.814
REMARK INTRA:                  -0.275
REMARK UNBOUND:                -0.175
REMARK SMILES COc1cccc(C(=O)O)c1O
REMARK SMILES IDX 7 1 11 2 6 3 5 4 3 5 4 6 8 7 9 8 10 9 12 11 2 13 1 14
REMARK H PARENT 10 10 12 12
ROOT
ATOM      1  C   UNL     1       0.142   3.811   1.347  1.00  0.00     0.105 A 
ATOM      2  C   UNL     1       0.456   2.602   0.790  1.00  0.00     0.172 A 
ATOM      3  C   UNL     1       0.595   5.025   0.644  1.00  0.00     0.020 A 
ATOM      4  C   UNL     1       0.959   4.902  -0.658  1.00  0.00     0.005 A 
ATOM      5  C   UNL     1       0.609   2.440  -0.649  1.00  0.00     0.161 A 
ATOM      6  C   UNL     1       0.986   3.654  -1.348  1.00  0.00     0.050 A 
ENDROOT
BRANCH   1   7
ATOM      7  C   UNL     1      -0.743   3.909   2.602  1.00  0.00     0.339 C 
ATOM      8  O   UNL     1      -1.567   2.509   2.727  1.00  0.00    -0.246 OA
BRANCH   7   9
ATOM      9  O   UNL     1      -0.892   4.548   3.425  1.00  0.00    -0.478 OA
ATOM     10  H   UNL     1      -1.032   5.150   4.199  1.00  0.00     0.297 HD
ENDBRANCH   7   9
ENDBRANCH   1   7
BRANCH   2  11
ATOM     11  O   UNL     1       0.624   1.453   1.582  1.00  0.00    -0.504 OA
ATOM     12  H   UNL     1       0.742   0.644   2.141  1.00  0.00     0.293 HD
ENDBRANCH   2  11
BRANCH   5  13
ATOM     13  O   UNL     1       0.731   1.132  -1.102  1.00  0.00    -0.493 OA
ATOM     14  C   UNL     1       0.865  -0.152  -1.060  1.00  0.00     0.278 C 
ENDBRANCH   5  13
TORSDOF 4
ENDMDL
MODEL 4
REMARK VINA RESULT:    -3.186     17.830     19.588
REMARK INTER + INTRA:          -3.920
REMARK INTER:                  -3.553
REMARK INTRA:                  -0.367
REMARK UNBOUND:                -0.175
REMARK SMILES COc1cccc(C(=O)O)c1O
REMARK SMILES IDX 7 1 11 2 6 3 5 4 3 5 4 6 8 7 9 8 10 9 12 11 2 13 1 14
REMARK H PARENT 10 10 12 12
ROOT
ATOM      1  C   UNL     1       8.762  -8.669  11.642  1.00  0.00     0.105 A 
ATOM      2  C   UNL     1       8.239  -9.295  12.740  1.00  0.00     0.172 A 
ATOM      3  C   UNL     1       9.968  -9.256  11.029  1.00  0.00     0.020 A 
ATOM      4  C   UNL     1      10.270 -10.544  11.340  1.00  0.00     0.005 A 
ATOM      5  C   UNL     1       8.372 -10.732  12.935  1.00  0.00     0.161 A 
ATOM      6  C   UNL     1       9.521 -11.320  12.272  1.00  0.00     0.050 A 
ENDROOT
BRANCH   1   7
ATOM      7  C   UNL     1       8.061  -7.458  11.001  1.00  0.00     0.339 C 
ATOM      8  O   UNL     1       8.154  -6.225  12.061  1.00  0.00    -0.246 OA
BRANCH   7   9
ATOM      9  O   UNL     1       7.643  -7.175  10.077  1.00  0.00    -0.478 OA
ATOM     10  H   UNL     1       7.251  -6.908   9.208  1.00  0.00     0.297 HD
ENDBRANCH   7   9
ENDBRANCH   1   7
BRANCH   2  11
ATOM     11  O   UNL     1       7.530  -8.581  13.721  1.00  0.00    -0.504 OA
ATOM     12  H   UNL     1       7.030  -8.078  14.412  1.00  0.00     0.293 HD
ENDBRANCH   2  11
BRANCH   5  13
ATOM     13  O   UNL     1       7.632 -11.272  13.980  1.00  0.00    -0.493 OA
ATOM     14  C   UNL     1       7.100 -12.165  14.746  1.00  0.00     0.278 C 
ENDBRANCH   5  13
TORSDOF 4
ENDMDL
MODEL 5
REMARK VINA RESULT:    -3.001     17.742     18.120
REMARK INTER + INTRA:          -3.702
REMARK INTER:                  -3.312
REMARK INTRA:                  -0.390
REMARK UNBOUND:                -0.175
REMARK SMILES COc1cccc(C(=O)O)c1O
REMARK SMILES IDX 7 1 11 2 6 3 5 4 3 5 4 6 8 7 9 8 10 9 12 11 2 13 1 14
REMARK H PARENT 10 10 12 12
ROOT
ATOM      1  C   UNL     1      11.372   3.589  14.452  1.00  0.00     0.105 A 
ATOM      2  C   UNL     1      11.351   2.319  13.943  1.00  0.00     0.172 A 
ATOM      3  C   UNL     1      10.276   3.982  15.355  1.00  0.00     0.020 A 
ATOM      4  C   UNL     1       9.534   2.992  15.915  1.00  0.00     0.005 A 
ATOM      5  C   UNL     1      10.752   1.213  14.676  1.00  0.00     0.161 A 
ATOM      6  C   UNL     1       9.722   1.610  15.617  1.00  0.00     0.050 A 
ENDROOT
BRANCH   1   7
ATOM      7  C   UNL     1      12.550   4.540  14.179  1.00  0.00     0.339 C 
ATOM      8  O   UNL     1      12.661   4.729  12.565  1.00  0.00    -0.246 OA
BRANCH   7   9
ATOM      9  O   UNL     1      13.216   5.159  14.712  1.00  0.00    -0.478 OA
ATOM     10  H   UNL     1      13.842   5.741  15.212  1.00  0.00     0.297 HD
ENDBRANCH   7   9
ENDBRANCH   1   7
BRANCH   2  11
ATOM     11  O   UNL     1      11.926   2.021  12.696  1.00  0.00    -0.504 OA
ATOM     12  H   UNL     1      12.332   1.811  11.817  1.00  0.00     0.293 HD
ENDBRANCH   2  11
BRANCH   5  13
ATOM     13  O   UNL     1      10.969  -0.053  14.146  1.00  0.00    -0.493 OA
ATOM     14  C   UNL     1      11.596  -1.137  13.827  1.00  0.00     0.278 C 
ENDBRANCH   5  13
TORSDOF 4
ENDMDL
MODEL 6
REMARK VINA RESULT:    -2.929     19.337     21.106
REMARK INTER + INTRA:          -3.617
REMARK INTER:                  -3.338
REMARK INTRA:                  -0.279
REMARK UNBOUND:                -0.175
REMARK SMILES COc1cccc(C(=O)O)c1O
REMARK SMILES IDX 7 1 11 2 6 3 5 4 3 5 4 6 8 7 9 8 10 9 12 11 2 13 1 14
REMARK H PARENT 10 10 12 12
ROOT
ATOM      1  C   UNL     1      10.815  -9.713  11.670  1.00  0.00     0.105 A 
ATOM      2  C   UNL     1      11.755  -8.982  12.342  1.00  0.00     0.172 A 
ATOM      3  C   UNL     1      10.727 -11.154  11.971  1.00  0.00     0.020 A 
ATOM      4  C   UNL     1      11.300 -11.595  13.120  1.00  0.00     0.005 A 
ATOM      5  C   UNL     1      12.186  -9.342  13.685  1.00  0.00     0.161 A 
ATOM      6  C   UNL     1      12.032 -10.749  14.003  1.00  0.00     0.050 A 
ENDROOT
BRANCH   1   7
ATOM      7  C   UNL     1       9.813  -9.044  10.714  1.00  0.00     0.339 C 
ATOM      8  O   UNL     1       9.248  -7.709  11.457  1.00  0.00    -0.246 OA
BRANCH   7   9
ATOM      9  O   UNL     1       9.473  -9.136   9.722  1.00  0.00    -0.478 OA
ATOM     10  H   UNL     1       9.153  -9.223   8.788  1.00  0.00     0.297 HD
ENDBRANCH   7   9
ENDBRANCH   1   7
BRANCH   2  11
ATOM     11  O   UNL     1      12.333  -7.834  11.772  1.00  0.00    -0.504 OA
ATOM     12  H   UNL     1      12.740  -7.026  11.371  1.00  0.00     0.293 HD
ENDBRANCH   2  11
BRANCH   5  13
ATOM     13  O   UNL     1      12.993  -8.413  14.331  1.00  0.00    -0.493 OA
ATOM     14  C   UNL     1      13.320  -7.413  15.081  1.00  0.00     0.278 C 
ENDBRANCH   5  13
TORSDOF 4
ENDMDL
MODEL 7
REMARK VINA RESULT:    -2.874     19.908     21.591
REMARK INTER + INTRA:          -3.553
REMARK INTER:                  -3.175
REMARK INTRA:                  -0.378
REMARK UNBOUND:                -0.175
REMARK SMILES COc1cccc(C(=O)O)c1O
REMARK SMILES IDX 7 1 11 2 6 3 5 4 3 5 4 6 8 7 9 8 10 9 12 11 2 13 1 14
REMARK H PARENT 10 10 12 12
ROOT
ATOM      1  C   UNL     1       8.272 -10.951  12.752  1.00  0.00     0.105 A 
ATOM      2  C   UNL     1       9.490 -11.434  13.143  1.00  0.00     0.172 A 
ATOM      3  C   UNL     1       8.247  -9.673  12.018  1.00  0.00     0.020 A 
ATOM      4  C   UNL     1       9.407  -9.244  11.458  1.00  0.00     0.005 A 
ATOM      5  C   UNL     1      10.701 -11.154  12.385  1.00  0.00     0.161 A 
ATOM      6  C   UNL     1      10.648  -9.931  11.606  1.00  0.00     0.050 A 
ENDROOT
BRANCH   1   7
ATOM      7  C   UNL     1       6.982 -11.759  12.975  1.00  0.00     0.339 C 
ATOM      8  O   UNL     1       6.755 -11.882  14.584  1.00  0.00    -0.246 OA
BRANCH   7   9
ATOM      9  O   UNL     1       6.182 -12.155  12.416  1.00  0.00    -0.478 OA
ATOM     10  H   UNL     1       5.429 -12.527  11.891  1.00  0.00     0.297 HD
ENDBRANCH   7   9
ENDBRANCH   1   7
BRANCH   2  11
ATOM     11  O   UNL     1       9.625 -12.242  14.285  1.00  0.00    -0.504 OA
ATOM     12  H   UNL     1       9.720 -12.812  15.089  1.00  0.00     0.293 HD
ENDBRANCH   2  11
BRANCH   5  13
ATOM     13  O   UNL     1      11.834 -11.861  12.770  1.00  0.00    -0.493 OA
ATOM     14  C   UNL     1      12.958 -12.114  13.356  1.00  0.00     0.278 C 
ENDBRANCH   5  13
TORSDOF 4
ENDMDL
MODEL 8
REMARK VINA RESULT:    -2.845     15.627     16.397
REMARK INTER + INTRA:          -3.519
REMARK INTER:                  -3.072
REMARK INTRA:                  -0.446
REMARK UNBOUND:                -0.175
REMARK SMILES COc1cccc(C(=O)O)c1O
REMARK SMILES IDX 7 1 11 2 6 3 5 4 3 5 4 6 8 7 9 8 10 9 12 11 2 13 1 14
REMARK H PARENT 10 10 12 12
ROOT
ATOM      1  C   UNL     1       9.796   1.274  12.176  1.00  0.00     0.105 A 
ATOM      2  C   UNL     1      10.804   0.418  12.530  1.00  0.00     0.172 A 
ATOM      3  C   UNL     1       9.149   1.063  10.869  1.00  0.00     0.020 A 
ATOM      4  C   UNL     1       9.316  -0.143  10.268  1.00  0.00     0.005 A 
ATOM      5  C   UNL     1      10.837  -0.959  12.058  1.00  0.00     0.161 A 
ATOM      6  C   UNL     1      10.137  -1.177  10.806  1.00  0.00     0.050 A 
ENDROOT
BRANCH   1   7
ATOM      7  C   UNL     1       9.283   2.350  13.148  1.00  0.00     0.339 C 
ATOM      8  O   UNL     1      10.580   3.167  13.700  1.00  0.00    -0.246 OA
BRANCH   7   9
ATOM      9  O   UNL     1       8.370   2.762  13.472  1.00  0.00    -0.478 OA
ATOM     10  H   UNL     1       7.511   3.150  13.777  1.00  0.00     0.297 HD
ENDBRANCH   7   9
ENDBRANCH   1   7
BRANCH   2  11
ATOM     11  O   UNL     1      11.843   0.825  13.383  1.00  0.00    -0.504 OA
ATOM     12  H   UNL     1      12.576   1.112  13.985  1.00  0.00     0.293 HD
ENDBRANCH   2  11
BRANCH   5  13
ATOM     13  O   UNL     1      11.796  -1.776  12.643  1.00  0.00    -0.493 OA
ATOM     14  C   UNL     1      12.332  -2.595  13.486  1.00  0.00     0.278 C 
ENDBRANCH   5  13
TORSDOF 4
ENDMDL
MODEL 9
REMARK VINA RESULT:    -2.818     19.701     20.764
REMARK INTER + INTRA:          -3.487
REMARK INTER:                  -3.034
REMARK INTRA:                  -0.453
REMARK UNBOUND:                -0.175
REMARK SMILES COc1cccc(C(=O)O)c1O
REMARK SMILES IDX 7 1 11 2 6 3 5 4 3 5 4 6 8 7 9 8 10 9 12 11 2 13 1 14
REMARK H PARENT 10 10 12 12
ROOT
ATOM      1  C   UNL     1       8.845 -10.452  12.551  1.00  0.00     0.105 A 
ATOM      2  C   UNL     1       8.873  -9.138  12.930  1.00  0.00     0.172 A 
ATOM      3  C   UNL     1       9.953 -10.945  11.712  1.00  0.00     0.020 A 
ATOM      4  C   UNL     1      11.090 -10.204  11.670  1.00  0.00     0.005 A 
ATOM      5  C   UNL     1      10.127  -8.421  13.111  1.00  0.00     0.161 A 
ATOM      6  C   UNL     1      11.234  -8.953  12.338  1.00  0.00     0.050 A 
ENDROOT
BRANCH   1   7
ATOM      7  C   UNL     1       7.758 -11.411  13.067  1.00  0.00     0.339 C 
ATOM      8  O   UNL     1       7.258 -10.848  14.511  1.00  0.00    -0.246 OA
BRANCH   7   9
ATOM      9  O   UNL     1       7.195 -12.234  12.729  1.00  0.00    -0.478 OA
ATOM     10  H   UNL     1       6.665 -13.008  12.411  1.00  0.00     0.297 HD
ENDBRANCH   7   9
ENDBRANCH   1   7
BRANCH   2  11
ATOM     11  O   UNL     1       7.689  -8.424  13.183  1.00  0.00    -0.504 OA
ATOM     12  H   UNL     1       6.854  -7.922  13.360  1.00  0.00     0.293 HD
ENDBRANCH   2  11
BRANCH   5  13
ATOM     13  O   UNL     1      10.027  -7.160  13.685  1.00  0.00    -0.493 OA
ATOM     14  C   UNL     1      10.036  -6.245  14.597  1.00  0.00     0.278 C 
ENDBRANCH   5  13
TORSDOF 4
ENDMDL
