MODEL 1
REMARK VINA RESULT:    -4.942      0.000      0.000
REMARK INTER + INTRA:          -6.288
REMARK INTER:                  -5.808
REMARK INTRA:                  -0.479
REMARK UNBOUND:                -0.479
REMARK SMILES COc1cccc(C(=O)O)c1O
REMARK SMILES IDX 7 1 11 2 6 3 5 4 3 5 4 6 8 7 9 8 10 9 12 11 2 13 1 14
REMARK H PARENT 10 10 12 12
ROOT
ATOM      1  C   UNL     1      -6.872   0.849  -2.829  1.00  0.00     0.105 A 
ATOM      2  C   UNL     1      -6.424   0.936  -1.540  1.00  0.00     0.172 A 
ATOM      3  C   UNL     1      -7.696   1.959  -3.343  1.00  0.00     0.020 A 
ATOM      4  C   UNL     1      -7.659   3.137  -2.669  1.00  0.00     0.005 A 
ATOM      5  C   UNL     1      -6.161   2.222  -0.908  1.00  0.00     0.161 A 
ATOM      6  C   UNL     1      -6.921   3.325  -1.463  1.00  0.00     0.050 A 
ENDROOT
BRANCH   1   7
ATOM      7  C   UNL     1      -6.447  -0.309  -3.748  1.00  0.00     0.339 C 
ATOM      8  O   UNL     1      -5.205  -1.075  -3.023  1.00  0.00    -0.246 OA
BRANCH   7   9
ATOM      9  O   UNL     1      -6.773  -0.794  -4.624  1.00  0.00    -0.478 OA
ATOM     10  H   UNL     1      -7.079  -1.249  -5.448  1.00  0.00     0.297 HD
ENDBRANCH   7   9
ENDBRANCH   1   7
BRANCH   2  11
ATOM     11  O   UNL     1      -6.176  -0.214  -0.772  1.00  0.00    -0.504 OA
ATOM     12  H   UNL     1      -6.001  -1.025  -0.232  1.00  0.00     0.293 HD
ENDBRANCH   2  11
BRANCH   5  13
ATOM     13  O   UNL     1      -5.525   2.171   0.326  1.00  0.00    -0.493 OA
ATOM     14  C   UNL     1      -5.126   2.550   1.495  1.00  0.00     0.278 C 
ENDBRANCH   5  13
TORSDOF 4
ENDMDL
MODEL 2
REMARK VINA RESULT:    -4.885      1.772      4.703
REMARK INTER + INTRA:          -6.222
REMARK INTER:                  -5.739
REMARK INTRA:                  -0.482
REMARK UNBOUND:                -0.479
REMARK SMILES COc1cccc(C(=O)O)c1O
REMARK SMILES IDX 7 1 11 2 6 3 5 4 3 5 4 6 8 7 9 8 10 9 12 11 2 13 1 14
REMARK H PARENT 10 10 12 12
ROOT
ATOM      1  C   UNL     1      -6.251   1.972   0.597  1.00  0.00     0.105 A 
ATOM      2  C   UNL     1      -6.219   1.768  -0.755  1.00  0.00     0.172 A 
ATOM      3  C   UNL     1      -7.352   1.351   1.356  1.00  0.00     0.020 A 
ATOM      4  C   UNL     1      -8.036   0.340   0.762  1.00  0.00     0.005 A 
ATOM      5  C   UNL     1      -6.752   0.554  -1.357  1.00  0.00     0.161 A 
ATOM      6  C   UNL     1      -7.786  -0.095  -0.573  1.00  0.00     0.050 A 
ENDROOT
BRANCH   1   7
ATOM      7  C   UNL     1      -5.125   2.733   1.318  1.00  0.00     0.339 C 
ATOM      8  O   UNL     1      -3.836   2.754   0.323  1.00  0.00    -0.246 OA
BRANCH   7   9
ATOM      9  O   UNL     1      -4.980   3.306   2.190  1.00  0.00    -0.478 OA
ATOM     10  H   UNL     1      -4.844   3.844   3.010  1.00  0.00     0.297 HD
ENDBRANCH   7   9
ENDBRANCH   1   7
BRANCH   2  11
ATOM     11  O   UNL     1      -5.649   2.714  -1.625  1.00  0.00    -0.504 OA
ATOM     12  H   UNL     1      -5.248   3.380  -2.237  1.00  0.00     0.293 HD
ENDBRANCH   2  11
BRANCH   5  13
ATOM     13  O   UNL     1      -6.483   0.380  -2.709  1.00  0.00    -0.493 OA
ATOM     14  C   UNL     1      -6.451  -0.186  -3.870  1.00  0.00     0.278 C 
ENDBRANCH   5  13
TORSDOF 4
ENDMDL
MODEL 3
REMARK VINA RESULT:    -4.711      2.199      3.200
REMARK INTER + INTRA:          -6.016
REMARK INTER:                  -5.746
REMARK INTRA:                  -0.271
REMARK UNBOUND:                -0.479
REMARK SMILES COc1cccc(C(=O)O)c1O
REMARK SMILES IDX 7 1 11 2 6 3 5 4 3 5 4 6 8 7 9 8 10 9 12 11 2 13 1 14
REMARK H PARENT 10 10 12 12
ROOT
ATOM      1  C   UNL     1      -6.703   0.832  -2.536  1.00  0.00     0.105 A 
ATOM      2  C   UNL     1      -7.838   1.594  -2.578  1.00  0.00     0.172 A 
ATOM      3  C   UNL     1      -5.931   0.822  -1.280  1.00  0.00     0.020 A 
ATOM      4  C   UNL     1      -6.556   1.251  -0.153  1.00  0.00     0.005 A 
ATOM      5  C   UNL     1      -8.632   1.847  -1.384  1.00  0.00     0.161 A 
ATOM      6  C   UNL     1      -7.885   1.766  -0.143  1.00  0.00     0.050 A 
ENDROOT
BRANCH   1   7
ATOM      7  C   UNL     1      -6.299  -0.068  -3.717  1.00  0.00     0.339 C 
ATOM      8  O   UNL     1      -5.284  -1.203  -3.140  1.00  0.00    -0.246 OA
BRANCH   7   9
ATOM      9  O   UNL     1      -6.554  -0.219  -4.728  1.00  0.00    -0.478 OA
ATOM     10  H   UNL     1      -6.793  -0.362  -5.678  1.00  0.00     0.297 HD
ENDBRANCH   7   9
ENDBRANCH   1   7
BRANCH   2  11
ATOM     11  O   UNL     1      -8.301   2.152  -3.782  1.00  0.00    -0.504 OA
ATOM     12  H   UNL     1      -8.627   2.545  -4.630  1.00  0.00     0.293 HD
ENDBRANCH   2  11
BRANCH   5  13
ATOM     13  O   UNL     1      -9.859   2.464  -1.592  1.00  0.00    -0.493 OA
ATOM     14  C   UNL     1     -11.139   2.639  -1.585  1.00  0.00     0.278 C 
ENDBRANCH   5  13
TORSDOF 4
ENDMDL
MODEL 4
REMARK VINA RESULT:    -4.665      2.956      4.435
REMARK INTER + INTRA:          -5.963
REMARK INTER:                  -5.692
REMARK INTRA:                  -0.271
REMARK UNBOUND:                -0.479
REMARK SMILES COc1cccc(C(=O)O)c1O
REMARK SMILES IDX 7 1 11 2 6 3 5 4 3 5 4 6 8 7 9 8 10 9 12 11 2 13 1 14
REMARK H PARENT 10 10 12 12
ROOT
ATOM      1  C   UNL     1      -6.036   1.891   0.316  1.00  0.00     0.105 A 
ATOM      2  C   UNL     1      -7.363   1.803   0.637  1.00  0.00     0.172 A 
ATOM      3  C   UNL     1      -5.634   1.493  -1.045  1.00  0.00     0.020 A 
ATOM      4  C   UNL     1      -6.603   1.421  -1.994  1.00  0.00     0.005 A 
ATOM      5  C   UNL     1      -8.404   1.968  -0.368  1.00  0.00     0.161 A 
ATOM      6  C   UNL     1      -7.985   1.644  -1.719  1.00  0.00     0.050 A 
ENDROOT
BRANCH   1   7
ATOM      7  C   UNL     1      -5.012   2.482   1.301  1.00  0.00     0.339 C 
ATOM      8  O   UNL     1      -3.687   2.884   0.443  1.00  0.00    -0.246 OA
BRANCH   7   9
ATOM      9  O   UNL     1      -4.956   2.783   2.308  1.00  0.00    -0.478 OA
ATOM     10  H   UNL     1      -4.903   3.066   3.256  1.00  0.00     0.297 HD
ENDBRANCH   7   9
ENDBRANCH   1   7
BRANCH   2  11
ATOM     11  O   UNL     1      -7.783   1.571   1.958  1.00  0.00    -0.504 OA
ATOM     12  H   UNL     1      -8.078   1.408   2.889  1.00  0.00     0.293 HD
ENDBRANCH   2  11
BRANCH   5  13
ATOM     13  O   UNL     1      -9.703   2.054   0.115  1.00  0.00    -0.493 OA
ATOM     14  C   UNL     1     -10.860   2.564   0.385  1.00  0.00     0.278 C 
ENDBRANCH   5  13
TORSDOF 4
ENDMDL
MODEL 5
REMARK VINA RESULT:    -4.460      1.304      1.420
REMARK INTER + INTRA:          -5.722
REMARK INTER:                  -5.322
REMARK INTRA:                  -0.400
REMARK UNBOUND:                -0.479
REMARK SMILES COc1cccc(C(=O)O)c1O
REMARK SMILES IDX 7 1 11 2 6 3 5 4 3 5 4 6 8 7 9 8 10 9 12 11 2 13 1 14
REMARK H PARENT 10 10 12 12
ROOT
ATOM      1  C   UNL     1      -6.956   0.281  -2.261  1.00  0.00     0.105 A 
ATOM      2  C   UNL     1      -6.183   0.837  -1.279  1.00  0.00     0.172 A 
ATOM      3  C   UNL     1      -8.410   0.208  -2.026  1.00  0.00     0.020 A 
ATOM      4  C   UNL     1      -8.934   1.001  -1.056  1.00  0.00     0.005 A 
ATOM      5  C   UNL     1      -6.701   1.870  -0.392  1.00  0.00     0.161 A 
ATOM      6  C   UNL     1      -8.141   1.840  -0.219  1.00  0.00     0.050 A 
ENDROOT
BRANCH   1   7
ATOM      7  C   UNL     1      -6.350  -0.156  -3.605  1.00  0.00     0.339 C 
ATOM      8  O   UNL     1      -5.230  -1.296  -3.287  1.00  0.00    -0.246 OA
BRANCH   7   9
ATOM      9  O   UNL     1      -6.509  -0.013  -4.636  1.00  0.00    -0.478 OA
ATOM     10  H   UNL     1      -6.658   0.122  -5.606  1.00  0.00     0.297 HD
ENDBRANCH   7   9
ENDBRANCH   1   7
BRANCH   2  11
ATOM     11  O   UNL     1      -4.844   0.452  -1.095  1.00  0.00    -0.504 OA
ATOM     12  H   UNL     1      -3.901   0.180  -0.966  1.00  0.00     0.293 HD
ENDBRANCH   2  11
BRANCH   5  13
ATOM     13  O   UNL     1      -5.765   2.490   0.426  1.00  0.00    -0.493 OA
ATOM     14  C   UNL     1      -5.028   2.713   1.464  1.00  0.00     0.278 C 
ENDBRANCH   5  13
TORSDOF 4
ENDMDL
MODEL 6
REMARK VINA RESULT:    -3.949      2.312      4.679
REMARK INTER + INTRA:          -5.121
REMARK INTER:                  -4.918
REMARK INTRA:                  -0.203
REMARK UNBOUND:                -0.479
REMARK SMILES COc1cccc(C(=O)O)c1O
REMARK SMILES IDX 7 1 11 2 6 3 5 4 3 5 4 6 8 7 9 8 10 9 12 11 2 13 1 14
REMARK H PARENT 10 10 12 12
ROOT
ATOM      1  C   UNL     1      -7.146   1.374   0.958  1.00  0.00     0.105 A 
ATOM      2  C   UNL     1      -7.131   0.595  -0.166  1.00  0.00     0.172 A 
ATOM      3  C   UNL     1      -5.943   2.175   1.252  1.00  0.00     0.020 A 
ATOM      4  C   UNL     1      -5.062   2.384   0.240  1.00  0.00     0.005 A 
ATOM      5  C   UNL     1      -6.356   0.966  -1.342  1.00  0.00     0.161 A 
ATOM      6  C   UNL     1      -5.212   1.813  -1.058  1.00  0.00     0.050 A 
ENDROOT
BRANCH   1   7
ATOM      7  C   UNL     1      -8.408   1.496   1.830  1.00  0.00     0.339 C 
ATOM      8  O   UNL     1      -9.603   2.065   0.880  1.00  0.00    -0.246 OA
BRANCH   7   9
ATOM      9  O   UNL     1      -8.739   1.237   2.795  1.00  0.00    -0.478 OA
ATOM     10  H   UNL     1      -9.050   0.994   3.703  1.00  0.00     0.297 HD
ENDBRANCH   7   9
ENDBRANCH   1   7
BRANCH   2  11
ATOM     11  O   UNL     1      -7.882  -0.590  -0.245  1.00  0.00    -0.504 OA
ATOM     12  H   UNL     1      -8.411  -1.425  -0.301  1.00  0.00     0.293 HD
ENDBRANCH   2  11
BRANCH   5  13
ATOM     13  O   UNL     1      -6.579   0.202  -2.480  1.00  0.00    -0.493 OA
ATOM     14  C   UNL     1      -6.529  -0.162  -3.719  1.00  0.00     0.278 C 
ENDBRANCH   5  13
TORSDOF 4
ENDMDL
MODEL 7
REMARK VINA RESULT:    -3.889      2.176      3.100
REMARK INTER + INTRA:          -5.051
REMARK INTER:                  -4.810
REMARK INTRA:                  -0.241
REMARK UNBOUND:                -0.479
REMARK SMILES COc1cccc(C(=O)O)c1O
REMARK SMILES IDX 7 1 11 2 6 3 5 4 3 5 4 6 8 7 9 8 10 9 12 11 2 13 1 14
REMARK H PARENT 10 10 12 12
ROOT
ATOM      1  C   UNL     1      -7.482   1.863  -2.938  1.00  0.00     0.105 A 
ATOM      2  C   UNL     1      -6.859   2.449  -1.870  1.00  0.00     0.172 A 
ATOM      3  C   UNL     1      -6.909   0.608  -3.459  1.00  0.00     0.020 A 
ATOM      4  C   UNL     1      -6.052  -0.075  -2.658  1.00  0.00     0.005 A 
ATOM      5  C   UNL     1      -6.137   1.662  -0.881  1.00  0.00     0.161 A 
ATOM      6  C   UNL     1      -5.635   0.395  -1.378  1.00  0.00     0.050 A 
ENDROOT
BRANCH   1   7
ATOM      7  C   UNL     1      -8.793   2.429  -3.509  1.00  0.00     0.339 C 
ATOM      8  O   UNL     1      -9.795   2.699  -2.253  1.00  0.00    -0.246 OA
BRANCH   7   9
ATOM      9  O   UNL     1      -9.182   2.772  -4.425  1.00  0.00    -0.478 OA
ATOM     10  H   UNL     1      -9.547   3.095  -5.287  1.00  0.00     0.297 HD
ENDBRANCH   7   9
ENDBRANCH   1   7
BRANCH   2  11
ATOM     11  O   UNL     1      -6.906   3.839  -1.669  1.00  0.00    -0.504 OA
ATOM     12  H   UNL     1      -6.939   4.818  -1.528  1.00  0.00     0.293 HD
ENDBRANCH   2  11
BRANCH   5  13
ATOM     13  O   UNL     1      -5.721   2.349   0.253  1.00  0.00    -0.493 OA
ATOM     14  C   UNL     1      -5.183   2.557   1.409  1.00  0.00     0.278 C 
ENDBRANCH   5  13
TORSDOF 4
ENDMDL
MODEL 8
REMARK VINA RESULT:    -3.793      1.345      4.283
REMARK INTER + INTRA:          -4.937
REMARK INTER:                  -4.755
REMARK INTRA:                  -0.182
REMARK UNBOUND:                -0.479
REMARK SMILES COc1cccc(C(=O)O)c1O
REMARK SMILES IDX 7 1 11 2 6 3 5 4 3 5 4 6 8 7 9 8 10 9 12 11 2 13 1 14
REMARK H PARENT 10 10 12 12
ROOT
ATOM      1  C   UNL     1      -5.845   2.501  -0.027  1.00  0.00     0.105 A 
ATOM      2  C   UNL     1      -5.514   1.640  -1.037  1.00  0.00     0.172 A 
ATOM      3  C   UNL     1      -6.676   3.670  -0.370  1.00  0.00     0.020 A 
ATOM      4  C   UNL     1      -7.357   3.637  -1.545  1.00  0.00     0.005 A 
ATOM      5  C   UNL     1      -6.384   1.440  -2.187  1.00  0.00     0.161 A 
ATOM      6  C   UNL     1      -7.252   2.566  -2.480  1.00  0.00     0.050 A 
ENDROOT
BRANCH   1   7
ATOM      7  C   UNL     1      -5.458   2.209   1.433  1.00  0.00     0.339 C 
ATOM      8  O   UNL     1      -6.810   1.737   2.210  1.00  0.00    -0.246 OA
BRANCH   7   9
ATOM      9  O   UNL     1      -4.594   2.132   2.030  1.00  0.00    -0.478 OA
ATOM     10  H   UNL     1      -3.781   2.060   2.591  1.00  0.00     0.297 HD
ENDBRANCH   7   9
ENDBRANCH   1   7
BRANCH   2  11
ATOM     11  O   UNL     1      -4.325   0.892  -0.999  1.00  0.00    -0.504 OA
ATOM     12  H   UNL     1      -3.487   0.364  -0.972  1.00  0.00     0.293 HD
ENDBRANCH   2  11
BRANCH   5  13
ATOM     13  O   UNL     1      -6.033   0.401  -3.038  1.00  0.00    -0.493 OA
ATOM     14  C   UNL     1      -6.173  -0.608  -3.834  1.00  0.00     0.278 C 
ENDBRANCH   5  13
TORSDOF 4
ENDMDL
MODEL 9
REMARK VINA RESULT:    -3.619      2.282      4.453
REMARK INTER + INTRA:          -4.733
REMARK INTER:                  -4.485
REMARK INTRA:                  -0.248
REMARK UNBOUND:                -0.479
REMARK SMILES COc1cccc(C(=O)O)c1O
REMARK SMILES IDX 7 1 11 2 6 3 5 4 3 5 4 6 8 7 9 8 10 9 12 11 2 13 1 14
REMARK H PARENT 10 10 12 12
ROOT
ATOM      1  C   UNL     1      -6.310   1.713  -0.822  1.00  0.00     0.105 A 
ATOM      2  C   UNL     1      -7.426   2.160  -1.474  1.00  0.00     0.172 A 
ATOM      3  C   UNL     1      -5.682   0.473  -1.314  1.00  0.00     0.020 A 
ATOM      4  C   UNL     1      -6.002   0.057  -2.566  1.00  0.00     0.005 A 
ATOM      5  C   UNL     1      -7.637   1.903  -2.891  1.00  0.00     0.161 A 
ATOM      6  C   UNL     1      -6.959   0.721  -3.390  1.00  0.00     0.050 A 
ENDROOT
BRANCH   1   7
ATOM      7  C   UNL     1      -5.668   2.525   0.316  1.00  0.00     0.339 C 
ATOM      8  O   UNL     1      -4.056   2.499   0.084  1.00  0.00    -0.246 OA
BRANCH   7   9
ATOM      9  O   UNL     1      -5.958   3.150   1.112  1.00  0.00    -0.478 OA
ATOM     10  H   UNL     1      -6.231   3.738   1.861  1.00  0.00     0.297 HD
ENDBRANCH   7   9
ENDBRANCH   1   7
BRANCH   2  11
ATOM     11  O   UNL     1      -8.411   2.909  -0.808  1.00  0.00    -0.504 OA
ATOM     12  H   UNL     1      -9.105   3.437  -0.339  1.00  0.00     0.293 HD
ENDBRANCH   2  11
BRANCH   5  13
ATOM     13  O   UNL     1      -8.702   2.575  -3.477  1.00  0.00    -0.493 OA
ATOM     14  C   UNL     1      -9.810   2.756  -4.117  1.00  0.00     0.278 C 
ENDBRANCH   5  13
TORSDOF 4
ENDMDL
