MODEL 1
REMARK VINA RESULT:    -5.019      0.000      0.000
REMARK INTER + INTRA:          -6.337
REMARK INTER:                  -5.899
REMARK INTRA:                  -0.438
REMARK UNBOUND:                -0.438
REMARK SMILES COc1cccc(C(=O)O)c1O
REMARK SMILES IDX 7 1 11 2 6 3 5 4 3 5 4 6 8 7 9 8 10 9 12 11 2 13 1 14
REMARK H PARENT 10 10 12 12
ROOT
ATOM      1  C   UNL     1       1.613   7.924   2.798  1.00  0.00     0.105 A 
ATOM      2  C   UNL     1       2.323   7.701   1.651  1.00  0.00     0.172 A 
ATOM      3  C   UNL     1       1.034   9.266   2.993  1.00  0.00     0.020 A 
ATOM      4  C   UNL     1       0.916  10.067   1.903  1.00  0.00     0.005 A 
ATOM      5  C   UNL     1       2.020   8.409   0.415  1.00  0.00     0.161 A 
ATOM      6  C   UNL     1       1.384   9.699   0.608  1.00  0.00     0.050 A 
ENDROOT
BRANCH   1   7
ATOM      7  C   UNL     1       1.336   6.791   3.801  1.00  0.00     0.339 C 
ATOM      8  O   UNL     1       1.698   5.386   3.061  1.00  0.00    -0.246 OA
BRANCH   7   9
ATOM      9  O   UNL     1       1.086   6.667   4.816  1.00  0.00    -0.478 OA
ATOM     10  H   UNL     1       0.851   6.551   5.771  1.00  0.00     0.297 HD
ENDBRANCH   7   9
ENDBRANCH   1   7
BRANCH   2  11
ATOM     11  O   UNL     1       3.366   6.760   1.607  1.00  0.00    -0.504 OA
ATOM     12  H   UNL     1       4.101   6.097   1.576  1.00  0.00     0.293 HD
ENDBRANCH   2  11
BRANCH   5  13
ATOM     13  O   UNL     1       2.676   7.953  -0.721  1.00  0.00    -0.493 OA
ATOM     14  C   UNL     1       3.627   7.782  -1.579  1.00  0.00     0.278 C 
ENDBRANCH   5  13
TORSDOF 4
ENDMDL
MODEL 2
REMARK VINA RESULT:    -4.989      1.792      4.596
REMARK INTER + INTRA:          -6.302
REMARK INTER:                  -5.853
REMARK INTRA:                  -0.449
REMARK UNBOUND:                -0.438
REMARK SMILES COc1cccc(C(=O)O)c1O
REMARK SMILES IDX 7 1 11 2 6 3 5 4 3 5 4 6 8 7 9 8 10 9 12 11 2 13 1 14
REMARK H PARENT 10 10 12 12
ROOT
ATOM      1  C   UNL     1       3.597   8.169   0.051  1.00  0.00     0.105 A 
ATOM      2  C   UNL     1       2.675   7.791   0.987  1.00  0.00     0.172 A 
ATOM      3  C   UNL     1       4.847   8.785   0.533  1.00  0.00     0.020 A 
ATOM      4  C   UNL     1       5.173   8.611   1.840  1.00  0.00     0.005 A 
ATOM      5  C   UNL     1       3.070   7.376   2.325  1.00  0.00     0.161 A 
ATOM      6  C   UNL     1       4.337   7.927   2.770  1.00  0.00     0.050 A 
ENDROOT
BRANCH   1   7
ATOM      7  C   UNL     1       3.390   7.870  -1.444  1.00  0.00     0.339 C 
ATOM      8  O   UNL     1       2.170   6.797  -1.561  1.00  0.00    -0.246 OA
BRANCH   7   9
ATOM      9  O   UNL     1       3.725   8.214  -2.381  1.00  0.00    -0.478 OA
ATOM     10  H   UNL     1       4.040   8.539  -3.262  1.00  0.00     0.297 HD
ENDBRANCH   7   9
ENDBRANCH   1   7
BRANCH   2  11
ATOM     11  O   UNL     1       1.301   7.766   0.692  1.00  0.00    -0.504 OA
ATOM     12  H   UNL     1       0.333   7.748   0.484  1.00  0.00     0.293 HD
ENDBRANCH   2  11
BRANCH   5  13
ATOM     13  O   UNL     1       2.064   6.830   3.112  1.00  0.00    -0.493 OA
ATOM     14  C   UNL     1       1.061   6.779   3.925  1.00  0.00     0.278 C 
ENDBRANCH   5  13
TORSDOF 4
ENDMDL
MODEL 3
REMARK VINA RESULT:    -4.711      2.231      3.278
REMARK INTER + INTRA:          -5.975
REMARK INTER:                  -5.704
REMARK INTRA:                  -0.271
REMARK UNBOUND:                -0.438
REMARK SMILES COc1cccc(C(=O)O)c1O
REMARK SMILES IDX 7 1 11 2 6 3 5 4 3 5 4 6 8 7 9 8 10 9 12 11 2 13 1 14
REMARK H PARENT 10 10 12 12
ROOT
ATOM      1  C   UNL     1       1.705   7.816   2.593  1.00  0.00     0.105 A 
ATOM      2  C   UNL     1       1.662   9.171   2.773  1.00  0.00     0.172 A 
ATOM      3  C   UNL     1       2.523   7.300   1.480  1.00  0.00     0.020 A 
ATOM      4  C   UNL     1       3.455   8.129   0.944  1.00  0.00     0.005 A 
ATOM      5  C   UNL     1       2.782  10.026   2.406  1.00  0.00     0.161 A 
ATOM      6  C   UNL     1       3.628   9.483   1.359  1.00  0.00     0.050 A 
ENDROOT
BRANCH   1   7
ATOM      7  C   UNL     1       1.012   6.856   3.575  1.00  0.00     0.339 C 
ATOM      8  O   UNL     1       1.683   5.385   3.373  1.00  0.00    -0.246 OA
BRANCH   7   9
ATOM      9  O   UNL     1       0.329   6.889   4.376  1.00  0.00    -0.478 OA
ATOM     10  H   UNL     1      -0.312   6.921   5.130  1.00  0.00     0.297 HD
ENDBRANCH   7   9
ENDBRANCH   1   7
BRANCH   2  11
ATOM     11  O   UNL     1       0.541   9.799   3.343  1.00  0.00    -0.504 OA
ATOM     12  H   UNL     1      -0.248  10.241   3.744  1.00  0.00     0.293 HD
ENDBRANCH   2  11
BRANCH   5  13
ATOM     13  O   UNL     1       2.695  11.349   2.819  1.00  0.00    -0.493 OA
ATOM     14  C   UNL     1       2.988  12.439   3.449  1.00  0.00     0.278 C 
ENDBRANCH   5  13
TORSDOF 4
ENDMDL
MODEL 4
REMARK VINA RESULT:    -4.638      2.735      4.368
REMARK INTER + INTRA:          -5.889
REMARK INTER:                  -5.618
REMARK INTRA:                  -0.271
REMARK UNBOUND:                -0.438
REMARK SMILES COc1cccc(C(=O)O)c1O
REMARK SMILES IDX 7 1 11 2 6 3 5 4 3 5 4 6 8 7 9 8 10 9 12 11 2 13 1 14
REMARK H PARENT 10 10 12 12
ROOT
ATOM      1  C   UNL     1       3.333   7.725   0.184  1.00  0.00     0.105 A 
ATOM      2  C   UNL     1       3.983   8.702   0.886  1.00  0.00     0.172 A 
ATOM      3  C   UNL     1       2.382   6.872   0.920  1.00  0.00     0.020 A 
ATOM      4  C   UNL     1       1.932   7.319   2.121  1.00  0.00     0.005 A 
ATOM      5  C   UNL     1       3.376   9.343   2.044  1.00  0.00     0.161 A 
ATOM      6  C   UNL     1       2.387   8.528   2.725  1.00  0.00     0.050 A 
ENDROOT
BRANCH   1   7
ATOM      7  C   UNL     1       3.505   7.584  -1.338  1.00  0.00     0.339 C 
ATOM      8  O   UNL     1       2.178   6.831  -1.911  1.00  0.00    -0.246 OA
BRANCH   7   9
ATOM      9  O   UNL     1       4.156   7.906  -2.101  1.00  0.00    -0.478 OA
ATOM     10  H   UNL     1       4.768   8.209  -2.818  1.00  0.00     0.297 HD
ENDBRANCH   7   9
ENDBRANCH   1   7
BRANCH   2  11
ATOM     11  O   UNL     1       5.260   9.149   0.507  1.00  0.00    -0.504 OA
ATOM     12  H   UNL     1       6.160   9.463   0.240  1.00  0.00     0.293 HD
ENDBRANCH   2  11
BRANCH   5  13
ATOM     13  O   UNL     1       4.048  10.450   2.546  1.00  0.00    -0.493 OA
ATOM     14  C   UNL     1       4.291  11.685   2.837  1.00  0.00     0.278 C 
ENDBRANCH   5  13
TORSDOF 4
ENDMDL
MODEL 5
REMARK VINA RESULT:    -4.041      2.520      4.619
REMARK INTER + INTRA:          -5.187
REMARK INTER:                  -4.885
REMARK INTRA:                  -0.302
REMARK UNBOUND:                -0.438
REMARK SMILES COc1cccc(C(=O)O)c1O
REMARK SMILES IDX 7 1 11 2 6 3 5 4 3 5 4 6 8 7 9 8 10 9 12 11 2 13 1 14
REMARK H PARENT 10 10 12 12
ROOT
ATOM      1  C   UNL     1       4.533   8.612   0.739  1.00  0.00     0.105 A 
ATOM      2  C   UNL     1       3.864   8.123   1.827  1.00  0.00     0.172 A 
ATOM      3  C   UNL     1       4.093   8.161  -0.594  1.00  0.00     0.020 A 
ATOM      4  C   UNL     1       2.859   7.603  -0.695  1.00  0.00     0.005 A 
ATOM      5  C   UNL     1       2.458   7.750   1.755  1.00  0.00     0.161 A 
ATOM      6  C   UNL     1       2.009   7.375   0.427  1.00  0.00     0.050 A 
ENDROOT
BRANCH   1   7
ATOM      7  C   UNL     1       5.636   9.674   0.889  1.00  0.00     0.339 C 
ATOM      8  O   UNL     1       5.096  10.792   1.943  1.00  0.00    -0.246 OA
BRANCH   7   9
ATOM      9  O   UNL     1       6.636   9.832   0.599  1.00  0.00    -0.478 OA
ATOM     10  H   UNL     1       7.576   9.981   0.326  1.00  0.00     0.297 HD
ENDBRANCH   7   9
ENDBRANCH   1   7
BRANCH   2  11
ATOM     11  O   UNL     1       4.498   7.979   3.073  1.00  0.00    -0.504 OA
ATOM     12  H   UNL     1       4.945   7.878   3.951  1.00  0.00     0.293 HD
ENDBRANCH   2  11
BRANCH   5  13
ATOM     13  O   UNL     1       1.846   7.457   2.967  1.00  0.00    -0.493 OA
ATOM     14  C   UNL     1       1.063   6.876   3.815  1.00  0.00     0.278 C 
ENDBRANCH   5  13
TORSDOF 4
ENDMDL
MODEL 6
REMARK VINA RESULT:    -4.028      2.204      3.132
REMARK INTER + INTRA:          -5.173
REMARK INTER:                  -4.848
REMARK INTRA:                  -0.324
REMARK UNBOUND:                -0.438
REMARK SMILES COc1cccc(C(=O)O)c1O
REMARK SMILES IDX 7 1 11 2 6 3 5 4 3 5 4 6 8 7 9 8 10 9 12 11 2 13 1 14
REMARK H PARENT 10 10 12 12
ROOT
ATOM      1  C   UNL     1       1.249   9.068   2.654  1.00  0.00     0.105 A 
ATOM      2  C   UNL     1       1.783   8.982   1.398  1.00  0.00     0.172 A 
ATOM      3  C   UNL     1       1.058   7.812   3.403  1.00  0.00     0.020 A 
ATOM      4  C   UNL     1       1.739   6.716   2.981  1.00  0.00     0.005 A 
ATOM      5  C   UNL     1       2.709   7.919   1.033  1.00  0.00     0.161 A 
ATOM      6  C   UNL     1       2.566   6.709   1.820  1.00  0.00     0.050 A 
ENDROOT
BRANCH   1   7
ATOM      7  C   UNL     1       0.955  10.429   3.308  1.00  0.00     0.339 C 
ATOM      8  O   UNL     1       2.215  11.409   2.980  1.00  0.00    -0.246 OA
BRANCH   7   9
ATOM      9  O   UNL     1       0.167  10.925   3.800  1.00  0.00    -0.478 OA
ATOM     10  H   UNL     1      -0.574  11.391   4.262  1.00  0.00     0.297 HD
ENDBRANCH   7   9
ENDBRANCH   1   7
BRANCH   2  11
ATOM     11  O   UNL     1       1.479   9.931   0.407  1.00  0.00    -0.504 OA
ATOM     12  H   UNL     1       1.264  10.599  -0.291  1.00  0.00     0.293 HD
ENDBRANCH   2  11
BRANCH   5  13
ATOM     13  O   UNL     1       3.331   8.055  -0.202  1.00  0.00    -0.493 OA
ATOM     14  C   UNL     1       3.636   7.810  -1.433  1.00  0.00     0.278 C 
ENDBRANCH   5  13
TORSDOF 4
ENDMDL
MODEL 7
REMARK VINA RESULT:    -3.889      2.251      4.346
REMARK INTER + INTRA:          -5.009
REMARK INTER:                  -4.570
REMARK INTRA:                  -0.439
REMARK UNBOUND:                -0.438
REMARK SMILES COc1cccc(C(=O)O)c1O
REMARK SMILES IDX 7 1 11 2 6 3 5 4 3 5 4 6 8 7 9 8 10 9 12 11 2 13 1 14
REMARK H PARENT 10 10 12 12
ROOT
ATOM      1  C   UNL     1       2.482   7.688   0.913  1.00  0.00     0.105 A 
ATOM      2  C   UNL     1       2.314   8.883   1.558  1.00  0.00     0.172 A 
ATOM      3  C   UNL     1       2.307   6.455   1.703  1.00  0.00     0.020 A 
ATOM      4  C   UNL     1       1.647   6.552   2.886  1.00  0.00     0.005 A 
ATOM      5  C   UNL     1       1.410   9.019   2.690  1.00  0.00     0.161 A 
ATOM      6  C   UNL     1       1.183   7.788   3.424  1.00  0.00     0.050 A 
ENDROOT
BRANCH   1   7
ATOM      7  C   UNL     1       2.739   7.625  -0.602  1.00  0.00     0.339 C 
ATOM      8  O   UNL     1       4.078   8.501  -0.906  1.00  0.00    -0.246 OA
BRANCH   7   9
ATOM      9  O   UNL     1       2.375   7.122  -1.453  1.00  0.00    -0.478 OA
ATOM     10  H   UNL     1       2.034   6.649  -2.253  1.00  0.00     0.297 HD
ENDBRANCH   7   9
ENDBRANCH   1   7
BRANCH   2  11
ATOM     11  O   UNL     1       2.993  10.041   1.141  1.00  0.00    -0.504 OA
ATOM     12  H   UNL     1       3.472  10.856   0.847  1.00  0.00     0.293 HD
ENDBRANCH   2  11
BRANCH   5  13
ATOM     13  O   UNL     1       1.179  10.318   3.128  1.00  0.00    -0.493 OA
ATOM     14  C   UNL     1       0.691  11.286   3.831  1.00  0.00     0.278 C 
ENDBRANCH   5  13
TORSDOF 4
ENDMDL
MODEL 8
REMARK VINA RESULT:    -3.884      2.170      2.948
REMARK INTER + INTRA:          -5.003
REMARK INTER:                  -4.570
REMARK INTRA:                  -0.432
REMARK UNBOUND:                -0.438
REMARK SMILES COc1cccc(C(=O)O)c1O
REMARK SMILES IDX 7 1 11 2 6 3 5 4 3 5 4 6 8 7 9 8 10 9 12 11 2 13 1 14
REMARK H PARENT 10 10 12 12
ROOT
ATOM      1  C   UNL     1       2.426   7.476   1.631  1.00  0.00     0.105 A 
ATOM      2  C   UNL     1       3.359   8.470   1.740  1.00  0.00     0.172 A 
ATOM      3  C   UNL     1       2.009   7.076   0.274  1.00  0.00     0.020 A 
ATOM      4  C   UNL     1       2.810   7.433  -0.763  1.00  0.00     0.005 A 
ATOM      5  C   UNL     1       4.370   8.685   0.715  1.00  0.00     0.161 A 
ATOM      6  C   UNL     1       3.985   8.225  -0.607  1.00  0.00     0.050 A 
ENDROOT
BRANCH   1   7
ATOM      7  C   UNL     1       1.906   6.727   2.870  1.00  0.00     0.339 C 
ATOM      8  O   UNL     1       1.244   7.834   3.866  1.00  0.00    -0.246 OA
BRANCH   7   9
ATOM      9  O   UNL     1       1.768   5.738   3.205  1.00  0.00    -0.478 OA
ATOM     10  H   UNL     1       1.638   4.809   3.520  1.00  0.00     0.297 HD
ENDBRANCH   7   9
ENDBRANCH   1   7
BRANCH   2  11
ATOM     11  O   UNL     1       3.397   9.318   2.861  1.00  0.00    -0.504 OA
ATOM     12  H   UNL     1       3.424   9.914   3.650  1.00  0.00     0.293 HD
ENDBRANCH   2  11
BRANCH   5  13
ATOM     13  O   UNL     1       5.374   9.590   1.035  1.00  0.00    -0.493 OA
ATOM     14  C   UNL     1       6.430  10.321   0.893  1.00  0.00     0.278 C 
ENDBRANCH   5  13
TORSDOF 4
ENDMDL
MODEL 9
REMARK VINA RESULT:    -3.358      2.082      2.368
REMARK INTER + INTRA:          -4.385
REMARK INTER:                  -4.247
REMARK INTRA:                  -0.138
REMARK UNBOUND:                -0.438
REMARK SMILES COc1cccc(C(=O)O)c1O
REMARK SMILES IDX 7 1 11 2 6 3 5 4 3 5 4 6 8 7 9 8 10 9 12 11 2 13 1 14
REMARK H PARENT 10 10 12 12
ROOT
ATOM      1  C   UNL     1       2.214   7.802   2.548  1.00  0.00     0.105 A 
ATOM      2  C   UNL     1       3.471   8.307   2.354  1.00  0.00     0.172 A 
ATOM      3  C   UNL     1       1.160   8.739   2.975  1.00  0.00     0.020 A 
ATOM      4  C   UNL     1       1.385  10.067   2.798  1.00  0.00     0.005 A 
ATOM      5  C   UNL     1       3.683   9.683   1.928  1.00  0.00     0.161 A 
ATOM      6  C   UNL     1       2.610  10.590   2.288  1.00  0.00     0.050 A 
ENDROOT
BRANCH   1   7
ATOM      7  C   UNL     1       1.885   6.333   2.232  1.00  0.00     0.339 C 
ATOM      8  O   UNL     1       1.470   5.614   3.634  1.00  0.00    -0.246 OA
BRANCH   7   9
ATOM      9  O   UNL     1       1.757   5.706   1.396  1.00  0.00    -0.478 OA
ATOM     10  H   UNL     1       1.637   5.116   0.610  1.00  0.00     0.297 HD
ENDBRANCH   7   9
ENDBRANCH   1   7
BRANCH   2  11
ATOM     11  O   UNL     1       4.615   7.512   2.535  1.00  0.00    -0.504 OA
ATOM     12  H   UNL     1       5.421   6.951   2.663  1.00  0.00     0.293 HD
ENDBRANCH   2  11
BRANCH   5  13
ATOM     13  O   UNL     1       4.986  10.014   1.576  1.00  0.00    -0.493 OA
ATOM     14  C   UNL     1       6.061  10.092   0.864  1.00  0.00     0.278 C 
ENDBRANCH   5  13
TORSDOF 4
ENDMDL
