MODEL 1
REMARK VINA RESULT:    -4.868      0.000      0.000
REMARK INTER + INTRA:          -6.204
REMARK INTER:                  -5.722
REMARK INTRA:                  -0.482
REMARK UNBOUND:                -0.482
REMARK SMILES COc1cccc(C(=O)O)c1O
REMARK SMILES IDX 7 1 11 2 6 3 5 4 3 5 4 6 8 7 9 8 10 9 12 11 2 13 1 14
REMARK H PARENT 10 10 12 12
ROOT
ATOM      1  C   UNL     1      -3.643   2.303   7.636  1.00  0.00     0.105 A 
ATOM      2  C   UNL     1      -2.723   3.247   7.271  1.00  0.00     0.172 A 
ATOM      3  C   UNL     1      -4.941   2.776   8.151  1.00  0.00     0.020 A 
ATOM      4  C   UNL     1      -5.289   4.064   7.898  1.00  0.00     0.005 A 
ATOM      5  C   UNL     1      -3.127   4.553   6.771  1.00  0.00     0.161 A 
ATOM      6  C   UNL     1      -4.436   4.986   7.223  1.00  0.00     0.050 A 
ENDROOT
BRANCH   1   7
ATOM      7  C   UNL     1      -3.380   0.803   7.419  1.00  0.00     0.339 C 
ATOM      8  O   UNL     1      -2.095   0.672   6.425  1.00  0.00    -0.246 OA
BRANCH   7   9
ATOM      9  O   UNL     1      -3.710  -0.127   7.787  1.00  0.00    -0.478 OA
ATOM     10  H   UNL     1      -4.021  -1.001   8.133  1.00  0.00     0.297 HD
ENDBRANCH   7   9
ENDBRANCH   1   7
BRANCH   2  11
ATOM     11  O   UNL     1      -1.343   2.990   7.343  1.00  0.00    -0.504 OA
ATOM     12  H   UNL     1      -0.371   2.809   7.394  1.00  0.00     0.293 HD
ENDBRANCH   2  11
BRANCH   5  13
ATOM     13  O   UNL     1      -2.109   5.343   6.251  1.00  0.00    -0.493 OA
ATOM     14  C   UNL     1      -1.538   6.311   5.613  1.00  0.00     0.278 C 
ENDBRANCH   5  13
TORSDOF 4
ENDMDL
MODEL 2
REMARK VINA RESULT:    -4.832      1.759      4.672
REMARK INTER + INTRA:          -6.162
REMARK INTER:                  -5.688
REMARK INTRA:                  -0.474
REMARK UNBOUND:                -0.482
REMARK SMILES COc1cccc(C(=O)O)c1O
REMARK SMILES IDX 7 1 11 2 6 3 5 4 3 5 4 6 8 7 9 8 10 9 12 11 2 13 1 14
REMARK H PARENT 10 10 12 12
ROOT
ATOM      1  C   UNL     1      -1.999   5.391   6.794  1.00  0.00     0.105 A 
ATOM      2  C   UNL     1      -2.648   4.188   6.765  1.00  0.00     0.172 A 
ATOM      3  C   UNL     1      -1.277   5.750   8.029  1.00  0.00     0.020 A 
ATOM      4  C   UNL     1      -0.988   4.751   8.903  1.00  0.00     0.005 A 
ATOM      5  C   UNL     1      -2.176   3.047   7.536  1.00  0.00     0.161 A 
ATOM      6  C   UNL     1      -1.405   3.401   8.713  1.00  0.00     0.050 A 
ENDROOT
BRANCH   1   7
ATOM      7  C   UNL     1      -1.931   6.294   5.549  1.00  0.00     0.339 C 
ATOM      8  O   UNL     1      -2.293   5.370   4.257  1.00  0.00    -0.246 OA
BRANCH   7   9
ATOM      9  O   UNL     1      -1.822   7.313   5.308  1.00  0.00    -0.478 OA
ATOM     10  H   UNL     1      -1.718   8.271   5.081  1.00  0.00     0.297 HD
ENDBRANCH   7   9
ENDBRANCH   1   7
BRANCH   2  11
ATOM     11  O   UNL     1      -3.791   3.992   5.971  1.00  0.00    -0.504 OA
ATOM     12  H   UNL     1      -4.596   3.854   5.411  1.00  0.00     0.293 HD
ENDBRANCH   2  11
BRANCH   5  13
ATOM     13  O   UNL     1      -2.801   1.835   7.270  1.00  0.00    -0.493 OA
ATOM     14  C   UNL     1      -3.600   0.831   7.418  1.00  0.00     0.278 C 
ENDBRANCH   5  13
TORSDOF 4
ENDMDL
MODEL 3
REMARK VINA RESULT:    -4.690      2.230      3.229
REMARK INTER + INTRA:          -5.994
REMARK INTER:                  -5.724
REMARK INTRA:                  -0.270
REMARK UNBOUND:                -0.482
REMARK SMILES COc1cccc(C(=O)O)c1O
REMARK SMILES IDX 7 1 11 2 6 3 5 4 3 5 4 6 8 7 9 8 10 9 12 11 2 13 1 14
REMARK H PARENT 10 10 12 12
ROOT
ATOM      1  C   UNL     1      -3.373   2.512   7.524  1.00  0.00     0.105 A 
ATOM      2  C   UNL     1      -4.186   3.166   8.409  1.00  0.00     0.172 A 
ATOM      3  C   UNL     1      -2.271   3.279   6.914  1.00  0.00     0.020 A 
ATOM      4  C   UNL     1      -1.900   4.438   7.515  1.00  0.00     0.005 A 
ATOM      5  C   UNL     1      -3.695   4.266   9.227  1.00  0.00     0.161 A 
ATOM      6  C   UNL     1      -2.565   4.974   8.657  1.00  0.00     0.050 A 
ENDROOT
BRANCH   1   7
ATOM      7  C   UNL     1      -3.533   1.006   7.252  1.00  0.00     0.339 C 
ATOM      8  O   UNL     1      -2.165   0.494   6.531  1.00  0.00    -0.246 OA
BRANCH   7   9
ATOM      9  O   UNL     1      -4.199   0.222   7.475  1.00  0.00    -0.478 OA
ATOM     10  H   UNL     1      -4.825  -0.516   7.685  1.00  0.00     0.297 HD
ENDBRANCH   7   9
ENDBRANCH   1   7
BRANCH   2  11
ATOM     11  O   UNL     1      -5.528   2.789   8.585  1.00  0.00    -0.504 OA
ATOM     12  H   UNL     1      -6.474   2.524   8.709  1.00  0.00     0.293 HD
ENDBRANCH   2  11
BRANCH   5  13
ATOM     13  O   UNL     1      -4.557   4.712  10.222  1.00  0.00    -0.493 OA
ATOM     14  C   UNL     1      -4.978   5.027  11.402  1.00  0.00     0.278 C 
ENDBRANCH   5  13
TORSDOF 4
ENDMDL
MODEL 4
REMARK VINA RESULT:    -4.645      2.973      4.397
REMARK INTER + INTRA:          -5.943
REMARK INTER:                  -5.677
REMARK INTRA:                  -0.266
REMARK UNBOUND:                -0.482
REMARK SMILES COc1cccc(C(=O)O)c1O
REMARK SMILES IDX 7 1 11 2 6 3 5 4 3 5 4 6 8 7 9 8 10 9 12 11 2 13 1 14
REMARK H PARENT 10 10 12 12
ROOT
ATOM      1  C   UNL     1      -2.075   5.176   6.682  1.00  0.00     0.105 A 
ATOM      2  C   UNL     1      -1.930   5.529   7.996  1.00  0.00     0.172 A 
ATOM      3  C   UNL     1      -2.759   3.903   6.388  1.00  0.00     0.020 A 
ATOM      4  C   UNL     1      -3.514   3.350   7.372  1.00  0.00     0.005 A 
ATOM      5  C   UNL     1      -2.893   5.118   9.008  1.00  0.00     0.161 A 
ATOM      6  C   UNL     1      -3.617   3.903   8.683  1.00  0.00     0.050 A 
ENDROOT
BRANCH   1   7
ATOM      7  C   UNL     1      -1.637   6.118   5.547  1.00  0.00     0.339 C 
ATOM      8  O   UNL     1      -2.307   5.564   4.169  1.00  0.00    -0.246 OA
BRANCH   7   9
ATOM      9  O   UNL     1      -1.134   7.034   5.420  1.00  0.00    -0.478 OA
ATOM     10  H   UNL     1      -0.661   7.895   5.300  1.00  0.00     0.297 HD
ENDBRANCH   7   9
ENDBRANCH   1   7
BRANCH   2  11
ATOM     11  O   UNL     1      -0.855   6.325   8.425  1.00  0.00    -0.504 OA
ATOM     12  H   UNL     1      -0.097   6.886   8.727  1.00  0.00     0.293 HD
ENDBRANCH   2  11
BRANCH   5  13
ATOM     13  O   UNL     1      -2.743   5.702  10.259  1.00  0.00    -0.493 OA
ATOM     14  C   UNL     1      -3.056   6.336  11.341  1.00  0.00     0.278 C 
ENDBRANCH   5  13
TORSDOF 4
ENDMDL
MODEL 5
REMARK VINA RESULT:    -4.014      2.696      4.230
REMARK INTER + INTRA:          -5.200
REMARK INTER:                  -4.736
REMARK INTRA:                  -0.464
REMARK UNBOUND:                -0.482
REMARK SMILES COc1cccc(C(=O)O)c1O
REMARK SMILES IDX 7 1 11 2 6 3 5 4 3 5 4 6 8 7 9 8 10 9 12 11 2 13 1 14
REMARK H PARENT 10 10 12 12
ROOT
ATOM      1  C   UNL     1      -2.214   4.422   6.434  1.00  0.00     0.105 A 
ATOM      2  C   UNL     1      -2.306   4.787   7.749  1.00  0.00     0.172 A 
ATOM      3  C   UNL     1      -2.430   3.002   6.101  1.00  0.00     0.020 A 
ATOM      4  C   UNL     1      -3.053   2.225   7.025  1.00  0.00     0.005 A 
ATOM      5  C   UNL     1      -3.173   4.078   8.679  1.00  0.00     0.161 A 
ATOM      6  C   UNL     1      -3.442   2.700   8.312  1.00  0.00     0.050 A 
ENDROOT
BRANCH   1   7
ATOM      7  C   UNL     1      -2.000   5.469   5.326  1.00  0.00     0.339 C 
ATOM      8  O   UNL     1      -0.846   6.496   5.844  1.00  0.00    -0.246 OA
BRANCH   7   9
ATOM      9  O   UNL     1      -2.296   5.651   4.332  1.00  0.00    -0.478 OA
ATOM     10  H   UNL     1      -2.575   5.822   3.398  1.00  0.00     0.297 HD
ENDBRANCH   7   9
ENDBRANCH   1   7
BRANCH   2  11
ATOM     11  O   UNL     1      -1.581   5.878   8.258  1.00  0.00    -0.504 OA
ATOM     12  H   UNL     1      -1.071   6.647   8.616  1.00  0.00     0.293 HD
ENDBRANCH   2  11
BRANCH   5  13
ATOM     13  O   UNL     1      -3.328   4.664   9.929  1.00  0.00    -0.493 OA
ATOM     14  C   UNL     1      -3.860   4.946  11.073  1.00  0.00     0.278 C 
ENDBRANCH   5  13
TORSDOF 4
ENDMDL
MODEL 6
REMARK VINA RESULT:    -4.006      2.176      3.106
REMARK INTER + INTRA:          -5.191
REMARK INTER:                  -4.895
REMARK INTRA:                  -0.296
REMARK UNBOUND:                -0.482
REMARK SMILES COc1cccc(C(=O)O)c1O
REMARK SMILES IDX 7 1 11 2 6 3 5 4 3 5 4 6 8 7 9 8 10 9 12 11 2 13 1 14
REMARK H PARENT 10 10 12 12
ROOT
ATOM      1  C   UNL     1      -4.561   2.958   7.980  1.00  0.00     0.105 A 
ATOM      2  C   UNL     1      -4.127   4.041   7.266  1.00  0.00     0.172 A 
ATOM      3  C   UNL     1      -3.928   1.656   7.699  1.00  0.00     0.020 A 
ATOM      4  C   UNL     1      -2.738   1.661   7.046  1.00  0.00     0.005 A 
ATOM      5  C   UNL     1      -2.760   4.132   6.772  1.00  0.00     0.161 A 
ATOM      6  C   UNL     1      -2.115   2.849   6.565  1.00  0.00     0.050 A 
ENDROOT
BRANCH   1   7
ATOM      7  C   UNL     1      -5.595   3.106   9.109  1.00  0.00     0.339 C 
ATOM      8  O   UNL     1      -5.164   4.402   9.997  1.00  0.00    -0.246 OA
BRANCH   7   9
ATOM      9  O   UNL     1      -6.517   2.693   9.406  1.00  0.00    -0.478 OA
ATOM     10  H   UNL     1      -7.384   2.305   9.685  1.00  0.00     0.297 HD
ENDBRANCH   7   9
ENDBRANCH   1   7
BRANCH   2  11
ATOM     11  O   UNL     1      -4.977   5.126   6.994  1.00  0.00    -0.504 OA
ATOM     12  H   UNL     1      -5.576   5.891   6.803  1.00  0.00     0.293 HD
ENDBRANCH   2  11
BRANCH   5  13
ATOM     13  O   UNL     1      -2.390   5.360   6.238  1.00  0.00    -0.493 OA
ATOM     14  C   UNL     1      -1.647   6.263   5.688  1.00  0.00     0.278 C 
ENDBRANCH   5  13
TORSDOF 4
ENDMDL
MODEL 7
REMARK VINA RESULT:    -3.992      2.028      2.950
REMARK INTER + INTRA:          -5.175
REMARK INTER:                  -4.709
REMARK INTRA:                  -0.466
REMARK UNBOUND:                -0.482
REMARK SMILES COc1cccc(C(=O)O)c1O
REMARK SMILES IDX 7 1 11 2 6 3 5 4 3 5 4 6 8 7 9 8 10 9 12 11 2 13 1 14
REMARK H PARENT 10 10 12 12
ROOT
ATOM      1  C   UNL     1      -2.990   2.826   6.926  1.00  0.00     0.105 A 
ATOM      2  C   UNL     1      -3.595   3.473   7.968  1.00  0.00     0.172 A 
ATOM      3  C   UNL     1      -2.355   3.653   5.883  1.00  0.00     0.020 A 
ATOM      4  C   UNL     1      -2.084   4.950   6.184  1.00  0.00     0.005 A 
ATOM      5  C   UNL     1      -3.131   4.773   8.433  1.00  0.00     0.161 A 
ATOM      6  C   UNL     1      -2.444   5.556   7.424  1.00  0.00     0.050 A 
ENDROOT
BRANCH   1   7
ATOM      7  C   UNL     1      -2.879   1.292   6.893  1.00  0.00     0.339 C 
ATOM      8  O   UNL     1      -4.330   0.690   7.324  1.00  0.00    -0.246 OA
BRANCH   7   9
ATOM      9  O   UNL     1      -2.199   0.547   6.590  1.00  0.00    -0.478 OA
ATOM     10  H   UNL     1      -1.559  -0.153   6.305  1.00  0.00     0.297 HD
ENDBRANCH   7   9
ENDBRANCH   1   7
BRANCH   2  11
ATOM     11  O   UNL     1      -4.682   2.902   8.652  1.00  0.00    -0.504 OA
ATOM     12  H   UNL     1      -5.448   2.499   9.134  1.00  0.00     0.293 HD
ENDBRANCH   2  11
BRANCH   5  13
ATOM     13  O   UNL     1      -3.698   5.230   9.616  1.00  0.00    -0.493 OA
ATOM     14  C   UNL     1      -4.043   6.054  10.550  1.00  0.00     0.278 C 
ENDBRANCH   5  13
TORSDOF 4
ENDMDL
MODEL 8
REMARK VINA RESULT:    -3.950      2.273      4.655
REMARK INTER + INTRA:          -5.125
REMARK INTER:                  -4.760
REMARK INTRA:                  -0.365
REMARK UNBOUND:                -0.482
REMARK SMILES COc1cccc(C(=O)O)c1O
REMARK SMILES IDX 7 1 11 2 6 3 5 4 3 5 4 6 8 7 9 8 10 9 12 11 2 13 1 14
REMARK H PARENT 10 10 12 12
ROOT
ATOM      1  C   UNL     1      -1.518   5.454   7.868  1.00  0.00     0.105 A 
ATOM      2  C   UNL     1      -1.910   4.152   8.016  1.00  0.00     0.172 A 
ATOM      3  C   UNL     1      -1.530   6.021   6.507  1.00  0.00     0.020 A 
ATOM      4  C   UNL     1      -2.256   5.372   5.559  1.00  0.00     0.005 A 
ATOM      5  C   UNL     1      -2.881   3.540   7.120  1.00  0.00     0.161 A 
ATOM      6  C   UNL     1      -2.942   4.146   5.803  1.00  0.00     0.050 A 
ENDROOT
BRANCH   1   7
ATOM      7  C   UNL     1      -1.178   6.331   9.085  1.00  0.00     0.339 C 
ATOM      8  O   UNL     1      -2.243   5.963  10.263  1.00  0.00    -0.246 OA
BRANCH   7   9
ATOM      9  O   UNL     1      -0.429   6.999   9.403  1.00  0.00    -0.478 OA
ATOM     10  H   UNL     1       0.275   7.628   9.702  1.00  0.00     0.297 HD
ENDBRANCH   7   9
ENDBRANCH   1   7
BRANCH   2  11
ATOM     11  O   UNL     1      -1.408   3.350   9.055  1.00  0.00    -0.504 OA
ATOM     12  H   UNL     1      -1.054   2.786   9.788  1.00  0.00     0.293 HD
ENDBRANCH   2  11
BRANCH   5  13
ATOM     13  O   UNL     1      -3.341   2.283   7.493  1.00  0.00    -0.493 OA
ATOM     14  C   UNL     1      -3.504   1.002   7.471  1.00  0.00     0.278 C 
ENDBRANCH   5  13
TORSDOF 4
ENDMDL
MODEL 9
REMARK VINA RESULT:    -3.837      7.129      8.321
REMARK INTER + INTRA:          -4.992
REMARK INTER:                  -4.810
REMARK INTRA:                  -0.182
REMARK UNBOUND:                -0.482
REMARK SMILES COc1cccc(C(=O)O)c1O
REMARK SMILES IDX 7 1 11 2 6 3 5 4 3 5 4 6 8 7 9 8 10 9 12 11 2 13 1 14
REMARK H PARENT 10 10 12 12
ROOT
ATOM      1  C   UNL     1       3.113  -0.642   2.803  1.00  0.00     0.105 A 
ATOM      2  C   UNL     1       1.864  -0.442   2.282  1.00  0.00     0.172 A 
ATOM      3  C   UNL     1       4.060   0.488   2.760  1.00  0.00     0.020 A 
ATOM      4  C   UNL     1       3.551   1.731   2.560  1.00  0.00     0.005 A 
ATOM      5  C   UNL     1       1.233   0.870   2.293  1.00  0.00     0.161 A 
ATOM      6  C   UNL     1       2.167   1.980   2.324  1.00  0.00     0.050 A 
ENDROOT
BRANCH   1   7
ATOM      7  C   UNL     1       3.488  -1.959   3.503  1.00  0.00     0.339 C 
ATOM      8  O   UNL     1       3.706  -1.626   5.083  1.00  0.00    -0.246 OA
BRANCH   7   9
ATOM      9  O   UNL     1       3.545  -2.989   3.289  1.00  0.00    -0.478 OA
ATOM     10  H   UNL     1       3.598  -3.957   3.087  1.00  0.00     0.297 HD
ENDBRANCH   7   9
ENDBRANCH   1   7
BRANCH   2  11
ATOM     11  O   UNL     1       1.123  -1.502   1.732  1.00  0.00    -0.504 OA
ATOM     12  H   UNL     1       0.601  -2.248   1.344  1.00  0.00     0.293 HD
ENDBRANCH   2  11
BRANCH   5  13
ATOM     13  O   UNL     1      -0.104   0.902   1.919  1.00  0.00    -0.493 OA
ATOM     14  C   UNL     1      -1.166   1.230   1.260  1.00  0.00     0.278 C 
ENDBRANCH   5  13
TORSDOF 4
ENDMDL
