MODEL 1
REMARK VINA RESULT:    -4.895      0.000      0.000
REMARK INTER + INTRA:          -6.236
REMARK INTER:                  -5.753
REMARK INTRA:                  -0.482
REMARK UNBOUND:                -0.482
REMARK SMILES COc1cccc(C(=O)O)c1O
REMARK SMILES IDX 7 1 11 2 6 3 5 4 3 5 4 6 8 7 9 8 10 9 12 11 2 13 1 14
REMARK H PARENT 10 10 12 12
ROOT
ATOM      1  C   UNL     1       1.287   5.088  -3.953  1.00  0.00     0.105 A 
ATOM      2  C   UNL     1       1.678   5.159  -2.644  1.00  0.00     0.172 A 
ATOM      3  C   UNL     1       2.217   5.606  -4.973  1.00  0.00     0.020 A 
ATOM      4  C   UNL     1       3.516   5.776  -4.615  1.00  0.00     0.005 A 
ATOM      5  C   UNL     1       3.081   5.099  -2.262  1.00  0.00     0.161 A 
ATOM      6  C   UNL     1       4.000   5.543  -3.294  1.00  0.00     0.050 A 
ENDROOT
BRANCH   1   7
ATOM      7  C   UNL     1      -0.026   4.397  -4.360  1.00  0.00     0.339 C 
ATOM      8  O   UNL     1      -0.553   3.554  -3.070  1.00  0.00    -0.246 OA
BRANCH   7   9
ATOM      9  O   UNL     1      -0.708   4.389  -5.162  1.00  0.00    -0.478 OA
ATOM     10  H   UNL     1      -1.350   4.382  -5.916  1.00  0.00     0.297 HD
ENDBRANCH   7   9
ENDBRANCH   1   7
BRANCH   2  11
ATOM     11  O   UNL     1       0.738   5.272  -1.606  1.00  0.00    -0.504 OA
ATOM     12  H   UNL     1       0.076   5.351  -0.874  1.00  0.00     0.293 HD
ENDBRANCH   2  11
BRANCH   5  13
ATOM     13  O   UNL     1       3.334   4.982  -0.901  1.00  0.00    -0.493 OA
ATOM     14  C   UNL     1       3.996   4.790   0.192  1.00  0.00     0.278 C 
ENDBRANCH   5  13
TORSDOF 4
ENDMDL
MODEL 2
REMARK VINA RESULT:    -4.829      1.761      4.670
REMARK INTER + INTRA:          -6.158
REMARK INTER:                  -5.675
REMARK INTRA:                  -0.483
REMARK UNBOUND:                -0.482
REMARK SMILES COc1cccc(C(=O)O)c1O
REMARK SMILES IDX 7 1 11 2 6 3 5 4 3 5 4 6 8 7 9 8 10 9 12 11 2 13 1 14
REMARK H PARENT 10 10 12 12
ROOT
ATOM      1  C   UNL     1       3.127   5.543  -0.893  1.00  0.00     0.105 A 
ATOM      2  C   UNL     1       2.503   5.011  -1.987  1.00  0.00     0.172 A 
ATOM      3  C   UNL     1       2.758   6.914  -0.493  1.00  0.00     0.020 A 
ATOM      4  C   UNL     1       1.596   7.421  -0.980  1.00  0.00     0.005 A 
ATOM      5  C   UNL     1       1.150   5.400  -2.358  1.00  0.00     0.161 A 
ATOM      6  C   UNL     1       0.763   6.722  -1.902  1.00  0.00     0.050 A 
ENDROOT
BRANCH   1   7
ATOM      7  C   UNL     1       4.102   4.709  -0.043  1.00  0.00     0.339 C 
ATOM      8  O   UNL     1       3.921   3.151  -0.484  1.00  0.00    -0.246 OA
BRANCH   7   9
ATOM      9  O   UNL     1       4.889   4.853   0.641  1.00  0.00    -0.478 OA
ATOM     10  H   UNL     1       5.630   4.990   1.284  1.00  0.00     0.297 HD
ENDBRANCH   7   9
ENDBRANCH   1   7
BRANCH   2  11
ATOM     11  O   UNL     1       3.133   4.048  -2.793  1.00  0.00    -0.504 OA
ATOM     12  H   UNL     1       3.578   3.369  -3.360  1.00  0.00     0.293 HD
ENDBRANCH   2  11
BRANCH   5  13
ATOM     13  O   UNL     1       0.558   4.648  -3.365  1.00  0.00    -0.493 OA
ATOM     14  C   UNL     1       0.069   4.356  -4.525  1.00  0.00     0.278 C 
ENDBRANCH   5  13
TORSDOF 4
ENDMDL
MODEL 3
REMARK VINA RESULT:    -4.698      2.246      3.232
REMARK INTER + INTRA:          -6.004
REMARK INTER:                  -5.735
REMARK INTRA:                  -0.269
REMARK UNBOUND:                -0.482
REMARK SMILES COc1cccc(C(=O)O)c1O
REMARK SMILES IDX 7 1 11 2 6 3 5 4 3 5 4 6 8 7 9 8 10 9 12 11 2 13 1 14
REMARK H PARENT 10 10 12 12
ROOT
ATOM      1  C   UNL     1       1.333   5.105  -3.594  1.00  0.00     0.105 A 
ATOM      2  C   UNL     1       2.051   6.082  -4.227  1.00  0.00     0.172 A 
ATOM      3  C   UNL     1       1.554   4.924  -2.148  1.00  0.00     0.020 A 
ATOM      4  C   UNL     1       2.152   5.936  -1.468  1.00  0.00     0.005 A 
ATOM      5  C   UNL     1       2.482   7.286  -3.530  1.00  0.00     0.161 A 
ATOM      6  C   UNL     1       2.631   7.123  -2.096  1.00  0.00     0.050 A 
ENDROOT
BRANCH   1   7
ATOM      7  C   UNL     1       0.256   4.295  -4.336  1.00  0.00     0.339 C 
ATOM      8  O   UNL     1      -0.679   3.581  -3.210  1.00  0.00    -0.246 OA
BRANCH   7   9
ATOM      9  O   UNL     1      -0.100   4.152  -5.317  1.00  0.00    -0.478 OA
ATOM     10  H   UNL     1      -0.436   4.017  -6.239  1.00  0.00     0.297 HD
ENDBRANCH   7   9
ENDBRANCH   1   7
BRANCH   2  11
ATOM     11  O   UNL     1       2.386   5.978  -5.588  1.00  0.00    -0.504 OA
ATOM     12  H   UNL     1       2.622   5.905  -6.547  1.00  0.00     0.293 HD
ENDBRANCH   2  11
BRANCH   5  13
ATOM     13  O   UNL     1       3.027   8.285  -4.328  1.00  0.00    -0.493 OA
ATOM     14  C   UNL     1       3.406   9.464  -4.695  1.00  0.00     0.278 C 
ENDBRANCH   5  13
TORSDOF 4
ENDMDL
MODEL 4
REMARK VINA RESULT:    -4.636      2.931      4.399
REMARK INTER + INTRA:          -5.932
REMARK INTER:                  -5.668
REMARK INTRA:                  -0.264
REMARK UNBOUND:                -0.482
REMARK SMILES COc1cccc(C(=O)O)c1O
REMARK SMILES IDX 7 1 11 2 6 3 5 4 3 5 4 6 8 7 9 8 10 9 12 11 2 13 1 14
REMARK H PARENT 10 10 12 12
ROOT
ATOM      1  C   UNL     1       3.059   5.253  -1.064  1.00  0.00     0.105 A 
ATOM      2  C   UNL     1       2.970   6.611  -1.200  1.00  0.00     0.172 A 
ATOM      3  C   UNL     1       2.335   4.419  -2.041  1.00  0.00     0.020 A 
ATOM      4  C   UNL     1       1.940   5.005  -3.201  1.00  0.00     0.005 A 
ATOM      5  C   UNL     1       2.783   7.238  -2.500  1.00  0.00     0.161 A 
ATOM      6  C   UNL     1       2.133   6.390  -3.482  1.00  0.00     0.050 A 
ENDROOT
BRANCH   1   7
ATOM      7  C   UNL     1       3.966   4.612   0.001  1.00  0.00     0.339 C 
ATOM      8  O   UNL     1       4.116   3.034  -0.372  1.00  0.00    -0.246 OA
BRANCH   7   9
ATOM      9  O   UNL     1       4.573   4.903   0.811  1.00  0.00    -0.478 OA
ATOM     10  H   UNL     1       5.144   5.176   1.572  1.00  0.00     0.297 HD
ENDBRANCH   7   9
ENDBRANCH   1   7
BRANCH   2  11
ATOM     11  O   UNL     1       3.078   7.466  -0.089  1.00  0.00    -0.504 OA
ATOM     12  H   UNL     1       3.154   8.068   0.693  1.00  0.00     0.293 HD
ENDBRANCH   2  11
BRANCH   5  13
ATOM     13  O   UNL     1       2.907   8.621  -2.529  1.00  0.00    -0.493 OA
ATOM     14  C   UNL     1       3.430   9.782  -2.749  1.00  0.00     0.278 C 
ENDBRANCH   5  13
TORSDOF 4
ENDMDL
MODEL 5
REMARK VINA RESULT:    -4.060      2.163      3.096
REMARK INTER + INTRA:          -5.254
REMARK INTER:                  -4.950
REMARK INTRA:                  -0.304
REMARK UNBOUND:                -0.482
REMARK SMILES COc1cccc(C(=O)O)c1O
REMARK SMILES IDX 7 1 11 2 6 3 5 4 3 5 4 6 8 7 9 8 10 9 12 11 2 13 1 14
REMARK H PARENT 10 10 12 12
ROOT
ATOM      1  C   UNL     1       2.189   5.503  -4.518  1.00  0.00     0.105 A 
ATOM      2  C   UNL     1       3.031   5.239  -3.473  1.00  0.00     0.172 A 
ATOM      3  C   UNL     1       0.860   4.863  -4.503  1.00  0.00     0.020 A 
ATOM      4  C   UNL     1       0.412   4.366  -3.322  1.00  0.00     0.005 A 
ATOM      5  C   UNL     1       2.525   4.937  -2.142  1.00  0.00     0.161 A 
ATOM      6  C   UNL     1       1.188   4.374  -2.126  1.00  0.00     0.050 A 
ENDROOT
BRANCH   1   7
ATOM      7  C   UNL     1       2.567   6.512  -5.616  1.00  0.00     0.339 C 
ATOM      8  O   UNL     1       3.210   7.815  -4.880  1.00  0.00    -0.246 OA
BRANCH   7   9
ATOM      9  O   UNL     1       2.622   6.565  -6.666  1.00  0.00    -0.478 OA
ATOM     10  H   UNL     1       2.675   6.615  -7.654  1.00  0.00     0.297 HD
ENDBRANCH   7   9
ENDBRANCH   1   7
BRANCH   2  11
ATOM     11  O   UNL     1       4.427   5.267  -3.634  1.00  0.00    -0.504 OA
ATOM     12  H   UNL     1       5.410   5.288  -3.747  1.00  0.00     0.293 HD
ENDBRANCH   2  11
BRANCH   5  13
ATOM     13  O   UNL     1       3.476   4.884  -1.130  1.00  0.00    -0.493 OA
ATOM     14  C   UNL     1       3.968   4.860   0.064  1.00  0.00     0.278 C 
ENDBRANCH   5  13
TORSDOF 4
ENDMDL
MODEL 6
REMARK VINA RESULT:    -3.991      2.073      2.942
REMARK INTER + INTRA:          -5.174
REMARK INTER:                  -4.711
REMARK INTRA:                  -0.463
REMARK UNBOUND:                -0.482
REMARK SMILES COc1cccc(C(=O)O)c1O
REMARK SMILES IDX 7 1 11 2 6 3 5 4 3 5 4 6 8 7 9 8 10 9 12 11 2 13 1 14
REMARK H PARENT 10 10 12 12
ROOT
ATOM      1  C   UNL     1       1.537   4.719  -2.884  1.00  0.00     0.105 A 
ATOM      2  C   UNL     1       2.051   5.921  -3.287  1.00  0.00     0.172 A 
ATOM      3  C   UNL     1       2.198   4.036  -1.757  1.00  0.00     0.020 A 
ATOM      4  C   UNL     1       3.015   4.775  -0.963  1.00  0.00     0.005 A 
ATOM      5  C   UNL     1       2.723   6.815  -2.355  1.00  0.00     0.161 A 
ATOM      6  C   UNL     1       3.312   6.148  -1.208  1.00  0.00     0.050 A 
ENDROOT
BRANCH   1   7
ATOM      7  C   UNL     1       0.253   4.148  -3.511  1.00  0.00     0.339 C 
ATOM      8  O   UNL     1       0.425   4.224  -5.129  1.00  0.00    -0.246 OA
BRANCH   7   9
ATOM      9  O   UNL     1      -0.626   3.651  -3.214  1.00  0.00    -0.478 OA
ATOM     10  H   UNL     1      -1.454   3.183  -2.936  1.00  0.00     0.297 HD
ENDBRANCH   7   9
ENDBRANCH   1   7
BRANCH   2  11
ATOM     11  O   UNL     1       1.935   6.358  -4.618  1.00  0.00    -0.504 OA
ATOM     12  H   UNL     1       1.853   6.665  -5.555  1.00  0.00     0.293 HD
ENDBRANCH   2  11
BRANCH   5  13
ATOM     13  O   UNL     1       3.022   8.082  -2.839  1.00  0.00    -0.493 OA
ATOM     14  C   UNL     1       3.583   9.244  -2.917  1.00  0.00     0.278 C 
ENDBRANCH   5  13
TORSDOF 4
ENDMDL
MODEL 7
REMARK VINA RESULT:    -3.933      2.269      4.614
REMARK INTER + INTRA:          -5.105
REMARK INTER:                  -4.773
REMARK INTRA:                  -0.331
REMARK UNBOUND:                -0.482
REMARK SMILES COc1cccc(C(=O)O)c1O
REMARK SMILES IDX 7 1 11 2 6 3 5 4 3 5 4 6 8 7 9 8 10 9 12 11 2 13 1 14
REMARK H PARENT 10 10 12 12
ROOT
ATOM      1  C   UNL     1       2.658   6.587  -0.838  1.00  0.00     0.105 A 
ATOM      2  C   UNL     1       1.774   6.205  -1.809  1.00  0.00     0.172 A 
ATOM      3  C   UNL     1       3.463   5.533  -0.193  1.00  0.00     0.020 A 
ATOM      4  C   UNL     1       3.559   4.336  -0.826  1.00  0.00     0.005 A 
ATOM      5  C   UNL     1       2.017   5.038  -2.646  1.00  0.00     0.161 A 
ATOM      6  C   UNL     1       2.868   4.034  -2.037  1.00  0.00     0.050 A 
ENDROOT
BRANCH   1   7
ATOM      7  C   UNL     1       2.885   8.071  -0.501  1.00  0.00     0.339 C 
ATOM      8  O   UNL     1       2.909   8.891  -1.908  1.00  0.00    -0.246 OA
BRANCH   7   9
ATOM      9  O   UNL     1       2.928   8.700   0.342  1.00  0.00    -0.478 OA
ATOM     10  H   UNL     1       2.969   9.292   1.135  1.00  0.00     0.297 HD
ENDBRANCH   7   9
ENDBRANCH   1   7
BRANCH   2  11
ATOM     11  O   UNL     1       0.599   6.935  -2.057  1.00  0.00    -0.504 OA
ATOM     12  H   UNL     1      -0.228   7.449  -2.232  1.00  0.00     0.293 HD
ENDBRANCH   2  11
BRANCH   5  13
ATOM     13  O   UNL     1       1.150   4.872  -3.719  1.00  0.00    -0.493 OA
ATOM     14  C   UNL     1       0.138   4.442  -4.398  1.00  0.00     0.278 C 
ENDBRANCH   5  13
TORSDOF 4
ENDMDL
MODEL 8
REMARK VINA RESULT:    -3.604      7.203      8.597
REMARK INTER + INTRA:          -4.719
REMARK INTER:                  -4.487
REMARK INTRA:                  -0.232
REMARK UNBOUND:                -0.482
REMARK SMILES COc1cccc(C(=O)O)c1O
REMARK SMILES IDX 7 1 11 2 6 3 5 4 3 5 4 6 8 7 9 8 10 9 12 11 2 13 1 14
REMARK H PARENT 10 10 12 12
ROOT
ATOM      1  C   UNL     1      -2.437   1.204   2.430  1.00  0.00     0.105 A 
ATOM      2  C   UNL     1      -1.546   0.616   1.574  1.00  0.00     0.172 A 
ATOM      3  C   UNL     1      -3.847   1.274   2.008  1.00  0.00     0.020 A 
ATOM      4  C   UNL     1      -4.246   0.453   1.002  1.00  0.00     0.005 A 
ATOM      5  C   UNL     1      -1.951  -0.441   0.658  1.00  0.00     0.161 A 
ATOM      6  C   UNL     1      -3.357  -0.412   0.300  1.00  0.00     0.050 A 
ENDROOT
BRANCH   1   7
ATOM      7  C   UNL     1      -2.007   1.679   3.829  1.00  0.00     0.339 C 
ATOM      8  O   UNL     1      -0.809   0.696   4.331  1.00  0.00    -0.246 OA
BRANCH   7   9
ATOM      9  O   UNL     1      -2.184   2.481   4.488  1.00  0.00    -0.478 OA
ATOM     10  H   UNL     1      -2.349   3.235   5.109  1.00  0.00     0.297 HD
ENDBRANCH   7   9
ENDBRANCH   1   7
BRANCH   2  11
ATOM     11  O   UNL     1      -0.193   0.993   1.554  1.00  0.00    -0.504 OA
ATOM     12  H   UNL     1       0.761   1.259   1.540  1.00  0.00     0.293 HD
ENDBRANCH   2  11
BRANCH   5  13
ATOM     13  O   UNL     1      -0.921  -1.088  -0.013  1.00  0.00    -0.493 OA
ATOM     14  C   UNL     1       0.272  -1.333  -0.445  1.00  0.00     0.278 C 
ENDBRANCH   5  13
TORSDOF 4
ENDMDL
MODEL 9
REMARK VINA RESULT:    -3.381      2.155      3.129
REMARK INTER + INTRA:          -4.456
REMARK INTER:                  -3.980
REMARK INTRA:                  -0.476
REMARK UNBOUND:                -0.482
REMARK SMILES COc1cccc(C(=O)O)c1O
REMARK SMILES IDX 7 1 11 2 6 3 5 4 3 5 4 6 8 7 9 8 10 9 12 11 2 13 1 14
REMARK H PARENT 10 10 12 12
ROOT
ATOM      1  C   UNL     1       1.932   5.015  -2.606  1.00  0.00     0.105 A 
ATOM      2  C   UNL     1       2.188   6.278  -2.149  1.00  0.00     0.172 A 
ATOM      3  C   UNL     1       1.706   4.844  -4.053  1.00  0.00     0.020 A 
ATOM      4  C   UNL     1       2.118   5.841  -4.878  1.00  0.00     0.005 A 
ATOM      5  C   UNL     1       2.853   7.271  -2.981  1.00  0.00     0.161 A 
ATOM      6  C   UNL     1       2.689   7.060  -4.407  1.00  0.00     0.050 A 
ENDROOT
BRANCH   1   7
ATOM      7  C   UNL     1       1.981   3.798  -1.666  1.00  0.00     0.339 C 
ATOM      8  O   UNL     1       2.912   4.204  -0.392  1.00  0.00    -0.246 OA
BRANCH   7   9
ATOM      9  O   UNL     1       1.528   2.853  -1.559  1.00  0.00    -0.478 OA
ATOM     10  H   UNL     1       1.102   1.965  -1.457  1.00  0.00     0.297 HD
ENDBRANCH   7   9
ENDBRANCH   1   7
BRANCH   2  11
ATOM     11  O   UNL     1       1.840   6.669  -0.845  1.00  0.00    -0.504 OA
ATOM     12  H   UNL     1       1.594   6.944   0.074  1.00  0.00     0.293 HD
ENDBRANCH   2  11
BRANCH   5  13
ATOM     13  O   UNL     1       3.231   8.443  -2.339  1.00  0.00    -0.493 OA
ATOM     14  C   UNL     1       3.555   9.685  -2.185  1.00  0.00     0.278 C 
ENDBRANCH   5  13
TORSDOF 4
ENDMDL
