MODEL 1
REMARK VINA RESULT:    -4.893      0.000      0.000
REMARK INTER + INTRA:          -6.232
REMARK INTER:                  -5.751
REMARK INTRA:                  -0.482
REMARK UNBOUND:                -0.482
REMARK SMILES COc1cccc(C(=O)O)c1O
REMARK SMILES IDX 7 1 11 2 6 3 5 4 3 5 4 6 8 7 9 8 10 9 12 11 2 13 1 14
REMARK H PARENT 10 10 12 12
ROOT
ATOM      1  C   UNL     1      -5.808   2.578   4.848  1.00  0.00     0.105 A 
ATOM      2  C   UNL     1      -5.337   3.695   4.215  1.00  0.00     0.172 A 
ATOM      3  C   UNL     1      -7.259   2.320   4.791  1.00  0.00     0.020 A 
ATOM      4  C   UNL     1      -7.978   2.969   3.839  1.00  0.00     0.005 A 
ATOM      5  C   UNL     1      -5.997   4.243   3.039  1.00  0.00     0.161 A 
ATOM      6  C   UNL     1      -7.411   3.927   2.948  1.00  0.00     0.050 A 
ENDROOT
BRANCH   1   7
ATOM      7  C   UNL     1      -4.852   1.567   5.505  1.00  0.00     0.339 C 
ATOM      8  O   UNL     1      -3.346   1.918   4.993  1.00  0.00    -0.246 OA
BRANCH   7   9
ATOM      9  O   UNL     1      -4.871   0.809   6.235  1.00  0.00    -0.478 OA
ATOM     10  H   UNL     1      -4.890   0.096   6.923  1.00  0.00     0.297 HD
ENDBRANCH   7   9
ENDBRANCH   1   7
BRANCH   2  11
ATOM     11  O   UNL     1      -4.179   4.355   4.661  1.00  0.00    -0.504 OA
ATOM     12  H   UNL     1      -3.363   4.820   4.976  1.00  0.00     0.293 HD
ENDBRANCH   2  11
BRANCH   5  13
ATOM     13  O   UNL     1      -5.314   5.254   2.376  1.00  0.00    -0.493 OA
ATOM     14  C   UNL     1      -5.093   6.403   1.827  1.00  0.00     0.278 C 
ENDBRANCH   5  13
TORSDOF 4
ENDMDL
MODEL 2
REMARK VINA RESULT:    -4.831      1.769      4.629
REMARK INTER + INTRA:          -6.160
REMARK INTER:                  -5.710
REMARK INTRA:                  -0.451
REMARK UNBOUND:                -0.482
REMARK SMILES COc1cccc(C(=O)O)c1O
REMARK SMILES IDX 7 1 11 2 6 3 5 4 3 5 4 6 8 7 9 8 10 9 12 11 2 13 1 14
REMARK H PARENT 10 10 12 12
ROOT
ATOM      1  C   UNL     1      -5.523   5.633   3.269  1.00  0.00     0.105 A 
ATOM      2  C   UNL     1      -5.404   4.331   3.670  1.00  0.00     0.172 A 
ATOM      3  C   UNL     1      -5.796   6.646   4.304  1.00  0.00     0.020 A 
ATOM      4  C   UNL     1      -5.554   6.308   5.597  1.00  0.00     0.005 A 
ATOM      5  C   UNL     1      -4.911   3.983   4.995  1.00  0.00     0.161 A 
ATOM      6  C   UNL     1      -5.117   5.011   5.997  1.00  0.00     0.050 A 
ENDROOT
BRANCH   1   7
ATOM      7  C   UNL     1      -5.276   6.045   1.807  1.00  0.00     0.339 C 
ATOM      8  O   UNL     1      -4.536   4.797   1.067  1.00  0.00    -0.246 OA
BRANCH   7   9
ATOM      9  O   UNL     1      -5.523   6.826   1.146  1.00  0.00    -0.478 OA
ATOM     10  H   UNL     1      -5.756   7.561   0.523  1.00  0.00     0.297 HD
ENDBRANCH   7   9
ENDBRANCH   1   7
BRANCH   2  11
ATOM     11  O   UNL     1      -5.734   3.268   2.813  1.00  0.00    -0.504 OA
ATOM     12  H   UNL     1      -5.967   2.519   2.208  1.00  0.00     0.293 HD
ENDBRANCH   2  11
BRANCH   5  13
ATOM     13  O   UNL     1      -4.650   2.635   5.209  1.00  0.00    -0.493 OA
ATOM     14  C   UNL     1      -4.868   1.394   5.498  1.00  0.00     0.278 C 
ENDBRANCH   5  13
TORSDOF 4
ENDMDL
MODEL 3
REMARK VINA RESULT:    -4.651      2.289      3.301
REMARK INTER + INTRA:          -5.948
REMARK INTER:                  -5.679
REMARK INTRA:                  -0.269
REMARK UNBOUND:                -0.482
REMARK SMILES COc1cccc(C(=O)O)c1O
REMARK SMILES IDX 7 1 11 2 6 3 5 4 3 5 4 6 8 7 9 8 10 9 12 11 2 13 1 14
REMARK H PARENT 10 10 12 12
ROOT
ATOM      1  C   UNL     1      -5.657   2.826   4.812  1.00  0.00     0.105 A 
ATOM      2  C   UNL     1      -6.986   3.043   5.053  1.00  0.00     0.172 A 
ATOM      3  C   UNL     1      -4.874   3.939   4.245  1.00  0.00     0.020 A 
ATOM      4  C   UNL     1      -5.397   5.189   4.336  1.00  0.00     0.005 A 
ATOM      5  C   UNL     1      -7.495   4.366   5.387  1.00  0.00     0.161 A 
ATOM      6  C   UNL     1      -6.684   5.460   4.888  1.00  0.00     0.050 A 
ENDROOT
BRANCH   1   7
ATOM      7  C   UNL     1      -4.976   1.507   5.215  1.00  0.00     0.339 C 
ATOM      8  O   UNL     1      -3.369   1.773   5.230  1.00  0.00    -0.246 OA
BRANCH   7   9
ATOM      9  O   UNL     1      -5.236   0.548   5.565  1.00  0.00    -0.478 OA
ATOM     10  H   UNL     1      -5.482  -0.352   5.895  1.00  0.00     0.297 HD
ENDBRANCH   7   9
ENDBRANCH   1   7
BRANCH   2  11
ATOM     11  O   UNL     1      -7.918   1.993   5.010  1.00  0.00    -0.504 OA
ATOM     12  H   UNL     1      -8.575   1.253   4.980  1.00  0.00     0.293 HD
ENDBRANCH   2  11
BRANCH   5  13
ATOM     13  O   UNL     1      -8.820   4.417   5.801  1.00  0.00    -0.493 OA
ATOM     14  C   UNL     1      -9.868   4.807   6.448  1.00  0.00     0.278 C 
ENDBRANCH   5  13
TORSDOF 4
ENDMDL
MODEL 4
REMARK VINA RESULT:    -4.617      2.852      4.389
REMARK INTER + INTRA:          -5.908
REMARK INTER:                  -5.639
REMARK INTRA:                  -0.269
REMARK UNBOUND:                -0.482
REMARK SMILES COc1cccc(C(=O)O)c1O
REMARK SMILES IDX 7 1 11 2 6 3 5 4 3 5 4 6 8 7 9 8 10 9 12 11 2 13 1 14
REMARK H PARENT 10 10 12 12
ROOT
ATOM      1  C   UNL     1      -5.338   5.348   3.241  1.00  0.00     0.105 A 
ATOM      2  C   UNL     1      -6.080   5.932   4.230  1.00  0.00     0.172 A 
ATOM      3  C   UNL     1      -4.986   3.925   3.401  1.00  0.00     0.020 A 
ATOM      4  C   UNL     1      -5.699   3.195   4.296  1.00  0.00     0.005 A 
ATOM      5  C   UNL     1      -7.026   5.166   5.030  1.00  0.00     0.161 A 
ATOM      6  C   UNL     1      -6.716   3.752   5.127  1.00  0.00     0.050 A 
ENDROOT
BRANCH   1   7
ATOM      7  C   UNL     1      -4.973   6.112   1.957  1.00  0.00     0.339 C 
ATOM      8  O   UNL     1      -4.641   5.005   0.809  1.00  0.00    -0.246 OA
BRANCH   7   9
ATOM      9  O   UNL     1      -4.971   7.099   1.589  1.00  0.00    -0.478 OA
ATOM     10  H   UNL     1      -4.969   8.027   1.243  1.00  0.00     0.297 HD
ENDBRANCH   7   9
ENDBRANCH   1   7
BRANCH   2  11
ATOM     11  O   UNL     1      -5.979   7.307   4.506  1.00  0.00    -0.504 OA
ATOM     12  H   UNL     1      -5.907   8.275   4.700  1.00  0.00     0.293 HD
ENDBRANCH   2  11
BRANCH   5  13
ATOM     13  O   UNL     1      -7.856   5.908   5.861  1.00  0.00    -0.493 OA
ATOM     14  C   UNL     1      -8.931   6.478   6.297  1.00  0.00     0.278 C 
ENDBRANCH   5  13
TORSDOF 4
ENDMDL
MODEL 5
REMARK VINA RESULT:    -4.079      2.358      4.623
REMARK INTER + INTRA:          -5.276
REMARK INTER:                  -4.972
REMARK INTRA:                  -0.305
REMARK UNBOUND:                -0.482
REMARK SMILES COc1cccc(C(=O)O)c1O
REMARK SMILES IDX 7 1 11 2 6 3 5 4 3 5 4 6 8 7 9 8 10 9 12 11 2 13 1 14
REMARK H PARENT 10 10 12 12
ROOT
ATOM      1  C   UNL     1      -5.601   6.252   4.200  1.00  0.00     0.105 A 
ATOM      2  C   UNL     1      -5.218   5.112   4.851  1.00  0.00     0.172 A 
ATOM      3  C   UNL     1      -5.340   6.332   2.751  1.00  0.00     0.020 A 
ATOM      4  C   UNL     1      -5.085   5.173   2.091  1.00  0.00     0.005 A 
ATOM      5  C   UNL     1      -5.180   3.822   4.176  1.00  0.00     0.161 A 
ATOM      6  C   UNL     1      -4.994   3.907   2.740  1.00  0.00     0.050 A 
ENDROOT
BRANCH   1   7
ATOM      7  C   UNL     1      -6.373   7.367   4.926  1.00  0.00     0.339 C 
ATOM      8  O   UNL     1      -7.518   6.653   5.838  1.00  0.00    -0.246 OA
BRANCH   7   9
ATOM      9  O   UNL     1      -6.317   8.408   5.077  1.00  0.00    -0.478 OA
ATOM     10  H   UNL     1      -6.264   9.386   5.220  1.00  0.00     0.297 HD
ENDBRANCH   7   9
ENDBRANCH   1   7
BRANCH   2  11
ATOM     11  O   UNL     1      -4.863   5.130   6.211  1.00  0.00    -0.504 OA
ATOM     12  H   UNL     1      -4.612   5.144   7.169  1.00  0.00     0.293 HD
ENDBRANCH   2  11
BRANCH   5  13
ATOM     13  O   UNL     1      -4.968   2.718   4.992  1.00  0.00    -0.493 OA
ATOM     14  C   UNL     1      -5.069   1.509   5.438  1.00  0.00     0.278 C 
ENDBRANCH   5  13
TORSDOF 4
ENDMDL
MODEL 6
REMARK VINA RESULT:    -4.064      2.193      3.101
REMARK INTER + INTRA:          -5.258
REMARK INTER:                  -4.938
REMARK INTRA:                  -0.320
REMARK UNBOUND:                -0.482
REMARK SMILES COc1cccc(C(=O)O)c1O
REMARK SMILES IDX 7 1 11 2 6 3 5 4 3 5 4 6 8 7 9 8 10 9 12 11 2 13 1 14
REMARK H PARENT 10 10 12 12
ROOT
ATOM      1  C   UNL     1      -6.982   2.549   4.667  1.00  0.00     0.105 A 
ATOM      2  C   UNL     1      -6.796   3.488   3.690  1.00  0.00     0.172 A 
ATOM      3  C   UNL     1      -5.788   1.853   5.182  1.00  0.00     0.020 A 
ATOM      4  C   UNL     1      -4.576   2.417   4.942  1.00  0.00     0.005 A 
ATOM      5  C   UNL     1      -5.565   4.259   3.594  1.00  0.00     0.161 A 
ATOM      6  C   UNL     1      -4.405   3.601   4.166  1.00  0.00     0.050 A 
ENDROOT
BRANCH   1   7
ATOM      7  C   UNL     1      -8.368   2.301   5.286  1.00  0.00     0.339 C 
ATOM      8  O   UNL     1      -9.056   3.756   5.540  1.00  0.00    -0.246 OA
BRANCH   7   9
ATOM      9  O   UNL     1      -9.017   1.499   5.494  1.00  0.00    -0.478 OA
ATOM     10  H   UNL     1      -9.628   0.744   5.689  1.00  0.00     0.297 HD
ENDBRANCH   7   9
ENDBRANCH   1   7
BRANCH   2  11
ATOM     11  O   UNL     1      -7.798   3.765   2.743  1.00  0.00    -0.504 OA
ATOM     12  H   UNL     1      -8.503   3.961   2.076  1.00  0.00     0.293 HD
ENDBRANCH   2  11
BRANCH   5  13
ATOM     13  O   UNL     1      -5.578   5.311   2.688  1.00  0.00    -0.493 OA
ATOM     14  C   UNL     1      -5.133   6.272   1.947  1.00  0.00     0.278 C 
ENDBRANCH   5  13
TORSDOF 4
ENDMDL
MODEL 7
REMARK VINA RESULT:    -4.062      2.028      2.988
REMARK INTER + INTRA:          -5.256
REMARK INTER:                  -4.793
REMARK INTRA:                  -0.463
REMARK UNBOUND:                -0.482
REMARK SMILES COc1cccc(C(=O)O)c1O
REMARK SMILES IDX 7 1 11 2 6 3 5 4 3 5 4 6 8 7 9 8 10 9 12 11 2 13 1 14
REMARK H PARENT 10 10 12 12
ROOT
ATOM      1  C   UNL     1      -5.222   3.072   4.167  1.00  0.00     0.105 A 
ATOM      2  C   UNL     1      -6.496   3.422   4.521  1.00  0.00     0.172 A 
ATOM      3  C   UNL     1      -4.584   3.828   3.074  1.00  0.00     0.020 A 
ATOM      4  C   UNL     1      -5.123   5.029   2.739  1.00  0.00     0.005 A 
ATOM      5  C   UNL     1      -6.982   4.786   4.373  1.00  0.00     0.161 A 
ATOM      6  C   UNL     1      -6.303   5.552   3.344  1.00  0.00     0.050 A 
ENDROOT
BRANCH   1   7
ATOM      7  C   UNL     1      -4.440   2.000   4.946  1.00  0.00     0.339 C 
ATOM      8  O   UNL     1      -5.455   0.754   5.211  1.00  0.00    -0.246 OA
BRANCH   7   9
ATOM      9  O   UNL     1      -3.455   1.801   5.260  1.00  0.00    -0.478 OA
ATOM     10  H   UNL     1      -2.528   1.615   5.555  1.00  0.00     0.297 HD
ENDBRANCH   7   9
ENDBRANCH   1   7
BRANCH   2  11
ATOM     11  O   UNL     1      -7.388   2.482   5.065  1.00  0.00    -0.504 OA
ATOM     12  H   UNL     1      -8.017   1.821   5.449  1.00  0.00     0.293 HD
ENDBRANCH   2  11
BRANCH   5  13
ATOM     13  O   UNL     1      -8.217   5.055   4.948  1.00  0.00    -0.493 OA
ATOM     14  C   UNL     1      -9.089   5.577   5.747  1.00  0.00     0.278 C 
ENDBRANCH   5  13
TORSDOF 4
ENDMDL
MODEL 8
REMARK VINA RESULT:    -3.917      2.577      4.233
REMARK INTER + INTRA:          -5.086
REMARK INTER:                  -4.629
REMARK INTRA:                  -0.457
REMARK UNBOUND:                -0.482
REMARK SMILES COc1cccc(C(=O)O)c1O
REMARK SMILES IDX 7 1 11 2 6 3 5 4 3 5 4 6 8 7 9 8 10 9 12 11 2 13 1 14
REMARK H PARENT 10 10 12 12
ROOT
ATOM      1  C   UNL     1      -5.273   4.586   3.260  1.00  0.00     0.105 A 
ATOM      2  C   UNL     1      -6.323   4.972   4.047  1.00  0.00     0.172 A 
ATOM      3  C   UNL     1      -4.538   3.369   3.651  1.00  0.00     0.020 A 
ATOM      4  C   UNL     1      -5.143   2.516   4.517  1.00  0.00     0.005 A 
ATOM      5  C   UNL     1      -7.117   4.004   4.790  1.00  0.00     0.161 A 
ATOM      6  C   UNL     1      -6.413   2.777   5.111  1.00  0.00     0.050 A 
ENDROOT
BRANCH   1   7
ATOM      7  C   UNL     1      -4.933   5.329   1.956  1.00  0.00     0.339 C 
ATOM      8  O   UNL     1      -4.782   6.909   2.322  1.00  0.00    -0.246 OA
BRANCH   7   9
ATOM      9  O   UNL     1      -4.682   5.113   0.957  1.00  0.00    -0.478 OA
ATOM     10  H   UNL     1      -4.447   4.909   0.017  1.00  0.00     0.297 HD
ENDBRANCH   7   9
ENDBRANCH   1   7
BRANCH   2  11
ATOM     11  O   UNL     1      -6.696   6.323   4.157  1.00  0.00    -0.504 OA
ATOM     12  H   UNL     1      -6.960   7.274   4.234  1.00  0.00     0.293 HD
ENDBRANCH   2  11
BRANCH   5  13
ATOM     13  O   UNL     1      -8.269   4.498   5.389  1.00  0.00    -0.493 OA
ATOM     14  C   UNL     1      -9.181   4.679   6.286  1.00  0.00     0.278 C 
ENDBRANCH   5  13
TORSDOF 4
ENDMDL
MODEL 9
REMARK VINA RESULT:    -3.751      2.198      2.751
REMARK INTER + INTRA:          -4.890
REMARK INTER:                  -4.670
REMARK INTRA:                  -0.220
REMARK UNBOUND:                -0.482
REMARK SMILES COc1cccc(C(=O)O)c1O
REMARK SMILES IDX 7 1 11 2 6 3 5 4 3 5 4 6 8 7 9 8 10 9 12 11 2 13 1 14
REMARK H PARENT 10 10 12 12
ROOT
ATOM      1  C   UNL     1      -5.464   3.828   4.380  1.00  0.00     0.105 A 
ATOM      2  C   UNL     1      -6.014   4.966   4.903  1.00  0.00     0.172 A 
ATOM      3  C   UNL     1      -5.156   3.818   2.939  1.00  0.00     0.020 A 
ATOM      4  C   UNL     1      -5.084   5.014   2.300  1.00  0.00     0.005 A 
ATOM      5  C   UNL     1      -5.730   6.279   4.342  1.00  0.00     0.161 A 
ATOM      6  C   UNL     1      -5.358   6.259   2.940  1.00  0.00     0.050 A 
ENDROOT
BRANCH   1   7
ATOM      7  C   UNL     1      -5.081   2.638   5.278  1.00  0.00     0.339 C 
ATOM      8  O   UNL     1      -3.587   2.159   4.840  1.00  0.00    -0.246 OA
BRANCH   7   9
ATOM      9  O   UNL     1      -5.445   2.127   6.123  1.00  0.00    -0.478 OA
ATOM     10  H   UNL     1      -5.787   1.647   6.919  1.00  0.00     0.297 HD
ENDBRANCH   7   9
ENDBRANCH   1   7
BRANCH   2  11
ATOM     11  O   UNL     1      -6.862   4.921   6.023  1.00  0.00    -0.504 OA
ATOM     12  H   UNL     1      -7.459   4.889   6.812  1.00  0.00     0.293 HD
ENDBRANCH   2  11
BRANCH   5  13
ATOM     13  O   UNL     1      -6.187   7.364   5.079  1.00  0.00    -0.493 OA
ATOM     14  C   UNL     1      -6.968   8.318   5.465  1.00  0.00     0.278 C 
ENDBRANCH   5  13
TORSDOF 4
ENDMDL
