MODEL 1
REMARK VINA RESULT:    -4.917      0.000      0.000
REMARK INTER + INTRA:          -6.261
REMARK INTER:                  -5.779
REMARK INTRA:                  -0.483
REMARK UNBOUND:                -0.483
REMARK SMILES COc1cccc(C(=O)O)c1O
REMARK SMILES IDX 7 1 11 2 6 3 5 4 3 5 4 6 8 7 9 8 10 9 12 11 2 13 1 14
REMARK H PARENT 10 10 12 12
ROOT
ATOM      1  C   UNL     1      -0.396  -6.173  -0.217  1.00  0.00     0.105 A 
ATOM      2  C   UNL     1      -1.103  -5.430   0.688  1.00  0.00     0.172 A 
ATOM      3  C   UNL     1      -1.153  -7.087  -1.091  1.00  0.00     0.020 A 
ATOM      4  C   UNL     1      -2.490  -6.882  -1.213  1.00  0.00     0.005 A 
ATOM      5  C   UNL     1      -2.474  -5.014   0.429  1.00  0.00     0.161 A 
ATOM      6  C   UNL     1      -3.196  -5.877  -0.488  1.00  0.00     0.050 A 
ENDROOT
BRANCH   1   7
ATOM      7  C   UNL     1       1.121  -5.988  -0.393  1.00  0.00     0.339 C 
ATOM      8  O   UNL     1       1.535  -4.609   0.370  1.00  0.00    -0.246 OA
BRANCH   7   9
ATOM      9  O   UNL     1       1.952  -6.519  -0.761  1.00  0.00    -0.478 OA
ATOM     10  H   UNL     1       2.734  -7.019  -1.107  1.00  0.00     0.297 HD
ENDBRANCH   7   9
ENDBRANCH   1   7
BRANCH   2  11
ATOM     11  O   UNL     1      -0.530  -5.016   1.902  1.00  0.00    -0.504 OA
ATOM     12  H   UNL     1      -0.126  -4.724   2.757  1.00  0.00     0.293 HD
ENDBRANCH   2  11
BRANCH   5  13
ATOM     13  O   UNL     1      -3.011  -4.103   1.330  1.00  0.00    -0.493 OA
ATOM     14  C   UNL     1      -3.813  -3.212   1.813  1.00  0.00     0.278 C 
ENDBRANCH   5  13
TORSDOF 4
ENDMDL
MODEL 2
REMARK VINA RESULT:    -4.909      1.769      4.689
REMARK INTER + INTRA:          -6.252
REMARK INTER:                  -5.765
REMARK INTRA:                  -0.487
REMARK UNBOUND:                -0.483
REMARK SMILES COc1cccc(C(=O)O)c1O
REMARK SMILES IDX 7 1 11 2 6 3 5 4 3 5 4 6 8 7 9 8 10 9 12 11 2 13 1 14
REMARK H PARENT 10 10 12 12
ROOT
ATOM      1  C   UNL     1      -3.013  -4.522   1.686  1.00  0.00     0.105 A 
ATOM      2  C   UNL     1      -2.036  -4.817   0.775  1.00  0.00     0.172 A 
ATOM      3  C   UNL     1      -3.143  -5.405   2.859  1.00  0.00     0.020 A 
ATOM      4  C   UNL     1      -2.093  -6.211   3.162  1.00  0.00     0.005 A 
ATOM      5  C   UNL     1      -0.800  -5.477   1.168  1.00  0.00     0.161 A 
ATOM      6  C   UNL     1      -0.913  -6.290   2.365  1.00  0.00     0.050 A 
ENDROOT
BRANCH   1   7
ATOM      7  C   UNL     1      -3.877  -3.256   1.551  1.00  0.00     0.339 C 
ATOM      8  O   UNL     1      -3.162  -2.293   0.449  1.00  0.00    -0.246 OA
BRANCH   7   9
ATOM      9  O   UNL     1      -4.809  -2.888   1.875  1.00  0.00    -0.478 OA
ATOM     10  H   UNL     1      -5.686  -2.541   2.179  1.00  0.00     0.297 HD
ENDBRANCH   7   9
ENDBRANCH   1   7
BRANCH   2  11
ATOM     11  O   UNL     1      -2.173  -4.475  -0.581  1.00  0.00    -0.504 OA
ATOM     12  H   UNL     1      -2.270  -4.235  -1.537  1.00  0.00     0.293 HD
ENDBRANCH   2  11
BRANCH   5  13
ATOM     13  O   UNL     1       0.189  -5.542   0.195  1.00  0.00    -0.493 OA
ATOM     14  C   UNL     1       1.100  -6.048  -0.569  1.00  0.00     0.278 C 
ENDBRANCH   5  13
TORSDOF 4
ENDMDL
MODEL 3
REMARK VINA RESULT:    -4.690      2.969      4.364
REMARK INTER + INTRA:          -5.995
REMARK INTER:                  -5.724
REMARK INTRA:                  -0.271
REMARK UNBOUND:                -0.483
REMARK SMILES COc1cccc(C(=O)O)c1O
REMARK SMILES IDX 7 1 11 2 6 3 5 4 3 5 4 6 8 7 9 8 10 9 12 11 2 13 1 14
REMARK H PARENT 10 10 12 12
ROOT
ATOM      1  C   UNL     1      -2.850  -4.541   1.437  1.00  0.00     0.105 A 
ATOM      2  C   UNL     1      -3.132  -5.702   2.103  1.00  0.00     0.172 A 
ATOM      3  C   UNL     1      -1.863  -4.603   0.343  1.00  0.00     0.020 A 
ATOM      4  C   UNL     1      -1.574  -5.824  -0.178  1.00  0.00     0.005 A 
ATOM      5  C   UNL     1      -3.043  -6.999   1.449  1.00  0.00     0.161 A 
ATOM      6  C   UNL     1      -2.124  -7.039   0.327  1.00  0.00     0.050 A 
ENDROOT
BRANCH   1   7
ATOM      7  C   UNL     1      -3.609  -3.238   1.742  1.00  0.00     0.339 C 
ATOM      8  O   UNL     1      -3.385  -2.236   0.477  1.00  0.00    -0.246 OA
BRANCH   7   9
ATOM      9  O   UNL     1      -4.285  -2.857   2.454  1.00  0.00    -0.478 OA
ATOM     10  H   UNL     1      -4.920  -2.497   3.123  1.00  0.00     0.297 HD
ENDBRANCH   7   9
ENDBRANCH   1   7
BRANCH   2  11
ATOM     11  O   UNL     1      -3.541  -5.692   3.448  1.00  0.00    -0.504 OA
ATOM     12  H   UNL     1      -3.830  -5.686   4.395  1.00  0.00     0.293 HD
ENDBRANCH   2  11
BRANCH   5  13
ATOM     13  O   UNL     1      -3.543  -8.076   2.169  1.00  0.00    -0.493 OA
ATOM     14  C   UNL     1      -4.304  -9.074   2.477  1.00  0.00     0.278 C 
ENDBRANCH   5  13
TORSDOF 4
ENDMDL
MODEL 4
REMARK VINA RESULT:    -4.598      2.078      3.113
REMARK INTER + INTRA:          -5.887
REMARK INTER:                  -5.623
REMARK INTRA:                  -0.264
REMARK UNBOUND:                -0.483
REMARK SMILES COc1cccc(C(=O)O)c1O
REMARK SMILES IDX 7 1 11 2 6 3 5 4 3 5 4 6 8 7 9 8 10 9 12 11 2 13 1 14
REMARK H PARENT 10 10 12 12
ROOT
ATOM      1  C   UNL     1      -0.410  -5.859   0.001  1.00  0.00     0.105 A 
ATOM      2  C   UNL     1      -1.218  -6.935  -0.247  1.00  0.00     0.172 A 
ATOM      3  C   UNL     1      -0.992  -4.725   0.742  1.00  0.00     0.020 A 
ATOM      4  C   UNL     1      -2.134  -4.947   1.442  1.00  0.00     0.005 A 
ATOM      5  C   UNL     1      -2.301  -7.300   0.654  1.00  0.00     0.161 A 
ATOM      6  C   UNL     1      -2.824  -6.195   1.435  1.00  0.00     0.050 A 
ENDROOT
BRANCH   1   7
ATOM      7  C   UNL     1       1.079  -5.870  -0.384  1.00  0.00     0.339 C 
ATOM      8  O   UNL     1       1.785  -4.607   0.364  1.00  0.00    -0.246 OA
BRANCH   7   9
ATOM      9  O   UNL     1       1.768  -6.486  -0.889  1.00  0.00    -0.478 OA
ATOM     10  H   UNL     1       2.416  -7.065  -1.363  1.00  0.00     0.297 HD
ENDBRANCH   7   9
ENDBRANCH   1   7
BRANCH   2  11
ATOM     11  O   UNL     1      -1.023  -7.752  -1.374  1.00  0.00    -0.504 OA
ATOM     12  H   UNL     1      -0.885  -8.327  -2.168  1.00  0.00     0.293 HD
ENDBRANCH   2  11
BRANCH   5  13
ATOM     13  O   UNL     1      -2.917  -8.519   0.398  1.00  0.00    -0.493 OA
ATOM     14  C   UNL     1      -3.232  -9.765   0.537  1.00  0.00     0.278 C 
ENDBRANCH   5  13
TORSDOF 4
ENDMDL
MODEL 5
REMARK VINA RESULT:    -3.990      2.149      3.101
REMARK INTER + INTRA:          -5.173
REMARK INTER:                  -4.917
REMARK INTRA:                  -0.256
REMARK UNBOUND:                -0.483
REMARK SMILES COc1cccc(C(=O)O)c1O
REMARK SMILES IDX 7 1 11 2 6 3 5 4 3 5 4 6 8 7 9 8 10 9 12 11 2 13 1 14
REMARK H PARENT 10 10 12 12
ROOT
ATOM      1  C   UNL     1      -1.220  -6.678  -0.774  1.00  0.00     0.105 A 
ATOM      2  C   UNL     1      -2.132  -5.715  -0.439  1.00  0.00     0.172 A 
ATOM      3  C   UNL     1       0.209  -6.350  -0.617  1.00  0.00     0.020 A 
ATOM      4  C   UNL     1       0.531  -5.293   0.173  1.00  0.00     0.005 A 
ATOM      5  C   UNL     1      -1.854  -4.725   0.592  1.00  0.00     0.161 A 
ATOM      6  C   UNL     1      -0.442  -4.456   0.794  1.00  0.00     0.050 A 
ENDROOT
BRANCH   1   7
ATOM      7  C   UNL     1      -1.664  -8.088  -1.199  1.00  0.00     0.339 C 
ATOM      8  O   UNL     1      -2.783  -8.590  -0.126  1.00  0.00    -0.246 OA
BRANCH   7   9
ATOM      9  O   UNL     1      -1.536  -8.757  -2.001  1.00  0.00    -0.478 OA
ATOM     10  H   UNL     1      -1.416  -9.386  -2.757  1.00  0.00     0.297 HD
ENDBRANCH   7   9
ENDBRANCH   1   7
BRANCH   2  11
ATOM     11  O   UNL     1      -3.390  -5.652  -1.061  1.00  0.00    -0.504 OA
ATOM     12  H   UNL     1      -4.277  -5.607  -1.500  1.00  0.00     0.293 HD
ENDBRANCH   2  11
BRANCH   5  13
ATOM     13  O   UNL     1      -2.928  -3.932   0.975  1.00  0.00    -0.493 OA
ATOM     14  C   UNL     1      -3.805  -3.378   1.745  1.00  0.00     0.278 C 
ENDBRANCH   5  13
TORSDOF 4
ENDMDL
MODEL 6
REMARK VINA RESULT:    -3.964      2.703      4.454
REMARK INTER + INTRA:          -5.142
REMARK INTER:                  -4.978
REMARK INTRA:                  -0.163
REMARK UNBOUND:                -0.483
REMARK SMILES COc1cccc(C(=O)O)c1O
REMARK SMILES IDX 7 1 11 2 6 3 5 4 3 5 4 6 8 7 9 8 10 9 12 11 2 13 1 14
REMARK H PARENT 10 10 12 12
ROOT
ATOM      1  C   UNL     1      -2.480  -4.443   1.390  1.00  0.00     0.105 A 
ATOM      2  C   UNL     1      -2.737  -5.769   1.605  1.00  0.00     0.172 A 
ATOM      3  C   UNL     1      -1.247  -4.096   0.659  1.00  0.00     0.020 A 
ATOM      4  C   UNL     1      -0.644  -5.075  -0.063  1.00  0.00     0.005 A 
ATOM      5  C   UNL     1      -2.279  -6.795   0.680  1.00  0.00     0.161 A 
ATOM      6  C   UNL     1      -1.107  -6.424  -0.090  1.00  0.00     0.050 A 
ENDROOT
BRANCH   1   7
ATOM      7  C   UNL     1      -3.487  -3.355   1.800  1.00  0.00     0.339 C 
ATOM      8  O   UNL     1      -4.882  -3.662   1.016  1.00  0.00    -0.246 OA
BRANCH   7   9
ATOM      9  O   UNL     1      -3.569  -2.560   2.485  1.00  0.00    -0.478 OA
ATOM     10  H   UNL     1      -3.645  -1.812   3.130  1.00  0.00     0.297 HD
ENDBRANCH   7   9
ENDBRANCH   1   7
BRANCH   2  11
ATOM     11  O   UNL     1      -3.477  -6.199   2.720  1.00  0.00    -0.504 OA
ATOM     12  H   UNL     1      -3.997  -6.502   3.506  1.00  0.00     0.293 HD
ENDBRANCH   2  11
BRANCH   5  13
ATOM     13  O   UNL     1      -2.772  -8.075   0.903  1.00  0.00    -0.493 OA
ATOM     14  C   UNL     1      -2.881  -9.253   1.424  1.00  0.00     0.278 C 
ENDBRANCH   5  13
TORSDOF 4
ENDMDL
MODEL 7
REMARK VINA RESULT:    -3.949      2.187      4.604
REMARK INTER + INTRA:          -5.124
REMARK INTER:                  -4.865
REMARK INTRA:                  -0.258
REMARK UNBOUND:                -0.483
REMARK SMILES COc1cccc(C(=O)O)c1O
REMARK SMILES IDX 7 1 11 2 6 3 5 4 3 5 4 6 8 7 9 8 10 9 12 11 2 13 1 14
REMARK H PARENT 10 10 12 12
ROOT
ATOM      1  C   UNL     1      -2.890  -5.232   2.501  1.00  0.00     0.105 A 
ATOM      2  C   UNL     1      -1.638  -5.441   1.992  1.00  0.00     0.172 A 
ATOM      3  C   UNL     1      -3.592  -3.998   2.104  1.00  0.00     0.020 A 
ATOM      4  C   UNL     1      -3.140  -3.340   1.006  1.00  0.00     0.005 A 
ATOM      5  C   UNL     1      -1.247  -4.921   0.690  1.00  0.00     0.161 A 
ATOM      6  C   UNL     1      -1.989  -3.748   0.269  1.00  0.00     0.050 A 
ENDROOT
BRANCH   1   7
ATOM      7  C   UNL     1      -3.587  -6.292   3.372  1.00  0.00     0.339 C 
ATOM      8  O   UNL     1      -3.388  -7.733   2.638  1.00  0.00    -0.246 OA
BRANCH   7   9
ATOM      9  O   UNL     1      -4.051  -6.372   4.314  1.00  0.00    -0.478 OA
ATOM     10  H   UNL     1      -4.487  -6.446   5.200  1.00  0.00     0.297 HD
ENDBRANCH   7   9
ENDBRANCH   1   7
BRANCH   2  11
ATOM     11  O   UNL     1      -0.677  -6.187   2.696  1.00  0.00    -0.504 OA
ATOM     12  H   UNL     1      -0.000  -6.713   3.192  1.00  0.00     0.293 HD
ENDBRANCH   2  11
BRANCH   5  13
ATOM     13  O   UNL     1      -0.025  -5.367   0.202  1.00  0.00    -0.493 OA
ATOM     14  C   UNL     1       0.831  -6.125  -0.400  1.00  0.00     0.278 C 
ENDBRANCH   5  13
TORSDOF 4
ENDMDL
MODEL 8
REMARK VINA RESULT:    -3.750      7.342      7.850
REMARK INTER + INTRA:          -4.890
REMARK INTER:                  -4.659
REMARK INTRA:                  -0.231
REMARK UNBOUND:                -0.483
REMARK SMILES COc1cccc(C(=O)O)c1O
REMARK SMILES IDX 7 1 11 2 6 3 5 4 3 5 4 6 8 7 9 8 10 9 12 11 2 13 1 14
REMARK H PARENT 10 10 12 12
ROOT
ATOM      1  C   UNL     1      -0.618   0.314  -4.691  1.00  0.00     0.105 A 
ATOM      2  C   UNL     1      -0.158   0.364  -3.404  1.00  0.00     0.172 A 
ATOM      3  C   UNL     1      -1.838   1.078  -5.011  1.00  0.00     0.020 A 
ATOM      4  C   UNL     1      -2.216   2.054  -4.146  1.00  0.00     0.005 A 
ATOM      5  C   UNL     1      -0.372   1.532  -2.561  1.00  0.00     0.161 A 
ATOM      6  C   UNL     1      -1.533   2.323  -2.923  1.00  0.00     0.050 A 
ENDROOT
BRANCH   1   7
ATOM      7  C   UNL     1       0.162  -0.425  -5.792  1.00  0.00     0.339 C 
ATOM      8  O   UNL     1       1.746  -0.296  -5.436  1.00  0.00    -0.246 OA
BRANCH   7   9
ATOM      9  O   UNL     1      -0.023  -1.048  -6.620  1.00  0.00    -0.478 OA
ATOM     10  H   UNL     1      -0.198  -1.634  -7.399  1.00  0.00     0.297 HD
ENDBRANCH   7   9
ENDBRANCH   1   7
BRANCH   2  11
ATOM     11  O   UNL     1       0.563  -0.704  -2.843  1.00  0.00    -0.504 OA
ATOM     12  H   UNL     1       1.071  -1.456  -2.448  1.00  0.00     0.293 HD
ENDBRANCH   2  11
BRANCH   5  13
ATOM     13  O   UNL     1       0.311   1.539  -1.352  1.00  0.00    -0.493 OA
ATOM     14  C   UNL     1       1.149   1.178  -0.436  1.00  0.00     0.278 C 
ENDBRANCH   5  13
TORSDOF 4
ENDMDL
MODEL 9
REMARK VINA RESULT:    -3.464      1.839      2.048
REMARK INTER + INTRA:          -4.554
REMARK INTER:                  -4.254
REMARK INTRA:                  -0.300
REMARK UNBOUND:                -0.483
REMARK SMILES COc1cccc(C(=O)O)c1O
REMARK SMILES IDX 7 1 11 2 6 3 5 4 3 5 4 6 8 7 9 8 10 9 12 11 2 13 1 14
REMARK H PARENT 10 10 12 12
ROOT
ATOM      1  C   UNL     1      -0.435  -5.351   0.853  1.00  0.00     0.105 A 
ATOM      2  C   UNL     1      -1.030  -4.126   0.727  1.00  0.00     0.172 A 
ATOM      3  C   UNL     1      -1.015  -6.297   1.823  1.00  0.00     0.020 A 
ATOM      4  C   UNL     1      -2.281  -6.061   2.254  1.00  0.00     0.005 A 
ATOM      5  C   UNL     1      -2.454  -3.940   0.967  1.00  0.00     0.161 A 
ATOM      6  C   UNL     1      -3.038  -4.916   1.868  1.00  0.00     0.050 A 
ENDROOT
BRANCH   1   7
ATOM      7  C   UNL     1       0.732  -5.771  -0.058  1.00  0.00     0.339 C 
ATOM      8  O   UNL     1       1.952  -4.724   0.199  1.00  0.00    -0.246 OA
BRANCH   7   9
ATOM      9  O   UNL     1       0.998  -6.563  -0.700  1.00  0.00    -0.478 OA
ATOM     10  H   UNL     1       1.249  -7.308  -1.302  1.00  0.00     0.297 HD
ENDBRANCH   7   9
ENDBRANCH   1   7
BRANCH   2  11
ATOM     11  O   UNL     1      -0.295  -2.992   0.340  1.00  0.00    -0.504 OA
ATOM     12  H   UNL     1       0.223  -2.194   0.067  1.00  0.00     0.293 HD
ENDBRANCH   2  11
BRANCH   5  13
ATOM     13  O   UNL     1      -2.970  -2.699   0.616  1.00  0.00    -0.493 OA
ATOM     14  C   UNL     1      -3.183  -1.634  -0.084  1.00  0.00     0.278 C 
ENDBRANCH   5  13
TORSDOF 4
ENDMDL
