MODEL 1
REMARK VINA RESULT:    -4.906      0.000      0.000
REMARK INTER + INTRA:          -6.036
REMARK INTER:                  -5.767
REMARK INTRA:                  -0.270
REMARK UNBOUND:                -0.270
REMARK SMILES COc1cccc(C(=O)O)c1O
REMARK SMILES IDX 7 1 11 2 6 3 5 4 3 5 4 6 8 7 9 8 10 9 12 11 2 13 1 14
REMARK H PARENT 10 10 12 12
ROOT
ATOM      1  C   UNL     1      -2.390  -6.229   2.347  1.00  0.00     0.105 A 
ATOM      2  C   UNL     1      -2.333  -7.462   2.935  1.00  0.00     0.172 A 
ATOM      3  C   UNL     1      -1.443  -5.949   1.252  1.00  0.00     0.020 A 
ATOM      4  C   UNL     1      -0.840  -7.008   0.653  1.00  0.00     0.005 A 
ATOM      5  C   UNL     1      -1.904  -8.642   2.197  1.00  0.00     0.161 A 
ATOM      6  C   UNL     1      -1.028  -8.357   1.075  1.00  0.00     0.050 A 
ENDROOT
BRANCH   1   7
ATOM      7  C   UNL     1      -3.471  -5.206   2.736  1.00  0.00     0.339 C 
ATOM      8  O   UNL     1      -3.549  -4.101   1.542  1.00  0.00    -0.246 OA
BRANCH   7   9
ATOM      9  O   UNL     1      -4.214  -5.071   3.470  1.00  0.00    -0.478 OA
ATOM     10  H   UNL     1      -4.913  -4.943   4.160  1.00  0.00     0.297 HD
ENDBRANCH   7   9
ENDBRANCH   1   7
BRANCH   2  11
ATOM     11  O   UNL     1      -2.706  -7.651   4.277  1.00  0.00    -0.504 OA
ATOM     12  H   UNL     1      -2.970  -7.784   5.222  1.00  0.00     0.293 HD
ENDBRANCH   2  11
BRANCH   5  13
ATOM     13  O   UNL     1      -2.078  -9.858   2.844  1.00  0.00    -0.493 OA
ATOM     14  C   UNL     1      -2.406 -11.095   3.022  1.00  0.00     0.278 C 
ENDBRANCH   5  13
TORSDOF 4
ENDMDL
MODEL 2
REMARK VINA RESULT:    -4.893      3.080      4.058
REMARK INTER + INTRA:          -6.021
REMARK INTER:                  -5.752
REMARK INTRA:                  -0.269
REMARK UNBOUND:                -0.270
REMARK SMILES COc1cccc(C(=O)O)c1O
REMARK SMILES IDX 7 1 11 2 6 3 5 4 3 5 4 6 8 7 9 8 10 9 12 11 2 13 1 14
REMARK H PARENT 10 10 12 12
ROOT
ATOM      1  C   UNL     1       0.170  -6.818   0.704  1.00  0.00     0.105 A 
ATOM      2  C   UNL     1      -0.303  -8.058   0.371  1.00  0.00     0.172 A 
ATOM      3  C   UNL     1      -0.569  -6.056   1.727  1.00  0.00     0.020 A 
ATOM      4  C   UNL     1      -1.426  -6.741   2.527  1.00  0.00     0.005 A 
ATOM      5  C   UNL     1      -1.022  -8.883   1.332  1.00  0.00     0.161 A 
ATOM      6  C   UNL     1      -1.690  -8.134   2.379  1.00  0.00     0.050 A 
ENDROOT
BRANCH   1   7
ATOM      7  C   UNL     1       1.484  -6.278   0.112  1.00  0.00     0.339 C 
ATOM      8  O   UNL     1       1.974  -5.047   1.060  1.00  0.00    -0.246 OA
BRANCH   7   9
ATOM      9  O   UNL     1       2.182  -6.523  -0.636  1.00  0.00    -0.478 OA
ATOM     10  H   UNL     1       2.838  -6.754  -1.341  1.00  0.00     0.297 HD
ENDBRANCH   7   9
ENDBRANCH   1   7
BRANCH   2  11
ATOM     11  O   UNL     1      -0.097  -8.601  -0.908  1.00  0.00    -0.504 OA
ATOM     12  H   UNL     1       0.048  -8.983  -1.810  1.00  0.00     0.293 HD
ENDBRANCH   2  11
BRANCH   5  13
ATOM     13  O   UNL     1      -1.274 -10.191   0.937  1.00  0.00    -0.493 OA
ATOM     14  C   UNL     1      -1.399 -11.474   1.020  1.00  0.00     0.278 C 
ENDBRANCH   5  13
TORSDOF 4
ENDMDL
MODEL 3
REMARK VINA RESULT:    -4.655      1.888      3.173
REMARK INTER + INTRA:          -5.741
REMARK INTER:                  -5.289
REMARK INTRA:                  -0.452
REMARK UNBOUND:                -0.270
REMARK SMILES COc1cccc(C(=O)O)c1O
REMARK SMILES IDX 7 1 11 2 6 3 5 4 3 5 4 6 8 7 9 8 10 9 12 11 2 13 1 14
REMARK H PARENT 10 10 12 12
ROOT
ATOM      1  C   UNL     1      -2.548  -6.379   2.230  1.00  0.00     0.105 A 
ATOM      2  C   UNL     1      -1.407  -6.108   1.527  1.00  0.00     0.172 A 
ATOM      3  C   UNL     1      -2.837  -7.790   2.549  1.00  0.00     0.020 A 
ATOM      4  C   UNL     1      -1.813  -8.678   2.463  1.00  0.00     0.005 A 
ATOM      5  C   UNL     1      -0.225  -6.952   1.634  1.00  0.00     0.161 A 
ATOM      6  C   UNL     1      -0.505  -8.323   2.018  1.00  0.00     0.050 A 
ENDROOT
BRANCH   1   7
ATOM      7  C   UNL     1      -3.447  -5.250   2.763  1.00  0.00     0.339 C 
ATOM      8  O   UNL     1      -3.589  -4.140   1.578  1.00  0.00    -0.246 OA
BRANCH   7   9
ATOM      9  O   UNL     1      -4.053  -5.039   3.598  1.00  0.00    -0.478 OA
ATOM     10  H   UNL     1      -4.623  -4.840   4.383  1.00  0.00     0.297 HD
ENDBRANCH   7   9
ENDBRANCH   1   7
BRANCH   2  11
ATOM     11  O   UNL     1      -1.316  -4.988   0.683  1.00  0.00    -0.504 OA
ATOM     12  H   UNL     1      -1.251  -4.199   0.089  1.00  0.00     0.293 HD
ENDBRANCH   2  11
BRANCH   5  13
ATOM     13  O   UNL     1       0.925  -6.463   1.029  1.00  0.00    -0.493 OA
ATOM     14  C   UNL     1       1.878  -6.347   0.164  1.00  0.00     0.278 C 
ENDBRANCH   5  13
TORSDOF 4
ENDMDL
MODEL 4
REMARK VINA RESULT:    -4.524      2.992      4.498
REMARK INTER + INTRA:          -5.588
REMARK INTER:                  -5.296
REMARK INTRA:                  -0.292
REMARK UNBOUND:                -0.270
REMARK SMILES COc1cccc(C(=O)O)c1O
REMARK SMILES IDX 7 1 11 2 6 3 5 4 3 5 4 6 8 7 9 8 10 9 12 11 2 13 1 14
REMARK H PARENT 10 10 12 12
ROOT
ATOM      1  C   UNL     1       0.312  -6.923   0.499  1.00  0.00     0.105 A 
ATOM      2  C   UNL     1      -0.573  -6.225   1.274  1.00  0.00     0.172 A 
ATOM      3  C   UNL     1      -0.071  -8.284   0.081  1.00  0.00     0.020 A 
ATOM      4  C   UNL     1      -1.382  -8.624   0.165  1.00  0.00     0.005 A 
ATOM      5  C   UNL     1      -2.009  -6.441   1.176  1.00  0.00     0.161 A 
ATOM      6  C   UNL     1      -2.383  -7.758   0.696  1.00  0.00     0.050 A 
ENDROOT
BRANCH   1   7
ATOM      7  C   UNL     1       1.613  -6.277  -0.010  1.00  0.00     0.339 C 
ATOM      8  O   UNL     1       2.001  -5.082   1.027  1.00  0.00    -0.246 OA
BRANCH   7   9
ATOM      9  O   UNL     1       2.349  -6.438  -0.745  1.00  0.00    -0.478 OA
ATOM     10  H   UNL     1       3.042  -6.589  -1.436  1.00  0.00     0.297 HD
ENDBRANCH   7   9
ENDBRANCH   1   7
BRANCH   2  11
ATOM     11  O   UNL     1      -0.135  -5.251   2.188  1.00  0.00    -0.504 OA
ATOM     12  H   UNL     1       0.173  -4.564   2.832  1.00  0.00     0.293 HD
ENDBRANCH   2  11
BRANCH   5  13
ATOM     13  O   UNL     1      -2.806  -5.537   1.867  1.00  0.00    -0.493 OA
ATOM     14  C   UNL     1      -3.752  -5.100   2.632  1.00  0.00     0.278 C 
ENDBRANCH   5  13
TORSDOF 4
ENDMDL
MODEL 5
REMARK VINA RESULT:    -4.269      3.057      4.036
REMARK INTER + INTRA:          -5.287
REMARK INTER:                  -4.839
REMARK INTRA:                  -0.448
REMARK UNBOUND:                -0.270
REMARK SMILES COc1cccc(C(=O)O)c1O
REMARK SMILES IDX 7 1 11 2 6 3 5 4 3 5 4 6 8 7 9 8 10 9 12 11 2 13 1 14
REMARK H PARENT 10 10 12 12
ROOT
ATOM      1  C   UNL     1       0.668  -7.278   0.548  1.00  0.00     0.105 A 
ATOM      2  C   UNL     1       0.118  -7.368   1.797  1.00  0.00     0.172 A 
ATOM      3  C   UNL     1       0.079  -8.107  -0.519  1.00  0.00     0.020 A 
ATOM      4  C   UNL     1      -1.164  -8.613  -0.312  1.00  0.00     0.005 A 
ATOM      5  C   UNL     1      -1.290  -7.683   1.991  1.00  0.00     0.161 A 
ATOM      6  C   UNL     1      -1.887  -8.438   0.905  1.00  0.00     0.050 A 
ENDROOT
BRANCH   1   7
ATOM      7  C   UNL     1       1.791  -6.273   0.238  1.00  0.00     0.339 C 
ATOM      8  O   UNL     1       1.591  -4.998   1.232  1.00  0.00    -0.246 OA
BRANCH   7   9
ATOM      9  O   UNL     1       2.673  -6.213  -0.334  1.00  0.00    -0.478 OA
ATOM     10  H   UNL     1       3.502  -6.158  -0.873  1.00  0.00     0.297 HD
ENDBRANCH   7   9
ENDBRANCH   1   7
BRANCH   2  11
ATOM     11  O   UNL     1       0.885  -7.139   2.953  1.00  0.00    -0.504 OA
ATOM     12  H   UNL     1       1.425  -6.977   3.766  1.00  0.00     0.293 HD
ENDBRANCH   2  11
BRANCH   5  13
ATOM     13  O   UNL     1      -1.768  -7.549   3.289  1.00  0.00    -0.493 OA
ATOM     14  C   UNL     1      -2.420  -7.826   4.369  1.00  0.00     0.278 C 
ENDBRANCH   5  13
TORSDOF 4
ENDMDL
MODEL 6
REMARK VINA RESULT:    -4.262      2.864      3.729
REMARK INTER + INTRA:          -5.279
REMARK INTER:                  -4.824
REMARK INTRA:                  -0.455
REMARK UNBOUND:                -0.270
REMARK SMILES COc1cccc(C(=O)O)c1O
REMARK SMILES IDX 7 1 11 2 6 3 5 4 3 5 4 6 8 7 9 8 10 9 12 11 2 13 1 14
REMARK H PARENT 10 10 12 12
ROOT
ATOM      1  C   UNL     1      -0.271  -6.170   0.904  1.00  0.00     0.105 A 
ATOM      2  C   UNL     1      -0.712  -7.455   0.745  1.00  0.00     0.172 A 
ATOM      3  C   UNL     1      -1.233  -5.174   1.409  1.00  0.00     0.020 A 
ATOM      4  C   UNL     1      -2.354  -5.633   2.023  1.00  0.00     0.005 A 
ATOM      5  C   UNL     1      -1.765  -8.010   1.584  1.00  0.00     0.161 A 
ATOM      6  C   UNL     1      -2.670  -7.019   2.138  1.00  0.00     0.050 A 
ENDROOT
BRANCH   1   7
ATOM      7  C   UNL     1       1.203  -5.796   0.667  1.00  0.00     0.339 C 
ATOM      8  O   UNL     1       1.680  -6.539  -0.702  1.00  0.00    -0.246 OA
BRANCH   7   9
ATOM      9  O   UNL     1       1.934  -5.148   1.059  1.00  0.00    -0.478 OA
ATOM     10  H   UNL     1       2.622  -4.538   1.428  1.00  0.00     0.297 HD
ENDBRANCH   7   9
ENDBRANCH   1   7
BRANCH   2  11
ATOM     11  O   UNL     1      -0.154  -8.307  -0.223  1.00  0.00    -0.504 OA
ATOM     12  H   UNL     1       0.240  -8.907  -0.905  1.00  0.00     0.293 HD
ENDBRANCH   2  11
BRANCH   5  13
ATOM     13  O   UNL     1      -1.984  -9.375   1.458  1.00  0.00    -0.493 OA
ATOM     14  C   UNL     1      -1.976 -10.632   1.758  1.00  0.00     0.278 C 
ENDBRANCH   5  13
TORSDOF 4
ENDMDL
MODEL 7
REMARK VINA RESULT:    -4.253      0.542      1.047
REMARK INTER + INTRA:          -5.269
REMARK INTER:                  -4.808
REMARK INTRA:                  -0.461
REMARK UNBOUND:                -0.270
REMARK SMILES COc1cccc(C(=O)O)c1O
REMARK SMILES IDX 7 1 11 2 6 3 5 4 3 5 4 6 8 7 9 8 10 9 12 11 2 13 1 14
REMARK H PARENT 10 10 12 12
ROOT
ATOM      1  C   UNL     1      -1.999  -6.174   1.897  1.00  0.00     0.105 A 
ATOM      2  C   UNL     1      -2.192  -7.372   2.528  1.00  0.00     0.172 A 
ATOM      3  C   UNL     1      -0.839  -6.057   0.993  1.00  0.00     0.020 A 
ATOM      4  C   UNL     1      -0.261  -7.205   0.557  1.00  0.00     0.005 A 
ATOM      5  C   UNL     1      -1.773  -8.629   1.925  1.00  0.00     0.161 A 
ATOM      6  C   UNL     1      -0.678  -8.501   0.982  1.00  0.00     0.050 A 
ENDROOT
BRANCH   1   7
ATOM      7  C   UNL     1      -3.009  -5.022   2.039  1.00  0.00     0.339 C 
ATOM      8  O   UNL     1      -3.420  -4.926   3.612  1.00  0.00    -0.246 OA
BRANCH   7   9
ATOM      9  O   UNL     1      -3.420  -4.245   1.458  1.00  0.00    -0.478 OA
ATOM     10  H   UNL     1      -3.806  -3.515   0.912  1.00  0.00     0.297 HD
ENDBRANCH   7   9
ENDBRANCH   1   7
BRANCH   2  11
ATOM     11  O   UNL     1      -2.827  -7.445   3.780  1.00  0.00    -0.504 OA
ATOM     12  H   UNL     1      -3.274  -7.496   4.662  1.00  0.00     0.293 HD
ENDBRANCH   2  11
BRANCH   5  13
ATOM     13  O   UNL     1      -2.202  -9.782   2.570  1.00  0.00    -0.493 OA
ATOM     14  C   UNL     1      -2.369 -11.042   2.807  1.00  0.00     0.278 C 
ENDBRANCH   5  13
TORSDOF 4
ENDMDL
MODEL 8
REMARK VINA RESULT:    -4.208      2.323      4.711
REMARK INTER + INTRA:          -5.216
REMARK INTER:                  -5.012
REMARK INTRA:                  -0.204
REMARK UNBOUND:                -0.270
REMARK SMILES COc1cccc(C(=O)O)c1O
REMARK SMILES IDX 7 1 11 2 6 3 5 4 3 5 4 6 8 7 9 8 10 9 12 11 2 13 1 14
REMARK H PARENT 10 10 12 12
ROOT
ATOM      1  C   UNL     1      -0.353  -7.701  -0.146  1.00  0.00     0.105 A 
ATOM      2  C   UNL     1      -1.497  -7.083   0.281  1.00  0.00     0.172 A 
ATOM      3  C   UNL     1       0.924  -6.994   0.059  1.00  0.00     0.020 A 
ATOM      4  C   UNL     1       0.945  -5.979   0.961  1.00  0.00     0.005 A 
ATOM      5  C   UNL     1      -1.493  -6.169   1.414  1.00  0.00     0.161 A 
ATOM      6  C   UNL     1      -0.214  -5.528   1.658  1.00  0.00     0.050 A 
ENDROOT
BRANCH   1   7
ATOM      7  C   UNL     1      -0.382  -9.127  -0.724  1.00  0.00     0.339 C 
ATOM      8  O   UNL     1      -1.009 -10.103   0.420  1.00  0.00    -0.246 OA
BRANCH   7   9
ATOM      9  O   UNL     1      -0.216  -9.621  -1.638  1.00  0.00    -0.478 OA
ATOM     10  H   UNL     1      -0.059 -10.086  -2.499  1.00  0.00     0.297 HD
ENDBRANCH   7   9
ENDBRANCH   1   7
BRANCH   2  11
ATOM     11  O   UNL     1      -2.733  -7.320  -0.344  1.00  0.00    -0.504 OA
ATOM     12  H   UNL     1      -3.604  -7.486  -0.784  1.00  0.00     0.293 HD
ENDBRANCH   2  11
BRANCH   5  13
ATOM     13  O   UNL     1      -2.741  -5.764   1.869  1.00  0.00    -0.493 OA
ATOM     14  C   UNL     1      -3.654  -5.360   2.690  1.00  0.00     0.278 C 
ENDBRANCH   5  13
TORSDOF 4
ENDMDL
MODEL 9
REMARK VINA RESULT:    -4.063      2.224      3.824
REMARK INTER + INTRA:          -5.045
REMARK INTER:                  -4.743
REMARK INTRA:                  -0.302
REMARK UNBOUND:                -0.270
REMARK SMILES COc1cccc(C(=O)O)c1O
REMARK SMILES IDX 7 1 11 2 6 3 5 4 3 5 4 6 8 7 9 8 10 9 12 11 2 13 1 14
REMARK H PARENT 10 10 12 12
ROOT
ATOM      1  C   UNL     1      -2.208  -7.220   3.232  1.00  0.00     0.105 A 
ATOM      2  C   UNL     1      -1.018  -7.181   2.558  1.00  0.00     0.172 A 
ATOM      3  C   UNL     1      -3.148  -6.104   3.022  1.00  0.00     0.020 A 
ATOM      4  C   UNL     1      -2.960  -5.316   1.932  1.00  0.00     0.005 A 
ATOM      5  C   UNL     1      -0.894  -6.528   1.263  1.00  0.00     0.161 A 
ATOM      6  C   UNL     1      -1.867  -5.477   1.031  1.00  0.00     0.050 A 
ENDROOT
BRANCH   1   7
ATOM      7  C   UNL     1      -2.600  -8.432   4.094  1.00  0.00     0.339 C 
ATOM      8  O   UNL     1      -2.192  -9.773   3.263  1.00  0.00    -0.246 OA
BRANCH   7   9
ATOM      9  O   UNL     1      -2.950  -8.641   5.065  1.00  0.00    -0.478 OA
ATOM     10  H   UNL     1      -3.278  -8.837   5.978  1.00  0.00     0.297 HD
ENDBRANCH   7   9
ENDBRANCH   1   7
BRANCH   2  11
ATOM     11  O   UNL     1       0.137  -7.791   3.078  1.00  0.00    -0.504 OA
ATOM     12  H   UNL     1       0.951  -8.220   3.444  1.00  0.00     0.293 HD
ENDBRANCH   2  11
BRANCH   5  13
ATOM     13  O   UNL     1       0.308  -6.728   0.596  1.00  0.00    -0.493 OA
ATOM     14  C   UNL     1       1.518  -6.513   0.198  1.00  0.00     0.278 C 
ENDBRANCH   5  13
TORSDOF 4
ENDMDL
