MODEL 1
REMARK VINA RESULT:    -4.920      0.000      0.000
REMARK INTER + INTRA:          -6.195
REMARK INTER:                  -5.782
REMARK INTRA:                  -0.412
REMARK UNBOUND:                -0.412
REMARK SMILES COc1cccc(C(=O)O)c1O
REMARK SMILES IDX 7 1 11 2 6 3 5 4 3 5 4 6 8 7 9 8 10 9 12 11 2 13 1 14
REMARK H PARENT 10 10 12 12
ROOT
ATOM      1  C   UNL     1       6.024   0.934   3.308  1.00  0.00     0.105 A 
ATOM      2  C   UNL     1       5.061   0.296   4.040  1.00  0.00     0.172 A 
ATOM      3  C   UNL     1       7.279   0.205   3.046  1.00  0.00     0.020 A 
ATOM      4  C   UNL     1       7.272  -1.143   3.212  1.00  0.00     0.005 A 
ATOM      5  C   UNL     1       4.919  -1.153   4.018  1.00  0.00     0.161 A 
ATOM      6  C   UNL     1       6.140  -1.866   3.689  1.00  0.00     0.050 A 
ENDROOT
BRANCH   1   7
ATOM      7  C   UNL     1       5.772   2.319   2.688  1.00  0.00     0.339 C 
ATOM      8  O   UNL     1       4.199   2.677   2.918  1.00  0.00    -0.246 OA
BRANCH   7   9
ATOM      9  O   UNL     1       6.316   3.115   2.264  1.00  0.00    -0.478 OA
ATOM     10  H   UNL     1       6.828   3.863   1.865  1.00  0.00     0.297 HD
ENDBRANCH   7   9
ENDBRANCH   1   7
BRANCH   2  11
ATOM     11  O   UNL     1       4.149   1.014   4.832  1.00  0.00    -0.504 OA
ATOM     12  H   UNL     1       3.507   1.520   5.391  1.00  0.00     0.293 HD
ENDBRANCH   2  11
BRANCH   5  13
ATOM     13  O   UNL     1       3.787  -1.660   4.643  1.00  0.00    -0.493 OA
ATOM     14  C   UNL     1       3.067  -2.282   5.517  1.00  0.00     0.278 C 
ENDBRANCH   5  13
TORSDOF 4
ENDMDL
MODEL 2
REMARK VINA RESULT:    -4.895      1.768      4.649
REMARK INTER + INTRA:          -6.166
REMARK INTER:                  -5.691
REMARK INTRA:                  -0.475
REMARK UNBOUND:                -0.412
REMARK SMILES COc1cccc(C(=O)O)c1O
REMARK SMILES IDX 7 1 11 2 6 3 5 4 3 5 4 6 8 7 9 8 10 9 12 11 2 13 1 14
REMARK H PARENT 10 10 12 12
ROOT
ATOM      1  C   UNL     1       4.302  -1.340   5.454  1.00  0.00     0.105 A 
ATOM      2  C   UNL     1       4.697  -0.522   4.432  1.00  0.00     0.172 A 
ATOM      3  C   UNL     1       4.867  -1.084   6.792  1.00  0.00     0.020 A 
ATOM      4  C   UNL     1       5.433   0.130   7.016  1.00  0.00     0.005 A 
ATOM      5  C   UNL     1       5.078   0.864   4.666  1.00  0.00     0.161 A 
ATOM      6  C   UNL     1       5.566   1.129   6.007  1.00  0.00     0.050 A 
ENDROOT
BRANCH   1   7
ATOM      7  C   UNL     1       3.229  -2.423   5.244  1.00  0.00     0.339 C 
ATOM      8  O   UNL     1       2.442  -2.067   3.862  1.00  0.00    -0.246 OA
BRANCH   7   9
ATOM      9  O   UNL     1       2.931  -3.342   5.661  1.00  0.00    -0.478 OA
ATOM     10  H   UNL     1       2.652  -4.208   6.053  1.00  0.00     0.297 HD
ENDBRANCH   7   9
ENDBRANCH   1   7
BRANCH   2  11
ATOM     11  O   UNL     1       4.732  -0.976   3.102  1.00  0.00    -0.504 OA
ATOM     12  H   UNL     1       4.756  -1.296   2.166  1.00  0.00     0.293 HD
ENDBRANCH   2  11
BRANCH   5  13
ATOM     13  O   UNL     1       5.266   1.641   3.530  1.00  0.00    -0.493 OA
ATOM     14  C   UNL     1       5.885   2.267   2.585  1.00  0.00     0.278 C 
ENDBRANCH   5  13
TORSDOF 4
ENDMDL
MODEL 3
REMARK VINA RESULT:    -4.752      3.002      4.506
REMARK INTER + INTRA:          -5.998
REMARK INTER:                  -5.732
REMARK INTRA:                  -0.266
REMARK UNBOUND:                -0.412
REMARK SMILES COc1cccc(C(=O)O)c1O
REMARK SMILES IDX 7 1 11 2 6 3 5 4 3 5 4 6 8 7 9 8 10 9 12 11 2 13 1 14
REMARK H PARENT 10 10 12 12
ROOT
ATOM      1  C   UNL     1       4.139  -1.248   5.281  1.00  0.00     0.105 A 
ATOM      2  C   UNL     1       5.088  -1.172   6.263  1.00  0.00     0.172 A 
ATOM      3  C   UNL     1       4.290  -0.358   4.115  1.00  0.00     0.020 A 
ATOM      4  C   UNL     1       5.509   0.199   3.900  1.00  0.00     0.005 A 
ATOM      5  C   UNL     1       6.464  -0.798   5.968  1.00  0.00     0.161 A 
ATOM      6  C   UNL     1       6.617   0.019   4.779  1.00  0.00     0.050 A 
ENDROOT
BRANCH   1   7
ATOM      7  C   UNL     1       3.013  -2.295   5.335  1.00  0.00     0.339 C 
ATOM      8  O   UNL     1       2.322  -2.343   3.861  1.00  0.00    -0.246 OA
BRANCH   7   9
ATOM      9  O   UNL     1       2.637  -3.030   5.989  1.00  0.00    -0.478 OA
ATOM     10  H   UNL     1       2.284  -3.721   6.604  1.00  0.00     0.297 HD
ENDBRANCH   7   9
ENDBRANCH   1   7
BRANCH   2  11
ATOM     11  O   UNL     1       4.782  -1.475   7.601  1.00  0.00    -0.504 OA
ATOM     12  H   UNL     1       4.566  -1.688   8.543  1.00  0.00     0.293 HD
ENDBRANCH   2  11
BRANCH   5  13
ATOM     13  O   UNL     1       7.369  -0.950   7.011  1.00  0.00    -0.493 OA
ATOM     14  C   UNL     1       8.353  -1.434   7.694  1.00  0.00     0.278 C 
ENDBRANCH   5  13
TORSDOF 4
ENDMDL
MODEL 4
REMARK VINA RESULT:    -4.687      2.012      2.990
REMARK INTER + INTRA:          -5.921
REMARK INTER:                  -5.651
REMARK INTRA:                  -0.270
REMARK UNBOUND:                -0.412
REMARK SMILES COc1cccc(C(=O)O)c1O
REMARK SMILES IDX 7 1 11 2 6 3 5 4 3 5 4 6 8 7 9 8 10 9 12 11 2 13 1 14
REMARK H PARENT 10 10 12 12
ROOT
ATOM      1  C   UNL     1       5.591   0.894   3.339  1.00  0.00     0.105 A 
ATOM      2  C   UNL     1       6.731   0.228   3.697  1.00  0.00     0.172 A 
ATOM      3  C   UNL     1       4.300   0.293   3.720  1.00  0.00     0.020 A 
ATOM      4  C   UNL     1       4.307  -0.656   4.692  1.00  0.00     0.005 A 
ATOM      5  C   UNL     1       6.786  -0.605   4.889  1.00  0.00     0.161 A 
ATOM      6  C   UNL     1       5.501  -1.139   5.304  1.00  0.00     0.050 A 
ENDROOT
BRANCH   1   7
ATOM      7  C   UNL     1       5.650   2.273   2.658  1.00  0.00     0.339 C 
ATOM      8  O   UNL     1       4.195   2.978   2.860  1.00  0.00    -0.246 OA
BRANCH   7   9
ATOM      9  O   UNL     1       6.356   2.909   2.206  1.00  0.00    -0.478 OA
ATOM     10  H   UNL     1       7.019   3.508   1.779  1.00  0.00     0.297 HD
ENDBRANCH   7   9
ENDBRANCH   1   7
BRANCH   2  11
ATOM     11  O   UNL     1       7.909   0.336   2.939  1.00  0.00    -0.504 OA
ATOM     12  H   UNL     1       8.740   0.411   2.405  1.00  0.00     0.293 HD
ENDBRANCH   2  11
BRANCH   5  13
ATOM     13  O   UNL     1       8.046  -1.065   5.249  1.00  0.00    -0.493 OA
ATOM     14  C   UNL     1       9.146  -1.173   5.919  1.00  0.00     0.278 C 
ENDBRANCH   5  13
TORSDOF 4
ENDMDL
MODEL 5
REMARK VINA RESULT:    -4.511      1.475      4.297
REMARK INTER + INTRA:          -5.714
REMARK INTER:                  -5.291
REMARK INTRA:                  -0.423
REMARK UNBOUND:                -0.412
REMARK SMILES COc1cccc(C(=O)O)c1O
REMARK SMILES IDX 7 1 11 2 6 3 5 4 3 5 4 6 8 7 9 8 10 9 12 11 2 13 1 14
REMARK H PARENT 10 10 12 12
ROOT
ATOM      1  C   UNL     1       4.429  -1.669   4.759  1.00  0.00     0.105 A 
ATOM      2  C   UNL     1       4.524  -0.529   4.009  1.00  0.00     0.172 A 
ATOM      3  C   UNL     1       5.685  -2.333   5.155  1.00  0.00     0.020 A 
ATOM      4  C   UNL     1       6.832  -1.609   5.082  1.00  0.00     0.005 A 
ATOM      5  C   UNL     1       5.666   0.367   4.123  1.00  0.00     0.161 A 
ATOM      6  C   UNL     1       6.884  -0.275   4.581  1.00  0.00     0.050 A 
ENDROOT
BRANCH   1   7
ATOM      7  C   UNL     1       3.070  -2.185   5.263  1.00  0.00     0.339 C 
ATOM      8  O   UNL     1       2.150  -2.492   3.954  1.00  0.00    -0.246 OA
BRANCH   7   9
ATOM      9  O   UNL     1       2.613  -2.480   6.164  1.00  0.00    -0.478 OA
ATOM     10  H   UNL     1       2.183  -2.757   7.012  1.00  0.00     0.297 HD
ENDBRANCH   7   9
ENDBRANCH   1   7
BRANCH   2  11
ATOM     11  O   UNL     1       3.510  -0.158   3.109  1.00  0.00    -0.504 OA
ATOM     12  H   UNL     1       2.796   0.102   2.475  1.00  0.00     0.293 HD
ENDBRANCH   2  11
BRANCH   5  13
ATOM     13  O   UNL     1       5.551   1.582   3.460  1.00  0.00    -0.493 OA
ATOM     14  C   UNL     1       5.777   2.507   2.586  1.00  0.00     0.278 C 
ENDBRANCH   5  13
TORSDOF 4
ENDMDL
MODEL 6
REMARK VINA RESULT:    -4.161      2.449      4.648
REMARK INTER + INTRA:          -5.303
REMARK INTER:                  -5.040
REMARK INTRA:                  -0.263
REMARK UNBOUND:                -0.412
REMARK SMILES COc1cccc(C(=O)O)c1O
REMARK SMILES IDX 7 1 11 2 6 3 5 4 3 5 4 6 8 7 9 8 10 9 12 11 2 13 1 14
REMARK H PARENT 10 10 12 12
ROOT
ATOM      1  C   UNL     1       4.871  -0.802   6.420  1.00  0.00     0.105 A 
ATOM      2  C   UNL     1       5.108   0.321   5.678  1.00  0.00     0.172 A 
ATOM      3  C   UNL     1       3.865  -1.755   5.916  1.00  0.00     0.020 A 
ATOM      4  C   UNL     1       3.511  -1.665   4.608  1.00  0.00     0.005 A 
ATOM      5  C   UNL     1       4.949   0.329   4.231  1.00  0.00     0.161 A 
ATOM      6  C   UNL     1       4.011  -0.659   3.730  1.00  0.00     0.050 A 
ENDROOT
BRANCH   1   7
ATOM      7  C   UNL     1       5.695  -1.118   7.681  1.00  0.00     0.339 C 
ATOM      8  O   UNL     1       7.264  -0.887   7.307  1.00  0.00    -0.246 OA
BRANCH   7   9
ATOM      9  O   UNL     1       5.543  -1.335   8.700  1.00  0.00    -0.478 OA
ATOM     10  H   UNL     1       5.401  -1.538   9.658  1.00  0.00     0.297 HD
ENDBRANCH   7   9
ENDBRANCH   1   7
BRANCH   2  11
ATOM     11  O   UNL     1       5.539   1.517   6.278  1.00  0.00    -0.504 OA
ATOM     12  H   UNL     1       5.842   2.360   6.701  1.00  0.00     0.293 HD
ENDBRANCH   2  11
BRANCH   5  13
ATOM     13  O   UNL     1       5.408   1.464   3.577  1.00  0.00    -0.493 OA
ATOM     14  C   UNL     1       5.897   2.199   2.632  1.00  0.00     0.278 C 
ENDBRANCH   5  13
TORSDOF 4
ENDMDL
MODEL 7
REMARK VINA RESULT:    -4.158      2.213      3.131
REMARK INTER + INTRA:          -5.299
REMARK INTER:                  -5.096
REMARK INTRA:                  -0.204
REMARK UNBOUND:                -0.412
REMARK SMILES COc1cccc(C(=O)O)c1O
REMARK SMILES IDX 7 1 11 2 6 3 5 4 3 5 4 6 8 7 9 8 10 9 12 11 2 13 1 14
REMARK H PARENT 10 10 12 12
ROOT
ATOM      1  C   UNL     1       6.886   0.022   3.241  1.00  0.00     0.105 A 
ATOM      2  C   UNL     1       5.982  -0.936   3.609  1.00  0.00     0.172 A 
ATOM      3  C   UNL     1       6.370   1.371   2.947  1.00  0.00     0.020 A 
ATOM      4  C   UNL     1       5.129   1.685   3.400  1.00  0.00     0.005 A 
ATOM      5  C   UNL     1       4.754  -0.597   4.315  1.00  0.00     0.161 A 
ATOM      6  C   UNL     1       4.287   0.756   4.080  1.00  0.00     0.050 A 
ENDROOT
BRANCH   1   7
ATOM      7  C   UNL     1       8.398  -0.264   3.234  1.00  0.00     0.339 C 
ATOM      8  O   UNL     1       8.819  -0.692   4.749  1.00  0.00    -0.246 OA
BRANCH   7   9
ATOM      9  O   UNL     1       9.189  -0.357   2.546  1.00  0.00    -0.478 OA
ATOM     10  H   UNL     1       9.934  -0.444   1.899  1.00  0.00     0.297 HD
ENDBRANCH   7   9
ENDBRANCH   1   7
BRANCH   2  11
ATOM     11  O   UNL     1       6.209  -2.297   3.342  1.00  0.00    -0.504 OA
ATOM     12  H   UNL     1       6.369  -3.256   3.154  1.00  0.00     0.293 HD
ENDBRANCH   2  11
BRANCH   5  13
ATOM     13  O   UNL     1       4.022  -1.670   4.805  1.00  0.00    -0.493 OA
ATOM     14  C   UNL     1       3.103  -2.311   5.450  1.00  0.00     0.278 C 
ENDBRANCH   5  13
TORSDOF 4
ENDMDL
MODEL 8
REMARK VINA RESULT:    -4.103      2.070      2.995
REMARK INTER + INTRA:          -5.235
REMARK INTER:                  -4.769
REMARK INTRA:                  -0.466
REMARK UNBOUND:                -0.412
REMARK SMILES COc1cccc(C(=O)O)c1O
REMARK SMILES IDX 7 1 11 2 6 3 5 4 3 5 4 6 8 7 9 8 10 9 12 11 2 13 1 14
REMARK H PARENT 10 10 12 12
ROOT
ATOM      1  C   UNL     1       5.068   0.609   3.631  1.00  0.00     0.105 A 
ATOM      2  C   UNL     1       6.238   0.072   4.094  1.00  0.00     0.172 A 
ATOM      3  C   UNL     1       3.827  -0.151   3.869  1.00  0.00     0.020 A 
ATOM      4  C   UNL     1       3.851  -1.117   4.822  1.00  0.00     0.005 A 
ATOM      5  C   UNL     1       6.273  -0.781   5.273  1.00  0.00     0.161 A 
ATOM      6  C   UNL     1       5.027  -1.472   5.546  1.00  0.00     0.050 A 
ENDROOT
BRANCH   1   7
ATOM      7  C   UNL     1       5.029   2.002   2.980  1.00  0.00     0.339 C 
ATOM      8  O   UNL     1       6.271   2.085   1.930  1.00  0.00    -0.246 OA
BRANCH   7   9
ATOM      9  O   UNL     1       4.403   2.848   2.942  1.00  0.00    -0.478 OA
ATOM     10  H   UNL     1       3.813   3.643   2.907  1.00  0.00     0.297 HD
ENDBRANCH   7   9
ENDBRANCH   1   7
BRANCH   2  11
ATOM     11  O   UNL     1       7.465   0.338   3.462  1.00  0.00    -0.504 OA
ATOM     12  H   UNL     1       8.330   0.526   3.018  1.00  0.00     0.293 HD
ENDBRANCH   2  11
BRANCH   5  13
ATOM     13  O   UNL     1       7.538  -1.098   5.754  1.00  0.00    -0.493 OA
ATOM     14  C   UNL     1       8.453  -1.700   6.439  1.00  0.00     0.278 C 
ENDBRANCH   5  13
TORSDOF 4
ENDMDL
MODEL 9
REMARK VINA RESULT:    -3.803      2.230      4.428
REMARK INTER + INTRA:          -4.882
REMARK INTER:                  -4.735
REMARK INTRA:                  -0.147
REMARK UNBOUND:                -0.412
REMARK SMILES COc1cccc(C(=O)O)c1O
REMARK SMILES IDX 7 1 11 2 6 3 5 4 3 5 4 6 8 7 9 8 10 9 12 11 2 13 1 14
REMARK H PARENT 10 10 12 12
ROOT
ATOM      1  C   UNL     1       4.889  -0.671   4.291  1.00  0.00     0.105 A 
ATOM      2  C   UNL     1       6.251  -0.704   4.171  1.00  0.00     0.172 A 
ATOM      3  C   UNL     1       4.207   0.603   3.995  1.00  0.00     0.020 A 
ATOM      4  C   UNL     1       4.893   1.536   3.286  1.00  0.00     0.005 A 
ATOM      5  C   UNL     1       6.955   0.147   3.223  1.00  0.00     0.161 A 
ATOM      6  C   UNL     1       6.249   1.367   2.879  1.00  0.00     0.050 A 
ENDROOT
BRANCH   1   7
ATOM      7  C   UNL     1       4.083  -1.940   4.617  1.00  0.00     0.339 C 
ATOM      8  O   UNL     1       2.635  -1.800   3.885  1.00  0.00    -0.246 OA
BRANCH   7   9
ATOM      9  O   UNL     1       4.223  -2.879   5.074  1.00  0.00    -0.478 OA
ATOM     10  H   UNL     1       4.354  -3.762   5.503  1.00  0.00     0.297 HD
ENDBRANCH   7   9
ENDBRANCH   1   7
BRANCH   2  11
ATOM     11  O   UNL     1       7.032  -1.579   4.946  1.00  0.00    -0.504 OA
ATOM     12  H   UNL     1       7.583  -2.195   5.491  1.00  0.00     0.293 HD
ENDBRANCH   2  11
BRANCH   5  13
ATOM     13  O   UNL     1       8.308  -0.121   3.058  1.00  0.00    -0.493 OA
ATOM     14  C   UNL     1       9.545  -0.330   3.370  1.00  0.00     0.278 C 
ENDBRANCH   5  13
TORSDOF 4
ENDMDL
