MODEL 1
REMARK VINA RESULT:    -4.880      0.000      0.000
REMARK INTER + INTRA:          -6.215
REMARK INTER:                  -5.736
REMARK INTRA:                  -0.479
REMARK UNBOUND:                -0.479
REMARK SMILES COc1cccc(C(=O)O)c1O
REMARK SMILES IDX 7 1 11 2 6 3 5 4 3 5 4 6 8 7 9 8 10 9 12 11 2 13 1 14
REMARK H PARENT 10 10 12 12
ROOT
ATOM      1  C   UNL     1      -2.701   3.693  -4.766  1.00  0.00     0.105 A 
ATOM      2  C   UNL     1      -3.458   2.570  -4.571  1.00  0.00     0.172 A 
ATOM      3  C   UNL     1      -3.410   4.960  -5.021  1.00  0.00     0.020 A 
ATOM      4  C   UNL     1      -4.726   5.025  -4.690  1.00  0.00     0.005 A 
ATOM      5  C   UNL     1      -4.790   2.640  -3.987  1.00  0.00     0.161 A 
ATOM      6  C   UNL     1      -5.458   3.914  -4.177  1.00  0.00     0.050 A 
ENDROOT
BRANCH   1   7
ATOM      7  C   UNL     1      -1.170   3.660  -4.622  1.00  0.00     0.339 C 
ATOM      8  O   UNL     1      -0.777   2.246  -3.914  1.00  0.00    -0.246 OA
BRANCH   7   9
ATOM      9  O   UNL     1      -0.328   4.216  -4.923  1.00  0.00    -0.478 OA
ATOM     10  H   UNL     1       0.464   4.739  -5.207  1.00  0.00     0.297 HD
ENDBRANCH   7   9
ENDBRANCH   1   7
BRANCH   2  11
ATOM     11  O   UNL     1      -2.974   1.294  -4.906  1.00  0.00    -0.504 OA
ATOM     12  H   UNL     1      -2.634   0.395  -5.142  1.00  0.00     0.293 HD
ENDBRANCH   2  11
BRANCH   5  13
ATOM     13  O   UNL     1      -5.372   1.422  -3.660  1.00  0.00    -0.493 OA
ATOM     14  C   UNL     1      -6.296   0.556  -3.400  1.00  0.00     0.278 C 
ENDBRANCH   5  13
TORSDOF 4
ENDMDL
MODEL 2
REMARK VINA RESULT:    -4.840      1.772      4.684
REMARK INTER + INTRA:          -6.168
REMARK INTER:                  -5.713
REMARK INTRA:                  -0.455
REMARK UNBOUND:                -0.479
REMARK SMILES COc1cccc(C(=O)O)c1O
REMARK SMILES IDX 7 1 11 2 6 3 5 4 3 5 4 6 8 7 9 8 10 9 12 11 2 13 1 14
REMARK H PARENT 10 10 12 12
ROOT
ATOM      1  C   UNL     1      -5.441   1.315  -4.466  1.00  0.00     0.105 A 
ATOM      2  C   UNL     1      -4.391   2.163  -4.240  1.00  0.00     0.172 A 
ATOM      3  C   UNL     1      -5.710   0.917  -5.859  1.00  0.00     0.020 A 
ATOM      4  C   UNL     1      -4.720   1.099  -6.771  1.00  0.00     0.005 A 
ATOM      5  C   UNL     1      -3.219   2.174  -5.104  1.00  0.00     0.161 A 
ATOM      6  C   UNL     1      -3.472   1.713  -6.457  1.00  0.00     0.050 A 
ENDROOT
BRANCH   1   7
ATOM      7  C   UNL     1      -6.247   0.713  -3.302  1.00  0.00     0.339 C 
ATOM      8  O   UNL     1      -5.438   1.042  -1.927  1.00  0.00    -0.246 OA
BRANCH   7   9
ATOM      9  O   UNL     1      -7.180   0.256  -3.130  1.00  0.00    -0.478 OA
ATOM     10  H   UNL     1      -8.058  -0.173  -2.969  1.00  0.00     0.297 HD
ENDBRANCH   7   9
ENDBRANCH   1   7
BRANCH   2  11
ATOM     11  O   UNL     1      -4.387   3.048  -3.149  1.00  0.00    -0.504 OA
ATOM     12  H   UNL     1      -4.384   3.672  -2.380  1.00  0.00     0.293 HD
ENDBRANCH   2  11
BRANCH   5  13
ATOM     13  O   UNL     1      -2.145   2.933  -4.658  1.00  0.00    -0.493 OA
ATOM     14  C   UNL     1      -1.263   3.877  -4.629  1.00  0.00     0.278 C 
ENDBRANCH   5  13
TORSDOF 4
ENDMDL
MODEL 3
REMARK VINA RESULT:    -4.699      2.928      4.385
REMARK INTER + INTRA:          -6.003
REMARK INTER:                  -5.733
REMARK INTRA:                  -0.270
REMARK UNBOUND:                -0.479
REMARK SMILES COc1cccc(C(=O)O)c1O
REMARK SMILES IDX 7 1 11 2 6 3 5 4 3 5 4 6 8 7 9 8 10 9 12 11 2 13 1 14
REMARK H PARENT 10 10 12 12
ROOT
ATOM      1  C   UNL     1      -5.191   1.555  -4.335  1.00  0.00     0.105 A 
ATOM      2  C   UNL     1      -5.543   1.718  -5.647  1.00  0.00     0.172 A 
ATOM      3  C   UNL     1      -4.089   2.385  -3.815  1.00  0.00     0.020 A 
ATOM      4  C   UNL     1      -3.742   3.490  -4.524  1.00  0.00     0.005 A 
ATOM      5  C   UNL     1      -5.381   2.995  -6.328  1.00  0.00     0.161 A 
ATOM      6  C   UNL     1      -4.343   3.840  -5.768  1.00  0.00     0.050 A 
ENDROOT
BRANCH   1   7
ATOM      7  C   UNL     1      -5.981   0.618  -3.405  1.00  0.00     0.339 C 
ATOM      8  O   UNL     1      -5.621   1.036  -1.872  1.00  0.00    -0.246 OA
BRANCH   7   9
ATOM      9  O   UNL     1      -6.731  -0.118  -3.464  1.00  0.00    -0.478 OA
ATOM     10  H   UNL     1      -7.437  -0.811  -3.520  1.00  0.00     0.297 HD
ENDBRANCH   7   9
ENDBRANCH   1   7
BRANCH   2  11
ATOM     11  O   UNL     1      -6.099   0.664  -6.392  1.00  0.00    -0.504 OA
ATOM     12  H   UNL     1      -6.491  -0.079  -6.916  1.00  0.00     0.293 HD
ENDBRANCH   2  11
BRANCH   5  13
ATOM     13  O   UNL     1      -5.956   3.085  -7.589  1.00  0.00    -0.493 OA
ATOM     14  C   UNL     1      -6.624   3.580  -8.578  1.00  0.00     0.278 C 
ENDBRANCH   5  13
TORSDOF 4
ENDMDL
MODEL 4
REMARK VINA RESULT:    -4.562      2.040      3.008
REMARK INTER + INTRA:          -5.842
REMARK INTER:                  -5.580
REMARK INTRA:                  -0.261
REMARK UNBOUND:                -0.479
REMARK SMILES COc1cccc(C(=O)O)c1O
REMARK SMILES IDX 7 1 11 2 6 3 5 4 3 5 4 6 8 7 9 8 10 9 12 11 2 13 1 14
REMARK H PARENT 10 10 12 12
ROOT
ATOM      1  C   UNL     1      -2.777   3.357  -4.581  1.00  0.00     0.105 A 
ATOM      2  C   UNL     1      -3.611   4.150  -5.320  1.00  0.00     0.172 A 
ATOM      3  C   UNL     1      -3.378   2.226  -3.850  1.00  0.00     0.020 A 
ATOM      4  C   UNL     1      -4.617   1.817  -4.229  1.00  0.00     0.005 A 
ATOM      5  C   UNL     1      -4.828   3.625  -5.923  1.00  0.00     0.161 A 
ATOM      6  C   UNL     1      -5.379   2.468  -5.243  1.00  0.00     0.050 A 
ENDROOT
BRANCH   1   7
ATOM      7  C   UNL     1      -1.253   3.567  -4.594  1.00  0.00     0.339 C 
ATOM      8  O   UNL     1      -0.572   2.239  -3.940  1.00  0.00    -0.246 OA
BRANCH   7   9
ATOM      9  O   UNL     1      -0.544   4.247  -4.975  1.00  0.00    -0.478 OA
ATOM     10  H   UNL     1       0.122   4.885  -5.333  1.00  0.00     0.297 HD
ENDBRANCH   7   9
ENDBRANCH   1   7
BRANCH   2  11
ATOM     11  O   UNL     1      -3.319   5.505  -5.549  1.00  0.00    -0.504 OA
ATOM     12  H   UNL     1      -3.113   6.460  -5.709  1.00  0.00     0.293 HD
ENDBRANCH   2  11
BRANCH   5  13
ATOM     13  O   UNL     1      -5.480   4.475  -6.808  1.00  0.00    -0.493 OA
ATOM     14  C   UNL     1      -5.852   4.994  -7.931  1.00  0.00     0.278 C 
ENDBRANCH   5  13
TORSDOF 4
ENDMDL
MODEL 5
REMARK VINA RESULT:    -4.139      1.444      1.444
REMARK INTER + INTRA:          -5.344
REMARK INTER:                  -4.902
REMARK INTRA:                  -0.441
REMARK UNBOUND:                -0.479
REMARK SMILES COc1cccc(C(=O)O)c1O
REMARK SMILES IDX 7 1 11 2 6 3 5 4 3 5 4 6 8 7 9 8 10 9 12 11 2 13 1 14
REMARK H PARENT 10 10 12 12
ROOT
ATOM      1  C   UNL     1      -2.521   3.800  -5.185  1.00  0.00     0.105 A 
ATOM      2  C   UNL     1      -3.203   2.731  -5.697  1.00  0.00     0.172 A 
ATOM      3  C   UNL     1      -3.221   5.097  -5.134  1.00  0.00     0.020 A 
ATOM      4  C   UNL     1      -4.574   5.088  -5.241  1.00  0.00     0.005 A 
ATOM      5  C   UNL     1      -4.652   2.627  -5.588  1.00  0.00     0.161 A 
ATOM      6  C   UNL     1      -5.333   3.902  -5.466  1.00  0.00     0.050 A 
ENDROOT
BRANCH   1   7
ATOM      7  C   UNL     1      -1.113   3.639  -4.586  1.00  0.00     0.339 C 
ATOM      8  O   UNL     1      -1.016   2.135  -3.968  1.00  0.00    -0.246 OA
BRANCH   7   9
ATOM      9  O   UNL     1      -0.198   4.158  -4.549  1.00  0.00    -0.478 OA
ATOM     10  H   UNL     1       0.663   4.646  -4.513  1.00  0.00     0.297 HD
ENDBRANCH   7   9
ENDBRANCH   1   7
BRANCH   2  11
ATOM     11  O   UNL     1      -2.534   1.671  -6.332  1.00  0.00    -0.504 OA
ATOM     12  H   UNL     1      -2.062   0.925  -6.780  1.00  0.00     0.293 HD
ENDBRANCH   2  11
BRANCH   5  13
ATOM     13  O   UNL     1      -5.201   1.409  -5.967  1.00  0.00    -0.493 OA
ATOM     14  C   UNL     1      -5.870   0.551  -6.665  1.00  0.00     0.278 C 
ENDBRANCH   5  13
TORSDOF 4
ENDMDL
MODEL 6
REMARK VINA RESULT:    -4.031      2.187      3.118
REMARK INTER + INTRA:          -5.218
REMARK INTER:                  -4.960
REMARK INTRA:                  -0.258
REMARK UNBOUND:                -0.479
REMARK SMILES COc1cccc(C(=O)O)c1O
REMARK SMILES IDX 7 1 11 2 6 3 5 4 3 5 4 6 8 7 9 8 10 9 12 11 2 13 1 14
REMARK H PARENT 10 10 12 12
ROOT
ATOM      1  C   UNL     1      -3.557   4.544  -4.930  1.00  0.00     0.105 A 
ATOM      2  C   UNL     1      -4.508   3.771  -4.323  1.00  0.00     0.172 A 
ATOM      3  C   UNL     1      -2.149   4.127  -4.794  1.00  0.00     0.020 A 
ATOM      4  C   UNL     1      -1.904   2.847  -4.410  1.00  0.00     0.005 A 
ATOM      5  C   UNL     1      -4.323   2.340  -4.134  1.00  0.00     0.161 A 
ATOM      6  C   UNL     1      -2.935   1.922  -4.072  1.00  0.00     0.050 A 
ENDROOT
BRANCH   1   7
ATOM      7  C   UNL     1      -3.943   5.745  -5.811  1.00  0.00     0.339 C 
ATOM      8  O   UNL     1      -5.127   5.251  -6.815  1.00  0.00    -0.246 OA
BRANCH   7   9
ATOM      9  O   UNL     1      -3.744   6.776  -5.885  1.00  0.00    -0.478 OA
ATOM     10  H   UNL     1      -3.558   7.746  -5.955  1.00  0.00     0.297 HD
ENDBRANCH   7   9
ENDBRANCH   1   7
BRANCH   2  11
ATOM     11  O   UNL     1      -5.721   4.322  -3.874  1.00  0.00    -0.504 OA
ATOM     12  H   UNL     1      -6.575   4.711  -3.557  1.00  0.00     0.293 HD
ENDBRANCH   2  11
BRANCH   5  13
ATOM     13  O   UNL     1      -5.437   1.638  -3.689  1.00  0.00    -0.493 OA
ATOM     14  C   UNL     1      -6.217   0.636  -3.452  1.00  0.00     0.278 C 
ENDBRANCH   5  13
TORSDOF 4
ENDMDL
MODEL 7
REMARK VINA RESULT:    -4.027      2.310      4.646
REMARK INTER + INTRA:          -5.213
REMARK INTER:                  -4.916
REMARK INTRA:                  -0.297
REMARK UNBOUND:                -0.479
REMARK SMILES COc1cccc(C(=O)O)c1O
REMARK SMILES IDX 7 1 11 2 6 3 5 4 3 5 4 6 8 7 9 8 10 9 12 11 2 13 1 14
REMARK H PARENT 10 10 12 12
ROOT
ATOM      1  C   UNL     1      -5.400   1.126  -5.545  1.00  0.00     0.105 A 
ATOM      2  C   UNL     1      -4.110   1.582  -5.555  1.00  0.00     0.172 A 
ATOM      3  C   UNL     1      -6.009   0.828  -4.236  1.00  0.00     0.020 A 
ATOM      4  C   UNL     1      -5.421   1.353  -3.131  1.00  0.00     0.005 A 
ATOM      5  C   UNL     1      -3.565   2.357  -4.449  1.00  0.00     0.161 A 
ATOM      6  C   UNL     1      -4.215   2.114  -3.174  1.00  0.00     0.050 A 
ENDROOT
BRANCH   1   7
ATOM      7  C   UNL     1      -6.223   1.028  -6.841  1.00  0.00     0.339 C 
ATOM      8  O   UNL     1      -5.971   2.399  -7.683  1.00  0.00    -0.246 OA
BRANCH   7   9
ATOM      9  O   UNL     1      -6.800   0.322  -7.368  1.00  0.00    -0.478 OA
ATOM     10  H   UNL     1      -7.342  -0.342  -7.864  1.00  0.00     0.297 HD
ENDBRANCH   7   9
ENDBRANCH   1   7
BRANCH   2  11
ATOM     11  O   UNL     1      -3.257   1.340  -6.645  1.00  0.00    -0.504 OA
ATOM     12  H   UNL     1      -2.655   1.170  -7.413  1.00  0.00     0.293 HD
ENDBRANCH   2  11
BRANCH   5  13
ATOM     13  O   UNL     1      -2.317   2.926  -4.665  1.00  0.00    -0.493 OA
ATOM     14  C   UNL     1      -1.390   3.826  -4.701  1.00  0.00     0.278 C 
ENDBRANCH   5  13
TORSDOF 4
ENDMDL
MODEL 8
REMARK VINA RESULT:    -3.952      2.318      4.405
REMARK INTER + INTRA:          -5.124
REMARK INTER:                  -4.683
REMARK INTRA:                  -0.441
REMARK UNBOUND:                -0.479
REMARK SMILES COc1cccc(C(=O)O)c1O
REMARK SMILES IDX 7 1 11 2 6 3 5 4 3 5 4 6 8 7 9 8 10 9 12 11 2 13 1 14
REMARK H PARENT 10 10 12 12
ROOT
ATOM      1  C   UNL     1      -4.176   2.311  -4.093  1.00  0.00     0.105 A 
ATOM      2  C   UNL     1      -4.483   3.366  -4.908  1.00  0.00     0.172 A 
ATOM      3  C   UNL     1      -2.753   1.958  -3.937  1.00  0.00     0.020 A 
ATOM      4  C   UNL     1      -1.830   2.888  -4.293  1.00  0.00     0.005 A 
ATOM      5  C   UNL     1      -3.565   4.482  -5.090  1.00  0.00     0.161 A 
ATOM      6  C   UNL     1      -2.170   4.149  -4.867  1.00  0.00     0.050 A 
ENDROOT
BRANCH   1   7
ATOM      7  C   UNL     1      -5.263   1.584  -3.283  1.00  0.00     0.339 C 
ATOM      8  O   UNL     1      -6.381   1.046  -4.340  1.00  0.00    -0.246 OA
BRANCH   7   9
ATOM      9  O   UNL     1      -5.440   1.258  -2.298  1.00  0.00    -0.478 OA
ATOM     10  H   UNL     1      -5.607   0.951  -1.371  1.00  0.00     0.297 HD
ENDBRANCH   7   9
ENDBRANCH   1   7
BRANCH   2  11
ATOM     11  O   UNL     1      -5.710   3.432  -5.590  1.00  0.00    -0.504 OA
ATOM     12  H   UNL     1      -6.574   3.478  -6.071  1.00  0.00     0.293 HD
ENDBRANCH   2  11
BRANCH   5  13
ATOM     13  O   UNL     1      -4.071   5.576  -5.780  1.00  0.00    -0.493 OA
ATOM     14  C   UNL     1      -4.086   6.700  -6.418  1.00  0.00     0.278 C 
ENDBRANCH   5  13
TORSDOF 4
ENDMDL
