MODEL 1
REMARK VINA RESULT:    -5.213      0.000      0.000
REMARK INTER + INTRA:          -6.604
REMARK INTER:                  -6.127
REMARK INTRA:                  -0.476
REMARK UNBOUND:                -0.476
REMARK SMILES COc1cccc(C(=O)O)c1O
REMARK SMILES IDX 7 1 11 2 6 3 5 4 3 5 4 6 8 7 9 8 10 9 12 11 2 13 1 14
REMARK H PARENT 10 10 12 12
ROOT
ATOM      1  C   UNL     1      -5.629  -1.099  -0.302  1.00  0.00     0.105 A 
ATOM      2  C   UNL     1      -4.955  -0.745   0.834  1.00  0.00     0.172 A 
ATOM      3  C   UNL     1      -6.908  -0.418  -0.578  1.00  0.00     0.020 A 
ATOM      4  C   UNL     1      -7.159   0.743   0.080  1.00  0.00     0.005 A 
ATOM      5  C   UNL     1      -5.054   0.594   1.396  1.00  0.00     0.161 A 
ATOM      6  C   UNL     1      -6.283   1.290   1.064  1.00  0.00     0.050 A 
ENDROOT
BRANCH   1   7
ATOM      7  C   UNL     1      -5.029  -2.092  -1.313  1.00  0.00     0.339 C 
ATOM      8  O   UNL     1      -3.455  -2.278  -0.937  1.00  0.00    -0.246 OA
BRANCH   7   9
ATOM      9  O   UNL     1      -5.347  -2.736  -2.083  1.00  0.00    -0.478 OA
ATOM     10  H   UNL     1      -5.645  -3.342  -2.807  1.00  0.00     0.297 HD
ENDBRANCH   7   9
ENDBRANCH   1   7
BRANCH   2  11
ATOM     11  O   UNL     1      -4.116  -1.655   1.500  1.00  0.00    -0.504 OA
ATOM     12  H   UNL     1      -3.525  -2.296   1.969  1.00  0.00     0.293 HD
ENDBRANCH   2  11
BRANCH   5  13
ATOM     13  O   UNL     1      -4.172   0.885   2.429  1.00  0.00    -0.493 OA
ATOM     14  C   UNL     1      -3.746   1.079   3.634  1.00  0.00     0.278 C 
ENDBRANCH   5  13
TORSDOF 4
ENDMDL
MODEL 2
REMARK VINA RESULT:    -5.209      1.774      4.653
REMARK INTER + INTRA:          -6.599
REMARK INTER:                  -6.124
REMARK INTRA:                  -0.475
REMARK UNBOUND:                -0.476
REMARK SMILES COc1cccc(C(=O)O)c1O
REMARK SMILES IDX 7 1 11 2 6 3 5 4 3 5 4 6 8 7 9 8 10 9 12 11 2 13 1 14
REMARK H PARENT 10 10 12 12
ROOT
ATOM      1  C   UNL     1      -4.740   0.061   2.927  1.00  0.00     0.105 A 
ATOM      2  C   UNL     1      -4.762  -0.234   1.591  1.00  0.00     0.172 A 
ATOM      3  C   UNL     1      -5.513  -0.810   3.832  1.00  0.00     0.020 A 
ATOM      4  C   UNL     1      -5.886  -2.030   3.367  1.00  0.00     0.005 A 
ATOM      5  C   UNL     1      -4.928  -1.599   1.113  1.00  0.00     0.161 A 
ATOM      6  C   UNL     1      -5.627  -2.473   2.037  1.00  0.00     0.050 A 
ENDROOT
BRANCH   1   7
ATOM      7  C   UNL     1      -3.859   1.193   3.482  1.00  0.00     0.339 C 
ATOM      8  O   UNL     1      -2.819   1.623   2.304  1.00  0.00    -0.246 OA
BRANCH   7   9
ATOM      9  O   UNL     1      -3.798   1.814   4.330  1.00  0.00    -0.478 OA
ATOM     10  H   UNL     1      -3.741   2.398   5.127  1.00  0.00     0.297 HD
ENDBRANCH   7   9
ENDBRANCH   1   7
BRANCH   2  11
ATOM     11  O   UNL     1      -4.604   0.767   0.618  1.00  0.00    -0.504 OA
ATOM     12  H   UNL     1      -4.492   1.473  -0.067  1.00  0.00     0.293 HD
ENDBRANCH   2  11
BRANCH   5  13
ATOM     13  O   UNL     1      -4.736  -1.792  -0.249  1.00  0.00    -0.493 OA
ATOM     14  C   UNL     1      -5.025  -1.965  -1.497  1.00  0.00     0.278 C 
ENDBRANCH   5  13
TORSDOF 4
ENDMDL
MODEL 3
REMARK VINA RESULT:    -4.641      2.215      3.298
REMARK INTER + INTRA:          -5.931
REMARK INTER:                  -5.660
REMARK INTRA:                  -0.271
REMARK UNBOUND:                -0.476
REMARK SMILES COc1cccc(C(=O)O)c1O
REMARK SMILES IDX 7 1 11 2 6 3 5 4 3 5 4 6 8 7 9 8 10 9 12 11 2 13 1 14
REMARK H PARENT 10 10 12 12
ROOT
ATOM      1  C   UNL     1      -5.414  -1.126  -0.146  1.00  0.00     0.105 A 
ATOM      2  C   UNL     1      -6.729  -0.780   0.001  1.00  0.00     0.172 A 
ATOM      3  C   UNL     1      -4.516  -0.907   1.003  1.00  0.00     0.020 A 
ATOM      4  C   UNL     1      -5.085  -0.735   2.224  1.00  0.00     0.005 A 
ATOM      5  C   UNL     1      -7.391  -0.831   1.297  1.00  0.00     0.161 A 
ATOM      6  C   UNL     1      -6.495  -0.687   2.430  1.00  0.00     0.050 A 
ENDROOT
BRANCH   1   7
ATOM      7  C   UNL     1      -4.907  -1.815  -1.425  1.00  0.00     0.339 C 
ATOM      8  O   UNL     1      -3.469  -2.496  -1.073  1.00  0.00    -0.246 OA
BRANCH   7   9
ATOM      9  O   UNL     1      -5.247  -2.051  -2.393  1.00  0.00    -0.478 OA
ATOM     10  H   UNL     1      -5.567  -2.273  -3.303  1.00  0.00     0.297 HD
ENDBRANCH   7   9
ENDBRANCH   1   7
BRANCH   2  11
ATOM     11  O   UNL     1      -7.508  -0.380  -1.097  1.00  0.00    -0.504 OA
ATOM     12  H   UNL     1      -8.057  -0.098  -1.872  1.00  0.00     0.293 HD
ENDBRANCH   2  11
BRANCH   5  13
ATOM     13  O   UNL     1      -8.768  -0.649   1.281  1.00  0.00    -0.493 OA
ATOM     14  C   UNL     1     -10.024  -0.922   1.417  1.00  0.00     0.278 C 
ENDBRANCH   5  13
TORSDOF 4
ENDMDL
MODEL 4
REMARK VINA RESULT:    -4.635      2.937      4.413
REMARK INTER + INTRA:          -5.924
REMARK INTER:                  -5.658
REMARK INTRA:                  -0.266
REMARK UNBOUND:                -0.476
REMARK SMILES COc1cccc(C(=O)O)c1O
REMARK SMILES IDX 7 1 11 2 6 3 5 4 3 5 4 6 8 7 9 8 10 9 12 11 2 13 1 14
REMARK H PARENT 10 10 12 12
ROOT
ATOM      1  C   UNL     1      -4.683   0.135   2.689  1.00  0.00     0.105 A 
ATOM      2  C   UNL     1      -5.765  -0.449   3.287  1.00  0.00     0.172 A 
ATOM      3  C   UNL     1      -4.579   0.041   1.222  1.00  0.00     0.020 A 
ATOM      4  C   UNL     1      -5.703  -0.278   0.529  1.00  0.00     0.005 A 
ATOM      5  C   UNL     1      -7.045  -0.568   2.602  1.00  0.00     0.161 A 
ATOM      6  C   UNL     1      -6.946  -0.589   1.155  1.00  0.00     0.050 A 
ENDROOT
BRANCH   1   7
ATOM      7  C   UNL     1      -3.664   0.953   3.502  1.00  0.00     0.339 C 
ATOM      8  O   UNL     1      -2.801   1.843   2.445  1.00  0.00    -0.246 OA
BRANCH   7   9
ATOM      9  O   UNL     1      -3.436   1.172   4.506  1.00  0.00    -0.478 OA
ATOM     10  H   UNL     1      -3.221   1.378   5.451  1.00  0.00     0.297 HD
ENDBRANCH   7   9
ENDBRANCH   1   7
BRANCH   2  11
ATOM     11  O   UNL     1      -5.697  -0.942   4.602  1.00  0.00    -0.504 OA
ATOM     12  H   UNL     1      -5.649  -1.290   5.528  1.00  0.00     0.293 HD
ENDBRANCH   2  11
BRANCH   5  13
ATOM     13  O   UNL     1      -8.111  -0.997   3.382  1.00  0.00    -0.493 OA
ATOM     14  C   UNL     1      -9.237  -0.956   4.016  1.00  0.00     0.278 C 
ENDBRANCH   5  13
TORSDOF 4
ENDMDL
MODEL 5
REMARK VINA RESULT:    -4.566      1.462      4.294
REMARK INTER + INTRA:          -5.843
REMARK INTER:                  -5.412
REMARK INTRA:                  -0.431
REMARK UNBOUND:                -0.476
REMARK SMILES COc1cccc(C(=O)O)c1O
REMARK SMILES IDX 7 1 11 2 6 3 5 4 3 5 4 6 8 7 9 8 10 9 12 11 2 13 1 14
REMARK H PARENT 10 10 12 12
ROOT
ATOM      1  C   UNL     1      -4.752   0.792   2.359  1.00  0.00     0.105 A 
ATOM      2  C   UNL     1      -4.481   0.109   1.205  1.00  0.00     0.172 A 
ATOM      3  C   UNL     1      -6.160   1.120   2.646  1.00  0.00     0.020 A 
ATOM      4  C   UNL     1      -7.118   0.431   1.973  1.00  0.00     0.005 A 
ATOM      5  C   UNL     1      -5.443  -0.816   0.623  1.00  0.00     0.161 A 
ATOM      6  C   UNL     1      -6.824  -0.534   0.965  1.00  0.00     0.050 A 
ENDROOT
BRANCH   1   7
ATOM      7  C   UNL     1      -3.643   1.116   3.376  1.00  0.00     0.339 C 
ATOM      8  O   UNL     1      -2.526   2.020   2.607  1.00  0.00    -0.246 OA
BRANCH   7   9
ATOM      9  O   UNL     1      -3.450   1.013   4.406  1.00  0.00    -0.478 OA
ATOM     10  H   UNL     1      -3.269   0.916   5.375  1.00  0.00     0.297 HD
ENDBRANCH   7   9
ENDBRANCH   1   7
BRANCH   2  11
ATOM     11  O   UNL     1      -3.252   0.254   0.540  1.00  0.00    -0.504 OA
ATOM     12  H   UNL     1      -2.386   0.357   0.072  1.00  0.00     0.293 HD
ENDBRANCH   2  11
BRANCH   5  13
ATOM     13  O   UNL     1      -4.975  -1.591  -0.431  1.00  0.00    -0.493 OA
ATOM     14  C   UNL     1      -4.946  -2.160  -1.591  1.00  0.00     0.278 C 
ENDBRANCH   5  13
TORSDOF 4
ENDMDL
MODEL 6
REMARK VINA RESULT:    -4.163      2.459      4.625
REMARK INTER + INTRA:          -5.370
REMARK INTER:                  -5.166
REMARK INTRA:                  -0.203
REMARK UNBOUND:                -0.476
REMARK SMILES COc1cccc(C(=O)O)c1O
REMARK SMILES IDX 7 1 11 2 6 3 5 4 3 5 4 6 8 7 9 8 10 9 12 11 2 13 1 14
REMARK H PARENT 10 10 12 12
ROOT
ATOM      1  C   UNL     1      -5.388  -0.818   3.373  1.00  0.00     0.105 A 
ATOM      2  C   UNL     1      -5.289  -1.532   2.211  1.00  0.00     0.172 A 
ATOM      3  C   UNL     1      -4.513   0.359   3.528  1.00  0.00     0.020 A 
ATOM      4  C   UNL     1      -3.946   0.876   2.408  1.00  0.00     0.005 A 
ATOM      5  C   UNL     1      -4.906  -0.901   0.956  1.00  0.00     0.161 A 
ATOM      6  C   UNL     1      -4.103   0.298   1.114  1.00  0.00     0.050 A 
ENDROOT
BRANCH   1   7
ATOM      7  C   UNL     1      -6.444  -1.162   4.437  1.00  0.00     0.339 C 
ATOM      8  O   UNL     1      -7.906  -1.054   3.725  1.00  0.00    -0.246 OA
BRANCH   7   9
ATOM      9  O   UNL     1      -6.494  -1.528   5.423  1.00  0.00    -0.478 OA
ATOM     10  H   UNL     1      -6.541  -1.872   6.350  1.00  0.00     0.297 HD
ENDBRANCH   7   9
ENDBRANCH   1   7
BRANCH   2  11
ATOM     11  O   UNL     1      -5.576  -2.907   2.171  1.00  0.00    -0.504 OA
ATOM     12  H   UNL     1      -5.778  -3.876   2.143  1.00  0.00     0.293 HD
ENDBRANCH   2  11
BRANCH   5  13
ATOM     13  O   UNL     1      -5.034  -1.687  -0.182  1.00  0.00    -0.493 OA
ATOM     14  C   UNL     1      -5.064  -2.001  -1.435  1.00  0.00     0.278 C 
ENDBRANCH   5  13
TORSDOF 4
ENDMDL
MODEL 7
REMARK VINA RESULT:    -4.147      2.190      3.104
REMARK INTER + INTRA:          -5.350
REMARK INTER:                  -5.147
REMARK INTRA:                  -0.204
REMARK UNBOUND:                -0.476
REMARK SMILES COc1cccc(C(=O)O)c1O
REMARK SMILES IDX 7 1 11 2 6 3 5 4 3 5 4 6 8 7 9 8 10 9 12 11 2 13 1 14
REMARK H PARENT 10 10 12 12
ROOT
ATOM      1  C   UNL     1      -6.567  -0.367  -0.245  1.00  0.00     0.105 A 
ATOM      2  C   UNL     1      -5.977   0.399   0.723  1.00  0.00     0.172 A 
ATOM      3  C   UNL     1      -5.728  -1.366  -0.932  1.00  0.00     0.020 A 
ATOM      4  C   UNL     1      -4.560  -1.725  -0.338  1.00  0.00     0.005 A 
ATOM      5  C   UNL     1      -4.865  -0.101   1.520  1.00  0.00     0.161 A 
ATOM      6  C   UNL     1      -4.083  -1.135   0.869  1.00  0.00     0.050 A 
ENDROOT
BRANCH   1   7
ATOM      7  C   UNL     1      -8.074  -0.267  -0.536  1.00  0.00     0.339 C 
ATOM      8  O   UNL     1      -8.861  -0.612   0.848  1.00  0.00    -0.246 OA
BRANCH   7   9
ATOM      9  O   UNL     1      -8.718   0.043  -1.309  1.00  0.00    -0.478 OA
ATOM     10  H   UNL     1      -9.325   0.335  -2.036  1.00  0.00     0.297 HD
ENDBRANCH   7   9
ENDBRANCH   1   7
BRANCH   2  11
ATOM     11  O   UNL     1      -6.432   1.698   1.008  1.00  0.00    -0.504 OA
ATOM     12  H   UNL     1      -6.753   2.613   1.208  1.00  0.00     0.293 HD
ENDBRANCH   2  11
BRANCH   5  13
ATOM     13  O   UNL     1      -4.487   0.692   2.596  1.00  0.00    -0.493 OA
ATOM     14  C   UNL     1      -3.792   1.111   3.602  1.00  0.00     0.278 C 
ENDBRANCH   5  13
TORSDOF 4
ENDMDL
MODEL 8
REMARK VINA RESULT:    -3.920      2.171      3.009
REMARK INTER + INTRA:          -5.084
REMARK INTER:                  -4.625
REMARK INTRA:                  -0.459
REMARK UNBOUND:                -0.476
REMARK SMILES COc1cccc(C(=O)O)c1O
REMARK SMILES IDX 7 1 11 2 6 3 5 4 3 5 4 6 8 7 9 8 10 9 12 11 2 13 1 14
REMARK H PARENT 10 10 12 12
ROOT
ATOM      1  C   UNL     1      -4.753  -0.876   0.510  1.00  0.00     0.105 A 
ATOM      2  C   UNL     1      -6.018  -0.902   1.029  1.00  0.00     0.172 A 
ATOM      3  C   UNL     1      -3.747  -0.051   1.204  1.00  0.00     0.020 A 
ATOM      4  C   UNL     1      -4.013   0.328   2.481  1.00  0.00     0.005 A 
ATOM      5  C   UNL     1      -6.264  -0.729   2.454  1.00  0.00     0.161 A 
ATOM      6  C   UNL     1      -5.235   0.023   3.148  1.00  0.00     0.050 A 
ENDROOT
BRANCH   1   7
ATOM      7  C   UNL     1      -4.361  -1.756  -0.689  1.00  0.00     0.339 C 
ATOM      8  O   UNL     1      -5.453  -1.487  -1.868  1.00  0.00    -0.246 OA
BRANCH   7   9
ATOM      9  O   UNL     1      -3.571  -2.380  -0.996  1.00  0.00    -0.478 OA
ATOM     10  H   UNL     1      -2.828  -2.968  -1.285  1.00  0.00     0.297 HD
ENDBRANCH   7   9
ENDBRANCH   1   7
BRANCH   2  11
ATOM     11  O   UNL     1      -7.140  -1.119   0.210  1.00  0.00    -0.504 OA
ATOM     12  H   UNL     1      -7.930  -1.272  -0.366  1.00  0.00     0.293 HD
ENDBRANCH   2  11
BRANCH   5  13
ATOM     13  O   UNL     1      -7.564  -0.973   2.878  1.00  0.00    -0.493 OA
ATOM     14  C   UNL     1      -8.737  -0.742   3.368  1.00  0.00     0.278 C 
ENDBRANCH   5  13
TORSDOF 4
ENDMDL
MODEL 9
REMARK VINA RESULT:    -3.706      2.209      4.409
REMARK INTER + INTRA:          -4.832
REMARK INTER:                  -4.350
REMARK INTRA:                  -0.482
REMARK UNBOUND:                -0.476
REMARK SMILES COc1cccc(C(=O)O)c1O
REMARK SMILES IDX 7 1 11 2 6 3 5 4 3 5 4 6 8 7 9 8 10 9 12 11 2 13 1 14
REMARK H PARENT 10 10 12 12
ROOT
ATOM      1  C   UNL     1      -4.778  -0.351   1.370  1.00  0.00     0.105 A 
ATOM      2  C   UNL     1      -6.101  -0.251   1.036  1.00  0.00     0.172 A 
ATOM      3  C   UNL     1      -3.958  -1.327   0.630  1.00  0.00     0.020 A 
ATOM      4  C   UNL     1      -4.442  -1.793  -0.550  1.00  0.00     0.005 A 
ATOM      5  C   UNL     1      -6.570  -0.528  -0.314  1.00  0.00     0.161 A 
ATOM      6  C   UNL     1      -5.722  -1.435  -1.066  1.00  0.00     0.050 A 
ENDROOT
BRANCH   1   7
ATOM      7  C   UNL     1      -4.141   0.593   2.404  1.00  0.00     0.339 C 
ATOM      8  O   UNL     1      -5.190   1.812   2.663  1.00  0.00    -0.246 OA
BRANCH   7   9
ATOM      9  O   UNL     1      -3.304   0.630   3.042  1.00  0.00    -0.478 OA
ATOM     10  H   UNL     1      -2.517   0.664   3.642  1.00  0.00     0.297 HD
ENDBRANCH   7   9
ENDBRANCH   1   7
BRANCH   2  11
ATOM     11  O   UNL     1      -7.066   0.145   1.978  1.00  0.00    -0.504 OA
ATOM     12  H   UNL     1      -7.745   0.425   2.641  1.00  0.00     0.293 HD
ENDBRANCH   2  11
BRANCH   5  13
ATOM     13  O   UNL     1      -7.895  -0.202  -0.574  1.00  0.00    -0.493 OA
ATOM     14  C   UNL     1      -9.154  -0.365  -0.819  1.00  0.00     0.278 C 
ENDBRANCH   5  13
TORSDOF 4
ENDMDL
