MODEL 1
REMARK VINA RESULT:    -5.082      0.000      0.000
REMARK INTER + INTRA:          -6.456
REMARK INTER:                  -5.973
REMARK INTRA:                  -0.483
REMARK UNBOUND:                -0.483
REMARK SMILES COc1cccc(C(=O)O)c1O
REMARK SMILES IDX 7 1 11 2 6 3 5 4 3 5 4 6 8 7 9 8 10 9 12 11 2 13 1 14
REMARK H PARENT 10 10 12 12
ROOT
ATOM      1  C   UNL     1       1.882  -2.574   6.663  1.00  0.00     0.105 A 
ATOM      2  C   UNL     1       2.787  -2.254   5.689  1.00  0.00     0.172 A 
ATOM      3  C   UNL     1       2.057  -1.953   7.989  1.00  0.00     0.020 A 
ATOM      4  C   UNL     1       2.849  -0.854   8.072  1.00  0.00     0.005 A 
ATOM      5  C   UNL     1       3.456  -0.961   5.663  1.00  0.00     0.161 A 
ATOM      6  C   UNL     1       3.564  -0.320   6.960  1.00  0.00     0.050 A 
ENDROOT
BRANCH   1   7
ATOM      7  C   UNL     1       0.663  -3.463   6.362  1.00  0.00     0.339 C 
ATOM      8  O   UNL     1       0.533  -3.579   4.742  1.00  0.00    -0.246 OA
BRANCH   7   9
ATOM      9  O   UNL     1      -0.024  -4.075   6.874  1.00  0.00    -0.478 OA
ATOM     10  H   UNL     1      -0.671  -4.651   7.355  1.00  0.00     0.297 HD
ENDBRANCH   7   9
ENDBRANCH   1   7
BRANCH   2  11
ATOM     11  O   UNL     1       3.097  -3.154   4.655  1.00  0.00    -0.504 OA
ATOM     12  H   UNL     1       3.316  -3.788   3.926  1.00  0.00     0.293 HD
ENDBRANCH   2  11
BRANCH   5  13
ATOM     13  O   UNL     1       4.197  -0.686   4.521  1.00  0.00    -0.493 OA
ATOM     14  C   UNL     1       4.781   0.005   3.598  1.00  0.00     0.278 C 
ENDBRANCH   5  13
TORSDOF 4
ENDMDL
MODEL 2
REMARK VINA RESULT:    -5.064      1.786      4.661
REMARK INTER + INTRA:          -6.435
REMARK INTER:                  -5.952
REMARK INTRA:                  -0.483
REMARK UNBOUND:                -0.483
REMARK SMILES COc1cccc(C(=O)O)c1O
REMARK SMILES IDX 7 1 11 2 6 3 5 4 3 5 4 6 8 7 9 8 10 9 12 11 2 13 1 14
REMARK H PARENT 10 10 12 12
ROOT
ATOM      1  C   UNL     1       4.524  -1.124   4.669  1.00  0.00     0.105 A 
ATOM      2  C   UNL     1       3.372  -1.382   5.359  1.00  0.00     0.172 A 
ATOM      3  C   UNL     1       5.642  -2.073   4.826  1.00  0.00     0.020 A 
ATOM      4  C   UNL     1       5.360  -3.303   5.327  1.00  0.00     0.005 A 
ATOM      5  C   UNL     1       2.963  -2.742   5.682  1.00  0.00     0.161 A 
ATOM      6  C   UNL     1       4.059  -3.689   5.766  1.00  0.00     0.050 A 
ENDROOT
BRANCH   1   7
ATOM      7  C   UNL     1       4.620   0.052   3.682  1.00  0.00     0.339 C 
ATOM      8  O   UNL     1       3.105   0.588   3.415  1.00  0.00    -0.246 OA
BRANCH   7   9
ATOM      9  O   UNL     1       5.355   0.652   3.225  1.00  0.00    -0.478 OA
ATOM     10  H   UNL     1       6.046   1.216   2.795  1.00  0.00     0.297 HD
ENDBRANCH   7   9
ENDBRANCH   1   7
BRANCH   2  11
ATOM     11  O   UNL     1       2.517  -0.345   5.770  1.00  0.00    -0.504 OA
ATOM     12  H   UNL     1       1.915   0.386   6.059  1.00  0.00     0.293 HD
ENDBRANCH   2  11
BRANCH   5  13
ATOM     13  O   UNL     1       1.685  -2.881   6.207  1.00  0.00    -0.493 OA
ATOM     14  C   UNL     1       0.564  -3.442   6.524  1.00  0.00     0.278 C 
ENDBRANCH   5  13
TORSDOF 4
ENDMDL
MODEL 3
REMARK VINA RESULT:    -4.678      2.129      3.128
REMARK INTER + INTRA:          -5.982
REMARK INTER:                  -5.712
REMARK INTRA:                  -0.270
REMARK UNBOUND:                -0.483
REMARK SMILES COc1cccc(C(=O)O)c1O
REMARK SMILES IDX 7 1 11 2 6 3 5 4 3 5 4 6 8 7 9 8 10 9 12 11 2 13 1 14
REMARK H PARENT 10 10 12 12
ROOT
ATOM      1  C   UNL     1       1.988  -2.456   6.297  1.00  0.00     0.105 A 
ATOM      2  C   UNL     1       2.706  -2.232   7.440  1.00  0.00     0.172 A 
ATOM      3  C   UNL     1       2.595  -2.043   5.018  1.00  0.00     0.020 A 
ATOM      4  C   UNL     1       3.933  -1.816   4.998  1.00  0.00     0.005 A 
ATOM      5  C   UNL     1       4.162  -2.229   7.440  1.00  0.00     0.161 A 
ATOM      6  C   UNL     1       4.757  -1.892   6.160  1.00  0.00     0.050 A 
ENDROOT
BRANCH   1   7
ATOM      7  C   UNL     1       0.645  -3.206   6.329  1.00  0.00     0.339 C 
ATOM      8  O   UNL     1       0.381  -3.794   4.833  1.00  0.00    -0.246 OA
BRANCH   7   9
ATOM      9  O   UNL     1      -0.075  -3.522   7.029  1.00  0.00    -0.478 OA
ATOM     10  H   UNL     1      -0.753  -3.820   7.686  1.00  0.00     0.297 HD
ENDBRANCH   7   9
ENDBRANCH   1   7
BRANCH   2  11
ATOM     11  O   UNL     1       2.068  -2.015   8.674  1.00  0.00    -0.504 OA
ATOM     12  H   UNL     1       1.619  -1.863   9.543  1.00  0.00     0.293 HD
ENDBRANCH   2  11
BRANCH   5  13
ATOM     13  O   UNL     1       4.768  -2.188   8.689  1.00  0.00    -0.493 OA
ATOM     14  C   UNL     1       5.416  -2.595   9.730  1.00  0.00     0.278 C 
ENDBRANCH   5  13
TORSDOF 4
ENDMDL
MODEL 4
REMARK VINA RESULT:    -4.638      2.888      4.337
REMARK INTER + INTRA:          -5.934
REMARK INTER:                  -5.664
REMARK INTRA:                  -0.270
REMARK UNBOUND:                -0.483
REMARK SMILES COc1cccc(C(=O)O)c1O
REMARK SMILES IDX 7 1 11 2 6 3 5 4 3 5 4 6 8 7 9 8 10 9 12 11 2 13 1 14
REMARK H PARENT 10 10 12 12
ROOT
ATOM      1  C   UNL     1       4.115  -1.161   4.679  1.00  0.00     0.105 A 
ATOM      2  C   UNL     1       5.060  -1.805   5.431  1.00  0.00     0.172 A 
ATOM      3  C   UNL     1       2.698  -1.443   4.974  1.00  0.00     0.020 A 
ATOM      4  C   UNL     1       2.404  -2.013   6.171  1.00  0.00     0.005 A 
ATOM      5  C   UNL     1       4.801  -2.200   6.808  1.00  0.00     0.161 A 
ATOM      6  C   UNL     1       3.398  -2.407   7.115  1.00  0.00     0.050 A 
ENDROOT
BRANCH   1   7
ATOM      7  C   UNL     1       4.509  -0.102   3.635  1.00  0.00     0.339 C 
ATOM      8  O   UNL     1       3.185   0.797   3.331  1.00  0.00    -0.246 OA
BRANCH   7   9
ATOM      9  O   UNL     1       5.371   0.261   3.153  1.00  0.00    -0.478 OA
ATOM     10  H   UNL     1       6.183   0.603   2.701  1.00  0.00     0.297 HD
ENDBRANCH   7   9
ENDBRANCH   1   7
BRANCH   2  11
ATOM     11  O   UNL     1       6.333  -2.096   4.912  1.00  0.00    -0.504 OA
ATOM     12  H   UNL     1       7.230  -2.301   4.547  1.00  0.00     0.293 HD
ENDBRANCH   2  11
BRANCH   5  13
ATOM     13  O   UNL     1       5.899  -2.663   7.522  1.00  0.00    -0.493 OA
ATOM     14  C   UNL     1       6.857  -2.677   8.388  1.00  0.00     0.278 C 
ENDBRANCH   5  13
TORSDOF 4
ENDMDL
MODEL 5
REMARK VINA RESULT:    -4.261      2.343      4.661
REMARK INTER + INTRA:          -5.491
REMARK INTER:                  -5.015
REMARK INTRA:                  -0.476
REMARK UNBOUND:                -0.483
REMARK SMILES COc1cccc(C(=O)O)c1O
REMARK SMILES IDX 7 1 11 2 6 3 5 4 3 5 4 6 8 7 9 8 10 9 12 11 2 13 1 14
REMARK H PARENT 10 10 12 12
ROOT
ATOM      1  C   UNL     1       4.820  -0.990   4.840  1.00  0.00     0.105 A 
ATOM      2  C   UNL     1       4.016  -0.829   5.935  1.00  0.00     0.172 A 
ATOM      3  C   UNL     1       5.773  -2.115   4.852  1.00  0.00     0.020 A 
ATOM      4  C   UNL     1       5.557  -3.117   5.742  1.00  0.00     0.005 A 
ATOM      5  C   UNL     1       3.597  -1.963   6.747  1.00  0.00     0.161 A 
ATOM      6  C   UNL     1       4.501  -3.096   6.701  1.00  0.00     0.050 A 
ENDROOT
BRANCH   1   7
ATOM      7  C   UNL     1       4.666  -0.098   3.596  1.00  0.00     0.339 C 
ATOM      8  O   UNL     1       3.153   0.506   3.614  1.00  0.00    -0.246 OA
BRANCH   7   9
ATOM      9  O   UNL     1       5.258   0.301   2.822  1.00  0.00    -0.478 OA
ATOM     10  H   UNL     1       5.815   0.675   2.094  1.00  0.00     0.297 HD
ENDBRANCH   7   9
ENDBRANCH   1   7
BRANCH   2  11
ATOM     11  O   UNL     1       3.539   0.437   6.313  1.00  0.00    -0.504 OA
ATOM     12  H   UNL     1       3.203   1.330   6.579  1.00  0.00     0.293 HD
ENDBRANCH   2  11
BRANCH   5  13
ATOM     13  O   UNL     1       2.627  -1.695   7.706  1.00  0.00    -0.493 OA
ATOM     14  C   UNL     1       2.093  -1.539   8.872  1.00  0.00     0.278 C 
ENDBRANCH   5  13
TORSDOF 4
ENDMDL
MODEL 6
REMARK VINA RESULT:    -4.096      2.192      3.121
REMARK INTER + INTRA:          -5.297
REMARK INTER:                  -5.093
REMARK INTRA:                  -0.204
REMARK UNBOUND:                -0.483
REMARK SMILES COc1cccc(C(=O)O)c1O
REMARK SMILES IDX 7 1 11 2 6 3 5 4 3 5 4 6 8 7 9 8 10 9 12 11 2 13 1 14
REMARK H PARENT 10 10 12 12
ROOT
ATOM      1  C   UNL     1       2.250  -1.900   7.598  1.00  0.00     0.105 A 
ATOM      2  C   UNL     1       2.900  -1.039   6.757  1.00  0.00     0.172 A 
ATOM      3  C   UNL     1       1.314  -2.868   6.996  1.00  0.00     0.020 A 
ATOM      4  C   UNL     1       1.420  -3.103   5.663  1.00  0.00     0.005 A 
ATOM      5  C   UNL     1       3.218  -1.408   5.385  1.00  0.00     0.161 A 
ATOM      6  C   UNL     1       2.339  -2.413   4.818  1.00  0.00     0.050 A 
ENDROOT
BRANCH   1   7
ATOM      7  C   UNL     1       2.558  -1.932   9.105  1.00  0.00     0.339 C 
ATOM      8  O   UNL     1       4.148  -2.249   9.270  1.00  0.00    -0.246 OA
BRANCH   7   9
ATOM      9  O   UNL     1       2.085  -1.720  10.021  1.00  0.00    -0.478 OA
ATOM     10  H   UNL     1       1.639  -1.521  10.883  1.00  0.00     0.297 HD
ENDBRANCH   7   9
ENDBRANCH   1   7
BRANCH   2  11
ATOM     11  O   UNL     1       3.310   0.234   7.187  1.00  0.00    -0.504 OA
ATOM     12  H   UNL     1       3.599   1.131   7.490  1.00  0.00     0.293 HD
ENDBRANCH   2  11
BRANCH   5  13
ATOM     13  O   UNL     1       4.049  -0.530   4.700  1.00  0.00    -0.493 OA
ATOM     14  C   UNL     1       4.700  -0.004   3.715  1.00  0.00     0.278 C 
ENDBRANCH   5  13
TORSDOF 4
ENDMDL
MODEL 7
REMARK VINA RESULT:    -4.087      2.689      4.206
REMARK INTER + INTRA:          -5.286
REMARK INTER:                  -4.824
REMARK INTRA:                  -0.462
REMARK UNBOUND:                -0.483
REMARK SMILES COc1cccc(C(=O)O)c1O
REMARK SMILES IDX 7 1 11 2 6 3 5 4 3 5 4 6 8 7 9 8 10 9 12 11 2 13 1 14
REMARK H PARENT 10 10 12 12
ROOT
ATOM      1  C   UNL     1       3.433  -1.344   4.639  1.00  0.00     0.105 A 
ATOM      2  C   UNL     1       4.341  -1.908   5.492  1.00  0.00     0.172 A 
ATOM      3  C   UNL     1       2.060  -1.883   4.649  1.00  0.00     0.020 A 
ATOM      4  C   UNL     1       1.681  -2.625   5.721  1.00  0.00     0.005 A 
ATOM      5  C   UNL     1       3.936  -2.493   6.762  1.00  0.00     0.161 A 
ATOM      6  C   UNL     1       2.562  -2.958   6.792  1.00  0.00     0.050 A 
ENDROOT
BRANCH   1   7
ATOM      7  C   UNL     1       3.796  -0.123   3.776  1.00  0.00     0.339 C 
ATOM      8  O   UNL     1       5.272  -0.396   3.143  1.00  0.00    -0.246 OA
BRANCH   7   9
ATOM      9  O   UNL     1       3.347   0.756   3.409  1.00  0.00    -0.478 OA
ATOM     10  H   UNL     1       2.926   1.583   3.065  1.00  0.00     0.297 HD
ENDBRANCH   7   9
ENDBRANCH   1   7
BRANCH   2  11
ATOM     11  O   UNL     1       5.714  -1.928   5.190  1.00  0.00    -0.504 OA
ATOM     12  H   UNL     1       6.681  -1.943   4.977  1.00  0.00     0.293 HD
ENDBRANCH   2  11
BRANCH   5  13
ATOM     13  O   UNL     1       4.967  -2.851   7.621  1.00  0.00    -0.493 OA
ATOM     14  C   UNL     1       5.649  -2.949   8.714  1.00  0.00     0.278 C 
ENDBRANCH   5  13
TORSDOF 4
ENDMDL
MODEL 8
REMARK VINA RESULT:    -4.084      1.964      2.941
REMARK INTER + INTRA:          -5.282
REMARK INTER:                  -4.820
REMARK INTRA:                  -0.462
REMARK UNBOUND:                -0.483
REMARK SMILES COc1cccc(C(=O)O)c1O
REMARK SMILES IDX 7 1 11 2 6 3 5 4 3 5 4 6 8 7 9 8 10 9 12 11 2 13 1 14
REMARK H PARENT 10 10 12 12
ROOT
ATOM      1  C   UNL     1       2.077  -2.124   5.659  1.00  0.00     0.105 A 
ATOM      2  C   UNL     1       2.874  -1.996   6.763  1.00  0.00     0.172 A 
ATOM      3  C   UNL     1       2.420  -1.322   4.471  1.00  0.00     0.020 A 
ATOM      4  C   UNL     1       3.673  -0.803   4.400  1.00  0.00     0.005 A 
ATOM      5  C   UNL     1       4.288  -1.668   6.649  1.00  0.00     0.161 A 
ATOM      6  C   UNL     1       4.636  -0.940   5.443  1.00  0.00     0.050 A 
ENDROOT
BRANCH   1   7
ATOM      7  C   UNL     1       0.926  -3.144   5.618  1.00  0.00     0.339 C 
ATOM      8  O   UNL     1       0.142  -3.051   7.043  1.00  0.00    -0.246 OA
BRANCH   7   9
ATOM      9  O   UNL     1       0.454  -3.787   4.931  1.00  0.00    -0.478 OA
ATOM     10  H   UNL     1       0.010  -4.392   4.285  1.00  0.00     0.297 HD
ENDBRANCH   7   9
ENDBRANCH   1   7
BRANCH   2  11
ATOM     11  O   UNL     1       2.368  -2.196   8.059  1.00  0.00    -0.504 OA
ATOM     12  H   UNL     1       2.012  -2.338   8.972  1.00  0.00     0.293 HD
ENDBRANCH   2  11
BRANCH   5  13
ATOM     13  O   UNL     1       5.028  -1.761   7.822  1.00  0.00    -0.493 OA
ATOM     14  C   UNL     1       5.886  -2.215   8.675  1.00  0.00     0.278 C 
ENDBRANCH   5  13
TORSDOF 4
ENDMDL
MODEL 9
REMARK VINA RESULT:    -3.873      1.698      2.230
REMARK INTER + INTRA:          -5.035
REMARK INTER:                  -4.853
REMARK INTRA:                  -0.182
REMARK UNBOUND:                -0.483
REMARK SMILES COc1cccc(C(=O)O)c1O
REMARK SMILES IDX 7 1 11 2 6 3 5 4 3 5 4 6 8 7 9 8 10 9 12 11 2 13 1 14
REMARK H PARENT 10 10 12 12
ROOT
ATOM      1  C   UNL     1       2.177  -3.118   5.983  1.00  0.00     0.105 A 
ATOM      2  C   UNL     1       2.525  -2.188   5.043  1.00  0.00     0.172 A 
ATOM      3  C   UNL     1       3.169  -4.156   6.317  1.00  0.00     0.020 A 
ATOM      4  C   UNL     1       4.462  -3.929   5.970  1.00  0.00     0.005 A 
ATOM      5  C   UNL     1       3.909  -1.779   4.848  1.00  0.00     0.161 A 
ATOM      6  C   UNL     1       4.886  -2.776   5.245  1.00  0.00     0.050 A 
ENDROOT
BRANCH   1   7
ATOM      7  C   UNL     1       0.843  -3.027   6.744  1.00  0.00     0.339 C 
ATOM      8  O   UNL     1       1.168  -2.446   8.230  1.00  0.00    -0.246 OA
BRANCH   7   9
ATOM      9  O   UNL     1      -0.189  -3.132   6.560  1.00  0.00    -0.478 OA
ATOM     10  H   UNL     1      -1.159  -3.231   6.387  1.00  0.00     0.297 HD
ENDBRANCH   7   9
ENDBRANCH   1   7
BRANCH   2  11
ATOM     11  O   UNL     1       1.557  -1.567   4.235  1.00  0.00    -0.504 OA
ATOM     12  H   UNL     1       0.875  -1.129   3.666  1.00  0.00     0.293 HD
ENDBRANCH   2  11
BRANCH   5  13
ATOM     13  O   UNL     1       4.107  -0.691   4.008  1.00  0.00    -0.493 OA
ATOM     14  C   UNL     1       4.695   0.322   3.462  1.00  0.00     0.278 C 
ENDBRANCH   5  13
TORSDOF 4
ENDMDL
