MODEL 1
REMARK VINA RESULT:    -4.881      0.000      0.000
REMARK INTER + INTRA:          -6.220
REMARK INTER:                  -5.737
REMARK INTRA:                  -0.483
REMARK UNBOUND:                -0.483
REMARK SMILES COc1cccc(C(=O)O)c1O
REMARK SMILES IDX 7 1 11 2 6 3 5 4 3 5 4 6 8 7 9 8 10 9 12 11 2 13 1 14
REMARK H PARENT 10 10 12 12
ROOT
ATOM      1  C   UNL     1      -3.437   3.903  -5.089  1.00  0.00     0.105 A 
ATOM      2  C   UNL     1      -2.856   4.530  -4.021  1.00  0.00     0.172 A 
ATOM      3  C   UNL     1      -3.360   4.573  -6.400  1.00  0.00     0.020 A 
ATOM      4  C   UNL     1      -2.432   5.553  -6.555  1.00  0.00     0.005 A 
ATOM      5  C   UNL     1      -1.699   5.400  -4.183  1.00  0.00     0.161 A 
ATOM      6  C   UNL     1      -1.587   6.003  -5.498  1.00  0.00     0.050 A 
ENDROOT
BRANCH   1   7
ATOM      7  C   UNL     1      -4.056   2.502  -4.954  1.00  0.00     0.339 C 
ATOM      8  O   UNL     1      -3.563   1.887  -3.528  1.00  0.00    -0.246 OA
BRANCH   7   9
ATOM      9  O   UNL     1      -4.756   1.888  -5.446  1.00  0.00    -0.478 OA
ATOM     10  H   UNL     1      -5.415   1.311  -5.908  1.00  0.00     0.297 HD
ENDBRANCH   7   9
ENDBRANCH   1   7
BRANCH   2  11
ATOM     11  O   UNL     1      -3.336   4.345  -2.714  1.00  0.00    -0.504 OA
ATOM     12  H   UNL     1      -3.675   4.215  -1.792  1.00  0.00     0.293 HD
ENDBRANCH   2  11
BRANCH   5  13
ATOM     13  O   UNL     1      -1.085   5.816  -3.009  1.00  0.00    -0.493 OA
ATOM     14  C   UNL     1      -0.163   6.265  -2.222  1.00  0.00     0.278 C 
ENDBRANCH   5  13
TORSDOF 4
ENDMDL
MODEL 2
REMARK VINA RESULT:    -4.829      1.770      4.662
REMARK INTER + INTRA:          -6.158
REMARK INTER:                  -5.693
REMARK INTRA:                  -0.466
REMARK UNBOUND:                -0.483
REMARK SMILES COc1cccc(C(=O)O)c1O
REMARK SMILES IDX 7 1 11 2 6 3 5 4 3 5 4 6 8 7 9 8 10 9 12 11 2 13 1 14
REMARK H PARENT 10 10 12 12
ROOT
ATOM      1  C   UNL     1      -1.516   6.141  -2.992  1.00  0.00     0.105 A 
ATOM      2  C   UNL     1      -1.969   5.079  -3.725  1.00  0.00     0.172 A 
ATOM      3  C   UNL     1      -2.513   7.116  -2.513  1.00  0.00     0.020 A 
ATOM      4  C   UNL     1      -3.816   6.732  -2.500  1.00  0.00     0.005 A 
ATOM      5  C   UNL     1      -3.301   4.526  -3.526  1.00  0.00     0.161 A 
ATOM      6  C   UNL     1      -4.263   5.469  -2.987  1.00  0.00     0.050 A 
ENDROOT
BRANCH   1   7
ATOM      7  C   UNL     1      -0.037   6.262  -2.589  1.00  0.00     0.339 C 
ATOM      8  O   UNL     1       0.633   4.785  -2.743  1.00  0.00    -0.246 OA
BRANCH   7   9
ATOM      9  O   UNL     1       0.666   7.008  -2.348  1.00  0.00    -0.478 OA
ATOM     10  H   UNL     1       1.327   7.710  -2.120  1.00  0.00     0.297 HD
ENDBRANCH   7   9
ENDBRANCH   1   7
BRANCH   2  11
ATOM     11  O   UNL     1      -1.159   4.459  -4.692  1.00  0.00    -0.504 OA
ATOM     12  H   UNL     1      -0.589   4.023  -5.373  1.00  0.00     0.293 HD
ENDBRANCH   2  11
BRANCH   5  13
ATOM     13  O   UNL     1      -3.567   3.334  -4.187  1.00  0.00    -0.493 OA
ATOM     14  C   UNL     1      -3.984   2.533  -5.112  1.00  0.00     0.278 C 
ENDBRANCH   5  13
TORSDOF 4
ENDMDL
MODEL 3
REMARK VINA RESULT:    -4.657      2.046      3.134
REMARK INTER + INTRA:          -5.956
REMARK INTER:                  -5.690
REMARK INTRA:                  -0.266
REMARK UNBOUND:                -0.483
REMARK SMILES COc1cccc(C(=O)O)c1O
REMARK SMILES IDX 7 1 11 2 6 3 5 4 3 5 4 6 8 7 9 8 10 9 12 11 2 13 1 14
REMARK H PARENT 10 10 12 12
ROOT
ATOM      1  C   UNL     1      -3.241   3.832  -4.916  1.00  0.00     0.105 A 
ATOM      2  C   UNL     1      -3.526   4.805  -5.834  1.00  0.00     0.172 A 
ATOM      3  C   UNL     1      -2.300   4.170  -3.832  1.00  0.00     0.020 A 
ATOM      4  C   UNL     1      -2.064   5.485  -3.589  1.00  0.00     0.005 A 
ATOM      5  C   UNL     1      -3.498   6.218  -5.484  1.00  0.00     0.161 A 
ATOM      6  C   UNL     1      -2.625   6.538  -4.369  1.00  0.00     0.050 A 
ENDROOT
BRANCH   1   7
ATOM      7  C   UNL     1      -3.953   2.469  -4.948  1.00  0.00     0.339 C 
ATOM      8  O   UNL     1      -3.669   1.738  -3.520  1.00  0.00    -0.246 OA
BRANCH   7   9
ATOM      9  O   UNL     1      -4.624   1.933  -5.557  1.00  0.00    -0.478 OA
ATOM     10  H   UNL     1      -5.256   1.429  -6.129  1.00  0.00     0.297 HD
ENDBRANCH   7   9
ENDBRANCH   1   7
BRANCH   2  11
ATOM     11  O   UNL     1      -3.882   4.483  -7.155  1.00  0.00    -0.504 OA
ATOM     12  H   UNL     1      -4.133   4.256  -8.086  1.00  0.00     0.293 HD
ENDBRANCH   2  11
BRANCH   5  13
ATOM     13  O   UNL     1      -3.997   7.090  -6.443  1.00  0.00    -0.493 OA
ATOM     14  C   UNL     1      -4.773   7.966  -6.992  1.00  0.00     0.278 C 
ENDBRANCH   5  13
TORSDOF 4
ENDMDL
MODEL 4
REMARK VINA RESULT:    -4.631      2.927      4.374
REMARK INTER + INTRA:          -5.925
REMARK INTER:                  -5.655
REMARK INTRA:                  -0.271
REMARK UNBOUND:                -0.483
REMARK SMILES COc1cccc(C(=O)O)c1O
REMARK SMILES IDX 7 1 11 2 6 3 5 4 3 5 4 6 8 7 9 8 10 9 12 11 2 13 1 14
REMARK H PARENT 10 10 12 12
ROOT
ATOM      1  C   UNL     1      -1.538   5.810  -3.079  1.00  0.00     0.105 A 
ATOM      2  C   UNL     1      -2.494   6.779  -3.212  1.00  0.00     0.172 A 
ATOM      3  C   UNL     1      -1.763   4.527  -3.768  1.00  0.00     0.020 A 
ATOM      4  C   UNL     1      -2.685   4.500  -4.766  1.00  0.00     0.005 A 
ATOM      5  C   UNL     1      -3.320   6.877  -4.407  1.00  0.00     0.161 A 
ATOM      6  C   UNL     1      -3.482   5.626  -5.124  1.00  0.00     0.050 A 
ENDROOT
BRANCH   1   7
ATOM      7  C   UNL     1      -0.223   6.082  -2.326  1.00  0.00     0.339 C 
ATOM      8  O   UNL     1       0.836   4.924  -2.763  1.00  0.00    -0.246 OA
BRANCH   7   9
ATOM      9  O   UNL     1       0.207   6.822  -1.713  1.00  0.00    -0.478 OA
ATOM     10  H   UNL     1       0.611   7.518  -1.136  1.00  0.00     0.297 HD
ENDBRANCH   7   9
ENDBRANCH   1   7
BRANCH   2  11
ATOM     11  O   UNL     1      -2.709   7.738  -2.207  1.00  0.00    -0.504 OA
ATOM     12  H   UNL     1      -2.861   8.413  -1.500  1.00  0.00     0.293 HD
ENDBRANCH   2  11
BRANCH   5  13
ATOM     13  O   UNL     1      -4.111   8.015  -4.505  1.00  0.00    -0.493 OA
ATOM     14  C   UNL     1      -4.552   9.144  -4.953  1.00  0.00     0.278 C 
ENDBRANCH   5  13
TORSDOF 4
ENDMDL
MODEL 5
REMARK VINA RESULT:    -4.132      2.231      4.651
REMARK INTER + INTRA:          -5.340
REMARK INTER:                  -5.028
REMARK INTRA:                  -0.312
REMARK UNBOUND:                -0.483
REMARK SMILES COc1cccc(C(=O)O)c1O
REMARK SMILES IDX 7 1 11 2 6 3 5 4 3 5 4 6 8 7 9 8 10 9 12 11 2 13 1 14
REMARK H PARENT 10 10 12 12
ROOT
ATOM      1  C   UNL     1      -2.506   6.670  -2.650  1.00  0.00     0.105 A 
ATOM      2  C   UNL     1      -3.230   5.573  -3.031  1.00  0.00     0.172 A 
ATOM      3  C   UNL     1      -1.056   6.495  -2.450  1.00  0.00     0.020 A 
ATOM      4  C   UNL     1      -0.471   5.396  -2.993  1.00  0.00     0.005 A 
ATOM      5  C   UNL     1      -2.639   4.507  -3.826  1.00  0.00     0.161 A 
ATOM      6  C   UNL     1      -1.201   4.383  -3.682  1.00  0.00     0.050 A 
ENDROOT
BRANCH   1   7
ATOM      7  C   UNL     1      -3.157   8.059  -2.536  1.00  0.00     0.339 C 
ATOM      8  O   UNL     1      -4.122   8.252  -3.834  1.00  0.00    -0.246 OA
BRANCH   7   9
ATOM      9  O   UNL     1      -3.236   8.849  -1.844  1.00  0.00    -0.478 OA
ATOM     10  H   UNL     1      -3.311   9.591  -1.193  1.00  0.00     0.297 HD
ENDBRANCH   7   9
ENDBRANCH   1   7
BRANCH   2  11
ATOM     11  O   UNL     1      -4.587   5.438  -2.689  1.00  0.00    -0.504 OA
ATOM     12  H   UNL     1      -5.542   5.342  -2.449  1.00  0.00     0.293 HD
ENDBRANCH   2  11
BRANCH   5  13
ATOM     13  O   UNL     1      -3.524   3.553  -4.313  1.00  0.00    -0.493 OA
ATOM     14  C   UNL     1      -3.999   2.625  -5.077  1.00  0.00     0.278 C 
ENDBRANCH   5  13
TORSDOF 4
ENDMDL
MODEL 6
REMARK VINA RESULT:    -4.118      2.183      3.125
REMARK INTER + INTRA:          -5.323
REMARK INTER:                  -5.120
REMARK INTRA:                  -0.203
REMARK UNBOUND:                -0.483
REMARK SMILES COc1cccc(C(=O)O)c1O
REMARK SMILES IDX 7 1 11 2 6 3 5 4 3 5 4 6 8 7 9 8 10 9 12 11 2 13 1 14
REMARK H PARENT 10 10 12 12
ROOT
ATOM      1  C   UNL     1      -3.108   4.668  -5.958  1.00  0.00     0.105 A 
ATOM      2  C   UNL     1      -2.026   5.162  -5.283  1.00  0.00     0.172 A 
ATOM      3  C   UNL     1      -3.737   3.441  -5.438  1.00  0.00     0.020 A 
ATOM      4  C   UNL     1      -3.462   3.085  -4.157  1.00  0.00     0.005 A 
ATOM      5  C   UNL     1      -1.869   4.970  -3.848  1.00  0.00     0.161 A 
ATOM      6  C   UNL     1      -2.549   3.799  -3.326  1.00  0.00     0.050 A 
ENDROOT
BRANCH   1   7
ATOM      7  C   UNL     1      -3.715   5.420  -7.156  1.00  0.00     0.339 C 
ATOM      8  O   UNL     1      -4.158   6.897  -6.629  1.00  0.00    -0.246 OA
BRANCH   7   9
ATOM      9  O   UNL     1      -3.833   5.302  -8.195  1.00  0.00    -0.478 OA
ATOM     10  H   UNL     1      -3.944   5.192  -9.173  1.00  0.00     0.297 HD
ENDBRANCH   7   9
ENDBRANCH   1   7
BRANCH   2  11
ATOM     11  O   UNL     1      -1.026   5.898  -5.941  1.00  0.00    -0.504 OA
ATOM     12  H   UNL     1      -0.321   6.416  -6.405  1.00  0.00     0.293 HD
ENDBRANCH   2  11
BRANCH   5  13
ATOM     13  O   UNL     1      -0.838   5.684  -3.251  1.00  0.00    -0.493 OA
ATOM     14  C   UNL     1      -0.165   6.290  -2.329  1.00  0.00     0.278 C 
ENDBRANCH   5  13
TORSDOF 4
ENDMDL
MODEL 7
REMARK VINA RESULT:    -3.978      2.012      2.944
REMARK INTER + INTRA:          -5.158
REMARK INTER:                  -4.691
REMARK INTRA:                  -0.467
REMARK UNBOUND:                -0.483
REMARK SMILES COc1cccc(C(=O)O)c1O
REMARK SMILES IDX 7 1 11 2 6 3 5 4 3 5 4 6 8 7 9 8 10 9 12 11 2 13 1 14
REMARK H PARENT 10 10 12 12
ROOT
ATOM      1  C   UNL     1      -2.725   3.987  -4.183  1.00  0.00     0.105 A 
ATOM      2  C   UNL     1      -3.169   5.101  -4.841  1.00  0.00     0.172 A 
ATOM      3  C   UNL     1      -1.552   4.136  -3.303  1.00  0.00     0.020 A 
ATOM      4  C   UNL     1      -1.212   5.390  -2.909  1.00  0.00     0.005 A 
ATOM      5  C   UNL     1      -3.004   6.435  -4.281  1.00  0.00     0.161 A 
ATOM      6  C   UNL     1      -1.891   6.561  -3.359  1.00  0.00     0.050 A 
ENDROOT
BRANCH   1   7
ATOM      7  C   UNL     1      -3.482   2.651  -4.272  1.00  0.00     0.339 C 
ATOM      8  O   UNL     1      -3.808   2.379  -5.845  1.00  0.00    -0.246 OA
BRANCH   7   9
ATOM      9  O   UNL     1      -3.752   1.844  -3.651  1.00  0.00    -0.478 OA
ATOM     10  H   UNL     1      -4.006   1.086  -3.068  1.00  0.00     0.297 HD
ENDBRANCH   7   9
ENDBRANCH   1   7
BRANCH   2  11
ATOM     11  O   UNL     1      -3.826   5.007  -6.080  1.00  0.00    -0.504 OA
ATOM     12  H   UNL     1      -4.288   4.940  -6.952  1.00  0.00     0.293 HD
ENDBRANCH   2  11
BRANCH   5  13
ATOM     13  O   UNL     1      -3.669   7.458  -4.946  1.00  0.00    -0.493 OA
ATOM     14  C   UNL     1      -3.853   8.582  -5.555  1.00  0.00     0.278 C 
ENDBRANCH   5  13
TORSDOF 4
ENDMDL
MODEL 8
REMARK VINA RESULT:    -3.894      2.323      4.443
REMARK INTER + INTRA:          -5.059
REMARK INTER:                  -4.800
REMARK INTRA:                  -0.260
REMARK UNBOUND:                -0.483
REMARK SMILES COc1cccc(C(=O)O)c1O
REMARK SMILES IDX 7 1 11 2 6 3 5 4 3 5 4 6 8 7 9 8 10 9 12 11 2 13 1 14
REMARK H PARENT 10 10 12 12
ROOT
ATOM      1  C   UNL     1      -1.862   5.228  -3.886  1.00  0.00     0.105 A 
ATOM      2  C   UNL     1      -2.487   5.757  -4.981  1.00  0.00     0.172 A 
ATOM      3  C   UNL     1      -2.394   3.967  -3.337  1.00  0.00     0.020 A 
ATOM      4  C   UNL     1      -3.207   3.226  -4.134  1.00  0.00     0.005 A 
ATOM      5  C   UNL     1      -3.157   4.914  -5.960  1.00  0.00     0.161 A 
ATOM      6  C   UNL     1      -3.618   3.642  -5.434  1.00  0.00     0.050 A 
ENDROOT
BRANCH   1   7
ATOM      7  C   UNL     1      -0.585   5.863  -3.308  1.00  0.00     0.339 C 
ATOM      8  O   UNL     1       0.397   4.648  -2.845  1.00  0.00    -0.246 OA
BRANCH   7   9
ATOM      9  O   UNL     1      -0.136   6.811  -3.218  1.00  0.00    -0.478 OA
ATOM     10  H   UNL     1       0.287   7.702  -3.133  1.00  0.00     0.297 HD
ENDBRANCH   7   9
ENDBRANCH   1   7
BRANCH   2  11
ATOM     11  O   UNL     1      -2.492   7.142  -5.222  1.00  0.00    -0.504 OA
ATOM     12  H   UNL     1      -2.495   8.117  -5.392  1.00  0.00     0.293 HD
ENDBRANCH   2  11
BRANCH   5  13
ATOM     13  O   UNL     1      -3.579   5.550  -7.120  1.00  0.00    -0.493 OA
ATOM     14  C   UNL     1      -4.329   5.849  -8.129  1.00  0.00     0.278 C 
ENDBRANCH   5  13
TORSDOF 4
ENDMDL
MODEL 9
REMARK VINA RESULT:    -3.888      7.157      8.317
REMARK INTER + INTRA:          -5.052
REMARK INTER:                  -4.812
REMARK INTRA:                  -0.240
REMARK UNBOUND:                -0.483
REMARK SMILES COc1cccc(C(=O)O)c1O
REMARK SMILES IDX 7 1 11 2 6 3 5 4 3 5 4 6 8 7 9 8 10 9 12 11 2 13 1 14
REMARK H PARENT 10 10 12 12
ROOT
ATOM      1  C   UNL     1      -2.394  -1.124   2.141  1.00  0.00     0.105 A 
ATOM      2  C   UNL     1      -1.404  -0.959   1.212  1.00  0.00     0.172 A 
ATOM      3  C   UNL     1      -2.381  -0.235   3.318  1.00  0.00     0.020 A 
ATOM      4  C   UNL     1      -1.643   0.902   3.242  1.00  0.00     0.005 A 
ATOM      5  C   UNL     1      -0.784   0.337   0.978  1.00  0.00     0.161 A 
ATOM      6  C   UNL     1      -0.836   1.237   2.116  1.00  0.00     0.050 A 
ENDROOT
BRANCH   1   7
ATOM      7  C   UNL     1      -3.541  -2.125   1.920  1.00  0.00     0.339 C 
ATOM      8  O   UNL     1      -3.820  -2.199   0.317  1.00  0.00    -0.246 OA
BRANCH   7   9
ATOM      9  O   UNL     1      -4.108  -2.822   2.469  1.00  0.00    -0.478 OA
ATOM     10  H   UNL     1      -4.642  -3.477   2.985  1.00  0.00     0.297 HD
ENDBRANCH   7   9
ENDBRANCH   1   7
BRANCH   2  11
ATOM     11  O   UNL     1      -0.955  -2.032   0.424  1.00  0.00    -0.504 OA
ATOM     12  H   UNL     1      -0.638  -2.788  -0.132  1.00  0.00     0.293 HD
ENDBRANCH   2  11
BRANCH   5  13
ATOM     13  O   UNL     1       0.062   0.415  -0.121  1.00  0.00    -0.493 OA
ATOM     14  C   UNL     1       0.638   0.076  -1.227  1.00  0.00     0.278 C 
ENDBRANCH   5  13
TORSDOF 4
ENDMDL
