MODEL 1
REMARK VINA RESULT:    -4.911      0.000      0.000
REMARK INTER + INTRA:          -6.042
REMARK INTER:                  -5.772
REMARK INTRA:                  -0.270
REMARK UNBOUND:                -0.270
REMARK SMILES COc1cccc(C(=O)O)c1O
REMARK SMILES IDX 7 1 11 2 6 3 5 4 3 5 4 6 8 7 9 8 10 9 12 11 2 13 1 14
REMARK H PARENT 10 10 12 12
ROOT
ATOM      1  C   UNL     1       0.212  -1.266  -5.884  1.00  0.00     0.105 A 
ATOM      2  C   UNL     1       0.764  -0.795  -7.044  1.00  0.00     0.172 A 
ATOM      3  C   UNL     1      -0.841  -0.452  -5.248  1.00  0.00     0.020 A 
ATOM      4  C   UNL     1      -1.451   0.494  -6.007  1.00  0.00     0.005 A 
ATOM      5  C   UNL     1       0.004   0.032  -7.970  1.00  0.00     0.161 A 
ATOM      6  C   UNL     1      -1.077   0.778  -7.353  1.00  0.00     0.050 A 
ENDROOT
BRANCH   1   7
ATOM      7  C   UNL     1       0.595  -2.644  -5.316  1.00  0.00     0.339 C 
ATOM      8  O   UNL     1      -0.573  -3.081  -4.269  1.00  0.00    -0.246 OA
BRANCH   7   9
ATOM      9  O   UNL     1       1.311  -3.400  -5.473  1.00  0.00    -0.478 OA
ATOM     10  H   UNL     1       1.984  -4.112  -5.620  1.00  0.00     0.297 HD
ENDBRANCH   7   9
ENDBRANCH   1   7
BRANCH   2  11
ATOM     11  O   UNL     1       2.085  -1.109  -7.405  1.00  0.00    -0.504 OA
ATOM     12  H   UNL     1       3.017  -1.329  -7.659  1.00  0.00     0.293 HD
ENDBRANCH   2  11
BRANCH   5  13
ATOM     13  O   UNL     1       0.608   0.279  -9.196  1.00  0.00    -0.493 OA
ATOM     14  C   UNL     1       0.759   0.333 -10.479  1.00  0.00     0.278 C 
ENDBRANCH   5  13
TORSDOF 4
ENDMDL
MODEL 2
REMARK VINA RESULT:    -4.885      2.975      4.004
REMARK INTER + INTRA:          -6.012
REMARK INTER:                  -5.742
REMARK INTRA:                  -0.270
REMARK UNBOUND:                -0.270
REMARK SMILES COc1cccc(C(=O)O)c1O
REMARK SMILES IDX 7 1 11 2 6 3 5 4 3 5 4 6 8 7 9 8 10 9 12 11 2 13 1 14
REMARK H PARENT 10 10 12 12
ROOT
ATOM      1  C   UNL     1      -1.396   1.275  -5.610  1.00  0.00     0.105 A 
ATOM      2  C   UNL     1      -1.733   1.206  -6.934  1.00  0.00     0.172 A 
ATOM      3  C   UNL     1      -0.431   0.285  -5.098  1.00  0.00     0.020 A 
ATOM      4  C   UNL     1       0.331  -0.381  -6.004  1.00  0.00     0.005 A 
ATOM      5  C   UNL     1      -0.801   0.705  -7.934  1.00  0.00     0.161 A 
ATOM      6  C   UNL     1       0.193  -0.216  -7.413  1.00  0.00     0.050 A 
ENDROOT
BRANCH   1   7
ATOM      7  C   UNL     1      -1.920   2.406  -4.708  1.00  0.00     0.339 C 
ATOM      8  O   UNL     1      -0.934   2.494  -3.414  1.00  0.00    -0.246 OA
BRANCH   7   9
ATOM      9  O   UNL     1      -2.640   3.174  -4.729  1.00  0.00    -0.478 OA
ATOM     10  H   UNL     1      -3.317   3.897  -4.749  1.00  0.00     0.297 HD
ENDBRANCH   7   9
ENDBRANCH   1   7
BRANCH   2  11
ATOM     11  O   UNL     1      -2.989   1.639  -7.393  1.00  0.00    -0.504 OA
ATOM     12  H   UNL     1      -3.873   1.944  -7.716  1.00  0.00     0.293 HD
ENDBRANCH   2  11
BRANCH   5  13
ATOM     13  O   UNL     1      -1.186   0.870  -9.258  1.00  0.00    -0.493 OA
ATOM     14  C   UNL     1      -1.106   1.190 -10.508  1.00  0.00     0.278 C 
ENDBRANCH   5  13
TORSDOF 4
ENDMDL
MODEL 3
REMARK VINA RESULT:    -4.864      2.146      3.154
REMARK INTER + INTRA:          -5.987
REMARK INTER:                  -5.504
REMARK INTRA:                  -0.483
REMARK UNBOUND:                -0.270
REMARK SMILES COc1cccc(C(=O)O)c1O
REMARK SMILES IDX 7 1 11 2 6 3 5 4 3 5 4 6 8 7 9 8 10 9 12 11 2 13 1 14
REMARK H PARENT 10 10 12 12
ROOT
ATOM      1  C   UNL     1       0.394  -1.478  -6.076  1.00  0.00     0.105 A 
ATOM      2  C   UNL     1      -0.597  -0.562  -5.852  1.00  0.00     0.172 A 
ATOM      3  C   UNL     1       1.532  -1.062  -6.917  1.00  0.00     0.020 A 
ATOM      4  C   UNL     1       1.721   0.269  -7.109  1.00  0.00     0.005 A 
ATOM      5  C   UNL     1      -0.324   0.868  -5.827  1.00  0.00     0.161 A 
ATOM      6  C   UNL     1       0.839   1.266  -6.598  1.00  0.00     0.050 A 
ENDROOT
BRANCH   1   7
ATOM      7  C   UNL     1       0.380  -2.856  -5.393  1.00  0.00     0.339 C 
ATOM      8  O   UNL     1      -0.635  -2.760  -4.123  1.00  0.00    -0.246 OA
BRANCH   7   9
ATOM      9  O   UNL     1       0.742  -3.832  -5.557  1.00  0.00    -0.478 OA
ATOM     10  H   UNL     1       1.083  -4.749  -5.710  1.00  0.00     0.297 HD
ENDBRANCH   7   9
ENDBRANCH   1   7
BRANCH   2  11
ATOM     11  O   UNL     1      -1.923  -0.963  -5.614  1.00  0.00    -0.504 OA
ATOM     12  H   UNL     1      -2.857  -1.246  -5.446  1.00  0.00     0.293 HD
ENDBRANCH   2  11
BRANCH   5  13
ATOM     13  O   UNL     1      -1.368   1.675  -5.395  1.00  0.00    -0.493 OA
ATOM     14  C   UNL     1      -1.986   2.604  -4.742  1.00  0.00     0.278 C 
ENDBRANCH   5  13
TORSDOF 4
ENDMDL
MODEL 4
REMARK VINA RESULT:    -4.575      2.890      4.464
REMARK INTER + INTRA:          -5.648
REMARK INTER:                  -5.232
REMARK INTRA:                  -0.416
REMARK UNBOUND:                -0.270
REMARK SMILES COc1cccc(C(=O)O)c1O
REMARK SMILES IDX 7 1 11 2 6 3 5 4 3 5 4 6 8 7 9 8 10 9 12 11 2 13 1 14
REMARK H PARENT 10 10 12 12
ROOT
ATOM      1  C   UNL     1      -0.810   1.624  -5.455  1.00  0.00     0.105 A 
ATOM      2  C   UNL     1      -0.466   0.348  -5.103  1.00  0.00     0.172 A 
ATOM      3  C   UNL     1      -0.345   2.122  -6.762  1.00  0.00     0.020 A 
ATOM      4  C   UNL     1       0.062   1.206  -7.678  1.00  0.00     0.005 A 
ATOM      5  C   UNL     1      -0.264  -0.691  -6.103  1.00  0.00     0.161 A 
ATOM      6  C   UNL     1       0.124  -0.193  -7.410  1.00  0.00     0.050 A 
ENDROOT
BRANCH   1   7
ATOM      7  C   UNL     1      -1.735   2.476  -4.569  1.00  0.00     0.339 C 
ATOM      8  O   UNL     1      -1.001   2.654  -3.126  1.00  0.00    -0.246 OA
BRANCH   7   9
ATOM      9  O   UNL     1      -2.622   3.039  -4.651  1.00  0.00    -0.478 OA
ATOM     10  H   UNL     1      -3.456   3.567  -4.728  1.00  0.00     0.297 HD
ENDBRANCH   7   9
ENDBRANCH   1   7
BRANCH   2  11
ATOM     11  O   UNL     1      -0.313  -0.024  -3.757  1.00  0.00    -0.504 OA
ATOM     12  H   UNL     1      -0.206  -0.287  -2.808  1.00  0.00     0.293 HD
ENDBRANCH   2  11
BRANCH   5  13
ATOM     13  O   UNL     1      -0.115  -1.982  -5.613  1.00  0.00    -0.493 OA
ATOM     14  C   UNL     1       0.467  -3.084  -5.270  1.00  0.00     0.278 C 
ENDBRANCH   5  13
TORSDOF 4
ENDMDL
MODEL 5
REMARK VINA RESULT:    -4.303      0.960      1.362
REMARK INTER + INTRA:          -5.328
REMARK INTER:                  -4.865
REMARK INTRA:                  -0.463
REMARK UNBOUND:                -0.270
REMARK SMILES COc1cccc(C(=O)O)c1O
REMARK SMILES IDX 7 1 11 2 6 3 5 4 3 5 4 6 8 7 9 8 10 9 12 11 2 13 1 14
REMARK H PARENT 10 10 12 12
ROOT
ATOM      1  C   UNL     1      -0.186  -0.809  -5.287  1.00  0.00     0.105 A 
ATOM      2  C   UNL     1       0.211  -0.391  -6.527  1.00  0.00     0.172 A 
ATOM      3  C   UNL     1      -0.800   0.189  -4.393  1.00  0.00     0.020 A 
ATOM      4  C   UNL     1      -1.267   1.335  -4.952  1.00  0.00     0.005 A 
ATOM      5  C   UNL     1      -0.465   0.698  -7.218  1.00  0.00     0.161 A 
ATOM      6  C   UNL     1      -1.130   1.641  -6.338  1.00  0.00     0.050 A 
ENDROOT
BRANCH   1   7
ATOM      7  C   UNL     1      -0.094  -2.289  -4.874  1.00  0.00     0.339 C 
ATOM      8  O   UNL     1       1.354  -2.844  -5.372  1.00  0.00    -0.246 OA
BRANCH   7   9
ATOM      9  O   UNL     1      -0.629  -2.991  -4.301  1.00  0.00    -0.478 OA
ATOM     10  H   UNL     1      -1.131  -3.653  -3.762  1.00  0.00     0.297 HD
ENDBRANCH   7   9
ENDBRANCH   1   7
BRANCH   2  11
ATOM     11  O   UNL     1       1.278  -1.009  -7.201  1.00  0.00    -0.504 OA
ATOM     12  H   UNL     1       2.030  -1.444  -7.676  1.00  0.00     0.293 HD
ENDBRANCH   2  11
BRANCH   5  13
ATOM     13  O   UNL     1      -0.098   0.894  -8.544  1.00  0.00    -0.493 OA
ATOM     14  C   UNL     1      -0.200   0.936  -9.831  1.00  0.00     0.278 C 
ENDBRANCH   5  13
TORSDOF 4
ENDMDL
MODEL 6
REMARK VINA RESULT:    -4.269      2.242      4.667
REMARK INTER + INTRA:          -5.288
REMARK INTER:                  -5.083
REMARK INTRA:                  -0.205
REMARK UNBOUND:                -0.270
REMARK SMILES COc1cccc(C(=O)O)c1O
REMARK SMILES IDX 7 1 11 2 6 3 5 4 3 5 4 6 8 7 9 8 10 9 12 11 2 13 1 14
REMARK H PARENT 10 10 12 12
ROOT
ATOM      1  C   UNL     1      -2.218   1.120  -6.566  1.00  0.00     0.105 A 
ATOM      2  C   UNL     1      -1.817  -0.154  -6.271  1.00  0.00     0.172 A 
ATOM      3  C   UNL     1      -2.016   2.156  -5.536  1.00  0.00     0.020 A 
ATOM      4  C   UNL     1      -1.136   1.888  -4.537  1.00  0.00     0.005 A 
ATOM      5  C   UNL     1      -0.704  -0.415  -5.369  1.00  0.00     0.161 A 
ATOM      6  C   UNL     1      -0.461   0.640  -4.402  1.00  0.00     0.050 A 
ENDROOT
BRANCH   1   7
ATOM      7  C   UNL     1      -2.764   1.485  -7.957  1.00  0.00     0.339 C 
ATOM      8  O   UNL     1      -1.621   1.088  -9.048  1.00  0.00    -0.246 OA
BRANCH   7   9
ATOM      9  O   UNL     1      -3.661   1.811  -8.402  1.00  0.00    -0.478 OA
ATOM     10  H   UNL     1      -4.505   2.116  -8.821  1.00  0.00     0.297 HD
ENDBRANCH   7   9
ENDBRANCH   1   7
BRANCH   2  11
ATOM     11  O   UNL     1      -2.448  -1.271  -6.844  1.00  0.00    -0.504 OA
ATOM     12  H   UNL     1      -2.893  -2.059  -7.247  1.00  0.00     0.293 HD
ENDBRANCH   2  11
BRANCH   5  13
ATOM     13  O   UNL     1      -0.270  -1.733  -5.307  1.00  0.00    -0.493 OA
ATOM     14  C   UNL     1       0.493  -2.762  -5.476  1.00  0.00     0.278 C 
ENDBRANCH   5  13
TORSDOF 4
ENDMDL
MODEL 7
REMARK VINA RESULT:    -4.227      2.605      3.841
REMARK INTER + INTRA:          -5.238
REMARK INTER:                  -5.004
REMARK INTRA:                  -0.234
REMARK UNBOUND:                -0.270
REMARK SMILES COc1cccc(C(=O)O)c1O
REMARK SMILES IDX 7 1 11 2 6 3 5 4 3 5 4 6 8 7 9 8 10 9 12 11 2 13 1 14
REMARK H PARENT 10 10 12 12
ROOT
ATOM      1  C   UNL     1      -1.332   0.955  -5.490  1.00  0.00     0.105 A 
ATOM      2  C   UNL     1      -1.110   0.926  -6.840  1.00  0.00     0.172 A 
ATOM      3  C   UNL     1      -0.902  -0.214  -4.701  1.00  0.00     0.020 A 
ATOM      4  C   UNL     1      -0.006  -1.062  -5.268  1.00  0.00     0.005 A 
ATOM      5  C   UNL     1       0.010   0.195  -7.413  1.00  0.00     0.161 A 
ATOM      6  C   UNL     1       0.479  -0.912  -6.600  1.00  0.00     0.050 A 
ENDROOT
BRANCH   1   7
ATOM      7  C   UNL     1      -1.913   2.202  -4.801  1.00  0.00     0.339 C 
ATOM      8  O   UNL     1      -1.067   3.490  -5.332  1.00  0.00    -0.246 OA
BRANCH   7   9
ATOM      9  O   UNL     1      -2.727   2.470  -4.189  1.00  0.00    -0.478 OA
ATOM     10  H   UNL     1      -3.492   2.722  -3.614  1.00  0.00     0.297 HD
ENDBRANCH   7   9
ENDBRANCH   1   7
BRANCH   2  11
ATOM     11  O   UNL     1      -1.944   1.620  -7.733  1.00  0.00    -0.504 OA
ATOM     12  H   UNL     1      -2.531   2.109  -8.363  1.00  0.00     0.293 HD
ENDBRANCH   2  11
BRANCH   5  13
ATOM     13  O   UNL     1       0.241   0.405  -8.767  1.00  0.00    -0.493 OA
ATOM     14  C   UNL     1       0.503   0.135 -10.003  1.00  0.00     0.278 C 
ENDBRANCH   5  13
TORSDOF 4
ENDMDL
MODEL 8
REMARK VINA RESULT:    -4.183      2.222      3.800
REMARK INTER + INTRA:          -5.187
REMARK INTER:                  -4.861
REMARK INTRA:                  -0.326
REMARK UNBOUND:                -0.270
REMARK SMILES COc1cccc(C(=O)O)c1O
REMARK SMILES IDX 7 1 11 2 6 3 5 4 3 5 4 6 8 7 9 8 10 9 12 11 2 13 1 14
REMARK H PARENT 10 10 12 12
ROOT
ATOM      1  C   UNL     1       1.051  -0.747  -6.726  1.00  0.00     0.105 A 
ATOM      2  C   UNL     1       0.420   0.386  -6.292  1.00  0.00     0.172 A 
ATOM      3  C   UNL     1       0.823  -1.990  -5.966  1.00  0.00     0.020 A 
ATOM      4  C   UNL     1      -0.250  -2.034  -5.135  1.00  0.00     0.005 A 
ATOM      5  C   UNL     1      -0.862   0.330  -5.604  1.00  0.00     0.161 A 
ATOM      6  C   UNL     1      -1.115  -0.922  -4.916  1.00  0.00     0.050 A 
ENDROOT
BRANCH   1   7
ATOM      7  C   UNL     1       1.884  -0.753  -8.019  1.00  0.00     0.339 C 
ATOM      8  O   UNL     1       1.070   0.120  -9.127  1.00  0.00    -0.246 OA
BRANCH   7   9
ATOM      9  O   UNL     1       2.834  -1.060  -8.355  1.00  0.00    -0.478 OA
ATOM     10  H   UNL     1       3.727  -1.349  -8.671  1.00  0.00     0.297 HD
ENDBRANCH   7   9
ENDBRANCH   1   7
BRANCH   2  11
ATOM     11  O   UNL     1       0.972   1.660  -6.510  1.00  0.00    -0.504 OA
ATOM     12  H   UNL     1       1.360   2.558  -6.664  1.00  0.00     0.293 HD
ENDBRANCH   2  11
BRANCH   5  13
ATOM     13  O   UNL     1      -1.489   1.552  -5.392  1.00  0.00    -0.493 OA
ATOM     14  C   UNL     1      -1.869   2.624  -4.779  1.00  0.00     0.278 C 
ENDBRANCH   5  13
TORSDOF 4
ENDMDL
MODEL 9
REMARK VINA RESULT:    -3.749      2.577      3.377
REMARK INTER + INTRA:          -4.677
REMARK INTER:                  -4.476
REMARK INTRA:                  -0.200
REMARK UNBOUND:                -0.270
REMARK SMILES COc1cccc(C(=O)O)c1O
REMARK SMILES IDX 7 1 11 2 6 3 5 4 3 5 4 6 8 7 9 8 10 9 12 11 2 13 1 14
REMARK H PARENT 10 10 12 12
ROOT
ATOM      1  C   UNL     1      -1.099   1.618  -5.750  1.00  0.00     0.105 A 
ATOM      2  C   UNL     1       0.078   1.231  -6.330  1.00  0.00     0.172 A 
ATOM      3  C   UNL     1      -2.303   1.646  -6.600  1.00  0.00     0.020 A 
ATOM      4  C   UNL     1      -2.267   0.956  -7.769  1.00  0.00     0.005 A 
ATOM      5  C   UNL     1       0.108   0.294  -7.444  1.00  0.00     0.161 A 
ATOM      6  C   UNL     1      -1.106   0.272  -8.237  1.00  0.00     0.050 A 
ENDROOT
BRANCH   1   7
ATOM      7  C   UNL     1      -1.189   1.912  -4.242  1.00  0.00     0.339 C 
ATOM      8  O   UNL     1      -1.005   0.496  -3.458  1.00  0.00    -0.246 OA
BRANCH   7   9
ATOM      9  O   UNL     1      -1.234   2.739  -3.592  1.00  0.00    -0.478 OA
ATOM     10  H   UNL     1      -1.276   3.517  -2.980  1.00  0.00     0.297 HD
ENDBRANCH   7   9
ENDBRANCH   1   7
BRANCH   2  11
ATOM     11  O   UNL     1       1.315   1.705  -5.861  1.00  0.00    -0.504 OA
ATOM     12  H   UNL     1       2.187   2.040  -5.531  1.00  0.00     0.293 HD
ENDBRANCH   2  11
BRANCH   5  13
ATOM     13  O   UNL     1       1.365  -0.169  -7.811  1.00  0.00    -0.493 OA
ATOM     14  C   UNL     1       2.263  -0.868  -8.425  1.00  0.00     0.278 C 
ENDBRANCH   5  13
TORSDOF 4
ENDMDL
