MODEL 1
REMARK VINA RESULT:    -4.723      0.000      0.000
REMARK INTER + INTRA:          -6.036
REMARK INTER:                  -5.551
REMARK INTRA:                  -0.485
REMARK UNBOUND:                -0.485
REMARK SMILES COc1cccc(C(=O)O)c1O
REMARK SMILES IDX 7 1 11 2 6 3 5 4 3 5 4 6 8 7 9 8 10 9 12 11 2 13 1 14
REMARK H PARENT 10 10 12 12
ROOT
ATOM      1  C   UNL     1      -2.718  -5.313   5.405  1.00  0.00     0.105 A 
ATOM      2  C   UNL     1      -3.033  -4.002   5.636  1.00  0.00     0.172 A 
ATOM      3  C   UNL     1      -3.749  -6.326   5.700  1.00  0.00     0.020 A 
ATOM      4  C   UNL     1      -5.033  -5.902   5.822  1.00  0.00     0.005 A 
ATOM      5  C   UNL     1      -4.401  -3.515   5.527  1.00  0.00     0.161 A 
ATOM      6  C   UNL     1      -5.414  -4.530   5.747  1.00  0.00     0.050 A 
ENDROOT
BRANCH   1   7
ATOM      7  C   UNL     1      -1.379  -5.714   4.763  1.00  0.00     0.339 C 
ATOM      8  O   UNL     1      -0.715  -4.363   4.139  1.00  0.00    -0.246 OA
BRANCH   7   9
ATOM      9  O   UNL     1      -0.744  -6.551   4.699  1.00  0.00    -0.478 OA
ATOM     10  H   UNL     1      -0.146  -7.339   4.638  1.00  0.00     0.297 HD
ENDBRANCH   7   9
ENDBRANCH   1   7
BRANCH   2  11
ATOM     11  O   UNL     1      -2.045  -3.060   5.968  1.00  0.00    -0.504 OA
ATOM     12  H   UNL     1      -1.348  -2.396   6.201  1.00  0.00     0.293 HD
ENDBRANCH   2  11
BRANCH   5  13
ATOM     13  O   UNL     1      -4.559  -2.136   5.590  1.00  0.00    -0.493 OA
ATOM     14  C   UNL     1      -4.988  -0.955   5.287  1.00  0.00     0.278 C 
ENDBRANCH   5  13
TORSDOF 4
ENDMDL
MODEL 2
REMARK VINA RESULT:    -4.716      1.801      4.639
REMARK INTER + INTRA:          -6.028
REMARK INTER:                  -5.542
REMARK INTRA:                  -0.486
REMARK UNBOUND:                -0.485
REMARK SMILES COc1cccc(C(=O)O)c1O
REMARK SMILES IDX 7 1 11 2 6 3 5 4 3 5 4 6 8 7 9 8 10 9 12 11 2 13 1 14
REMARK H PARENT 10 10 12 12
ROOT
ATOM      1  C   UNL     1      -4.346  -2.181   5.984  1.00  0.00     0.105 A 
ATOM      2  C   UNL     1      -3.752  -3.259   5.387  1.00  0.00     0.172 A 
ATOM      3  C   UNL     1      -4.119  -1.988   7.428  1.00  0.00     0.020 A 
ATOM      4  C   UNL     1      -3.073  -2.643   7.995  1.00  0.00     0.005 A 
ATOM      5  C   UNL     1      -2.492  -3.803   5.874  1.00  0.00     0.161 A 
ATOM      6  C   UNL     1      -2.238  -3.550   7.280  1.00  0.00     0.050 A 
ENDROOT
BRANCH   1   7
ATOM      7  C   UNL     1      -5.136  -1.147   5.164  1.00  0.00     0.339 C 
ATOM      8  O   UNL     1      -4.800  -1.413   3.592  1.00  0.00    -0.246 OA
BRANCH   7   9
ATOM      9  O   UNL     1      -5.877  -0.412   5.307  1.00  0.00    -0.478 OA
ATOM     10  H   UNL     1      -6.574   0.278   5.442  1.00  0.00     0.297 HD
ENDBRANCH   7   9
ENDBRANCH   1   7
BRANCH   2  11
ATOM     11  O   UNL     1      -4.321  -3.878   4.261  1.00  0.00    -0.504 OA
ATOM     12  H   UNL     1      -4.721  -4.313   3.467  1.00  0.00     0.293 HD
ENDBRANCH   2  11
BRANCH   5  13
ATOM     13  O   UNL     1      -1.896  -4.765   5.068  1.00  0.00    -0.493 OA
ATOM     14  C   UNL     1      -1.401  -5.904   4.713  1.00  0.00     0.278 C 
ENDBRANCH   5  13
TORSDOF 4
ENDMDL
MODEL 3
REMARK VINA RESULT:    -4.699      2.105      3.070
REMARK INTER + INTRA:          -6.008
REMARK INTER:                  -5.738
REMARK INTRA:                  -0.270
REMARK UNBOUND:                -0.485
REMARK SMILES COc1cccc(C(=O)O)c1O
REMARK SMILES IDX 7 1 11 2 6 3 5 4 3 5 4 6 8 7 9 8 10 9 12 11 2 13 1 14
REMARK H PARENT 10 10 12 12
ROOT
ATOM      1  C   UNL     1      -2.832  -4.884   5.251  1.00  0.00     0.105 A 
ATOM      2  C   UNL     1      -3.671  -5.509   6.132  1.00  0.00     0.172 A 
ATOM      3  C   UNL     1      -3.031  -3.440   5.026  1.00  0.00     0.020 A 
ATOM      4  C   UNL     1      -3.758  -2.752   5.944  1.00  0.00     0.005 A 
ATOM      5  C   UNL     1      -4.259  -4.801   7.261  1.00  0.00     0.161 A 
ATOM      6  C   UNL     1      -4.387  -3.369   7.064  1.00  0.00     0.050 A 
ENDROOT
BRANCH   1   7
ATOM      7  C   UNL     1      -1.657  -5.631   4.597  1.00  0.00     0.339 C 
ATOM      8  O   UNL     1      -0.542  -4.517   4.184  1.00  0.00    -0.246 OA
BRANCH   7   9
ATOM      9  O   UNL     1      -1.331  -6.619   4.435  1.00  0.00    -0.478 OA
ATOM     10  H   UNL     1      -1.024  -7.547   4.281  1.00  0.00     0.297 HD
ENDBRANCH   7   9
ENDBRANCH   1   7
BRANCH   2  11
ATOM     11  O   UNL     1      -3.986  -6.872   6.000  1.00  0.00    -0.504 OA
ATOM     12  H   UNL     1      -4.209  -7.832   5.907  1.00  0.00     0.293 HD
ENDBRANCH   2  11
BRANCH   5  13
ATOM     13  O   UNL     1      -4.928  -5.590   8.188  1.00  0.00    -0.493 OA
ATOM     14  C   UNL     1      -5.289  -6.060   9.336  1.00  0.00     0.278 C 
ENDBRANCH   5  13
TORSDOF 4
ENDMDL
MODEL 4
REMARK VINA RESULT:    -4.689      2.875      4.358
REMARK INTER + INTRA:          -5.996
REMARK INTER:                  -5.726
REMARK INTRA:                  -0.270
REMARK UNBOUND:                -0.485
REMARK SMILES COc1cccc(C(=O)O)c1O
REMARK SMILES IDX 7 1 11 2 6 3 5 4 3 5 4 6 8 7 9 8 10 9 12 11 2 13 1 14
REMARK H PARENT 10 10 12 12
ROOT
ATOM      1  C   UNL     1      -4.171  -2.364   5.818  1.00  0.00     0.105 A 
ATOM      2  C   UNL     1      -4.263  -2.738   7.130  1.00  0.00     0.172 A 
ATOM      3  C   UNL     1      -3.512  -3.296   4.885  1.00  0.00     0.020 A 
ATOM      4  C   UNL     1      -3.369  -4.588   5.279  1.00  0.00     0.005 A 
ATOM      5  C   UNL     1      -4.350  -4.138   7.520  1.00  0.00     0.161 A 
ATOM      6  C   UNL     1      -3.763  -5.060   6.566  1.00  0.00     0.050 A 
ENDROOT
BRANCH   1   7
ATOM      7  C   UNL     1      -4.824  -1.067   5.308  1.00  0.00     0.339 C 
ATOM      8  O   UNL     1      -5.076  -1.244   3.709  1.00  0.00    -0.246 OA
BRANCH   7   9
ATOM      9  O   UNL     1      -5.230  -0.174   5.691  1.00  0.00    -0.478 OA
ATOM     10  H   UNL     1      -5.612   0.666   6.051  1.00  0.00     0.297 HD
ENDBRANCH   7   9
ENDBRANCH   1   7
BRANCH   2  11
ATOM     11  O   UNL     1      -4.300  -1.785   8.162  1.00  0.00    -0.504 OA
ATOM     12  H   UNL     1      -4.326  -1.114   8.889  1.00  0.00     0.293 HD
ENDBRANCH   2  11
BRANCH   5  13
ATOM     13  O   UNL     1      -4.637  -4.378   8.858  1.00  0.00    -0.493 OA
ATOM     14  C   UNL     1      -5.160  -4.936   9.899  1.00  0.00     0.278 C 
ENDBRANCH   5  13
TORSDOF 4
ENDMDL
MODEL 5
REMARK VINA RESULT:    -4.126      2.663      4.162
REMARK INTER + INTRA:          -5.334
REMARK INTER:                  -4.874
REMARK INTRA:                  -0.460
REMARK UNBOUND:                -0.485
REMARK SMILES COc1cccc(C(=O)O)c1O
REMARK SMILES IDX 7 1 11 2 6 3 5 4 3 5 4 6 8 7 9 8 10 9 12 11 2 13 1 14
REMARK H PARENT 10 10 12 12
ROOT
ATOM      1  C   UNL     1      -3.740  -2.705   5.304  1.00  0.00     0.105 A 
ATOM      2  C   UNL     1      -3.930  -3.108   6.597  1.00  0.00     0.172 A 
ATOM      3  C   UNL     1      -2.740  -3.433   4.501  1.00  0.00     0.020 A 
ATOM      4  C   UNL     1      -2.345  -4.654   4.942  1.00  0.00     0.005 A 
ATOM      5  C   UNL     1      -3.727  -4.491   7.003  1.00  0.00     0.161 A 
ATOM      6  C   UNL     1      -2.796  -5.227   6.168  1.00  0.00     0.050 A 
ENDROOT
BRANCH   1   7
ATOM      7  C   UNL     1      -4.608  -1.602   4.673  1.00  0.00     0.339 C 
ATOM      8  O   UNL     1      -4.740  -0.401   5.765  1.00  0.00    -0.246 OA
BRANCH   7   9
ATOM      9  O   UNL     1      -5.042  -1.362   3.744  1.00  0.00    -0.478 OA
ATOM     10  H   UNL     1      -5.450  -1.136   2.870  1.00  0.00     0.297 HD
ENDBRANCH   7   9
ENDBRANCH   1   7
BRANCH   2  11
ATOM     11  O   UNL     1      -4.353  -2.207   7.589  1.00  0.00    -0.504 OA
ATOM     12  H   UNL     1      -4.651  -1.572   8.289  1.00  0.00     0.293 HD
ENDBRANCH   2  11
BRANCH   5  13
ATOM     13  O   UNL     1      -4.142  -4.812   8.289  1.00  0.00    -0.493 OA
ATOM     14  C   UNL     1      -4.876  -5.299   9.235  1.00  0.00     0.278 C 
ENDBRANCH   5  13
TORSDOF 4
ENDMDL
MODEL 6
REMARK VINA RESULT:    -4.120      2.155      3.117
REMARK INTER + INTRA:          -5.328
REMARK INTER:                  -5.028
REMARK INTRA:                  -0.300
REMARK UNBOUND:                -0.485
REMARK SMILES COc1cccc(C(=O)O)c1O
REMARK SMILES IDX 7 1 11 2 6 3 5 4 3 5 4 6 8 7 9 8 10 9 12 11 2 13 1 14
REMARK H PARENT 10 10 12 12
ROOT
ATOM      1  C   UNL     1      -3.728  -5.809   5.634  1.00  0.00     0.105 A 
ATOM      2  C   UNL     1      -4.442  -4.669   5.387  1.00  0.00     0.172 A 
ATOM      3  C   UNL     1      -2.336  -5.862   5.153  1.00  0.00     0.020 A 
ATOM      4  C   UNL     1      -1.733  -4.688   4.834  1.00  0.00     0.005 A 
ATOM      5  C   UNL     1      -3.793  -3.369   5.284  1.00  0.00     0.161 A 
ATOM      6  C   UNL     1      -2.401  -3.429   4.879  1.00  0.00     0.050 A 
ENDROOT
BRANCH   1   7
ATOM      7  C   UNL     1      -4.317  -6.955   6.475  1.00  0.00     0.339 C 
ATOM      8  O   UNL     1      -5.046  -6.285   7.769  1.00  0.00    -0.246 OA
BRANCH   7   9
ATOM      9  O   UNL     1      -4.468  -7.995   6.412  1.00  0.00    -0.478 OA
ATOM     10  H   UNL     1      -4.610  -8.974   6.353  1.00  0.00     0.297 HD
ENDBRANCH   7   9
ENDBRANCH   1   7
BRANCH   2  11
ATOM     11  O   UNL     1      -5.839  -4.697   5.242  1.00  0.00    -0.504 OA
ATOM     12  H   UNL     1      -6.824  -4.717   5.140  1.00  0.00     0.293 HD
ENDBRANCH   2  11
BRANCH   5  13
ATOM     13  O   UNL     1      -4.642  -2.271   5.229  1.00  0.00    -0.493 OA
ATOM     14  C   UNL     1      -5.038  -1.045   5.329  1.00  0.00     0.278 C 
ENDBRANCH   5  13
TORSDOF 4
ENDMDL
MODEL 7
REMARK VINA RESULT:    -4.101      2.190      4.636
REMARK INTER + INTRA:          -5.305
REMARK INTER:                  -5.005
REMARK INTRA:                  -0.300
REMARK UNBOUND:                -0.485
REMARK SMILES COc1cccc(C(=O)O)c1O
REMARK SMILES IDX 7 1 11 2 6 3 5 4 3 5 4 6 8 7 9 8 10 9 12 11 2 13 1 14
REMARK H PARENT 10 10 12 12
ROOT
ATOM      1  C   UNL     1      -3.980  -2.205   7.108  1.00  0.00     0.105 A 
ATOM      2  C   UNL     1      -2.990  -3.067   6.723  1.00  0.00     0.172 A 
ATOM      3  C   UNL     1      -4.703  -1.477   6.049  1.00  0.00     0.020 A 
ATOM      4  C   UNL     1      -4.614  -1.956   4.781  1.00  0.00     0.005 A 
ATOM      5  C   UNL     1      -3.036  -3.760   5.443  1.00  0.00     0.161 A 
ATOM      6  C   UNL     1      -3.808  -3.076   4.422  1.00  0.00     0.050 A 
ENDROOT
BRANCH   1   7
ATOM      7  C   UNL     1      -4.399  -2.076   8.583  1.00  0.00     0.339 C 
ATOM      8  O   UNL     1      -4.498  -3.583   9.195  1.00  0.00    -0.246 OA
BRANCH   7   9
ATOM      9  O   UNL     1      -4.538  -1.327   9.310  1.00  0.00    -0.478 OA
ATOM     10  H   UNL     1      -4.669  -0.624   9.994  1.00  0.00     0.297 HD
ENDBRANCH   7   9
ENDBRANCH   1   7
BRANCH   2  11
ATOM     11  O   UNL     1      -1.892  -3.340   7.556  1.00  0.00    -0.504 OA
ATOM     12  H   UNL     1      -1.118  -3.532   8.143  1.00  0.00     0.293 HD
ENDBRANCH   2  11
BRANCH   5  13
ATOM     13  O   UNL     1      -2.080  -4.751   5.256  1.00  0.00    -0.493 OA
ATOM     14  C   UNL     1      -1.516  -5.808   4.772  1.00  0.00     0.278 C 
ENDBRANCH   5  13
TORSDOF 4
ENDMDL
MODEL 8
REMARK VINA RESULT:    -3.971      2.350      4.429
REMARK INTER + INTRA:          -5.152
REMARK INTER:                  -4.913
REMARK INTRA:                  -0.238
REMARK UNBOUND:                -0.485
REMARK SMILES COc1cccc(C(=O)O)c1O
REMARK SMILES IDX 7 1 11 2 6 3 5 4 3 5 4 6 8 7 9 8 10 9 12 11 2 13 1 14
REMARK H PARENT 10 10 12 12
ROOT
ATOM      1  C   UNL     1      -3.991  -3.146   5.550  1.00  0.00     0.105 A 
ATOM      2  C   UNL     1      -4.411  -4.259   6.224  1.00  0.00     0.172 A 
ATOM      3  C   UNL     1      -2.641  -3.174   4.958  1.00  0.00     0.020 A 
ATOM      4  C   UNL     1      -2.050  -4.385   4.792  1.00  0.00     0.005 A 
ATOM      5  C   UNL     1      -3.940  -5.590   5.870  1.00  0.00     0.161 A 
ATOM      6  C   UNL     1      -2.642  -5.609   5.222  1.00  0.00     0.050 A 
ENDROOT
BRANCH   1   7
ATOM      7  C   UNL     1      -4.927  -1.946   5.323  1.00  0.00     0.339 C 
ATOM      8  O   UNL     1      -4.797  -1.516   3.757  1.00  0.00    -0.246 OA
BRANCH   7   9
ATOM      9  O   UNL     1      -5.671  -1.406   5.837  1.00  0.00    -0.478 OA
ATOM     10  H   UNL     1      -6.371  -0.898   6.320  1.00  0.00     0.297 HD
ENDBRANCH   7   9
ENDBRANCH   1   7
BRANCH   2  11
ATOM     11  O   UNL     1      -5.336  -4.170   7.279  1.00  0.00    -0.504 OA
ATOM     12  H   UNL     1      -5.988  -4.107   8.022  1.00  0.00     0.293 HD
ENDBRANCH   2  11
BRANCH   5  13
ATOM     13  O   UNL     1      -4.588  -6.648   6.494  1.00  0.00    -0.493 OA
ATOM     14  C   UNL     1      -4.750  -7.792   7.073  1.00  0.00     0.278 C 
ENDBRANCH   5  13
TORSDOF 4
ENDMDL
MODEL 9
REMARK VINA RESULT:    -3.912      2.024      2.579
REMARK INTER + INTRA:          -5.083
REMARK INTER:                  -4.834
REMARK INTRA:                  -0.249
REMARK UNBOUND:                -0.485
REMARK SMILES COc1cccc(C(=O)O)c1O
REMARK SMILES IDX 7 1 11 2 6 3 5 4 3 5 4 6 8 7 9 8 10 9 12 11 2 13 1 14
REMARK H PARENT 10 10 12 12
ROOT
ATOM      1  C   UNL     1      -2.942  -4.169   5.435  1.00  0.00     0.105 A 
ATOM      2  C   UNL     1      -3.461  -3.973   6.686  1.00  0.00     0.172 A 
ATOM      3  C   UNL     1      -3.471  -3.338   4.338  1.00  0.00     0.020 A 
ATOM      4  C   UNL     1      -4.148  -2.209   4.670  1.00  0.00     0.005 A 
ATOM      5  C   UNL     1      -3.970  -2.676   7.107  1.00  0.00     0.161 A 
ATOM      6  C   UNL     1      -4.425  -1.832   6.017  1.00  0.00     0.050 A 
ENDROOT
BRANCH   1   7
ATOM      7  C   UNL     1      -1.774  -5.142   5.197  1.00  0.00     0.339 C 
ATOM      8  O   UNL     1      -0.736  -4.416   4.173  1.00  0.00    -0.246 OA
BRANCH   7   9
ATOM      9  O   UNL     1      -1.414  -6.061   5.563  1.00  0.00    -0.478 OA
ATOM     10  H   UNL     1      -1.076  -6.926   5.908  1.00  0.00     0.297 HD
ENDBRANCH   7   9
ENDBRANCH   1   7
BRANCH   2  11
ATOM     11  O   UNL     1      -3.507  -5.013   7.630  1.00  0.00    -0.504 OA
ATOM     12  H   UNL     1      -3.539  -5.746   8.295  1.00  0.00     0.293 HD
ENDBRANCH   2  11
BRANCH   5  13
ATOM     13  O   UNL     1      -4.285  -2.557   8.454  1.00  0.00    -0.493 OA
ATOM     14  C   UNL     1      -4.629  -2.002   9.570  1.00  0.00     0.278 C 
ENDBRANCH   5  13
TORSDOF 4
ENDMDL
