MODEL 1
REMARK VINA RESULT:    -4.883      0.000      0.000
REMARK INTER + INTRA:          -6.169
REMARK INTER:                  -5.740
REMARK INTRA:                  -0.429
REMARK UNBOUND:                -0.429
REMARK SMILES COc1cccc(C(=O)O)c1O
REMARK SMILES IDX 7 1 11 2 6 3 5 4 3 5 4 6 8 7 9 8 10 9 12 11 2 13 1 14
REMARK H PARENT 10 10 12 12
ROOT
ATOM      1  C   UNL     1       2.544  -4.525  -4.288  1.00  0.00     0.105 A 
ATOM      2  C   UNL     1       1.258  -4.850  -3.954  1.00  0.00     0.172 A 
ATOM      3  C   UNL     1       2.974  -4.776  -5.676  1.00  0.00     0.020 A 
ATOM      4  C   UNL     1       2.007  -4.957  -6.613  1.00  0.00     0.005 A 
ATOM      5  C   UNL     1       0.181  -4.808  -4.932  1.00  0.00     0.161 A 
ATOM      6  C   UNL     1       0.615  -4.984  -6.305  1.00  0.00     0.050 A 
ENDROOT
BRANCH   1   7
ATOM      7  C   UNL     1       3.479  -3.825  -3.287  1.00  0.00     0.339 C 
ATOM      8  O   UNL     1       2.581  -3.404  -1.994  1.00  0.00    -0.246 OA
BRANCH   7   9
ATOM      9  O   UNL     1       4.506  -3.634  -3.153  1.00  0.00    -0.478 OA
ATOM     10  H   UNL     1       5.471  -3.455  -3.027  1.00  0.00     0.297 HD
ENDBRANCH   7   9
ENDBRANCH   1   7
BRANCH   2  11
ATOM     11  O   UNL     1       0.915  -5.221  -2.642  1.00  0.00    -0.504 OA
ATOM     12  H   UNL     1       0.673  -5.481  -1.718  1.00  0.00     0.293 HD
ENDBRANCH   2  11
BRANCH   5  13
ATOM     13  O   UNL     1      -1.103  -4.967  -4.426  1.00  0.00    -0.493 OA
ATOM     14  C   UNL     1      -2.287  -5.461  -4.270  1.00  0.00     0.278 C 
ENDBRANCH   5  13
TORSDOF 4
ENDMDL
MODEL 2
REMARK VINA RESULT:    -4.796      1.766      4.686
REMARK INTER + INTRA:          -6.066
REMARK INTER:                  -5.583
REMARK INTRA:                  -0.482
REMARK UNBOUND:                -0.429
REMARK SMILES COc1cccc(C(=O)O)c1O
REMARK SMILES IDX 7 1 11 2 6 3 5 4 3 5 4 6 8 7 9 8 10 9 12 11 2 13 1 14
REMARK H PARENT 10 10 12 12
ROOT
ATOM      1  C   UNL     1      -0.922  -5.863  -4.376  1.00  0.00     0.105 A 
ATOM      2  C   UNL     1       0.191  -5.074  -4.478  1.00  0.00     0.172 A 
ATOM      3  C   UNL     1      -0.719  -7.298  -4.102  1.00  0.00     0.020 A 
ATOM      4  C   UNL     1       0.488  -7.683  -3.612  1.00  0.00     0.005 A 
ATOM      5  C   UNL     1       1.413  -5.378  -3.748  1.00  0.00     0.161 A 
ATOM      6  C   UNL     1       1.576  -6.782  -3.417  1.00  0.00     0.050 A 
ENDROOT
BRANCH   1   7
ATOM      7  C   UNL     1      -2.337  -5.264  -4.438  1.00  0.00     0.339 C 
ATOM      8  O   UNL     1      -2.189  -3.649  -4.277  1.00  0.00    -0.246 OA
BRANCH   7   9
ATOM      9  O   UNL     1      -3.324  -5.567  -4.644  1.00  0.00    -0.478 OA
ATOM     10  H   UNL     1      -4.252  -5.853  -4.839  1.00  0.00     0.297 HD
ENDBRANCH   7   9
ENDBRANCH   1   7
BRANCH   2  11
ATOM     11  O   UNL     1       0.197  -3.918  -5.278  1.00  0.00    -0.504 OA
ATOM     12  H   UNL     1       0.201  -3.104  -5.841  1.00  0.00     0.293 HD
ENDBRANCH   2  11
BRANCH   5  13
ATOM     13  O   UNL     1       2.397  -4.399  -3.780  1.00  0.00    -0.493 OA
ATOM     14  C   UNL     1       3.454  -3.738  -3.439  1.00  0.00     0.278 C 
ENDBRANCH   5  13
TORSDOF 4
ENDMDL
MODEL 3
REMARK VINA RESULT:    -4.761      2.943      4.445
REMARK INTER + INTRA:          -6.025
REMARK INTER:                  -5.755
REMARK INTRA:                  -0.270
REMARK UNBOUND:                -0.429
REMARK SMILES COc1cccc(C(=O)O)c1O
REMARK SMILES IDX 7 1 11 2 6 3 5 4 3 5 4 6 8 7 9 8 10 9 12 11 2 13 1 14
REMARK H PARENT 10 10 12 12
ROOT
ATOM      1  C   UNL     1      -0.632  -5.646  -4.254  1.00  0.00     0.105 A 
ATOM      2  C   UNL     1      -0.160  -6.896  -4.546  1.00  0.00     0.172 A 
ATOM      3  C   UNL     1       0.351  -4.554  -4.137  1.00  0.00     0.020 A 
ATOM      4  C   UNL     1       1.583  -4.754  -4.672  1.00  0.00     0.005 A 
ATOM      5  C   UNL     1       1.049  -7.091  -5.333  1.00  0.00     0.161 A 
ATOM      6  C   UNL     1       1.984  -5.983  -5.273  1.00  0.00     0.050 A 
ENDROOT
BRANCH   1   7
ATOM      7  C   UNL     1      -2.142  -5.364  -4.156  1.00  0.00     0.339 C 
ATOM      8  O   UNL     1      -2.353  -3.764  -4.379  1.00  0.00    -0.246 OA
BRANCH   7   9
ATOM      9  O   UNL     1      -3.050  -5.893  -4.088  1.00  0.00    -0.478 OA
ATOM     10  H   UNL     1      -3.904  -6.390  -4.025  1.00  0.00     0.297 HD
ENDBRANCH   7   9
ENDBRANCH   1   7
BRANCH   2  11
ATOM     11  O   UNL     1      -0.834  -8.052  -4.116  1.00  0.00    -0.504 OA
ATOM     12  H   UNL     1      -1.310  -8.866  -3.814  1.00  0.00     0.293 HD
ENDBRANCH   2  11
BRANCH   5  13
ATOM     13  O   UNL     1       1.312  -8.397  -5.726  1.00  0.00    -0.493 OA
ATOM     14  C   UNL     1       1.579  -9.393  -6.505  1.00  0.00     0.278 C 
ENDBRANCH   5  13
TORSDOF 4
ENDMDL
MODEL 4
REMARK VINA RESULT:    -4.700      2.080      3.086
REMARK INTER + INTRA:          -5.953
REMARK INTER:                  -5.690
REMARK INTRA:                  -0.264
REMARK UNBOUND:                -0.429
REMARK SMILES COc1cccc(C(=O)O)c1O
REMARK SMILES IDX 7 1 11 2 6 3 5 4 3 5 4 6 8 7 9 8 10 9 12 11 2 13 1 14
REMARK H PARENT 10 10 12 12
ROOT
ATOM      1  C   UNL     1       2.250  -4.473  -4.062  1.00  0.00     0.105 A 
ATOM      2  C   UNL     1       2.535  -5.245  -5.155  1.00  0.00     0.172 A 
ATOM      3  C   UNL     1       0.850  -4.430  -3.602  1.00  0.00     0.020 A 
ATOM      4  C   UNL     1       0.014  -5.411  -4.032  1.00  0.00     0.005 A 
ATOM      5  C   UNL     1       1.764  -6.440  -5.467  1.00  0.00     0.161 A 
ATOM      6  C   UNL     1       0.408  -6.426  -4.951  1.00  0.00     0.050 A 
ENDROOT
BRANCH   1   7
ATOM      7  C   UNL     1       3.362  -3.757  -3.275  1.00  0.00     0.339 C 
ATOM      8  O   UNL     1       2.737  -3.325  -1.834  1.00  0.00    -0.246 OA
BRANCH   7   9
ATOM      9  O   UNL     1       4.393  -3.561  -3.352  1.00  0.00    -0.478 OA
ATOM     10  H   UNL     1       5.364  -3.377  -3.424  1.00  0.00     0.297 HD
ENDBRANCH   7   9
ENDBRANCH   1   7
BRANCH   2  11
ATOM     11  O   UNL     1       3.601  -4.930  -6.015  1.00  0.00    -0.504 OA
ATOM     12  H   UNL     1       4.352  -4.709  -6.621  1.00  0.00     0.293 HD
ENDBRANCH   2  11
BRANCH   5  13
ATOM     13  O   UNL     1       2.274  -7.241  -6.481  1.00  0.00    -0.493 OA
ATOM     14  C   UNL     1       2.878  -8.233  -7.048  1.00  0.00     0.278 C 
ENDBRANCH   5  13
TORSDOF 4
ENDMDL
MODEL 5
REMARK VINA RESULT:    -4.157      2.045      3.000
REMARK INTER + INTRA:          -5.316
REMARK INTER:                  -4.854
REMARK INTRA:                  -0.462
REMARK UNBOUND:                -0.429
REMARK SMILES COc1cccc(C(=O)O)c1O
REMARK SMILES IDX 7 1 11 2 6 3 5 4 3 5 4 6 8 7 9 8 10 9 12 11 2 13 1 14
REMARK H PARENT 10 10 12 12
ROOT
ATOM      1  C   UNL     1       1.518  -4.388  -3.930  1.00  0.00     0.105 A 
ATOM      2  C   UNL     1       1.824  -5.259  -4.939  1.00  0.00     0.172 A 
ATOM      3  C   UNL     1       0.092  -4.122  -3.666  1.00  0.00     0.020 A 
ATOM      4  C   UNL     1      -0.817  -5.001  -4.162  1.00  0.00     0.005 A 
ATOM      5  C   UNL     1       0.933  -6.352  -5.301  1.00  0.00     0.161 A 
ATOM      6  C   UNL     1      -0.461  -6.118  -4.975  1.00  0.00     0.050 A 
ENDROOT
BRANCH   1   7
ATOM      7  C   UNL     1       2.613  -3.787  -3.031  1.00  0.00     0.339 C 
ATOM      8  O   UNL     1       3.838  -3.325  -4.000  1.00  0.00    -0.246 OA
BRANCH   7   9
ATOM      9  O   UNL     1       2.755  -3.507  -2.026  1.00  0.00    -0.478 OA
ATOM     10  H   UNL     1       2.890  -3.244  -1.081  1.00  0.00     0.297 HD
ENDBRANCH   7   9
ENDBRANCH   1   7
BRANCH   2  11
ATOM     11  O   UNL     1       3.026  -5.150  -5.659  1.00  0.00    -0.504 OA
ATOM     12  H   UNL     1       3.873  -5.074  -6.167  1.00  0.00     0.293 HD
ENDBRANCH   2  11
BRANCH   5  13
ATOM     13  O   UNL     1       1.446  -7.278  -6.201  1.00  0.00    -0.493 OA
ATOM     14  C   UNL     1       1.914  -8.397  -6.647  1.00  0.00     0.278 C 
ENDBRANCH   5  13
TORSDOF 4
ENDMDL
MODEL 6
REMARK VINA RESULT:    -4.082      2.173      3.097
REMARK INTER + INTRA:          -5.227
REMARK INTER:                  -5.023
REMARK INTRA:                  -0.204
REMARK UNBOUND:                -0.429
REMARK SMILES COc1cccc(C(=O)O)c1O
REMARK SMILES IDX 7 1 11 2 6 3 5 4 3 5 4 6 8 7 9 8 10 9 12 11 2 13 1 14
REMARK H PARENT 10 10 12 12
ROOT
ATOM      1  C   UNL     1       2.552  -4.777  -5.420  1.00  0.00     0.105 A 
ATOM      2  C   UNL     1       1.186  -4.756  -5.494  1.00  0.00     0.172 A 
ATOM      3  C   UNL     1       3.177  -4.262  -4.188  1.00  0.00     0.020 A 
ATOM      4  C   UNL     1       2.396  -4.146  -3.084  1.00  0.00     0.005 A 
ATOM      5  C   UNL     1       0.355  -4.874  -4.305  1.00  0.00     0.161 A 
ATOM      6  C   UNL     1       0.999  -4.433  -3.082  1.00  0.00     0.050 A 
ENDROOT
BRANCH   1   7
ATOM      7  C   UNL     1       3.404  -5.412  -6.533  1.00  0.00     0.339 C 
ATOM      8  O   UNL     1       2.947  -6.969  -6.668  1.00  0.00    -0.246 OA
BRANCH   7   9
ATOM      9  O   UNL     1       4.097  -5.121  -7.270  1.00  0.00    -0.478 OA
ATOM     10  H   UNL     1       4.749  -4.849  -7.964  1.00  0.00     0.297 HD
ENDBRANCH   7   9
ENDBRANCH   1   7
BRANCH   2  11
ATOM     11  O   UNL     1       0.522  -4.641  -6.727  1.00  0.00    -0.504 OA
ATOM     12  H   UNL     1       0.054  -4.560  -7.596  1.00  0.00     0.293 HD
ENDBRANCH   2  11
BRANCH   5  13
ATOM     13  O   UNL     1      -1.006  -5.038  -4.531  1.00  0.00    -0.493 OA
ATOM     14  C   UNL     1      -2.214  -5.468  -4.367  1.00  0.00     0.278 C 
ENDBRANCH   5  13
TORSDOF 4
ENDMDL
MODEL 7
REMARK VINA RESULT:    -3.697      7.159      8.504
REMARK INTER + INTRA:          -4.775
REMARK INTER:                  -4.562
REMARK INTRA:                  -0.213
REMARK UNBOUND:                -0.429
REMARK SMILES COc1cccc(C(=O)O)c1O
REMARK SMILES IDX 7 1 11 2 6 3 5 4 3 5 4 6 8 7 9 8 10 9 12 11 2 13 1 14
REMARK H PARENT 10 10 12 12
ROOT
ATOM      1  C   UNL     1      -1.204  -2.937   2.882  1.00  0.00     0.105 A 
ATOM      2  C   UNL     1      -1.205  -2.080   1.816  1.00  0.00     0.172 A 
ATOM      3  C   UNL     1      -0.058  -2.874   3.808  1.00  0.00     0.020 A 
ATOM      4  C   UNL     1       0.721  -1.762   3.773  1.00  0.00     0.005 A 
ATOM      5  C   UNL     1      -0.558  -0.777   1.882  1.00  0.00     0.161 A 
ATOM      6  C   UNL     1       0.523  -0.697   2.846  1.00  0.00     0.050 A 
ENDROOT
BRANCH   1   7
ATOM      7  C   UNL     1      -2.401  -3.859   3.168  1.00  0.00     0.339 C 
ATOM      8  O   UNL     1      -3.748  -3.066   2.710  1.00  0.00    -0.246 OA
BRANCH   7   9
ATOM      9  O   UNL     1      -2.591  -4.851   3.469  1.00  0.00    -0.478 OA
ATOM     10  H   UNL     1      -2.768  -5.783   3.751  1.00  0.00     0.297 HD
ENDBRANCH   7   9
ENDBRANCH   1   7
BRANCH   2  11
ATOM     11  O   UNL     1      -1.851  -2.410   0.612  1.00  0.00    -0.504 OA
ATOM     12  H   UNL     1      -2.306  -2.643  -0.236  1.00  0.00     0.293 HD
ENDBRANCH   2  11
BRANCH   5  13
ATOM     13  O   UNL     1      -0.799   0.074   0.811  1.00  0.00    -0.493 OA
ATOM     14  C   UNL     1      -1.222   0.472  -0.344  1.00  0.00     0.278 C 
ENDBRANCH   5  13
TORSDOF 4
ENDMDL
MODEL 8
REMARK VINA RESULT:    -3.623      2.396      4.587
REMARK INTER + INTRA:          -4.688
REMARK INTER:                  -4.521
REMARK INTRA:                  -0.167
REMARK UNBOUND:                -0.429
REMARK SMILES COc1cccc(C(=O)O)c1O
REMARK SMILES IDX 7 1 11 2 6 3 5 4 3 5 4 6 8 7 9 8 10 9 12 11 2 13 1 14
REMARK H PARENT 10 10 12 12
ROOT
ATOM      1  C   UNL     1      -0.066  -6.937  -4.240  1.00  0.00     0.105 A 
ATOM      2  C   UNL     1       0.979  -6.268  -3.665  1.00  0.00     0.172 A 
ATOM      3  C   UNL     1      -1.350  -6.222  -4.364  1.00  0.00     0.020 A 
ATOM      4  C   UNL     1      -1.332  -4.869  -4.251  1.00  0.00     0.005 A 
ATOM      5  C   UNL     1       1.105  -4.821  -3.761  1.00  0.00     0.161 A 
ATOM      6  C   UNL     1      -0.153  -4.125  -3.954  1.00  0.00     0.050 A 
ENDROOT
BRANCH   1   7
ATOM      7  C   UNL     1       0.114  -8.345  -4.834  1.00  0.00     0.339 C 
ATOM      8  O   UNL     1      -1.164  -9.239  -4.364  1.00  0.00    -0.246 OA
BRANCH   7   9
ATOM      9  O   UNL     1       0.744  -8.851  -5.509  1.00  0.00    -0.478 OA
ATOM     10  H   UNL     1       1.336  -9.327  -6.145  1.00  0.00     0.297 HD
ENDBRANCH   7   9
ENDBRANCH   1   7
BRANCH   2  11
ATOM     11  O   UNL     1       1.993  -6.952  -2.972  1.00  0.00    -0.504 OA
ATOM     12  H   UNL     1       2.707  -7.434  -2.484  1.00  0.00     0.293 HD
ENDBRANCH   2  11
BRANCH   5  13
ATOM     13  O   UNL     1       2.306  -4.286  -3.310  1.00  0.00    -0.493 OA
ATOM     14  C   UNL     1       3.477  -3.743  -3.353  1.00  0.00     0.278 C 
ENDBRANCH   5  13
TORSDOF 4
ENDMDL
MODEL 9
REMARK VINA RESULT:    -3.233      2.622      4.624
REMARK INTER + INTRA:          -4.229
REMARK INTER:                  -4.045
REMARK INTRA:                  -0.184
REMARK UNBOUND:                -0.429
REMARK SMILES COc1cccc(C(=O)O)c1O
REMARK SMILES IDX 7 1 11 2 6 3 5 4 3 5 4 6 8 7 9 8 10 9 12 11 2 13 1 14
REMARK H PARENT 10 10 12 12
ROOT
ATOM      1  C   UNL     1       1.028  -6.559  -4.138  1.00  0.00     0.105 A 
ATOM      2  C   UNL     1       1.924  -6.664  -5.166  1.00  0.00     0.172 A 
ATOM      3  C   UNL     1       1.302  -5.556  -3.092  1.00  0.00     0.020 A 
ATOM      4  C   UNL     1       2.187  -4.568  -3.382  1.00  0.00     0.005 A 
ATOM      5  C   UNL     1       2.700  -5.519  -5.622  1.00  0.00     0.161 A 
ATOM      6  C   UNL     1       2.907  -4.499  -4.611  1.00  0.00     0.050 A 
ENDROOT
BRANCH   1   7
ATOM      7  C   UNL     1      -0.272  -7.382  -4.122  1.00  0.00     0.339 C 
ATOM      8  O   UNL     1      -1.514  -6.329  -4.087  1.00  0.00    -0.246 OA
BRANCH   7   9
ATOM      9  O   UNL     1      -0.584  -8.382  -4.223  1.00  0.00    -0.478 OA
ATOM     10  H   UNL     1      -0.878  -9.323  -4.318  1.00  0.00     0.297 HD
ENDBRANCH   7   9
ENDBRANCH   1   7
BRANCH   2  11
ATOM     11  O   UNL     1       2.120  -7.878  -5.845  1.00  0.00    -0.504 OA
ATOM     12  H   UNL     1       2.258  -8.734  -6.324  1.00  0.00     0.293 HD
ENDBRANCH   2  11
BRANCH   5  13
ATOM     13  O   UNL     1       3.422  -5.705  -6.794  1.00  0.00    -0.493 OA
ATOM     14  C   UNL     1       4.444  -5.838  -7.574  1.00  0.00     0.278 C 
ENDBRANCH   5  13
TORSDOF 4
ENDMDL
