MODEL 1
REMARK VINA RESULT:    -4.855      0.000      0.000
REMARK INTER + INTRA:          -6.181
REMARK INTER:                  -5.706
REMARK INTRA:                  -0.475
REMARK UNBOUND:                -0.475
REMARK SMILES COc1cccc(C(=O)O)c1O
REMARK SMILES IDX 7 1 11 2 6 3 5 4 3 5 4 6 8 7 9 8 10 9 12 11 2 13 1 14
REMARK H PARENT 10 10 12 12
ROOT
ATOM      1  C   UNL     1      -0.091   4.412  -3.372  1.00  0.00     0.105 A 
ATOM      2  C   UNL     1       0.302   4.684  -2.091  1.00  0.00     0.172 A 
ATOM      3  C   UNL     1       0.777   4.879  -4.468  1.00  0.00     0.020 A 
ATOM      4  C   UNL     1       2.058   5.211  -4.160  1.00  0.00     0.005 A 
ATOM      5  C   UNL     1       1.708   4.802  -1.732  1.00  0.00     0.161 A 
ATOM      6  C   UNL     1       2.572   5.193  -2.830  1.00  0.00     0.050 A 
ENDROOT
BRANCH   1   7
ATOM      7  C   UNL     1      -1.338   3.558  -3.662  1.00  0.00     0.339 C 
ATOM      8  O   UNL     1      -1.623   2.648  -2.341  1.00  0.00    -0.246 OA
BRANCH   7   9
ATOM      9  O   UNL     1      -2.088   3.464  -4.395  1.00  0.00    -0.478 OA
ATOM     10  H   UNL     1      -2.794   3.376  -5.084  1.00  0.00     0.297 HD
ENDBRANCH   7   9
ENDBRANCH   1   7
BRANCH   2  11
ATOM     11  O   UNL     1      -0.636   4.842  -1.055  1.00  0.00    -0.504 OA
ATOM     12  H   UNL     1      -1.296   4.952  -0.326  1.00  0.00     0.293 HD
ENDBRANCH   2  11
BRANCH   5  13
ATOM     13  O   UNL     1       1.982   4.882  -0.373  1.00  0.00    -0.493 OA
ATOM     14  C   UNL     1       2.620   5.161   0.716  1.00  0.00     0.278 C 
ENDBRANCH   5  13
TORSDOF 4
ENDMDL
MODEL 2
REMARK VINA RESULT:    -4.831      1.731      4.693
REMARK INTER + INTRA:          -6.154
REMARK INTER:                  -5.678
REMARK INTRA:                  -0.476
REMARK UNBOUND:                -0.475
REMARK SMILES COc1cccc(C(=O)O)c1O
REMARK SMILES IDX 7 1 11 2 6 3 5 4 3 5 4 6 8 7 9 8 10 9 12 11 2 13 1 14
REMARK H PARENT 10 10 12 12
ROOT
ATOM      1  C   UNL     1       1.667   5.579  -0.520  1.00  0.00     0.105 A 
ATOM      2  C   UNL     1       1.237   4.841  -1.587  1.00  0.00     0.172 A 
ATOM      3  C   UNL     1       0.960   6.840  -0.231  1.00  0.00     0.020 A 
ATOM      4  C   UNL     1      -0.270   7.014  -0.781  1.00  0.00     0.005 A 
ATOM      5  C   UNL     1      -0.154   4.860  -2.018  1.00  0.00     0.161 A 
ATOM      6  C   UNL     1      -0.869   6.073  -1.669  1.00  0.00     0.050 A 
ENDROOT
BRANCH   1   7
ATOM      7  C   UNL     1       2.780   5.066   0.411  1.00  0.00     0.339 C 
ATOM      8  O   UNL     1       2.833   3.445   0.260  1.00  0.00    -0.246 OA
BRANCH   7   9
ATOM      9  O   UNL     1       3.551   5.448   1.018  1.00  0.00    -0.478 OA
ATOM     10  H   UNL     1       4.277   5.807   1.588  1.00  0.00     0.297 HD
ENDBRANCH   7   9
ENDBRANCH   1   7
BRANCH   2  11
ATOM     11  O   UNL     1       2.115   4.011  -2.305  1.00  0.00    -0.504 OA
ATOM     12  H   UNL     1       2.734   3.426  -2.811  1.00  0.00     0.293 HD
ENDBRANCH   2  11
BRANCH   5  13
ATOM     13  O   UNL     1      -0.503   3.922  -2.981  1.00  0.00    -0.493 OA
ATOM     14  C   UNL     1      -1.186   3.349  -3.917  1.00  0.00     0.278 C 
ENDBRANCH   5  13
TORSDOF 4
ENDMDL
MODEL 3
REMARK VINA RESULT:    -4.638      2.236      3.223
REMARK INTER + INTRA:          -5.926
REMARK INTER:                  -5.657
REMARK INTRA:                  -0.269
REMARK UNBOUND:                -0.475
REMARK SMILES COc1cccc(C(=O)O)c1O
REMARK SMILES IDX 7 1 11 2 6 3 5 4 3 5 4 6 8 7 9 8 10 9 12 11 2 13 1 14
REMARK H PARENT 10 10 12 12
ROOT
ATOM      1  C   UNL     1      -0.008   4.348  -3.090  1.00  0.00     0.105 A 
ATOM      2  C   UNL     1       0.538   5.357  -3.835  1.00  0.00     0.172 A 
ATOM      3  C   UNL     1       0.263   4.346  -1.640  1.00  0.00     0.020 A 
ATOM      4  C   UNL     1       0.707   5.501  -1.080  1.00  0.00     0.005 A 
ATOM      5  C   UNL     1       0.788   6.675  -3.270  1.00  0.00     0.161 A 
ATOM      6  C   UNL     1       0.984   6.679  -1.833  1.00  0.00     0.050 A 
ENDROOT
BRANCH   1   7
ATOM      7  C   UNL     1      -0.958   3.313  -3.717  1.00  0.00     0.339 C 
ATOM      8  O   UNL     1      -1.808   2.634  -2.504  1.00  0.00    -0.246 OA
BRANCH   7   9
ATOM      9  O   UNL     1      -1.278   2.998  -4.669  1.00  0.00    -0.478 OA
ATOM     10  H   UNL     1      -1.579   2.701  -5.565  1.00  0.00     0.297 HD
ENDBRANCH   7   9
ENDBRANCH   1   7
BRANCH   2  11
ATOM     11  O   UNL     1       0.862   5.171  -5.190  1.00  0.00    -0.504 OA
ATOM     12  H   UNL     1       1.090   5.041  -6.145  1.00  0.00     0.293 HD
ENDBRANCH   2  11
BRANCH   5  13
ATOM     13  O   UNL     1       1.157   7.662  -4.176  1.00  0.00    -0.493 OA
ATOM     14  C   UNL     1       1.219   8.825  -4.735  1.00  0.00     0.278 C 
ENDBRANCH   5  13
TORSDOF 4
ENDMDL
MODEL 4
REMARK VINA RESULT:    -4.628      2.904      4.370
REMARK INTER + INTRA:          -5.915
REMARK INTER:                  -5.646
REMARK INTRA:                  -0.269
REMARK UNBOUND:                -0.475
REMARK SMILES COc1cccc(C(=O)O)c1O
REMARK SMILES IDX 7 1 11 2 6 3 5 4 3 5 4 6 8 7 9 8 10 9 12 11 2 13 1 14
REMARK H PARENT 10 10 12 12
ROOT
ATOM      1  C   UNL     1       1.604   5.352  -0.687  1.00  0.00     0.105 A 
ATOM      2  C   UNL     1       1.248   6.637  -0.994  1.00  0.00     0.172 A 
ATOM      3  C   UNL     1       1.307   4.305  -1.681  1.00  0.00     0.020 A 
ATOM      4  C   UNL     1       1.051   4.699  -2.955  1.00  0.00     0.005 A 
ATOM      5  C   UNL     1       1.210   7.111  -2.370  1.00  0.00     0.161 A 
ATOM      6  C   UNL     1       0.989   6.067  -3.353  1.00  0.00     0.050 A 
ENDROOT
BRANCH   1   7
ATOM      7  C   UNL     1       2.379   5.022   0.600  1.00  0.00     0.339 C 
ATOM      8  O   UNL     1       3.028   3.540   0.412  1.00  0.00    -0.246 OA
BRANCH   7   9
ATOM      9  O   UNL     1       2.684   5.494   1.491  1.00  0.00    -0.478 OA
ATOM     10  H   UNL     1       2.971   5.936   2.329  1.00  0.00     0.297 HD
ENDBRANCH   7   9
ENDBRANCH   1   7
BRANCH   2  11
ATOM     11  O   UNL     1       0.924   7.566   0.010  1.00  0.00    -0.504 OA
ATOM     12  H   UNL     1       0.696   8.221   0.717  1.00  0.00     0.293 HD
ENDBRANCH   2  11
BRANCH   5  13
ATOM     13  O   UNL     1       1.029   8.478  -2.535  1.00  0.00    -0.493 OA
ATOM     14  C   UNL     1       1.155   9.660  -3.042  1.00  0.00     0.278 C 
ENDBRANCH   5  13
TORSDOF 4
ENDMDL
MODEL 5
REMARK VINA RESULT:    -4.046      2.152      3.085
REMARK INTER + INTRA:          -5.231
REMARK INTER:                  -4.921
REMARK INTRA:                  -0.310
REMARK UNBOUND:                -0.475
REMARK SMILES COc1cccc(C(=O)O)c1O
REMARK SMILES IDX 7 1 11 2 6 3 5 4 3 5 4 6 8 7 9 8 10 9 12 11 2 13 1 14
REMARK H PARENT 10 10 12 12
ROOT
ATOM      1  C   UNL     1       0.729   4.791  -4.034  1.00  0.00     0.105 A 
ATOM      2  C   UNL     1       1.574   4.783  -2.958  1.00  0.00     0.172 A 
ATOM      3  C   UNL     1      -0.483   3.954  -3.957  1.00  0.00     0.020 A 
ATOM      4  C   UNL     1      -0.879   3.529  -2.729  1.00  0.00     0.005 A 
ATOM      5  C   UNL     1       1.086   4.558  -1.605  1.00  0.00     0.161 A 
ATOM      6  C   UNL     1      -0.146   3.795  -1.535  1.00  0.00     0.050 A 
ENDROOT
BRANCH   1   7
ATOM      7  C   UNL     1       0.975   5.716  -5.238  1.00  0.00     0.339 C 
ATOM      8  O   UNL     1       1.398   7.176  -4.651  1.00  0.00    -0.246 OA
BRANCH   7   9
ATOM      9  O   UNL     1       1.044   5.659  -6.287  1.00  0.00    -0.478 OA
ATOM     10  H   UNL     1       1.108   5.606  -7.274  1.00  0.00     0.297 HD
ENDBRANCH   7   9
ENDBRANCH   1   7
BRANCH   2  11
ATOM     11  O   UNL     1       2.952   5.014  -3.109  1.00  0.00    -0.504 OA
ATOM     12  H   UNL     1       3.923   5.177  -3.215  1.00  0.00     0.293 HD
ENDBRANCH   2  11
BRANCH   5  13
ATOM     13  O   UNL     1       2.006   4.771  -0.586  1.00  0.00    -0.493 OA
ATOM     14  C   UNL     1       2.521   5.263   0.492  1.00  0.00     0.278 C 
ENDBRANCH   5  13
TORSDOF 4
ENDMDL
MODEL 6
REMARK VINA RESULT:    -3.988      2.338      4.606
REMARK INTER + INTRA:          -5.163
REMARK INTER:                  -4.822
REMARK INTRA:                  -0.341
REMARK UNBOUND:                -0.475
REMARK SMILES COc1cccc(C(=O)O)c1O
REMARK SMILES IDX 7 1 11 2 6 3 5 4 3 5 4 6 8 7 9 8 10 9 12 11 2 13 1 14
REMARK H PARENT 10 10 12 12
ROOT
ATOM      1  C   UNL     1       0.953   6.542  -0.509  1.00  0.00     0.105 A 
ATOM      2  C   UNL     1       0.108   5.911  -1.379  1.00  0.00     0.172 A 
ATOM      3  C   UNL     1       1.947   5.715   0.201  1.00  0.00     0.020 A 
ATOM      4  C   UNL     1       2.215   4.482  -0.301  1.00  0.00     0.005 A 
ATOM      5  C   UNL     1       0.508   4.708  -2.096  1.00  0.00     0.161 A 
ATOM      6  C   UNL     1       1.538   3.933  -1.430  1.00  0.00     0.050 A 
ENDROOT
BRANCH   1   7
ATOM      7  C   UNL     1       0.944   8.073  -0.351  1.00  0.00     0.339 C 
ATOM      8  O   UNL     1       0.787   8.715  -1.840  1.00  0.00    -0.246 OA
BRANCH   7   9
ATOM      9  O   UNL     1       0.909   8.796   0.413  1.00  0.00    -0.478 OA
ATOM     10  H   UNL     1       0.877   9.475   1.133  1.00  0.00     0.297 HD
ENDBRANCH   7   9
ENDBRANCH   1   7
BRANCH   2  11
ATOM     11  O   UNL     1      -1.180   6.409  -1.638  1.00  0.00    -0.504 OA
ATOM     12  H   UNL     1      -2.088   6.760  -1.821  1.00  0.00     0.293 HD
ENDBRANCH   2  11
BRANCH   5  13
ATOM     13  O   UNL     1      -0.360   4.280  -3.092  1.00  0.00    -0.493 OA
ATOM     14  C   UNL     1      -1.088   3.477  -3.795  1.00  0.00     0.278 C 
ENDBRANCH   5  13
TORSDOF 4
ENDMDL
MODEL 7
REMARK VINA RESULT:    -3.915      7.104      8.219
REMARK INTER + INTRA:          -5.077
REMARK INTER:                  -4.830
REMARK INTRA:                  -0.246
REMARK UNBOUND:                -0.475
REMARK SMILES COc1cccc(C(=O)O)c1O
REMARK SMILES IDX 7 1 11 2 6 3 5 4 3 5 4 6 8 7 9 8 10 9 12 11 2 13 1 14
REMARK H PARENT 10 10 12 12
ROOT
ATOM      1  C   UNL     1      -4.002  -0.396   2.835  1.00  0.00     0.105 A 
ATOM      2  C   UNL     1      -2.765  -0.709   2.342  1.00  0.00     0.172 A 
ATOM      3  C   UNL     1      -4.063   0.396   4.077  1.00  0.00     0.020 A 
ATOM      4  C   UNL     1      -2.945   1.070   4.451  1.00  0.00     0.005 A 
ATOM      5  C   UNL     1      -1.616   0.160   2.555  1.00  0.00     0.161 A 
ATOM      6  C   UNL     1      -1.710   0.991   3.741  1.00  0.00     0.050 A 
ENDROOT
BRANCH   1   7
ATOM      7  C   UNL     1      -5.285  -0.765   2.070  1.00  0.00     0.339 C 
ATOM      8  O   UNL     1      -4.933  -0.727   0.480  1.00  0.00    -0.246 OA
BRANCH   7   9
ATOM      9  O   UNL     1      -6.258  -1.117   2.267  1.00  0.00    -0.478 OA
ATOM     10  H   UNL     1      -7.173  -1.448   2.451  1.00  0.00     0.297 HD
ENDBRANCH   7   9
ENDBRANCH   1   7
BRANCH   2  11
ATOM     11  O   UNL     1      -2.552  -1.874   1.586  1.00  0.00    -0.504 OA
ATOM     12  H   UNL     1      -2.402  -2.695   1.054  1.00  0.00     0.293 HD
ENDBRANCH   2  11
BRANCH   5  13
ATOM     13  O   UNL     1      -0.470  -0.165   1.841  1.00  0.00    -0.493 OA
ATOM     14  C   UNL     1       0.277  -0.723   0.946  1.00  0.00     0.278 C 
ENDBRANCH   5  13
TORSDOF 4
ENDMDL
MODEL 8
REMARK VINA RESULT:    -3.911      2.078      2.853
REMARK INTER + INTRA:          -5.072
REMARK INTER:                  -4.631
REMARK INTRA:                  -0.441
REMARK UNBOUND:                -0.475
REMARK SMILES COc1cccc(C(=O)O)c1O
REMARK SMILES IDX 7 1 11 2 6 3 5 4 3 5 4 6 8 7 9 8 10 9 12 11 2 13 1 14
REMARK H PARENT 10 10 12 12
ROOT
ATOM      1  C   UNL     1       0.396   4.519  -1.820  1.00  0.00     0.105 A 
ATOM      2  C   UNL     1       0.394   5.881  -1.686  1.00  0.00     0.172 A 
ATOM      3  C   UNL     1       1.489   3.771  -1.172  1.00  0.00     0.020 A 
ATOM      4  C   UNL     1       2.197   4.403  -0.201  1.00  0.00     0.005 A 
ATOM      5  C   UNL     1       0.953   6.534  -0.512  1.00  0.00     0.161 A 
ATOM      6  C   UNL     1       1.979   5.763   0.166  1.00  0.00     0.050 A 
ENDROOT
BRANCH   1   7
ATOM      7  C   UNL     1      -0.754   3.782  -2.529  1.00  0.00     0.339 C 
ATOM      8  O   UNL     1      -0.858   4.383  -4.040  1.00  0.00    -0.246 OA
BRANCH   7   9
ATOM      9  O   UNL     1      -1.401   2.969  -2.365  1.00  0.00    -0.478 OA
ATOM     10  H   UNL     1      -2.011   2.204  -2.210  1.00  0.00     0.297 HD
ENDBRANCH   7   9
ENDBRANCH   1   7
BRANCH   2  11
ATOM     11  O   UNL     1      -0.170   6.711  -2.670  1.00  0.00    -0.504 OA
ATOM     12  H   UNL     1      -0.568   7.296  -3.363  1.00  0.00     0.293 HD
ENDBRANCH   2  11
BRANCH   5  13
ATOM     13  O   UNL     1       0.713   7.898  -0.405  1.00  0.00    -0.493 OA
ATOM     14  C   UNL     1       0.956   9.160  -0.270  1.00  0.00     0.278 C 
ENDBRANCH   5  13
TORSDOF 4
ENDMDL
MODEL 9
REMARK VINA RESULT:    -3.890      7.150      8.513
REMARK INTER + INTRA:          -5.047
REMARK INTER:                  -4.763
REMARK INTRA:                  -0.285
REMARK UNBOUND:                -0.475
REMARK SMILES COc1cccc(C(=O)O)c1O
REMARK SMILES IDX 7 1 11 2 6 3 5 4 3 5 4 6 8 7 9 8 10 9 12 11 2 13 1 14
REMARK H PARENT 10 10 12 12
ROOT
ATOM      1  C   UNL     1      -3.239   0.808   3.443  1.00  0.00     0.105 A 
ATOM      2  C   UNL     1      -2.246   0.382   2.604  1.00  0.00     0.172 A 
ATOM      3  C   UNL     1      -4.630   0.487   3.073  1.00  0.00     0.020 A 
ATOM      4  C   UNL     1      -4.829  -0.497   2.158  1.00  0.00     0.005 A 
ATOM      5  C   UNL     1      -2.390  -0.823   1.799  1.00  0.00     0.161 A 
ATOM      6  C   UNL     1      -3.764  -1.176   1.497  1.00  0.00     0.050 A 
ENDROOT
BRANCH   1   7
ATOM      7  C   UNL     1      -2.917   1.503   4.777  1.00  0.00     0.339 C 
ATOM      8  O   UNL     1      -1.566   0.814   5.371  1.00  0.00    -0.246 OA
BRANCH   7   9
ATOM      9  O   UNL     1      -3.243   2.326   5.346  1.00  0.00    -0.478 OA
ATOM     10  H   UNL     1      -3.550   3.101   5.882  1.00  0.00     0.297 HD
ENDBRANCH   7   9
ENDBRANCH   1   7
BRANCH   2  11
ATOM     11  O   UNL     1      -1.030   1.079   2.497  1.00  0.00    -0.504 OA
ATOM     12  H   UNL     1      -0.174   1.570   2.421  1.00  0.00     0.293 HD
ENDBRANCH   2  11
BRANCH   5  13
ATOM     13  O   UNL     1      -1.243  -1.254   1.144  1.00  0.00    -0.493 OA
ATOM     14  C   UNL     1      -0.000  -1.554   0.957  1.00  0.00     0.278 C 
ENDBRANCH   5  13
TORSDOF 4
ENDMDL
