MODEL 1
REMARK VINA RESULT:    -4.919      0.000      0.000
REMARK INTER + INTRA:          -6.266
REMARK INTER:                  -5.782
REMARK INTRA:                  -0.484
REMARK UNBOUND:                -0.484
REMARK SMILES COc1cccc(C(=O)O)c1O
REMARK SMILES IDX 7 1 11 2 6 3 5 4 3 5 4 6 8 7 9 8 10 9 12 11 2 13 1 14
REMARK H PARENT 10 10 12 12
ROOT
ATOM      1  C   UNL     1      -2.255  -6.208  -1.206  1.00  0.00     0.105 A 
ATOM      2  C   UNL     1      -2.869  -5.349  -0.337  1.00  0.00     0.172 A 
ATOM      3  C   UNL     1      -3.058  -6.744  -2.320  1.00  0.00     0.020 A 
ATOM      4  C   UNL     1      -4.209  -6.096  -2.637  1.00  0.00     0.005 A 
ATOM      5  C   UNL     1      -3.957  -4.481  -0.763  1.00  0.00     0.161 A 
ATOM      6  C   UNL     1      -4.702  -4.976  -1.905  1.00  0.00     0.050 A 
ENDROOT
BRANCH   1   7
ATOM      7  C   UNL     1      -0.753  -6.525  -1.092  1.00  0.00     0.339 C 
ATOM      8  O   UNL     1      -0.101  -5.430  -0.077  1.00  0.00    -0.246 OA
BRANCH   7   9
ATOM      9  O   UNL     1      -0.070  -7.270  -1.386  1.00  0.00    -0.478 OA
ATOM     10  H   UNL     1       0.572  -7.971  -1.663  1.00  0.00     0.297 HD
ENDBRANCH   7   9
ENDBRANCH   1   7
BRANCH   2  11
ATOM     11  O   UNL     1      -2.461  -5.250   1.004  1.00  0.00    -0.504 OA
ATOM     12  H   UNL     1      -2.174  -5.180   1.949  1.00  0.00     0.293 HD
ENDBRANCH   2  11
BRANCH   5  13
ATOM     13  O   UNL     1      -4.360  -3.520   0.156  1.00  0.00    -0.493 OA
ATOM     14  C   UNL     1      -5.119  -2.896   0.996  1.00  0.00     0.278 C 
ENDBRANCH   5  13
TORSDOF 4
ENDMDL
MODEL 2
REMARK VINA RESULT:    -4.892      1.758      4.663
REMARK INTER + INTRA:          -6.235
REMARK INTER:                  -5.757
REMARK INTRA:                  -0.478
REMARK UNBOUND:                -0.484
REMARK SMILES COc1cccc(C(=O)O)c1O
REMARK SMILES IDX 7 1 11 2 6 3 5 4 3 5 4 6 8 7 9 8 10 9 12 11 2 13 1 14
REMARK H PARENT 10 10 12 12
ROOT
ATOM      1  C   UNL     1      -4.668  -4.373   0.663  1.00  0.00     0.105 A 
ATOM      2  C   UNL     1      -3.603  -4.742  -0.112  1.00  0.00     0.172 A 
ATOM      3  C   UNL     1      -5.278  -5.403   1.523  1.00  0.00     0.020 A 
ATOM      4  C   UNL     1      -4.552  -6.522   1.779  1.00  0.00     0.005 A 
ATOM      5  C   UNL     1      -2.688  -5.797   0.301  1.00  0.00     0.161 A 
ATOM      6  C   UNL     1      -3.271  -6.771   1.205  1.00  0.00     0.050 A 
ENDROOT
BRANCH   1   7
ATOM      7  C   UNL     1      -5.149  -2.912   0.718  1.00  0.00     0.339 C 
ATOM      8  O   UNL     1      -3.991  -1.992   0.035  1.00  0.00    -0.246 OA
BRANCH   7   9
ATOM      9  O   UNL     1      -6.014  -2.366   0.968  1.00  0.00    -0.478 OA
ATOM     10  H   UNL     1      -6.827  -1.852   1.203  1.00  0.00     0.297 HD
ENDBRANCH   7   9
ENDBRANCH   1   7
BRANCH   2  11
ATOM     11  O   UNL     1      -3.331  -4.104  -1.334  1.00  0.00    -0.504 OA
ATOM     12  H   UNL     1      -3.139  -3.654  -2.195  1.00  0.00     0.293 HD
ENDBRANCH   2  11
BRANCH   5  13
ATOM     13  O   UNL     1      -1.542  -5.941  -0.471  1.00  0.00    -0.493 OA
ATOM     14  C   UNL     1      -0.729  -6.439  -1.344  1.00  0.00     0.278 C 
ENDBRANCH   5  13
TORSDOF 4
ENDMDL
MODEL 3
REMARK VINA RESULT:    -4.648      2.173      3.239
REMARK INTER + INTRA:          -5.948
REMARK INTER:                  -5.679
REMARK INTRA:                  -0.268
REMARK UNBOUND:                -0.484
REMARK SMILES COc1cccc(C(=O)O)c1O
REMARK SMILES IDX 7 1 11 2 6 3 5 4 3 5 4 6 8 7 9 8 10 9 12 11 2 13 1 14
REMARK H PARENT 10 10 12 12
ROOT
ATOM      1  C   UNL     1      -2.256  -6.012  -1.022  1.00  0.00     0.105 A 
ATOM      2  C   UNL     1      -3.228  -6.740  -1.651  1.00  0.00     0.172 A 
ATOM      3  C   UNL     1      -2.688  -4.998  -0.043  1.00  0.00     0.020 A 
ATOM      4  C   UNL     1      -3.951  -5.090   0.446  1.00  0.00     0.005 A 
ATOM      5  C   UNL     1      -4.500  -7.032  -1.006  1.00  0.00     0.161 A 
ATOM      6  C   UNL     1      -4.889  -6.071   0.008  1.00  0.00     0.050 A 
ENDROOT
BRANCH   1   7
ATOM      7  C   UNL     1      -0.763  -6.308  -1.246  1.00  0.00     0.339 C 
ATOM      8  O   UNL     1       0.063  -5.587  -0.041  1.00  0.00    -0.246 OA
BRANCH   7   9
ATOM      9  O   UNL     1      -0.151  -6.898  -1.867  1.00  0.00    -0.478 OA
ATOM     10  H   UNL     1       0.425  -7.453  -2.451  1.00  0.00     0.297 HD
ENDBRANCH   7   9
ENDBRANCH   1   7
BRANCH   2  11
ATOM     11  O   UNL     1      -3.033  -7.259  -2.942  1.00  0.00    -0.504 OA
ATOM     12  H   UNL     1      -2.896  -7.625  -3.852  1.00  0.00     0.293 HD
ENDBRANCH   2  11
BRANCH   5  13
ATOM     13  O   UNL     1      -5.318  -7.942  -1.665  1.00  0.00    -0.493 OA
ATOM     14  C   UNL     1      -5.919  -9.055  -1.928  1.00  0.00     0.278 C 
ENDBRANCH   5  13
TORSDOF 4
ENDMDL
MODEL 4
REMARK VINA RESULT:    -4.645      2.934      4.438
REMARK INTER + INTRA:          -5.944
REMARK INTER:                  -5.678
REMARK INTRA:                  -0.266
REMARK UNBOUND:                -0.484
REMARK SMILES COc1cccc(C(=O)O)c1O
REMARK SMILES IDX 7 1 11 2 6 3 5 4 3 5 4 6 8 7 9 8 10 9 12 11 2 13 1 14
REMARK H PARENT 10 10 12 12
ROOT
ATOM      1  C   UNL     1      -4.446  -4.293   0.517  1.00  0.00     0.105 A 
ATOM      2  C   UNL     1      -5.133  -5.425   0.860  1.00  0.00     0.172 A 
ATOM      3  C   UNL     1      -3.254  -4.450  -0.336  1.00  0.00     0.020 A 
ATOM      4  C   UNL     1      -3.117  -5.615  -1.021  1.00  0.00     0.005 A 
ATOM      5  C   UNL     1      -5.168  -6.591  -0.011  1.00  0.00     0.161 A 
ATOM      6  C   UNL     1      -4.027  -6.705  -0.900  1.00  0.00     0.050 A 
ENDROOT
BRANCH   1   7
ATOM      7  C   UNL     1      -4.954  -2.897   0.915  1.00  0.00     0.339 C 
ATOM      8  O   UNL     1      -4.169  -1.811  -0.012  1.00  0.00    -0.246 OA
BRANCH   7   9
ATOM      9  O   UNL     1      -5.701  -2.461   1.516  1.00  0.00    -0.478 OA
ATOM     10  H   UNL     1      -6.403  -2.051   2.081  1.00  0.00     0.297 HD
ENDBRANCH   7   9
ENDBRANCH   1   7
BRANCH   2  11
ATOM     11  O   UNL     1      -5.856  -5.505   2.063  1.00  0.00    -0.504 OA
ATOM     12  H   UNL     1      -6.365  -5.562   2.910  1.00  0.00     0.293 HD
ENDBRANCH   2  11
BRANCH   5  13
ATOM     13  O   UNL     1      -6.056  -7.594   0.356  1.00  0.00    -0.493 OA
ATOM     14  C   UNL     1      -7.099  -8.357   0.318  1.00  0.00     0.278 C 
ENDBRANCH   5  13
TORSDOF 4
ENDMDL
MODEL 5
REMARK VINA RESULT:    -4.095      2.160      3.090
REMARK INTER + INTRA:          -5.298
REMARK INTER:                  -4.981
REMARK INTRA:                  -0.317
REMARK UNBOUND:                -0.484
REMARK SMILES COc1cccc(C(=O)O)c1O
REMARK SMILES IDX 7 1 11 2 6 3 5 4 3 5 4 6 8 7 9 8 10 9 12 11 2 13 1 14
REMARK H PARENT 10 10 12 12
ROOT
ATOM      1  C   UNL     1      -3.045  -6.427  -1.985  1.00  0.00     0.105 A 
ATOM      2  C   UNL     1      -3.755  -5.337  -1.562  1.00  0.00     0.172 A 
ATOM      3  C   UNL     1      -1.640  -6.538  -1.551  1.00  0.00     0.020 A 
ATOM      4  C   UNL     1      -1.246  -5.785  -0.492  1.00  0.00     0.005 A 
ATOM      5  C   UNL     1      -3.466  -4.682  -0.295  1.00  0.00     0.161 A 
ATOM      6  C   UNL     1      -2.101  -4.853   0.167  1.00  0.00     0.050 A 
ENDROOT
BRANCH   1   7
ATOM      7  C   UNL     1      -3.712  -7.551  -2.797  1.00  0.00     0.339 C 
ATOM      8  O   UNL     1      -5.159  -7.853  -2.112  1.00  0.00    -0.246 OA
BRANCH   7   9
ATOM      9  O   UNL     1      -3.558  -8.092  -3.687  1.00  0.00    -0.478 OA
ATOM     10  H   UNL     1      -3.413  -8.601  -4.524  1.00  0.00     0.297 HD
ENDBRANCH   7   9
ENDBRANCH   1   7
BRANCH   2  11
ATOM     11  O   UNL     1      -4.813  -4.812  -2.325  1.00  0.00    -0.504 OA
ATOM     12  H   UNL     1      -5.558  -4.442  -2.862  1.00  0.00     0.293 HD
ENDBRANCH   2  11
BRANCH   5  13
ATOM     13  O   UNL     1      -4.380  -3.717   0.111  1.00  0.00    -0.493 OA
ATOM     14  C   UNL     1      -5.153  -3.041   0.894  1.00  0.00     0.278 C 
ENDBRANCH   5  13
TORSDOF 4
ENDMDL
MODEL 6
REMARK VINA RESULT:    -4.088      2.377      4.580
REMARK INTER + INTRA:          -5.290
REMARK INTER:                  -5.017
REMARK INTRA:                  -0.273
REMARK UNBOUND:                -0.484
REMARK SMILES COc1cccc(C(=O)O)c1O
REMARK SMILES IDX 7 1 11 2 6 3 5 4 3 5 4 6 8 7 9 8 10 9 12 11 2 13 1 14
REMARK H PARENT 10 10 12 12
ROOT
ATOM      1  C   UNL     1      -4.850  -5.337   1.259  1.00  0.00     0.105 A 
ATOM      2  C   UNL     1      -3.612  -5.807   0.917  1.00  0.00     0.172 A 
ATOM      3  C   UNL     1      -5.115  -3.900   1.058  1.00  0.00     0.020 A 
ATOM      4  C   UNL     1      -4.285  -3.215   0.230  1.00  0.00     0.005 A 
ATOM      5  C   UNL     1      -2.831  -5.196  -0.149  1.00  0.00     0.161 A 
ATOM      6  C   UNL     1      -3.144  -3.800  -0.393  1.00  0.00     0.050 A 
ENDROOT
BRANCH   1   7
ATOM      7  C   UNL     1      -5.963  -6.286   1.735  1.00  0.00     0.339 C 
ATOM      8  O   UNL     1      -5.984  -7.560   0.720  1.00  0.00    -0.246 OA
BRANCH   7   9
ATOM      9  O   UNL     1      -6.622  -6.398   2.549  1.00  0.00    -0.478 OA
ATOM     10  H   UNL     1      -7.241  -6.504   3.314  1.00  0.00     0.297 HD
ENDBRANCH   7   9
ENDBRANCH   1   7
BRANCH   2  11
ATOM     11  O   UNL     1      -3.046  -6.917   1.566  1.00  0.00    -0.504 OA
ATOM     12  H   UNL     1      -2.647  -7.700   2.024  1.00  0.00     0.293 HD
ENDBRANCH   2  11
BRANCH   5  13
ATOM     13  O   UNL     1      -1.685  -5.883  -0.531  1.00  0.00    -0.493 OA
ATOM     14  C   UNL     1      -0.850  -6.508  -1.294  1.00  0.00     0.278 C 
ENDBRANCH   5  13
TORSDOF 4
ENDMDL
MODEL 7
REMARK VINA RESULT:    -4.062      2.867      4.143
REMARK INTER + INTRA:          -5.259
REMARK INTER:                  -4.794
REMARK INTRA:                  -0.464
REMARK UNBOUND:                -0.484
REMARK SMILES COc1cccc(C(=O)O)c1O
REMARK SMILES IDX 7 1 11 2 6 3 5 4 3 5 4 6 8 7 9 8 10 9 12 11 2 13 1 14
REMARK H PARENT 10 10 12 12
ROOT
ATOM      1  C   UNL     1      -4.053  -4.443   0.109  1.00  0.00     0.105 A 
ATOM      2  C   UNL     1      -4.942  -5.406   0.498  1.00  0.00     0.172 A 
ATOM      3  C   UNL     1      -2.875  -4.873  -0.667  1.00  0.00     0.020 A 
ATOM      4  C   UNL     1      -2.920  -6.096  -1.255  1.00  0.00     0.005 A 
ATOM      5  C   UNL     1      -5.150  -6.616  -0.285  1.00  0.00     0.161 A 
ATOM      6  C   UNL     1      -4.013  -6.998  -1.102  1.00  0.00     0.050 A 
ENDROOT
BRANCH   1   7
ATOM      7  C   UNL     1      -4.320  -2.951   0.375  1.00  0.00     0.339 C 
ATOM      8  O   UNL     1      -4.859  -2.819   1.907  1.00  0.00    -0.246 OA
BRANCH   7   9
ATOM      9  O   UNL     1      -4.170  -2.018  -0.089  1.00  0.00    -0.478 OA
ATOM     10  H   UNL     1      -4.028  -1.141  -0.526  1.00  0.00     0.297 HD
ENDBRANCH   7   9
ENDBRANCH   1   7
BRANCH   2  11
ATOM     11  O   UNL     1      -5.714  -5.261   1.664  1.00  0.00    -0.504 OA
ATOM     12  H   UNL     1      -6.258  -5.158   2.485  1.00  0.00     0.293 HD
ENDBRANCH   2  11
BRANCH   5  13
ATOM     13  O   UNL     1      -6.215  -7.416   0.108  1.00  0.00    -0.493 OA
ATOM     14  C   UNL     1      -7.050  -8.403   0.103  1.00  0.00     0.278 C 
ENDBRANCH   5  13
TORSDOF 4
ENDMDL
MODEL 8
REMARK VINA RESULT:    -4.054      2.090      3.181
REMARK INTER + INTRA:          -5.250
REMARK INTER:                  -4.809
REMARK INTRA:                  -0.441
REMARK UNBOUND:                -0.484
REMARK SMILES COc1cccc(C(=O)O)c1O
REMARK SMILES IDX 7 1 11 2 6 3 5 4 3 5 4 6 8 7 9 8 10 9 12 11 2 13 1 14
REMARK H PARENT 10 10 12 12
ROOT
ATOM      1  C   UNL     1      -2.415  -5.423  -0.658  1.00  0.00     0.105 A 
ATOM      2  C   UNL     1      -3.294  -6.285  -1.255  1.00  0.00     0.172 A 
ATOM      3  C   UNL     1      -2.976  -4.261   0.055  1.00  0.00     0.020 A 
ATOM      4  C   UNL     1      -4.290  -4.302   0.393  1.00  0.00     0.005 A 
ATOM      5  C   UNL     1      -4.635  -6.494  -0.729  1.00  0.00     0.161 A 
ATOM      6  C   UNL     1      -5.157  -5.375   0.033  1.00  0.00     0.050 A 
ENDROOT
BRANCH   1   7
ATOM      7  C   UNL     1      -0.904  -5.709  -0.638  1.00  0.00     0.339 C 
ATOM      8  O   UNL     1      -0.480  -6.198  -2.133  1.00  0.00    -0.246 OA
BRANCH   7   9
ATOM      9  O   UNL     1      -0.078  -5.591   0.005  1.00  0.00    -0.478 OA
ATOM     10  H   UNL     1       0.698  -5.479   0.610  1.00  0.00     0.297 HD
ENDBRANCH   7   9
ENDBRANCH   1   7
BRANCH   2  11
ATOM     11  O   UNL     1      -2.933  -7.026  -2.394  1.00  0.00    -0.504 OA
ATOM     12  H   UNL     1      -2.678  -7.547  -3.196  1.00  0.00     0.293 HD
ENDBRANCH   2  11
BRANCH   5  13
ATOM     13  O   UNL     1      -5.356  -7.534  -1.303  1.00  0.00    -0.493 OA
ATOM     14  C   UNL     1      -5.765  -8.739  -1.529  1.00  0.00     0.278 C 
ENDBRANCH   5  13
TORSDOF 4
ENDMDL
MODEL 9
REMARK VINA RESULT:    -3.902      7.225      7.762
REMARK INTER + INTRA:          -5.070
REMARK INTER:                  -4.781
REMARK INTRA:                  -0.289
REMARK UNBOUND:                -0.484
REMARK SMILES COc1cccc(C(=O)O)c1O
REMARK SMILES IDX 7 1 11 2 6 3 5 4 3 5 4 6 8 7 9 8 10 9 12 11 2 13 1 14
REMARK H PARENT 10 10 12 12
ROOT
ATOM      1  C   UNL     1      -0.004   0.803  -3.970  1.00  0.00     0.105 A 
ATOM      2  C   UNL     1       0.166   0.401  -2.674  1.00  0.00     0.172 A 
ATOM      3  C   UNL     1      -0.881   1.963  -4.216  1.00  0.00     0.020 A 
ATOM      4  C   UNL     1      -1.164   2.774  -3.165  1.00  0.00     0.005 A 
ATOM      5  C   UNL     1       0.092   1.343  -1.566  1.00  0.00     0.161 A 
ATOM      6  C   UNL     1      -0.714   2.518  -1.836  1.00  0.00     0.050 A 
ENDROOT
BRANCH   1   7
ATOM      7  C   UNL     1       0.771   0.141  -5.122  1.00  0.00     0.339 C 
ATOM      8  O   UNL     1       2.240  -0.269  -4.549  1.00  0.00    -0.246 OA
BRANCH   7   9
ATOM      9  O   UNL     1       0.604  -0.201  -6.104  1.00  0.00    -0.478 OA
ATOM     10  H   UNL     1       0.446  -0.522  -7.027  1.00  0.00     0.297 HD
ENDBRANCH   7   9
ENDBRANCH   1   7
BRANCH   2  11
ATOM     11  O   UNL     1       0.442  -0.940  -2.354  1.00  0.00    -0.504 OA
ATOM     12  H   UNL     1       0.637  -1.884  -2.129  1.00  0.00     0.293 HD
ENDBRANCH   2  11
BRANCH   5  13
ATOM     13  O   UNL     1       0.477   0.850  -0.326  1.00  0.00    -0.493 OA
ATOM     14  C   UNL     1       1.165   0.201   0.555  1.00  0.00     0.278 C 
ENDBRANCH   5  13
TORSDOF 4
ENDMDL
