MODEL 1
REMARK VINA RESULT:    -4.732      0.000      0.000
REMARK INTER + INTRA:          -6.026
REMARK INTER:                  -5.561
REMARK INTRA:                  -0.465
REMARK UNBOUND:                -0.465
REMARK SMILES COc1cccc(C(=O)O)c1O
REMARK SMILES IDX 7 1 11 2 6 3 5 4 3 5 4 6 8 7 9 8 10 9 12 11 2 13 1 14
REMARK H PARENT 10 10 12 12
ROOT
ATOM      1  C   UNL     1       1.761  -4.356   4.990  1.00  0.00     0.105 A 
ATOM      2  C   UNL     1       1.256  -4.883   3.834  1.00  0.00     0.172 A 
ATOM      3  C   UNL     1       2.999  -4.950   5.528  1.00  0.00     0.020 A 
ATOM      4  C   UNL     1       3.752  -5.706   4.689  1.00  0.00     0.005 A 
ATOM      5  C   UNL     1       2.119  -5.484   2.827  1.00  0.00     0.161 A 
ATOM      6  C   UNL     1       3.369  -6.005   3.349  1.00  0.00     0.050 A 
ENDROOT
BRANCH   1   7
ATOM      7  C   UNL     1       1.125  -3.121   5.652  1.00  0.00     0.339 C 
ATOM      8  O   UNL     1       0.364  -2.280   4.483  1.00  0.00    -0.246 OA
BRANCH   7   9
ATOM      9  O   UNL     1       0.960  -2.728   6.615  1.00  0.00    -0.478 OA
ATOM     10  H   UNL     1       0.805  -2.358   7.520  1.00  0.00     0.297 HD
ENDBRANCH   7   9
ENDBRANCH   1   7
BRANCH   2  11
ATOM     11  O   UNL     1      -0.121  -4.849   3.554  1.00  0.00    -0.504 OA
ATOM     12  H   UNL     1      -1.091  -4.824   3.358  1.00  0.00     0.293 HD
ENDBRANCH   2  11
BRANCH   5  13
ATOM     13  O   UNL     1       1.511  -5.801   1.619  1.00  0.00    -0.493 OA
ATOM     14  C   UNL     1       1.377  -5.989   0.347  1.00  0.00     0.278 C 
ENDBRANCH   5  13
TORSDOF 4
ENDMDL
MODEL 2
REMARK VINA RESULT:    -4.679      2.906      4.338
REMARK INTER + INTRA:          -5.964
REMARK INTER:                  -5.698
REMARK INTRA:                  -0.266
REMARK UNBOUND:                -0.465
REMARK SMILES COc1cccc(C(=O)O)c1O
REMARK SMILES IDX 7 1 11 2 6 3 5 4 3 5 4 6 8 7 9 8 10 9 12 11 2 13 1 14
REMARK H PARENT 10 10 12 12
ROOT
ATOM      1  C   UNL     1       1.280  -5.811   1.969  1.00  0.00     0.105 A 
ATOM      2  C   UNL     1       0.883  -6.923   2.660  1.00  0.00     0.172 A 
ATOM      3  C   UNL     1       1.744  -4.650   2.751  1.00  0.00     0.020 A 
ATOM      4  C   UNL     1       2.097  -4.861   4.045  1.00  0.00     0.005 A 
ATOM      5  C   UNL     1       1.455  -7.262   3.955  1.00  0.00     0.161 A 
ATOM      6  C   UNL     1       1.976  -6.126   4.692  1.00  0.00     0.050 A 
ENDROOT
BRANCH   1   7
ATOM      7  C   UNL     1       1.342  -5.805   0.432  1.00  0.00     0.339 C 
ATOM      8  O   UNL     1       2.232  -4.515  -0.013  1.00  0.00    -0.246 OA
BRANCH   7   9
ATOM      9  O   UNL     1       1.073  -6.418  -0.380  1.00  0.00    -0.478 OA
ATOM     10  H   UNL     1       0.821  -6.996  -1.144  1.00  0.00     0.297 HD
ENDBRANCH   7   9
ENDBRANCH   1   7
BRANCH   2  11
ATOM     11  O   UNL     1      -0.082  -7.802   2.140  1.00  0.00    -0.504 OA
ATOM     12  H   UNL     1      -0.762  -8.421   1.773  1.00  0.00     0.293 HD
ENDBRANCH   2  11
BRANCH   5  13
ATOM     13  O   UNL     1       1.116  -8.511   4.459  1.00  0.00    -0.493 OA
ATOM     14  C   UNL     1       1.268  -9.709   4.921  1.00  0.00     0.278 C 
ENDBRANCH   5  13
TORSDOF 4
ENDMDL
MODEL 3
REMARK VINA RESULT:    -4.656      2.100      3.101
REMARK INTER + INTRA:          -5.937
REMARK INTER:                  -5.668
REMARK INTRA:                  -0.269
REMARK UNBOUND:                -0.465
REMARK SMILES COc1cccc(C(=O)O)c1O
REMARK SMILES IDX 7 1 11 2 6 3 5 4 3 5 4 6 8 7 9 8 10 9 12 11 2 13 1 14
REMARK H PARENT 10 10 12 12
ROOT
ATOM      1  C   UNL     1       1.725  -4.214   4.623  1.00  0.00     0.105 A 
ATOM      2  C   UNL     1       2.330  -5.314   5.167  1.00  0.00     0.172 A 
ATOM      3  C   UNL     1       1.281  -4.303   3.220  1.00  0.00     0.020 A 
ATOM      4  C   UNL     1       1.156  -5.540   2.674  1.00  0.00     0.005 A 
ATOM      5  C   UNL     1       2.002  -6.662   4.726  1.00  0.00     0.161 A 
ATOM      6  C   UNL     1       1.497  -6.738   3.368  1.00  0.00     0.050 A 
ENDROOT
BRANCH   1   7
ATOM      7  C   UNL     1       1.423  -2.965   5.469  1.00  0.00     0.339 C 
ATOM      8  O   UNL     1       0.290  -2.103   4.677  1.00  0.00    -0.246 OA
BRANCH   7   9
ATOM      9  O   UNL     1       1.650  -2.571   6.419  1.00  0.00    -0.478 OA
ATOM     10  H   UNL     1       1.863  -2.200   7.312  1.00  0.00     0.297 HD
ENDBRANCH   7   9
ENDBRANCH   1   7
BRANCH   2  11
ATOM     11  O   UNL     1       3.280  -5.192   6.195  1.00  0.00    -0.504 OA
ATOM     12  H   UNL     1       3.950  -5.107   6.919  1.00  0.00     0.293 HD
ENDBRANCH   2  11
BRANCH   5  13
ATOM     13  O   UNL     1       2.533  -7.694   5.489  1.00  0.00    -0.493 OA
ATOM     14  C   UNL     1       2.581  -8.665   6.340  1.00  0.00     0.278 C 
ENDBRANCH   5  13
TORSDOF 4
ENDMDL
MODEL 4
REMARK VINA RESULT:    -4.615      1.796      4.654
REMARK INTER + INTRA:          -5.889
REMARK INTER:                  -5.435
REMARK INTRA:                  -0.453
REMARK UNBOUND:                -0.465
REMARK SMILES COc1cccc(C(=O)O)c1O
REMARK SMILES IDX 7 1 11 2 6 3 5 4 3 5 4 6 8 7 9 8 10 9 12 11 2 13 1 14
REMARK H PARENT 10 10 12 12
ROOT
ATOM      1  C   UNL     1       1.249  -6.181   1.995  1.00  0.00     0.105 A 
ATOM      2  C   UNL     1       1.712  -5.403   3.020  1.00  0.00     0.172 A 
ATOM      3  C   UNL     1       0.194  -7.163   2.305  1.00  0.00     0.020 A 
ATOM      4  C   UNL     1      -0.505  -6.995   3.458  1.00  0.00     0.005 A 
ATOM      5  C   UNL     1       0.862  -5.034   4.143  1.00  0.00     0.161 A 
ATOM      6  C   UNL     1      -0.220  -5.965   4.402  1.00  0.00     0.050 A 
ENDROOT
BRANCH   1   7
ATOM      7  C   UNL     1       1.733  -5.972   0.550  1.00  0.00     0.339 C 
ATOM      8  O   UNL     1       2.141  -4.403   0.395  1.00  0.00    -0.246 OA
BRANCH   7   9
ATOM      9  O   UNL     1       1.963  -6.543  -0.305  1.00  0.00    -0.478 OA
ATOM     10  H   UNL     1       2.180  -7.079  -1.109  1.00  0.00     0.297 HD
ENDBRANCH   7   9
ENDBRANCH   1   7
BRANCH   2  11
ATOM     11  O   UNL     1       3.026  -4.904   3.025  1.00  0.00    -0.504 OA
ATOM     12  H   UNL     1       3.952  -4.553   3.027  1.00  0.00     0.293 HD
ENDBRANCH   2  11
BRANCH   5  13
ATOM     13  O   UNL     1       1.384  -4.084   5.012  1.00  0.00    -0.493 OA
ATOM     14  C   UNL     1       1.508  -2.962   5.641  1.00  0.00     0.278 C 
ENDBRANCH   5  13
TORSDOF 4
ENDMDL
MODEL 5
REMARK VINA RESULT:    -4.031      2.628      4.178
REMARK INTER + INTRA:          -5.203
REMARK INTER:                  -4.746
REMARK INTRA:                  -0.457
REMARK UNBOUND:                -0.465
REMARK SMILES COc1cccc(C(=O)O)c1O
REMARK SMILES IDX 7 1 11 2 6 3 5 4 3 5 4 6 8 7 9 8 10 9 12 11 2 13 1 14
REMARK H PARENT 10 10 12 12
ROOT
ATOM      1  C   UNL     1       1.300  -5.102   2.368  1.00  0.00     0.105 A 
ATOM      2  C   UNL     1       1.132  -6.230   3.122  1.00  0.00     0.172 A 
ATOM      3  C   UNL     1       1.241  -3.801   3.060  1.00  0.00     0.020 A 
ATOM      4  C   UNL     1       1.394  -3.797   4.409  1.00  0.00     0.005 A 
ATOM      5  C   UNL     1       1.528  -6.278   4.523  1.00  0.00     0.161 A 
ATOM      6  C   UNL     1       1.538  -4.986   5.183  1.00  0.00     0.050 A 
ENDROOT
BRANCH   1   7
ATOM      7  C   UNL     1       1.642  -5.184   0.870  1.00  0.00     0.339 C 
ATOM      8  O   UNL     1       0.692  -6.333   0.215  1.00  0.00    -0.246 OA
BRANCH   7   9
ATOM      9  O   UNL     1       2.217  -4.669   0.153  1.00  0.00    -0.478 OA
ATOM     10  H   UNL     1       2.756  -4.184  -0.520  1.00  0.00     0.297 HD
ENDBRANCH   7   9
ENDBRANCH   1   7
BRANCH   2  11
ATOM     11  O   UNL     1       0.589  -7.404   2.573  1.00  0.00    -0.504 OA
ATOM     12  H   UNL     1       0.206  -8.231   2.186  1.00  0.00     0.293 HD
ENDBRANCH   2  11
BRANCH   5  13
ATOM     13  O   UNL     1       1.490  -7.531   5.120  1.00  0.00    -0.493 OA
ATOM     14  C   UNL     1       1.917  -8.616   5.679  1.00  0.00     0.278 C 
ENDBRANCH   5  13
TORSDOF 4
ENDMDL
MODEL 6
REMARK VINA RESULT:    -3.959      2.160      3.102
REMARK INTER + INTRA:          -5.118
REMARK INTER:                  -4.818
REMARK INTRA:                  -0.300
REMARK UNBOUND:                -0.465
REMARK SMILES COc1cccc(C(=O)O)c1O
REMARK SMILES IDX 7 1 11 2 6 3 5 4 3 5 4 6 8 7 9 8 10 9 12 11 2 13 1 14
REMARK H PARENT 10 10 12 12
ROOT
ATOM      1  C   UNL     1       2.731  -4.954   5.172  1.00  0.00     0.105 A 
ATOM      2  C   UNL     1       2.792  -5.296   3.848  1.00  0.00     0.172 A 
ATOM      3  C   UNL     1       1.905  -3.790   5.540  1.00  0.00     0.020 A 
ATOM      4  C   UNL     1       0.984  -3.359   4.640  1.00  0.00     0.005 A 
ATOM      5  C   UNL     1       1.683  -5.036   2.941  1.00  0.00     0.161 A 
ATOM      6  C   UNL     1       0.829  -3.934   3.344  1.00  0.00     0.050 A 
ENDROOT
BRANCH   1   7
ATOM      7  C   UNL     1       3.411  -5.813   6.252  1.00  0.00     0.339 C 
ATOM      8  O   UNL     1       3.084  -7.372   5.912  1.00  0.00    -0.246 OA
BRANCH   7   9
ATOM      9  O   UNL     1       4.081  -5.700   7.056  1.00  0.00    -0.478 OA
ATOM     10  H   UNL     1       4.711  -5.594   7.813  1.00  0.00     0.297 HD
ENDBRANCH   7   9
ENDBRANCH   1   7
BRANCH   2  11
ATOM     11  O   UNL     1       3.921  -5.934   3.309  1.00  0.00    -0.504 OA
ATOM     12  H   UNL     1       4.717  -6.384   2.928  1.00  0.00     0.293 HD
ENDBRANCH   2  11
BRANCH   5  13
ATOM     13  O   UNL     1       1.788  -5.605   1.678  1.00  0.00    -0.493 OA
ATOM     14  C   UNL     1       1.423  -6.063   0.526  1.00  0.00     0.278 C 
ENDBRANCH   5  13
TORSDOF 4
ENDMDL
MODEL 7
REMARK VINA RESULT:    -3.958      2.213      4.599
REMARK INTER + INTRA:          -5.117
REMARK INTER:                  -4.813
REMARK INTRA:                  -0.304
REMARK UNBOUND:                -0.465
REMARK SMILES COc1cccc(C(=O)O)c1O
REMARK SMILES IDX 7 1 11 2 6 3 5 4 3 5 4 6 8 7 9 8 10 9 12 11 2 13 1 14
REMARK H PARENT 10 10 12 12
ROOT
ATOM      1  C   UNL     1       0.466  -6.785   2.478  1.00  0.00     0.105 A 
ATOM      2  C   UNL     1       0.339  -5.854   3.472  1.00  0.00     0.172 A 
ATOM      3  C   UNL     1       1.087  -6.352   1.212  1.00  0.00     0.020 A 
ATOM      4  C   UNL     1       1.814  -5.206   1.226  1.00  0.00     0.005 A 
ATOM      5  C   UNL     1       1.281  -4.753   3.612  1.00  0.00     0.161 A 
ATOM      6  C   UNL     1       1.945  -4.376   2.378  1.00  0.00     0.050 A 
ENDROOT
BRANCH   1   7
ATOM      7  C   UNL     1       0.073  -8.255   2.703  1.00  0.00     0.339 C 
ATOM      8  O   UNL     1       0.652  -8.696   4.160  1.00  0.00    -0.246 OA
BRANCH   7   9
ATOM      9  O   UNL     1      -0.521  -9.000   2.254  1.00  0.00    -0.478 OA
ATOM     10  H   UNL     1      -1.079  -9.701   1.833  1.00  0.00     0.297 HD
ENDBRANCH   7   9
ENDBRANCH   1   7
BRANCH   2  11
ATOM     11  O   UNL     1      -0.696  -5.932   4.419  1.00  0.00    -0.504 OA
ATOM     12  H   UNL     1      -1.426  -5.987   5.087  1.00  0.00     0.293 HD
ENDBRANCH   2  11
BRANCH   5  13
ATOM     13  O   UNL     1       1.161  -3.997   4.771  1.00  0.00    -0.493 OA
ATOM     14  C   UNL     1       1.449  -3.121   5.677  1.00  0.00     0.278 C 
ENDBRANCH   5  13
TORSDOF 4
ENDMDL
MODEL 8
REMARK VINA RESULT:    -3.822      7.676      8.609
REMARK INTER + INTRA:          -4.957
REMARK INTER:                  -4.702
REMARK INTRA:                  -0.255
REMARK UNBOUND:                -0.465
REMARK SMILES COc1cccc(C(=O)O)c1O
REMARK SMILES IDX 7 1 11 2 6 3 5 4 3 5 4 6 8 7 9 8 10 9 12 11 2 13 1 14
REMARK H PARENT 10 10 12 12
ROOT
ATOM      1  C   UNL     1       5.212   1.106  -1.177  1.00  0.00     0.105 A 
ATOM      2  C   UNL     1       3.879   1.172  -0.874  1.00  0.00     0.172 A 
ATOM      3  C   UNL     1       6.171   1.513  -0.133  1.00  0.00     0.020 A 
ATOM      4  C   UNL     1       5.723   1.571   1.148  1.00  0.00     0.005 A 
ATOM      5  C   UNL     1       3.396   0.994   0.487  1.00  0.00     0.161 A 
ATOM      6  C   UNL     1       4.366   1.327   1.513  1.00  0.00     0.050 A 
ENDROOT
BRANCH   1   7
ATOM      7  C   UNL     1       5.700   0.529  -2.516  1.00  0.00     0.339 C 
ATOM      8  O   UNL     1       4.692  -0.686  -2.920  1.00  0.00    -0.246 OA
BRANCH   7   9
ATOM      9  O   UNL     1       6.407   0.743  -3.267  1.00  0.00    -0.478 OA
ATOM     10  H   UNL     1       7.070   0.945  -3.974  1.00  0.00     0.297 HD
ENDBRANCH   7   9
ENDBRANCH   1   7
BRANCH   2  11
ATOM     11  O   UNL     1       2.913   1.395  -1.870  1.00  0.00    -0.504 OA
ATOM     12  H   UNL     1       2.233   1.552  -2.572  1.00  0.00     0.293 HD
ENDBRANCH   2  11
BRANCH   5  13
ATOM     13  O   UNL     1       2.018   0.887   0.631  1.00  0.00    -0.493 OA
ATOM     14  C   UNL     1       0.795   0.582   0.348  1.00  0.00     0.278 C 
ENDBRANCH   5  13
TORSDOF 4
ENDMDL
MODEL 9
REMARK VINA RESULT:    -3.816      7.105      8.281
REMARK INTER + INTRA:          -4.950
REMARK INTER:                  -4.709
REMARK INTRA:                  -0.241
REMARK UNBOUND:                -0.465
REMARK SMILES COc1cccc(C(=O)O)c1O
REMARK SMILES IDX 7 1 11 2 6 3 5 4 3 5 4 6 8 7 9 8 10 9 12 11 2 13 1 14
REMARK H PARENT 10 10 12 12
ROOT
ATOM      1  C   UNL     1      -3.784   1.129   0.893  1.00  0.00     0.105 A 
ATOM      2  C   UNL     1      -2.454   1.092   0.573  1.00  0.00     0.172 A 
ATOM      3  C   UNL     1      -4.705   0.313   0.081  1.00  0.00     0.020 A 
ATOM      4  C   UNL     1      -4.170  -0.683  -0.671  1.00  0.00     0.005 A 
ATOM      5  C   UNL     1      -1.845  -0.089  -0.021  1.00  0.00     0.161 A 
ATOM      6  C   UNL     1      -2.769  -0.928  -0.761  1.00  0.00     0.050 A 
ENDROOT
BRANCH   1   7
ATOM      7  C   UNL     1      -4.290   1.907   2.120  1.00  0.00     0.339 C 
ATOM      8  O   UNL     1      -3.126   1.836   3.257  1.00  0.00    -0.246 OA
BRANCH   7   9
ATOM      9  O   UNL     1      -5.094   2.530   2.393  1.00  0.00    -0.478 OA
ATOM     10  H   UNL     1      -5.849   3.116   2.651  1.00  0.00     0.297 HD
ENDBRANCH   7   9
ENDBRANCH   1   7
BRANCH   2  11
ATOM     11  O   UNL     1      -1.611   2.187   0.825  1.00  0.00    -0.504 OA
ATOM     12  H   UNL     1      -1.016   2.959   1.002  1.00  0.00     0.293 HD
ENDBRANCH   2  11
BRANCH   5  13
ATOM     13  O   UNL     1      -0.459  -0.073  -0.115  1.00  0.00    -0.493 OA
ATOM     14  C   UNL     1       0.763   0.280   0.115  1.00  0.00     0.278 C 
ENDBRANCH   5  13
TORSDOF 4
ENDMDL
