MODEL 1
REMARK VINA RESULT:    -4.881      0.000      0.000
REMARK INTER + INTRA:          -6.222
REMARK INTER:                  -5.737
REMARK INTRA:                  -0.485
REMARK UNBOUND:                -0.485
REMARK SMILES COc1cccc(C(=O)O)c1O
REMARK SMILES IDX 7 1 11 2 6 3 5 4 3 5 4 6 8 7 9 8 10 9 12 11 2 13 1 14
REMARK H PARENT 10 10 12 12
ROOT
ATOM      1  C   UNL     1      -2.797  -4.332  -5.603  1.00  0.00     0.105 A 
ATOM      2  C   UNL     1      -2.239  -5.013  -4.556  1.00  0.00     0.172 A 
ATOM      3  C   UNL     1      -4.219  -4.584  -5.901  1.00  0.00     0.020 A 
ATOM      4  C   UNL     1      -4.973  -5.168  -4.935  1.00  0.00     0.005 A 
ATOM      5  C   UNL     1      -3.029  -5.427  -3.405  1.00  0.00     0.161 A 
ATOM      6  C   UNL     1      -4.441  -5.605  -3.686  1.00  0.00     0.050 A 
ENDROOT
BRANCH   1   7
ATOM      7  C   UNL     1      -2.006  -3.263  -6.376  1.00  0.00     0.339 C 
ATOM      8  O   UNL     1      -0.675  -2.916  -5.503  1.00  0.00    -0.246 OA
BRANCH   7   9
ATOM      9  O   UNL     1      -2.020  -2.781  -7.312  1.00  0.00    -0.478 OA
ATOM     10  H   UNL     1      -2.032  -2.328  -8.193  1.00  0.00     0.297 HD
ENDBRANCH   7   9
ENDBRANCH   1   7
BRANCH   2  11
ATOM     11  O   UNL     1      -0.869  -5.325  -4.535  1.00  0.00    -0.504 OA
ATOM     12  H   UNL     1       0.096  -5.546  -4.520  1.00  0.00     0.293 HD
ENDBRANCH   2  11
BRANCH   5  13
ATOM     13  O   UNL     1      -2.312  -5.931  -2.328  1.00  0.00    -0.493 OA
ATOM     14  C   UNL     1      -1.899  -6.776  -1.442  1.00  0.00     0.278 C 
ENDBRANCH   5  13
TORSDOF 4
ENDMDL
MODEL 2
REMARK VINA RESULT:    -4.878      1.756      4.701
REMARK INTER + INTRA:          -6.219
REMARK INTER:                  -5.745
REMARK INTRA:                  -0.474
REMARK UNBOUND:                -0.485
REMARK SMILES COc1cccc(C(=O)O)c1O
REMARK SMILES IDX 7 1 11 2 6 3 5 4 3 5 4 6 8 7 9 8 10 9 12 11 2 13 1 14
REMARK H PARENT 10 10 12 12
ROOT
ATOM      1  C   UNL     1      -2.099  -6.679  -2.909  1.00  0.00     0.105 A 
ATOM      2  C   UNL     1      -2.422  -5.559  -3.626  1.00  0.00     0.172 A 
ATOM      3  C   UNL     1      -1.685  -7.877  -3.663  1.00  0.00     0.020 A 
ATOM      4  C   UNL     1      -1.298  -7.708  -4.953  1.00  0.00     0.005 A 
ATOM      5  C   UNL     1      -1.809  -5.275  -4.915  1.00  0.00     0.161 A 
ATOM      6  C   UNL     1      -1.338  -6.450  -5.623  1.00  0.00     0.050 A 
ENDROOT
BRANCH   1   7
ATOM      7  C   UNL     1      -2.065  -6.662  -1.371  1.00  0.00     0.339 C 
ATOM      8  O   UNL     1      -2.134  -5.105  -0.899  1.00  0.00    -0.246 OA
BRANCH   7   9
ATOM      9  O   UNL     1      -2.108  -7.338  -0.565  1.00  0.00    -0.478 OA
ATOM     10  H   UNL     1      -2.149  -7.974   0.194  1.00  0.00     0.297 HD
ENDBRANCH   7   9
ENDBRANCH   1   7
BRANCH   2  11
ATOM     11  O   UNL     1      -3.346  -4.620  -3.138  1.00  0.00    -0.504 OA
ATOM     12  H   UNL     1      -3.998  -3.958  -2.794  1.00  0.00     0.293 HD
ENDBRANCH   2  11
BRANCH   5  13
ATOM     13  O   UNL     1      -2.070  -4.018  -5.445  1.00  0.00    -0.493 OA
ATOM     14  C   UNL     1      -2.233  -3.091  -6.332  1.00  0.00     0.278 C 
ENDBRANCH   5  13
TORSDOF 4
ENDMDL
MODEL 3
REMARK VINA RESULT:    -4.650      2.218      3.230
REMARK INTER + INTRA:          -5.951
REMARK INTER:                  -5.681
REMARK INTRA:                  -0.270
REMARK UNBOUND:                -0.485
REMARK SMILES COc1cccc(C(=O)O)c1O
REMARK SMILES IDX 7 1 11 2 6 3 5 4 3 5 4 6 8 7 9 8 10 9 12 11 2 13 1 14
REMARK H PARENT 10 10 12 12
ROOT
ATOM      1  C   UNL     1      -2.608  -4.392  -5.372  1.00  0.00     0.105 A 
ATOM      2  C   UNL     1      -3.664  -5.149  -5.799  1.00  0.00     0.172 A 
ATOM      3  C   UNL     1      -1.815  -4.903  -4.238  1.00  0.00     0.020 A 
ATOM      4  C   UNL     1      -1.932  -6.220  -3.929  1.00  0.00     0.005 A 
ATOM      5  C   UNL     1      -3.665  -6.599  -5.671  1.00  0.00     0.161 A 
ATOM      6  C   UNL     1      -2.828  -7.104  -4.600  1.00  0.00     0.050 A 
ENDROOT
BRANCH   1   7
ATOM      7  C   UNL     1      -2.193  -3.108  -6.110  1.00  0.00     0.339 C 
ATOM      8  O   UNL     1      -0.649  -2.788  -5.701  1.00  0.00    -0.246 OA
BRANCH   7   9
ATOM      9  O   UNL     1      -2.566  -2.456  -6.849  1.00  0.00    -0.478 OA
ATOM     10  H   UNL     1      -2.916  -1.844  -7.544  1.00  0.00     0.297 HD
ENDBRANCH   7   9
ENDBRANCH   1   7
BRANCH   2  11
ATOM     11  O   UNL     1      -4.789  -4.560  -6.401  1.00  0.00    -0.504 OA
ATOM     12  H   UNL     1      -5.582  -4.146  -6.825  1.00  0.00     0.293 HD
ENDBRANCH   2  11
BRANCH   5  13
ATOM     13  O   UNL     1      -4.700  -7.263  -6.318  1.00  0.00    -0.493 OA
ATOM     14  C   UNL     1      -5.293  -8.106  -7.098  1.00  0.00     0.278 C 
ENDBRANCH   5  13
TORSDOF 4
ENDMDL
MODEL 4
REMARK VINA RESULT:    -4.629      2.941      4.479
REMARK INTER + INTRA:          -5.927
REMARK INTER:                  -5.657
REMARK INTRA:                  -0.270
REMARK UNBOUND:                -0.485
REMARK SMILES COc1cccc(C(=O)O)c1O
REMARK SMILES IDX 7 1 11 2 6 3 5 4 3 5 4 6 8 7 9 8 10 9 12 11 2 13 1 14
REMARK H PARENT 10 10 12 12
ROOT
ATOM      1  C   UNL     1      -2.181  -6.464  -3.004  1.00  0.00     0.105 A 
ATOM      2  C   UNL     1      -2.383  -7.487  -3.890  1.00  0.00     0.172 A 
ATOM      3  C   UNL     1      -2.406  -5.089  -3.485  1.00  0.00     0.020 A 
ATOM      4  C   UNL     1      -3.134  -4.928  -4.620  1.00  0.00     0.005 A 
ATOM      5  C   UNL     1      -3.353  -7.380  -4.970  1.00  0.00     0.161 A 
ATOM      6  C   UNL     1      -3.626  -6.020  -5.394  1.00  0.00     0.050 A 
ENDROOT
BRANCH   1   7
ATOM      7  C   UNL     1      -1.835  -6.739  -1.530  1.00  0.00     0.339 C 
ATOM      8  O   UNL     1      -2.152  -5.377  -0.694  1.00  0.00    -0.246 OA
BRANCH   7   9
ATOM      9  O   UNL     1      -1.559  -7.545  -0.912  1.00  0.00    -0.478 OA
ATOM     10  H   UNL     1      -1.299  -8.304  -0.332  1.00  0.00     0.297 HD
ENDBRANCH   7   9
ENDBRANCH   1   7
BRANCH   2  11
ATOM     11  O   UNL     1      -1.678  -8.698  -3.783  1.00  0.00    -0.504 OA
ATOM     12  H   UNL     1      -1.181  -9.551  -3.708  1.00  0.00     0.293 HD
ENDBRANCH   2  11
BRANCH   5  13
ATOM     13  O   UNL     1      -3.606  -8.551  -5.674  1.00  0.00    -0.493 OA
ATOM     14  C   UNL     1      -4.278  -9.477  -6.276  1.00  0.00     0.278 C 
ENDBRANCH   5  13
TORSDOF 4
ENDMDL
MODEL 5
REMARK VINA RESULT:    -3.983      2.376      4.613
REMARK INTER + INTRA:          -5.167
REMARK INTER:                  -4.964
REMARK INTRA:                  -0.204
REMARK UNBOUND:                -0.485
REMARK SMILES COc1cccc(C(=O)O)c1O
REMARK SMILES IDX 7 1 11 2 6 3 5 4 3 5 4 6 8 7 9 8 10 9 12 11 2 13 1 14
REMARK H PARENT 10 10 12 12
ROOT
ATOM      1  C   UNL     1      -1.800  -7.412  -3.764  1.00  0.00     0.105 A 
ATOM      2  C   UNL     1      -1.561  -6.413  -4.666  1.00  0.00     0.172 A 
ATOM      3  C   UNL     1      -1.990  -7.029  -2.353  1.00  0.00     0.020 A 
ATOM      4  C   UNL     1      -2.281  -5.730  -2.085  1.00  0.00     0.005 A 
ATOM      5  C   UNL     1      -2.089  -5.069  -4.475  1.00  0.00     0.161 A 
ATOM      6  C   UNL     1      -2.342  -4.720  -3.090  1.00  0.00     0.050 A 
ENDROOT
BRANCH   1   7
ATOM      7  C   UNL     1      -1.972  -8.873  -4.215  1.00  0.00     0.339 C 
ATOM      8  O   UNL     1      -3.220  -8.916  -5.262  1.00  0.00    -0.246 OA
BRANCH   7   9
ATOM      9  O   UNL     1      -1.478  -9.799  -4.127  1.00  0.00    -0.478 OA
ATOM     10  H   UNL     1      -1.013 -10.669  -4.044  1.00  0.00     0.297 HD
ENDBRANCH   7   9
ENDBRANCH   1   7
BRANCH   2  11
ATOM     11  O   UNL     1      -0.810  -6.643  -5.831  1.00  0.00    -0.504 OA
ATOM     12  H   UNL     1      -0.281  -6.805  -6.653  1.00  0.00     0.293 HD
ENDBRANCH   2  11
BRANCH   5  13
ATOM     13  O   UNL     1      -1.945  -4.203  -5.552  1.00  0.00    -0.493 OA
ATOM     14  C   UNL     1      -2.194  -3.219  -6.351  1.00  0.00     0.278 C 
ENDBRANCH   5  13
TORSDOF 4
ENDMDL
MODEL 6
REMARK VINA RESULT:    -3.950      2.151      3.084
REMARK INTER + INTRA:          -5.128
REMARK INTER:                  -4.873
REMARK INTRA:                  -0.255
REMARK UNBOUND:                -0.485
REMARK SMILES COc1cccc(C(=O)O)c1O
REMARK SMILES IDX 7 1 11 2 6 3 5 4 3 5 4 6 8 7 9 8 10 9 12 11 2 13 1 14
REMARK H PARENT 10 10 12 12
ROOT
ATOM      1  C   UNL     1      -3.871  -4.664  -5.568  1.00  0.00     0.105 A 
ATOM      2  C   UNL     1      -3.717  -5.126  -4.290  1.00  0.00     0.172 A 
ATOM      3  C   UNL     1      -2.834  -3.758  -6.096  1.00  0.00     0.020 A 
ATOM      4  C   UNL     1      -1.638  -3.726  -5.455  1.00  0.00     0.005 A 
ATOM      5  C   UNL     1      -2.400  -5.311  -3.697  1.00  0.00     0.161 A 
ATOM      6  C   UNL     1      -1.366  -4.469  -4.268  1.00  0.00     0.050 A 
ENDROOT
BRANCH   1   7
ATOM      7  C   UNL     1      -5.023  -5.152  -6.463  1.00  0.00     0.339 C 
ATOM      8  O   UNL     1      -5.079  -6.776  -6.342  1.00  0.00    -0.246 OA
BRANCH   7   9
ATOM      9  O   UNL     1      -5.817  -4.755  -7.029  1.00  0.00    -0.478 OA
ATOM     10  H   UNL     1      -6.564  -4.381  -7.561  1.00  0.00     0.297 HD
ENDBRANCH   7   9
ENDBRANCH   1   7
BRANCH   2  11
ATOM     11  O   UNL     1      -4.827  -5.464  -3.496  1.00  0.00    -0.504 OA
ATOM     12  H   UNL     1      -5.609  -5.702  -2.937  1.00  0.00     0.293 HD
ENDBRANCH   2  11
BRANCH   5  13
ATOM     13  O   UNL     1      -2.374  -5.969  -2.474  1.00  0.00    -0.493 OA
ATOM     14  C   UNL     1      -2.005  -6.806  -1.561  1.00  0.00     0.278 C 
ENDBRANCH   5  13
TORSDOF 4
ENDMDL
MODEL 7
REMARK VINA RESULT:    -3.825      7.488      8.506
REMARK INTER + INTRA:          -4.982
REMARK INTER:                  -4.733
REMARK INTRA:                  -0.249
REMARK UNBOUND:                -0.485
REMARK SMILES COc1cccc(C(=O)O)c1O
REMARK SMILES IDX 7 1 11 2 6 3 5 4 3 5 4 6 8 7 9 8 10 9 12 11 2 13 1 14
REMARK H PARENT 10 10 12 12
ROOT
ATOM      1  C   UNL     1      -2.778   0.879   1.556  1.00  0.00     0.105 A 
ATOM      2  C   UNL     1      -1.611   0.563   0.918  1.00  0.00     0.172 A 
ATOM      3  C   UNL     1      -3.739   1.739   0.840  1.00  0.00     0.020 A 
ATOM      4  C   UNL     1      -3.595   1.861  -0.505  1.00  0.00     0.005 A 
ATOM      5  C   UNL     1      -1.536   0.466  -0.533  1.00  0.00     0.161 A 
ATOM      6  C   UNL     1      -2.529   1.257  -1.235  1.00  0.00     0.050 A 
ENDROOT
BRANCH   1   7
ATOM      7  C   UNL     1      -3.129   0.277   2.928  1.00  0.00     0.339 C 
ATOM      8  O   UNL     1      -2.531  -1.238   2.962  1.00  0.00    -0.246 OA
BRANCH   7   9
ATOM      9  O   UNL     1      -3.537   0.578   3.851  1.00  0.00    -0.478 OA
ATOM     10  H   UNL     1      -3.921   0.861   4.719  1.00  0.00     0.297 HD
ENDBRANCH   7   9
ENDBRANCH   1   7
BRANCH   2  11
ATOM     11  O   UNL     1      -0.433   0.297   1.636  1.00  0.00    -0.504 OA
ATOM     12  H   UNL     1       0.397   0.109   2.143  1.00  0.00     0.293 HD
ENDBRANCH   2  11
BRANCH   5  13
ATOM     13  O   UNL     1      -0.353  -0.053  -1.045  1.00  0.00    -0.493 OA
ATOM     14  C   UNL     1       0.739  -0.741  -1.100  1.00  0.00     0.278 C 
ENDBRANCH   5  13
TORSDOF 4
ENDMDL
MODEL 8
REMARK VINA RESULT:    -3.809      7.248      7.767
REMARK INTER + INTRA:          -4.962
REMARK INTER:                  -4.727
REMARK INTRA:                  -0.235
REMARK UNBOUND:                -0.485
REMARK SMILES COc1cccc(C(=O)O)c1O
REMARK SMILES IDX 7 1 11 2 6 3 5 4 3 5 4 6 8 7 9 8 10 9 12 11 2 13 1 14
REMARK H PARENT 10 10 12 12
ROOT
ATOM      1  C   UNL     1      -3.338   0.945   0.141  1.00  0.00     0.105 A 
ATOM      2  C   UNL     1      -2.132   0.382  -0.175  1.00  0.00     0.172 A 
ATOM      3  C   UNL     1      -3.879   0.687   1.488  1.00  0.00     0.020 A 
ATOM      4  C   UNL     1      -3.020   0.238   2.439  1.00  0.00     0.005 A 
ATOM      5  C   UNL     1      -1.119   0.125   0.839  1.00  0.00     0.161 A 
ATOM      6  C   UNL     1      -1.650  -0.057   2.177  1.00  0.00     0.050 A 
ENDROOT
BRANCH   1   7
ATOM      7  C   UNL     1      -4.056   1.897  -0.830  1.00  0.00     0.339 C 
ATOM      8  O   UNL     1      -2.910   2.750  -1.613  1.00  0.00    -0.246 OA
BRANCH   7   9
ATOM      9  O   UNL     1      -5.027   2.082  -1.194  1.00  0.00    -0.478 OA
ATOM     10  H   UNL     1      -5.940   2.257  -1.536  1.00  0.00     0.297 HD
ENDBRANCH   7   9
ENDBRANCH   1   7
BRANCH   2  11
ATOM     11  O   UNL     1      -1.806   0.047  -1.501  1.00  0.00    -0.504 OA
ATOM     12  H   UNL     1      -1.577  -0.190  -2.434  1.00  0.00     0.293 HD
ENDBRANCH   2  11
BRANCH   5  13
ATOM     13  O   UNL     1       0.128  -0.261   0.365  1.00  0.00    -0.493 OA
ATOM     14  C   UNL     1       1.122  -0.393  -0.450  1.00  0.00     0.278 C 
ENDBRANCH   5  13
TORSDOF 4
ENDMDL
