MODEL 1
REMARK VINA RESULT:    -4.755      0.000      0.000
REMARK INTER + INTRA:          -6.074
REMARK INTER:                  -5.589
REMARK INTRA:                  -0.485
REMARK UNBOUND:                -0.485
REMARK SMILES COc1cccc(C(=O)O)c1O
REMARK SMILES IDX 7 1 11 2 6 3 5 4 3 5 4 6 8 7 9 8 10 9 12 11 2 13 1 14
REMARK H PARENT 10 10 12 12
ROOT
ATOM      1  C   UNL     1       5.846   4.750  -3.980  1.00  0.00     0.105 A 
ATOM      2  C   UNL     1       4.684   4.227  -4.478  1.00  0.00     0.172 A 
ATOM      3  C   UNL     1       6.353   5.992  -4.591  1.00  0.00     0.020 A 
ATOM      4  C   UNL     1       5.487   6.731  -5.332  1.00  0.00     0.005 A 
ATOM      5  C   UNL     1       3.653   5.074  -5.060  1.00  0.00     0.161 A 
ATOM      6  C   UNL     1       4.145   6.329  -5.597  1.00  0.00     0.050 A 
ENDROOT
BRANCH   1   7
ATOM      7  C   UNL     1       6.544   4.129  -2.758  1.00  0.00     0.339 C 
ATOM      8  O   UNL     1       5.494   3.087  -2.074  1.00  0.00    -0.246 OA
BRANCH   7   9
ATOM      9  O   UNL     1       7.496   4.105  -2.310  1.00  0.00    -0.478 OA
ATOM     10  H   UNL     1       8.392   4.083  -1.888  1.00  0.00     0.297 HD
ENDBRANCH   7   9
ENDBRANCH   1   7
BRANCH   2  11
ATOM     11  O   UNL     1       4.424   2.847  -4.431  1.00  0.00    -0.504 OA
ATOM     12  H   UNL     1       4.241   1.874  -4.397  1.00  0.00     0.293 HD
ENDBRANCH   2  11
BRANCH   5  13
ATOM     13  O   UNL     1       2.446   4.449  -5.346  1.00  0.00    -0.493 OA
ATOM     14  C   UNL     1       1.457   3.995  -6.043  1.00  0.00     0.278 C 
ENDBRANCH   5  13
TORSDOF 4
ENDMDL
MODEL 2
REMARK VINA RESULT:    -4.752      2.912      4.401
REMARK INTER + INTRA:          -6.070
REMARK INTER:                  -5.800
REMARK INTRA:                  -0.270
REMARK UNBOUND:                -0.485
REMARK SMILES COc1cccc(C(=O)O)c1O
REMARK SMILES IDX 7 1 11 2 6 3 5 4 3 5 4 6 8 7 9 8 10 9 12 11 2 13 1 14
REMARK H PARENT 10 10 12 12
ROOT
ATOM      1  C   UNL     1       3.171   4.049  -5.782  1.00  0.00     0.105 A 
ATOM      2  C   UNL     1       3.956   3.857  -6.885  1.00  0.00     0.172 A 
ATOM      3  C   UNL     1       3.829   4.511  -4.546  1.00  0.00     0.020 A 
ATOM      4  C   UNL     1       5.065   5.062  -4.658  1.00  0.00     0.005 A 
ATOM      5  C   UNL     1       5.166   4.636  -7.106  1.00  0.00     0.161 A 
ATOM      6  C   UNL     1       5.773   5.150  -5.892  1.00  0.00     0.050 A 
ENDROOT
BRANCH   1   7
ATOM      7  C   UNL     1       1.642   3.892  -5.851  1.00  0.00     0.339 C 
ATOM      8  O   UNL     1       1.014   4.675  -4.568  1.00  0.00    -0.246 OA
BRANCH   7   9
ATOM      9  O   UNL     1       0.906   3.528  -6.510  1.00  0.00    -0.478 OA
ATOM     10  H   UNL     1       0.214   3.184  -7.129  1.00  0.00     0.297 HD
ENDBRANCH   7   9
ENDBRANCH   1   7
BRANCH   2  11
ATOM     11  O   UNL     1       3.617   2.913  -7.870  1.00  0.00    -0.504 OA
ATOM     12  H   UNL     1       3.379   2.248  -8.563  1.00  0.00     0.293 HD
ENDBRANCH   2  11
BRANCH   5  13
ATOM     13  O   UNL     1       5.764   4.487  -8.351  1.00  0.00    -0.493 OA
ATOM     14  C   UNL     1       6.289   4.816  -9.485  1.00  0.00     0.278 C 
ENDBRANCH   5  13
TORSDOF 4
ENDMDL
MODEL 3
REMARK VINA RESULT:    -4.748      1.754      4.631
REMARK INTER + INTRA:          -6.065
REMARK INTER:                  -5.588
REMARK INTRA:                  -0.477
REMARK UNBOUND:                -0.485
REMARK SMILES COc1cccc(C(=O)O)c1O
REMARK SMILES IDX 7 1 11 2 6 3 5 4 3 5 4 6 8 7 9 8 10 9 12 11 2 13 1 14
REMARK H PARENT 10 10 12 12
ROOT
ATOM      1  C   UNL     1       3.089   4.035  -6.008  1.00  0.00     0.105 A 
ATOM      2  C   UNL     1       3.917   4.348  -4.965  1.00  0.00     0.172 A 
ATOM      3  C   UNL     1       3.679   3.331  -7.162  1.00  0.00     0.020 A 
ATOM      4  C   UNL     1       4.877   2.719  -6.982  1.00  0.00     0.005 A 
ATOM      5  C   UNL     1       5.078   3.531  -4.640  1.00  0.00     0.161 A 
ATOM      6  C   UNL     1       5.613   2.783  -5.762  1.00  0.00     0.050 A 
ENDROOT
BRANCH   1   7
ATOM      7  C   UNL     1       1.577   4.311  -5.939  1.00  0.00     0.339 C 
ATOM      8  O   UNL     1       1.199   4.564  -4.375  1.00  0.00    -0.246 OA
BRANCH   7   9
ATOM      9  O   UNL     1       0.766   4.475  -6.590  1.00  0.00    -0.478 OA
ATOM     10  H   UNL     1       0.003   4.630  -7.202  1.00  0.00     0.297 HD
ENDBRANCH   7   9
ENDBRANCH   1   7
BRANCH   2  11
ATOM     11  O   UNL     1       3.672   5.462  -4.145  1.00  0.00    -0.504 OA
ATOM     12  H   UNL     1       3.500   6.247  -3.567  1.00  0.00     0.293 HD
ENDBRANCH   2  11
BRANCH   5  13
ATOM     13  O   UNL     1       5.720   3.838  -3.447  1.00  0.00    -0.493 OA
ATOM     14  C   UNL     1       6.609   4.322  -2.644  1.00  0.00     0.278 C 
ENDBRANCH   5  13
TORSDOF 4
ENDMDL
MODEL 4
REMARK VINA RESULT:    -4.740      2.217      3.267
REMARK INTER + INTRA:          -6.056
REMARK INTER:                  -5.785
REMARK INTRA:                  -0.271
REMARK UNBOUND:                -0.485
REMARK SMILES COc1cccc(C(=O)O)c1O
REMARK SMILES IDX 7 1 11 2 6 3 5 4 3 5 4 6 8 7 9 8 10 9 12 11 2 13 1 14
REMARK H PARENT 10 10 12 12
ROOT
ATOM      1  C   UNL     1       5.626   4.640  -4.006  1.00  0.00     0.105 A 
ATOM      2  C   UNL     1       6.152   5.461  -4.966  1.00  0.00     0.172 A 
ATOM      3  C   UNL     1       4.383   3.916  -4.331  1.00  0.00     0.020 A 
ATOM      4  C   UNL     1       4.040   3.809  -5.640  1.00  0.00     0.005 A 
ATOM      5  C   UNL     1       5.969   5.190  -6.385  1.00  0.00     0.161 A 
ATOM      6  C   UNL     1       4.782   4.416  -6.696  1.00  0.00     0.050 A 
ENDROOT
BRANCH   1   7
ATOM      7  C   UNL     1       6.356   4.396  -2.674  1.00  0.00     0.339 C 
ATOM      8  O   UNL     1       5.756   3.024  -2.033  1.00  0.00    -0.246 OA
BRANCH   7   9
ATOM      9  O   UNL     1       7.166   4.785  -2.125  1.00  0.00    -0.478 OA
ATOM     10  H   UNL     1       7.928   5.152  -1.609  1.00  0.00     0.297 HD
ENDBRANCH   7   9
ENDBRANCH   1   7
BRANCH   2  11
ATOM     11  O   UNL     1       6.912   6.592  -4.625  1.00  0.00    -0.504 OA
ATOM     12  H   UNL     1       7.448   7.389  -4.384  1.00  0.00     0.293 HD
ENDBRANCH   2  11
BRANCH   5  13
ATOM     13  O   UNL     1       6.714   5.980  -7.252  1.00  0.00    -0.493 OA
ATOM     14  C   UNL     1       7.604   6.295  -8.134  1.00  0.00     0.278 C 
ENDBRANCH   5  13
TORSDOF 4
ENDMDL
MODEL 5
REMARK VINA RESULT:    -4.213      2.651      4.387
REMARK INTER + INTRA:          -5.437
REMARK INTER:                  -5.263
REMARK INTRA:                  -0.173
REMARK UNBOUND:                -0.485
REMARK SMILES COc1cccc(C(=O)O)c1O
REMARK SMILES IDX 7 1 11 2 6 3 5 4 3 5 4 6 8 7 9 8 10 9 12 11 2 13 1 14
REMARK H PARENT 10 10 12 12
ROOT
ATOM      1  C   UNL     1       3.207   4.060  -5.375  1.00  0.00     0.105 A 
ATOM      2  C   UNL     1       4.188   4.275  -6.303  1.00  0.00     0.172 A 
ATOM      3  C   UNL     1       3.620   3.902  -3.968  1.00  0.00     0.020 A 
ATOM      4  C   UNL     1       4.860   4.334  -3.622  1.00  0.00     0.005 A 
ATOM      5  C   UNL     1       5.426   4.960  -5.961  1.00  0.00     0.161 A 
ATOM      6  C   UNL     1       5.793   4.863  -4.561  1.00  0.00     0.050 A 
ENDROOT
BRANCH   1   7
ATOM      7  C   UNL     1       1.718   4.086  -5.763  1.00  0.00     0.339 C 
ATOM      8  O   UNL     1       0.891   4.657  -4.481  1.00  0.00    -0.246 OA
BRANCH   7   9
ATOM      9  O   UNL     1       1.112   3.944  -6.612  1.00  0.00    -0.478 OA
ATOM     10  H   UNL     1       0.542   3.809  -7.410  1.00  0.00     0.297 HD
ENDBRANCH   7   9
ENDBRANCH   1   7
BRANCH   2  11
ATOM     11  O   UNL     1       4.035   3.862  -7.638  1.00  0.00    -0.504 OA
ATOM     12  H   UNL     1       3.928   3.571  -8.579  1.00  0.00     0.293 HD
ENDBRANCH   2  11
BRANCH   5  13
ATOM     13  O   UNL     1       6.250   5.291  -7.029  1.00  0.00    -0.493 OA
ATOM     14  C   UNL     1       7.007   5.131  -8.065  1.00  0.00     0.278 C 
ENDBRANCH   5  13
TORSDOF 4
ENDMDL
MODEL 6
REMARK VINA RESULT:    -4.075      2.190      3.113
REMARK INTER + INTRA:          -5.275
REMARK INTER:                  -5.071
REMARK INTRA:                  -0.204
REMARK UNBOUND:                -0.485
REMARK SMILES COc1cccc(C(=O)O)c1O
REMARK SMILES IDX 7 1 11 2 6 3 5 4 3 5 4 6 8 7 9 8 10 9 12 11 2 13 1 14
REMARK H PARENT 10 10 12 12
ROOT
ATOM      1  C   UNL     1       5.969   5.764  -4.612  1.00  0.00     0.105 A 
ATOM      2  C   UNL     1       4.654   5.700  -4.981  1.00  0.00     0.172 A 
ATOM      3  C   UNL     1       6.419   4.875  -3.525  1.00  0.00     0.020 A 
ATOM      4  C   UNL     1       5.631   3.814  -3.211  1.00  0.00     0.005 A 
ATOM      5  C   UNL     1       3.884   4.470  -4.855  1.00  0.00     0.161 A 
ATOM      6  C   UNL     1       4.372   3.564  -3.832  1.00  0.00     0.050 A 
ENDROOT
BRANCH   1   7
ATOM      7  C   UNL     1       6.971   6.651  -5.371  1.00  0.00     0.339 C 
ATOM      8  O   UNL     1       6.969   6.168  -6.927  1.00  0.00    -0.246 OA
BRANCH   7   9
ATOM      9  O   UNL     1       7.560   7.509  -5.209  1.00  0.00    -0.478 OA
ATOM     10  H   UNL     1       8.113   8.316  -5.055  1.00  0.00     0.297 HD
ENDBRANCH   7   9
ENDBRANCH   1   7
BRANCH   2  11
ATOM     11  O   UNL     1       3.990   6.816  -5.519  1.00  0.00    -0.504 OA
ATOM     12  H   UNL     1       3.522   7.602  -5.898  1.00  0.00     0.293 HD
ENDBRANCH   2  11
BRANCH   5  13
ATOM     13  O   UNL     1       2.626   4.481  -5.444  1.00  0.00    -0.493 OA
ATOM     14  C   UNL     1       1.561   4.034  -6.023  1.00  0.00     0.278 C 
ENDBRANCH   5  13
TORSDOF 4
ENDMDL
MODEL 7
REMARK VINA RESULT:    -4.063      2.432      4.642
REMARK INTER + INTRA:          -5.260
REMARK INTER:                  -4.948
REMARK INTRA:                  -0.312
REMARK UNBOUND:                -0.485
REMARK SMILES COc1cccc(C(=O)O)c1O
REMARK SMILES IDX 7 1 11 2 6 3 5 4 3 5 4 6 8 7 9 8 10 9 12 11 2 13 1 14
REMARK H PARENT 10 10 12 12
ROOT
ATOM      1  C   UNL     1       3.777   3.406  -6.762  1.00  0.00     0.105 A 
ATOM      2  C   UNL     1       4.723   3.312  -5.778  1.00  0.00     0.172 A 
ATOM      3  C   UNL     1       2.416   3.811  -6.366  1.00  0.00     0.020 A 
ATOM      4  C   UNL     1       2.263   4.411  -5.157  1.00  0.00     0.005 A 
ATOM      5  C   UNL     1       4.668   4.144  -4.585  1.00  0.00     0.161 A 
ATOM      6  C   UNL     1       3.335   4.601  -4.237  1.00  0.00     0.050 A 
ENDROOT
BRANCH   1   7
ATOM      7  C   UNL     1       4.141   3.202  -8.243  1.00  0.00     0.339 C 
ATOM      8  O   UNL     1       5.539   3.992  -8.515  1.00  0.00    -0.246 OA
BRANCH   7   9
ATOM      9  O   UNL     1       3.817   2.642  -9.074  1.00  0.00    -0.478 OA
ATOM     10  H   UNL     1       3.513   2.115  -9.856  1.00  0.00     0.297 HD
ENDBRANCH   7   9
ENDBRANCH   1   7
BRANCH   2  11
ATOM     11  O   UNL     1       5.804   2.420  -5.885  1.00  0.00    -0.504 OA
ATOM     12  H   UNL     1       6.565   1.792  -5.960  1.00  0.00     0.293 HD
ENDBRANCH   2  11
BRANCH   5  13
ATOM     13  O   UNL     1       5.785   4.095  -3.761  1.00  0.00    -0.493 OA
ATOM     14  C   UNL     1       6.550   4.340  -2.748  1.00  0.00     0.278 C 
ENDBRANCH   5  13
TORSDOF 4
ENDMDL
MODEL 8
REMARK VINA RESULT:    -3.839      2.253      2.914
REMARK INTER + INTRA:          -4.997
REMARK INTER:                  -4.513
REMARK INTRA:                  -0.484
REMARK UNBOUND:                -0.485
REMARK SMILES COc1cccc(C(=O)O)c1O
REMARK SMILES IDX 7 1 11 2 6 3 5 4 3 5 4 6 8 7 9 8 10 9 12 11 2 13 1 14
REMARK H PARENT 10 10 12 12
ROOT
ATOM      1  C   UNL     1       4.524   4.260  -4.611  1.00  0.00     0.105 A 
ATOM      2  C   UNL     1       4.801   3.997  -5.925  1.00  0.00     0.172 A 
ATOM      3  C   UNL     1       3.142   4.644  -4.268  1.00  0.00     0.020 A 
ATOM      4  C   UNL     1       2.166   4.364  -5.170  1.00  0.00     0.005 A 
ATOM      5  C   UNL     1       3.789   3.466  -6.827  1.00  0.00     0.161 A 
ATOM      6  C   UNL     1       2.425   3.785  -6.447  1.00  0.00     0.050 A 
ENDROOT
BRANCH   1   7
ATOM      7  C   UNL     1       5.584   4.062  -3.514  1.00  0.00     0.339 C 
ATOM      8  O   UNL     1       6.809   3.212  -4.170  1.00  0.00    -0.246 OA
BRANCH   7   9
ATOM      9  O   UNL     1       5.787   4.386  -2.533  1.00  0.00    -0.478 OA
ATOM     10  H   UNL     1       5.978   4.690  -1.610  1.00  0.00     0.297 HD
ENDBRANCH   7   9
ENDBRANCH   1   7
BRANCH   2  11
ATOM     11  O   UNL     1       6.084   4.207  -6.458  1.00  0.00    -0.504 OA
ATOM     12  H   UNL     1       6.988   4.355  -6.834  1.00  0.00     0.293 HD
ENDBRANCH   2  11
BRANCH   5  13
ATOM     13  O   UNL     1       4.244   3.057  -8.074  1.00  0.00    -0.493 OA
ATOM     14  C   UNL     1       4.404   3.044  -9.356  1.00  0.00     0.278 C 
ENDBRANCH   5  13
TORSDOF 4
ENDMDL
MODEL 9
REMARK VINA RESULT:    -3.734      7.160      8.544
REMARK INTER + INTRA:          -4.874
REMARK INTER:                  -4.576
REMARK INTRA:                  -0.299
REMARK UNBOUND:                -0.485
REMARK SMILES COc1cccc(C(=O)O)c1O
REMARK SMILES IDX 7 1 11 2 6 3 5 4 3 5 4 6 8 7 9 8 10 9 12 11 2 13 1 14
REMARK H PARENT 10 10 12 12
ROOT
ATOM      1  C   UNL     1       1.764  -1.769  -0.780  1.00  0.00     0.105 A 
ATOM      2  C   UNL     1       1.627  -0.443  -0.476  1.00  0.00     0.172 A 
ATOM      3  C   UNL     1       2.798  -2.533  -0.059  1.00  0.00     0.020 A 
ATOM      4  C   UNL     1       3.289  -2.000   1.090  1.00  0.00     0.005 A 
ATOM      5  C   UNL     1       1.937   0.073   0.850  1.00  0.00     0.161 A 
ATOM      6  C   UNL     1       2.903  -0.721   1.586  1.00  0.00     0.050 A 
ENDROOT
BRANCH   1   7
ATOM      7  C   UNL     1       0.806  -2.468  -1.761  1.00  0.00     0.339 C 
ATOM      8  O   UNL     1      -0.638  -1.723  -1.646  1.00  0.00    -0.246 OA
BRANCH   7   9
ATOM      9  O   UNL     1       0.835  -3.193  -2.525  1.00  0.00    -0.478 OA
ATOM     10  H   UNL     1       0.863  -3.873  -3.243  1.00  0.00     0.297 HD
ENDBRANCH   7   9
ENDBRANCH   1   7
BRANCH   2  11
ATOM     11  O   UNL     1       1.159   0.481  -1.426  1.00  0.00    -0.504 OA
ATOM     12  H   UNL     1       0.828   1.132  -2.095  1.00  0.00     0.293 HD
ENDBRANCH   2  11
BRANCH   5  13
ATOM     13  O   UNL     1       1.570   1.391   1.088  1.00  0.00    -0.493 OA
ATOM     14  C   UNL     1       0.875   2.479   1.035  1.00  0.00     0.278 C 
ENDBRANCH   5  13
TORSDOF 4
ENDMDL
