MODEL 1
REMARK VINA RESULT:    -4.916      0.000      0.000
REMARK INTER + INTRA:          -6.257
REMARK INTER:                  -5.778
REMARK INTRA:                  -0.479
REMARK UNBOUND:                -0.479
REMARK SMILES COc1cccc(C(=O)O)c1O
REMARK SMILES IDX 7 1 11 2 6 3 5 4 3 5 4 6 8 7 9 8 10 9 12 11 2 13 1 14
REMARK H PARENT 10 10 12 12
ROOT
ATOM      1  C   UNL     1      -1.872   2.676   7.752  1.00  0.00     0.105 A 
ATOM      2  C   UNL     1      -2.759   3.122   6.811  1.00  0.00     0.172 A 
ATOM      3  C   UNL     1      -2.422   2.020   8.952  1.00  0.00     0.020 A 
ATOM      4  C   UNL     1      -3.702   1.571   8.896  1.00  0.00     0.005 A 
ATOM      5  C   UNL     1      -4.044   2.470   6.603  1.00  0.00     0.161 A 
ATOM      6  C   UNL     1      -4.549   1.765   7.766  1.00  0.00     0.050 A 
ENDROOT
BRANCH   1   7
ATOM      7  C   UNL     1      -0.353   2.757   7.522  1.00  0.00     0.339 C 
ATOM      8  O   UNL     1      -0.116   3.108   5.949  1.00  0.00    -0.246 OA
BRANCH   7   9
ATOM      9  O   UNL     1       0.540   2.751   8.080  1.00  0.00    -0.478 OA
ATOM     10  H   UNL     1       1.379   2.745   8.606  1.00  0.00     0.297 HD
ENDBRANCH   7   9
ENDBRANCH   1   7
BRANCH   2  11
ATOM     11  O   UNL     1      -2.459   4.219   5.985  1.00  0.00    -0.504 OA
ATOM     12  H   UNL     1      -2.248   4.992   5.403  1.00  0.00     0.293 HD
ENDBRANCH   2  11
BRANCH   5  13
ATOM     13  O   UNL     1      -4.764   2.891   5.492  1.00  0.00    -0.493 OA
ATOM     14  C   UNL     1      -5.769   3.061   4.698  1.00  0.00     0.278 C 
ENDBRANCH   5  13
TORSDOF 4
ENDMDL
MODEL 2
REMARK VINA RESULT:    -4.853      1.757      4.671
REMARK INTER + INTRA:          -6.184
REMARK INTER:                  -5.704
REMARK INTRA:                  -0.479
REMARK UNBOUND:                -0.479
REMARK SMILES COc1cccc(C(=O)O)c1O
REMARK SMILES IDX 7 1 11 2 6 3 5 4 3 5 4 6 8 7 9 8 10 9 12 11 2 13 1 14
REMARK H PARENT 10 10 12 12
ROOT
ATOM      1  C   UNL     1      -4.854   3.507   5.923  1.00  0.00     0.105 A 
ATOM      2  C   UNL     1      -3.676   2.959   6.349  1.00  0.00     0.172 A 
ATOM      3  C   UNL     1      -5.238   4.819   6.476  1.00  0.00     0.020 A 
ATOM      4  C   UNL     1      -4.268   5.562   7.069  1.00  0.00     0.005 A 
ATOM      5  C   UNL     1      -2.552   3.789   6.760  1.00  0.00     0.161 A 
ATOM      6  C   UNL     1      -2.927   5.107   7.237  1.00  0.00     0.050 A 
ENDROOT
BRANCH   1   7
ATOM      7  C   UNL     1      -5.699   2.835   4.827  1.00  0.00     0.339 C 
ATOM      8  O   UNL     1      -4.773   1.688   4.133  1.00  0.00    -0.246 OA
BRANCH   7   9
ATOM      9  O   UNL     1      -6.692   2.830   4.475  1.00  0.00    -0.478 OA
ATOM     10  H   UNL     1      -7.625   2.825   4.145  1.00  0.00     0.297 HD
ENDBRANCH   7   9
ENDBRANCH   1   7
BRANCH   2  11
ATOM     11  O   UNL     1      -3.489   1.567   6.390  1.00  0.00    -0.504 OA
ATOM     12  H   UNL     1      -3.357   0.586   6.419  1.00  0.00     0.293 HD
ENDBRANCH   2  11
BRANCH   5  13
ATOM     13  O   UNL     1      -1.354   3.120   6.980  1.00  0.00    -0.493 OA
ATOM     14  C   UNL     1      -0.370   2.588   7.627  1.00  0.00     0.278 C 
ENDBRANCH   5  13
TORSDOF 4
ENDMDL
MODEL 3
REMARK VINA RESULT:    -4.692      2.238      3.231
REMARK INTER + INTRA:          -5.993
REMARK INTER:                  -5.724
REMARK INTRA:                  -0.269
REMARK UNBOUND:                -0.479
REMARK SMILES COc1cccc(C(=O)O)c1O
REMARK SMILES IDX 7 1 11 2 6 3 5 4 3 5 4 6 8 7 9 8 10 9 12 11 2 13 1 14
REMARK H PARENT 10 10 12 12
ROOT
ATOM      1  C   UNL     1      -2.062   2.802   7.511  1.00  0.00     0.105 A 
ATOM      2  C   UNL     1      -2.754   2.759   8.690  1.00  0.00     0.172 A 
ATOM      3  C   UNL     1      -2.798   3.211   6.301  1.00  0.00     0.020 A 
ATOM      4  C   UNL     1      -3.979   3.861   6.470  1.00  0.00     0.005 A 
ATOM      5  C   UNL     1      -3.883   3.641   8.945  1.00  0.00     0.161 A 
ATOM      6  C   UNL     1      -4.563   4.100   7.748  1.00  0.00     0.050 A 
ENDROOT
BRANCH   1   7
ATOM      7  C   UNL     1      -0.547   2.538   7.461  1.00  0.00     0.339 C 
ATOM      8  O   UNL     1       0.015   3.179   6.073  1.00  0.00    -0.246 OA
BRANCH   7   9
ATOM      9  O   UNL     1       0.219   2.167   8.082  1.00  0.00    -0.478 OA
ATOM     10  H   UNL     1       0.939   1.818   8.665  1.00  0.00     0.297 HD
ENDBRANCH   7   9
ENDBRANCH   1   7
BRANCH   2  11
ATOM     11  O   UNL     1      -2.390   1.874   9.719  1.00  0.00    -0.504 OA
ATOM     12  H   UNL     1      -2.134   1.250  10.444  1.00  0.00     0.293 HD
ENDBRANCH   2  11
BRANCH   5  13
ATOM     13  O   UNL     1      -4.373   3.638  10.245  1.00  0.00    -0.493 OA
ATOM     14  C   UNL     1      -4.882   4.087  11.345  1.00  0.00     0.278 C 
ENDBRANCH   5  13
TORSDOF 4
ENDMDL
MODEL 4
REMARK VINA RESULT:    -4.685      2.944      4.391
REMARK INTER + INTRA:          -5.985
REMARK INTER:                  -5.716
REMARK INTRA:                  -0.269
REMARK UNBOUND:                -0.479
REMARK SMILES COc1cccc(C(=O)O)c1O
REMARK SMILES IDX 7 1 11 2 6 3 5 4 3 5 4 6 8 7 9 8 10 9 12 11 2 13 1 14
REMARK H PARENT 10 10 12 12
ROOT
ATOM      1  C   UNL     1      -4.623   3.315   5.984  1.00  0.00     0.105 A 
ATOM      2  C   UNL     1      -5.017   4.208   6.942  1.00  0.00     0.172 A 
ATOM      3  C   UNL     1      -3.404   2.527   6.243  1.00  0.00     0.020 A 
ATOM      4  C   UNL     1      -2.960   2.455   7.525  1.00  0.00     0.005 A 
ATOM      5  C   UNL     1      -4.734   3.988   8.353  1.00  0.00     0.161 A 
ATOM      6  C   UNL     1      -3.574   3.153   8.605  1.00  0.00     0.050 A 
ENDROOT
BRANCH   1   7
ATOM      7  C   UNL     1      -5.475   3.061   4.728  1.00  0.00     0.339 C 
ATOM      8  O   UNL     1      -5.003   1.633   4.100  1.00  0.00    -0.246 OA
BRANCH   7   9
ATOM      9  O   UNL     1      -6.307   3.473   4.231  1.00  0.00    -0.478 OA
ATOM     10  H   UNL     1      -7.089   3.861   3.764  1.00  0.00     0.297 HD
ENDBRANCH   7   9
ENDBRANCH   1   7
BRANCH   2  11
ATOM     11  O   UNL     1      -5.734   5.370   6.609  1.00  0.00    -0.504 OA
ATOM     12  H   UNL     1      -6.239   6.189   6.374  1.00  0.00     0.293 HD
ENDBRANCH   2  11
BRANCH   5  13
ATOM     13  O   UNL     1      -5.355   4.860   9.238  1.00  0.00    -0.493 OA
ATOM     14  C   UNL     1      -5.974   5.268  10.297  1.00  0.00     0.278 C 
ENDBRANCH   5  13
TORSDOF 4
ENDMDL
MODEL 5
REMARK VINA RESULT:    -4.051      2.182      3.102
REMARK INTER + INTRA:          -5.241
REMARK INTER:                  -4.933
REMARK INTRA:                  -0.308
REMARK UNBOUND:                -0.479
REMARK SMILES COc1cccc(C(=O)O)c1O
REMARK SMILES IDX 7 1 11 2 6 3 5 4 3 5 4 6 8 7 9 8 10 9 12 11 2 13 1 14
REMARK H PARENT 10 10 12 12
ROOT
ATOM      1  C   UNL     1      -2.560   2.197   8.586  1.00  0.00     0.105 A 
ATOM      2  C   UNL     1      -3.603   2.094   7.707  1.00  0.00     0.172 A 
ATOM      3  C   UNL     1      -1.228   2.505   8.033  1.00  0.00     0.020 A 
ATOM      4  C   UNL     1      -1.170   3.022   6.779  1.00  0.00     0.005 A 
ATOM      5  C   UNL     1      -3.630   2.850   6.462  1.00  0.00     0.161 A 
ATOM      6  C   UNL     1      -2.320   3.214   5.957  1.00  0.00     0.050 A 
ENDROOT
BRANCH   1   7
ATOM      7  C   UNL     1      -2.782   2.101  10.105  1.00  0.00     0.339 C 
ATOM      8  O   UNL     1      -4.103   2.985  10.462  1.00  0.00    -0.246 OA
BRANCH   7   9
ATOM      9  O   UNL     1      -2.404   1.573  10.934  1.00  0.00    -0.478 OA
ATOM     10  H   UNL     1      -2.050   1.077  11.715  1.00  0.00     0.297 HD
ENDBRANCH   7   9
ENDBRANCH   1   7
BRANCH   2  11
ATOM     11  O   UNL     1      -4.708   1.269   7.976  1.00  0.00    -0.504 OA
ATOM     12  H   UNL     1      -5.487   0.688   8.166  1.00  0.00     0.293 HD
ENDBRANCH   2  11
BRANCH   5  13
ATOM     13  O   UNL     1      -4.826   2.811   5.756  1.00  0.00    -0.493 OA
ATOM     14  C   UNL     1      -5.683   3.050   4.819  1.00  0.00     0.278 C 
ENDBRANCH   5  13
TORSDOF 4
ENDMDL
MODEL 6
REMARK VINA RESULT:    -4.007      2.321      4.666
REMARK INTER + INTRA:          -5.189
REMARK INTER:                  -4.986
REMARK INTRA:                  -0.203
REMARK UNBOUND:                -0.479
REMARK SMILES COc1cccc(C(=O)O)c1O
REMARK SMILES IDX 7 1 11 2 6 3 5 4 3 5 4 6 8 7 9 8 10 9 12 11 2 13 1 14
REMARK H PARENT 10 10 12 12
ROOT
ATOM      1  C   UNL     1      -4.916   4.530   6.460  1.00  0.00     0.105 A 
ATOM      2  C   UNL     1      -3.589   4.430   6.780  1.00  0.00     0.172 A 
ATOM      3  C   UNL     1      -5.452   3.583   5.465  1.00  0.00     0.020 A 
ATOM      4  C   UNL     1      -4.729   2.463   5.206  1.00  0.00     0.005 A 
ATOM      5  C   UNL     1      -2.884   3.157   6.722  1.00  0.00     0.161 A 
ATOM      6  C   UNL     1      -3.457   2.200   5.794  1.00  0.00     0.050 A 
ENDROOT
BRANCH   1   7
ATOM      7  C   UNL     1      -5.841   5.523   7.185  1.00  0.00     0.339 C 
ATOM      8  O   UNL     1      -5.673   5.266   8.784  1.00  0.00    -0.246 OA
BRANCH   7   9
ATOM      9  O   UNL     1      -6.451   6.352   6.964  1.00  0.00    -0.478 OA
ATOM     10  H   UNL     1      -7.025   7.131   6.755  1.00  0.00     0.297 HD
ENDBRANCH   7   9
ENDBRANCH   1   7
BRANCH   2  11
ATOM     11  O   UNL     1      -2.852   5.549   7.201  1.00  0.00    -0.504 OA
ATOM     12  H   UNL     1      -2.332   6.338   7.497  1.00  0.00     0.293 HD
ENDBRANCH   2  11
BRANCH   5  13
ATOM     13  O   UNL     1      -1.603   3.150   7.258  1.00  0.00    -0.493 OA
ATOM     14  C   UNL     1      -0.455   2.693   7.638  1.00  0.00     0.278 C 
ENDBRANCH   5  13
TORSDOF 4
ENDMDL
MODEL 7
REMARK VINA RESULT:    -3.929      2.097      2.873
REMARK INTER + INTRA:          -5.097
REMARK INTER:                  -4.657
REMARK INTRA:                  -0.440
REMARK UNBOUND:                -0.479
REMARK SMILES COc1cccc(C(=O)O)c1O
REMARK SMILES IDX 7 1 11 2 6 3 5 4 3 5 4 6 8 7 9 8 10 9 12 11 2 13 1 14
REMARK H PARENT 10 10 12 12
ROOT
ATOM      1  C   UNL     1      -2.890   3.113   6.525  1.00  0.00     0.105 A 
ATOM      2  C   UNL     1      -3.716   4.000   7.158  1.00  0.00     0.172 A 
ATOM      3  C   UNL     1      -3.497   2.193   5.545  1.00  0.00     0.020 A 
ATOM      4  C   UNL     1      -4.726   2.508   5.061  1.00  0.00     0.005 A 
ATOM      5  C   UNL     1      -4.919   4.514   6.519  1.00  0.00     0.161 A 
ATOM      6  C   UNL     1      -5.474   3.638   5.504  1.00  0.00     0.050 A 
ENDROOT
BRANCH   1   7
ATOM      7  C   UNL     1      -1.367   3.140   6.743  1.00  0.00     0.339 C 
ATOM      8  O   UNL     1      -1.100   2.942   8.338  1.00  0.00    -0.246 OA
BRANCH   7   9
ATOM      9  O   UNL     1      -0.479   3.150   6.177  1.00  0.00    -0.478 OA
ATOM     10  H   UNL     1       0.355   3.158   5.644  1.00  0.00     0.297 HD
ENDBRANCH   7   9
ENDBRANCH   1   7
BRANCH   2  11
ATOM     11  O   UNL     1      -3.428   4.474   8.450  1.00  0.00    -0.504 OA
ATOM     12  H   UNL     1      -3.225   4.808   9.359  1.00  0.00     0.293 HD
ENDBRANCH   2  11
BRANCH   5  13
ATOM     13  O   UNL     1      -5.561   5.552   7.182  1.00  0.00    -0.493 OA
ATOM     14  C   UNL     1      -6.524   6.241   7.699  1.00  0.00     0.278 C 
ENDBRANCH   5  13
TORSDOF 4
ENDMDL
MODEL 8
REMARK VINA RESULT:    -3.827      7.254      7.757
REMARK INTER + INTRA:          -4.977
REMARK INTER:                  -4.737
REMARK INTRA:                  -0.240
REMARK UNBOUND:                -0.479
REMARK SMILES COc1cccc(C(=O)O)c1O
REMARK SMILES IDX 7 1 11 2 6 3 5 4 3 5 4 6 8 7 9 8 10 9 12 11 2 13 1 14
REMARK H PARENT 10 10 12 12
ROOT
ATOM      1  C   UNL     1      -1.371  -3.405   2.891  1.00  0.00     0.105 A 
ATOM      2  C   UNL     1      -1.178  -2.127   2.443  1.00  0.00     0.172 A 
ATOM      3  C   UNL     1      -2.528  -4.148   2.358  1.00  0.00     0.020 A 
ATOM      4  C   UNL     1      -3.103  -3.688   1.217  1.00  0.00     0.005 A 
ATOM      5  C   UNL     1      -1.594  -1.714   1.111  1.00  0.00     0.161 A 
ATOM      6  C   UNL     1      -2.686  -2.494   0.559  1.00  0.00     0.050 A 
ENDROOT
BRANCH   1   7
ATOM      7  C   UNL     1      -0.363  -4.084   3.835  1.00  0.00     0.339 C 
ATOM      8  O   UNL     1       1.112  -3.489   3.481  1.00  0.00    -0.246 OA
BRANCH   7   9
ATOM      9  O   UNL     1      -0.359  -4.719   4.674  1.00  0.00    -0.478 OA
ATOM     10  H   UNL     1      -0.355  -5.317   5.464  1.00  0.00     0.297 HD
ENDBRANCH   7   9
ENDBRANCH   1   7
BRANCH   2  11
ATOM     11  O   UNL     1      -0.547  -1.159   3.244  1.00  0.00    -0.504 OA
ATOM     12  H   UNL     1      -0.103  -0.477   3.807  1.00  0.00     0.293 HD
ENDBRANCH   2  11
BRANCH   5  13
ATOM     13  O   UNL     1      -1.165  -0.456   0.706  1.00  0.00    -0.493 OA
ATOM     14  C   UNL     1      -0.502   0.653   0.711  1.00  0.00     0.278 C 
ENDBRANCH   5  13
TORSDOF 4
ENDMDL
MODEL 9
REMARK VINA RESULT:    -3.812      2.304      4.446
REMARK INTER + INTRA:          -4.960
REMARK INTER:                  -4.717
REMARK INTRA:                  -0.243
REMARK UNBOUND:                -0.479
REMARK SMILES COc1cccc(C(=O)O)c1O
REMARK SMILES IDX 7 1 11 2 6 3 5 4 3 5 4 6 8 7 9 8 10 9 12 11 2 13 1 14
REMARK H PARENT 10 10 12 12
ROOT
ATOM      1  C   UNL     1      -3.815   2.948   6.534  1.00  0.00     0.105 A 
ATOM      2  C   UNL     1      -3.897   2.826   7.894  1.00  0.00     0.172 A 
ATOM      3  C   UNL     1      -2.486   3.202   5.950  1.00  0.00     0.020 A 
ATOM      4  C   UNL     1      -1.398   2.938   6.718  1.00  0.00     0.005 A 
ATOM      5  C   UNL     1      -2.787   2.310   8.682  1.00  0.00     0.161 A 
ATOM      6  C   UNL     1      -1.485   2.498   8.071  1.00  0.00     0.050 A 
ENDROOT
BRANCH   1   7
ATOM      7  C   UNL     1      -5.043   2.725   5.635  1.00  0.00     0.339 C 
ATOM      8  O   UNL     1      -4.569   1.795   4.384  1.00  0.00    -0.246 OA
BRANCH   7   9
ATOM      9  O   UNL     1      -6.081   2.907   5.641  1.00  0.00    -0.478 OA
ATOM     10  H   UNL     1      -7.056   3.078   5.646  1.00  0.00     0.297 HD
ENDBRANCH   7   9
ENDBRANCH   1   7
BRANCH   2  11
ATOM     11  O   UNL     1      -5.068   3.172   8.590  1.00  0.00    -0.504 OA
ATOM     12  H   UNL     1      -5.892   3.416   9.081  1.00  0.00     0.293 HD
ENDBRANCH   2  11
BRANCH   5  13
ATOM     13  O   UNL     1      -3.064   2.049  10.018  1.00  0.00    -0.493 OA
ATOM     14  C   UNL     1      -2.901   2.011  11.300  1.00  0.00     0.278 C 
ENDBRANCH   5  13
TORSDOF 4
ENDMDL
