MODEL 1
REMARK VINA RESULT:    -4.830      0.000      0.000
REMARK INTER + INTRA:          -6.163
REMARK INTER:                  -5.677
REMARK INTRA:                  -0.486
REMARK UNBOUND:                -0.486
REMARK SMILES COc1cccc(C(=O)O)c1O
REMARK SMILES IDX 7 1 11 2 6 3 5 4 3 5 4 6 8 7 9 8 10 9 12 11 2 13 1 14
REMARK H PARENT 10 10 12 12
ROOT
ATOM      1  C   UNL     1      -2.735   4.016  -2.766  1.00  0.00     0.105 A 
ATOM      2  C   UNL     1      -1.667   3.340  -3.289  1.00  0.00     0.172 A 
ATOM      3  C   UNL     1      -4.048   3.822  -3.408  1.00  0.00     0.020 A 
ATOM      4  C   UNL     1      -4.202   2.740  -4.214  1.00  0.00     0.005 A 
ATOM      5  C   UNL     1      -1.827   2.051  -3.948  1.00  0.00     0.161 A 
ATOM      6  C   UNL     1      -3.144   1.833  -4.517  1.00  0.00     0.050 A 
ENDROOT
BRANCH   1   7
ATOM      7  C   UNL     1      -2.597   4.866  -1.491  1.00  0.00     0.339 C 
ATOM      8  O   UNL     1      -1.170   4.485  -0.803  1.00  0.00    -0.246 OA
BRANCH   7   9
ATOM      9  O   UNL     1      -3.088   5.660  -1.005  1.00  0.00    -0.478 OA
ATOM     10  H   UNL     1      -3.550   6.408  -0.548  1.00  0.00     0.297 HD
ENDBRANCH   7   9
ENDBRANCH   1   7
BRANCH   2  11
ATOM     11  O   UNL     1      -0.360   3.849  -3.194  1.00  0.00    -0.504 OA
ATOM     12  H   UNL     1       0.560   4.208  -3.127  1.00  0.00     0.293 HD
ENDBRANCH   2  11
BRANCH   5  13
ATOM     13  O   UNL     1      -0.652   1.379  -4.257  1.00  0.00    -0.493 OA
ATOM     14  C   UNL     1       0.222   0.733  -4.958  1.00  0.00     0.278 C 
ENDBRANCH   5  13
TORSDOF 4
ENDMDL
MODEL 2
REMARK VINA RESULT:    -4.712      2.953      4.424
REMARK INTER + INTRA:          -6.024
REMARK INTER:                  -5.755
REMARK INTRA:                  -0.269
REMARK UNBOUND:                -0.486
REMARK SMILES COc1cccc(C(=O)O)c1O
REMARK SMILES IDX 7 1 11 2 6 3 5 4 3 5 4 6 8 7 9 8 10 9 12 11 2 13 1 14
REMARK H PARENT 10 10 12 12
ROOT
ATOM      1  C   UNL     1      -0.737   2.120  -4.688  1.00  0.00     0.105 A 
ATOM      2  C   UNL     1      -0.927   2.966  -5.747  1.00  0.00     0.172 A 
ATOM      3  C   UNL     1      -1.561   2.337  -3.485  1.00  0.00     0.020 A 
ATOM      4  C   UNL     1      -2.682   3.092  -3.614  1.00  0.00     0.005 A 
ATOM      5  C   UNL     1      -2.218   3.586  -6.007  1.00  0.00     0.161 A 
ATOM      6  C   UNL     1      -3.056   3.733  -4.832  1.00  0.00     0.050 A 
ENDROOT
BRANCH   1   7
ATOM      7  C   UNL     1       0.222   0.921  -4.783  1.00  0.00     0.339 C 
ATOM      8  O   UNL     1      -0.147  -0.095  -3.565  1.00  0.00    -0.246 OA
BRANCH   7   9
ATOM      9  O   UNL     1       0.951   0.532  -5.436  1.00  0.00    -0.478 OA
ATOM     10  H   UNL     1       1.637   0.167  -6.050  1.00  0.00     0.297 HD
ENDBRANCH   7   9
ENDBRANCH   1   7
BRANCH   2  11
ATOM     11  O   UNL     1       0.114   3.257  -6.645  1.00  0.00    -0.504 OA
ATOM     12  H   UNL     1       0.847   3.462  -7.279  1.00  0.00     0.293 HD
ENDBRANCH   2  11
BRANCH   5  13
ATOM     13  O   UNL     1      -2.333   4.260  -7.216  1.00  0.00    -0.493 OA
ATOM     14  C   UNL     1      -2.870   4.705  -8.304  1.00  0.00     0.278 C 
ENDBRANCH   5  13
TORSDOF 4
ENDMDL
MODEL 3
REMARK VINA RESULT:    -4.705      2.206      3.267
REMARK INTER + INTRA:          -6.016
REMARK INTER:                  -5.748
REMARK INTRA:                  -0.268
REMARK UNBOUND:                -0.486
REMARK SMILES COc1cccc(C(=O)O)c1O
REMARK SMILES IDX 7 1 11 2 6 3 5 4 3 5 4 6 8 7 9 8 10 9 12 11 2 13 1 14
REMARK H PARENT 10 10 12 12
ROOT
ATOM      1  C   UNL     1      -2.516   3.891  -2.778  1.00  0.00     0.105 A 
ATOM      2  C   UNL     1      -3.469   3.964  -3.757  1.00  0.00     0.172 A 
ATOM      3  C   UNL     1      -1.241   3.230  -3.113  1.00  0.00     0.020 A 
ATOM      4  C   UNL     1      -0.941   3.069  -4.427  1.00  0.00     0.005 A 
ATOM      5  C   UNL     1      -3.112   4.030  -5.167  1.00  0.00     0.161 A 
ATOM      6  C   UNL     1      -1.823   3.442  -5.483  1.00  0.00     0.050 A 
ENDROOT
BRANCH   1   7
ATOM      7  C   UNL     1      -2.721   4.564  -1.410  1.00  0.00     0.339 C 
ATOM      8  O   UNL     1      -1.253   4.726  -0.722  1.00  0.00    -0.246 OA
BRANCH   7   9
ATOM      9  O   UNL     1      -3.488   5.022  -0.853  1.00  0.00    -0.478 OA
ATOM     10  H   UNL     1      -4.210   5.452  -0.329  1.00  0.00     0.297 HD
ENDBRANCH   7   9
ENDBRANCH   1   7
BRANCH   2  11
ATOM     11  O   UNL     1      -4.839   4.000  -3.443  1.00  0.00    -0.504 OA
ATOM     12  H   UNL     1      -5.803   4.026  -3.222  1.00  0.00     0.293 HD
ENDBRANCH   2  11
BRANCH   5  13
ATOM     13  O   UNL     1      -4.155   4.300  -6.043  1.00  0.00    -0.493 OA
ATOM     14  C   UNL     1      -4.912   4.968  -6.850  1.00  0.00     0.278 C 
ENDBRANCH   5  13
TORSDOF 4
ENDMDL
MODEL 4
REMARK VINA RESULT:    -4.534      1.477      4.269
REMARK INTER + INTRA:          -5.815
REMARK INTER:                  -5.478
REMARK INTRA:                  -0.337
REMARK UNBOUND:                -0.486
REMARK SMILES COc1cccc(C(=O)O)c1O
REMARK SMILES IDX 7 1 11 2 6 3 5 4 3 5 4 6 8 7 9 8 10 9 12 11 2 13 1 14
REMARK H PARENT 10 10 12 12
ROOT
ATOM      1  C   UNL     1      -1.130   1.654  -4.377  1.00  0.00     0.105 A 
ATOM      2  C   UNL     1      -1.447   2.419  -3.289  1.00  0.00     0.172 A 
ATOM      3  C   UNL     1      -2.029   1.721  -5.544  1.00  0.00     0.020 A 
ATOM      4  C   UNL     1      -2.880   2.775  -5.626  1.00  0.00     0.005 A 
ATOM      5  C   UNL     1      -2.161   3.681  -3.424  1.00  0.00     0.161 A 
ATOM      6  C   UNL     1      -2.990   3.772  -4.612  1.00  0.00     0.050 A 
ENDROOT
BRANCH   1   7
ATOM      7  C   UNL     1       0.170   0.833  -4.427  1.00  0.00     0.339 C 
ATOM      8  O   UNL     1       0.016  -0.388  -3.360  1.00  0.00    -0.246 OA
BRANCH   7   9
ATOM      9  O   UNL     1       1.054   0.772  -4.996  1.00  0.00    -0.478 OA
ATOM     10  H   UNL     1       1.885   0.715  -5.531  1.00  0.00     0.297 HD
ENDBRANCH   7   9
ENDBRANCH   1   7
BRANCH   2  11
ATOM     11  O   UNL     1      -1.077   2.032  -1.989  1.00  0.00    -0.504 OA
ATOM     12  H   UNL     1      -0.816   1.760  -1.074  1.00  0.00     0.293 HD
ENDBRANCH   2  11
BRANCH   5  13
ATOM     13  O   UNL     1      -2.247   4.455  -2.274  1.00  0.00    -0.493 OA
ATOM     14  C   UNL     1      -2.753   4.982  -1.208  1.00  0.00     0.278 C 
ENDBRANCH   5  13
TORSDOF 4
ENDMDL
MODEL 5
REMARK VINA RESULT:    -4.260      3.004      4.525
REMARK INTER + INTRA:          -5.493
REMARK INTER:                  -5.296
REMARK INTRA:                  -0.197
REMARK UNBOUND:                -0.486
REMARK SMILES COc1cccc(C(=O)O)c1O
REMARK SMILES IDX 7 1 11 2 6 3 5 4 3 5 4 6 8 7 9 8 10 9 12 11 2 13 1 14
REMARK H PARENT 10 10 12 12
ROOT
ATOM      1  C   UNL     1      -0.742   2.389  -4.716  1.00  0.00     0.105 A 
ATOM      2  C   UNL     1      -1.053   3.150  -5.810  1.00  0.00     0.172 A 
ATOM      3  C   UNL     1      -1.429   2.699  -3.449  1.00  0.00     0.020 A 
ATOM      4  C   UNL     1      -2.564   3.442  -3.513  1.00  0.00     0.005 A 
ATOM      5  C   UNL     1      -2.370   3.748  -5.973  1.00  0.00     0.161 A 
ATOM      6  C   UNL     1      -3.075   3.986  -4.727  1.00  0.00     0.050 A 
ENDROOT
BRANCH   1   7
ATOM      7  C   UNL     1       0.211   1.186  -4.824  1.00  0.00     0.339 C 
ATOM      8  O   UNL     1      -0.612  -0.026  -5.536  1.00  0.00    -0.246 OA
BRANCH   7   9
ATOM      9  O   UNL     1       1.227   0.956  -4.669  1.00  0.00    -0.478 OA
ATOM     10  H   UNL     1       2.183   0.740  -4.524  1.00  0.00     0.297 HD
ENDBRANCH   7   9
ENDBRANCH   1   7
BRANCH   2  11
ATOM     11  O   UNL     1      -0.120   3.370  -6.837  1.00  0.00    -0.504 OA
ATOM     12  H   UNL     1       0.537   3.526  -7.561  1.00  0.00     0.293 HD
ENDBRANCH   2  11
BRANCH   5  13
ATOM     13  O   UNL     1      -2.623   4.327  -7.210  1.00  0.00    -0.493 OA
ATOM     14  C   UNL     1      -3.253   4.974  -8.134  1.00  0.00     0.278 C 
ENDBRANCH   5  13
TORSDOF 4
ENDMDL
MODEL 6
REMARK VINA RESULT:    -4.033      2.414      4.644
REMARK INTER + INTRA:          -5.226
REMARK INTER:                  -4.901
REMARK INTRA:                  -0.324
REMARK UNBOUND:                -0.486
REMARK SMILES COc1cccc(C(=O)O)c1O
REMARK SMILES IDX 7 1 11 2 6 3 5 4 3 5 4 6 8 7 9 8 10 9 12 11 2 13 1 14
REMARK H PARENT 10 10 12 12
ROOT
ATOM      1  C   UNL     1      -0.449   3.069  -5.560  1.00  0.00     0.105 A 
ATOM      2  C   UNL     1      -0.894   3.873  -4.547  1.00  0.00     0.172 A 
ATOM      3  C   UNL     1      -0.101   1.677  -5.224  1.00  0.00     0.020 A 
ATOM      4  C   UNL     1      -0.574   1.172  -4.055  1.00  0.00     0.005 A 
ATOM      5  C   UNL     1      -1.617   3.333  -3.405  1.00  0.00     0.161 A 
ATOM      6  C   UNL     1      -1.326   1.941  -3.119  1.00  0.00     0.050 A 
ENDROOT
BRANCH   1   7
ATOM      7  C   UNL     1      -0.413   3.563  -7.017  1.00  0.00     0.339 C 
ATOM      8  O   UNL     1      -1.796   4.379  -7.289  1.00  0.00    -0.246 OA
BRANCH   7   9
ATOM      9  O   UNL     1       0.259   3.612  -7.826  1.00  0.00    -0.478 OA
ATOM     10  H   UNL     1       0.891   3.658  -8.587  1.00  0.00     0.297 HD
ENDBRANCH   7   9
ENDBRANCH   1   7
BRANCH   2  11
ATOM     11  O   UNL     1      -0.692   5.264  -4.575  1.00  0.00    -0.504 OA
ATOM     12  H   UNL     1      -0.550   6.244  -4.594  1.00  0.00     0.293 HD
ENDBRANCH   2  11
BRANCH   5  13
ATOM     13  O   UNL     1      -2.185   4.269  -2.550  1.00  0.00    -0.493 OA
ATOM     14  C   UNL     1      -2.744   4.754  -1.490  1.00  0.00     0.278 C 
ENDBRANCH   5  13
TORSDOF 4
ENDMDL
MODEL 7
REMARK VINA RESULT:    -4.006      2.194      3.104
REMARK INTER + INTRA:          -5.195
REMARK INTER:                  -4.846
REMARK INTRA:                  -0.349
REMARK UNBOUND:                -0.486
REMARK SMILES COc1cccc(C(=O)O)c1O
REMARK SMILES IDX 7 1 11 2 6 3 5 4 3 5 4 6 8 7 9 8 10 9 12 11 2 13 1 14
REMARK H PARENT 10 10 12 12
ROOT
ATOM      1  C   UNL     1      -3.648   3.700  -3.457  1.00  0.00     0.105 A 
ATOM      2  C   UNL     1      -2.871   2.712  -3.996  1.00  0.00     0.172 A 
ATOM      3  C   UNL     1      -3.150   4.376  -2.244  1.00  0.00     0.020 A 
ATOM      4  C   UNL     1      -1.830   4.253  -1.951  1.00  0.00     0.005 A 
ATOM      5  C   UNL     1      -1.421   2.727  -3.871  1.00  0.00     0.161 A 
ATOM      6  C   UNL     1      -0.930   3.454  -2.715  1.00  0.00     0.050 A 
ENDROOT
BRANCH   1   7
ATOM      7  C   UNL     1      -4.943   4.166  -4.145  1.00  0.00     0.339 C 
ATOM      8  O   UNL     1      -4.650   4.224  -5.746  1.00  0.00    -0.246 OA
BRANCH   7   9
ATOM      9  O   UNL     1      -5.950   4.355  -3.904  1.00  0.00    -0.478 OA
ATOM     10  H   UNL     1      -6.898   4.533  -3.679  1.00  0.00     0.297 HD
ENDBRANCH   7   9
ENDBRANCH   1   7
BRANCH   2  11
ATOM     11  O   UNL     1      -3.438   1.647  -4.716  1.00  0.00    -0.504 OA
ATOM     12  H   UNL     1      -3.838   0.896  -5.224  1.00  0.00     0.293 HD
ENDBRANCH   2  11
BRANCH   5  13
ATOM     13  O   UNL     1      -0.738   1.782  -4.627  1.00  0.00    -0.493 OA
ATOM     14  C   UNL     1       0.098   0.838  -4.911  1.00  0.00     0.278 C 
ENDBRANCH   5  13
TORSDOF 4
ENDMDL
MODEL 8
REMARK VINA RESULT:    -3.876      7.209      7.750
REMARK INTER + INTRA:          -5.041
REMARK INTER:                  -4.766
REMARK INTRA:                  -0.275
REMARK UNBOUND:                -0.486
REMARK SMILES COc1cccc(C(=O)O)c1O
REMARK SMILES IDX 7 1 11 2 6 3 5 4 3 5 4 6 8 7 9 8 10 9 12 11 2 13 1 14
REMARK H PARENT 10 10 12 12
ROOT
ATOM      1  C   UNL     1      -2.271  -2.117   2.062  1.00  0.00     0.105 A 
ATOM      2  C   UNL     1      -1.198  -1.302   1.827  1.00  0.00     0.172 A 
ATOM      3  C   UNL     1      -2.167  -3.524   1.635  1.00  0.00     0.020 A 
ATOM      4  C   UNL     1      -0.927  -4.017   1.382  1.00  0.00     0.005 A 
ATOM      5  C   UNL     1       0.162  -1.820   1.796  1.00  0.00     0.161 A 
ATOM      6  C   UNL     1       0.257  -3.225   1.445  1.00  0.00     0.050 A 
ENDROOT
BRANCH   1   7
ATOM      7  C   UNL     1      -3.502  -1.616   2.837  1.00  0.00     0.339 C 
ATOM      8  O   UNL     1      -2.978  -0.535   3.937  1.00  0.00    -0.246 OA
BRANCH   7   9
ATOM      9  O   UNL     1      -4.552  -1.689   2.801  1.00  0.00    -0.478 OA
ATOM     10  H   UNL     1      -5.539  -1.758   2.767  1.00  0.00     0.297 HD
ENDBRANCH   7   9
ENDBRANCH   1   7
BRANCH   2  11
ATOM     11  O   UNL     1      -1.359   0.080   1.626  1.00  0.00    -0.504 OA
ATOM     12  H   UNL     1      -1.473   1.053   1.484  1.00  0.00     0.293 HD
ENDBRANCH   2  11
BRANCH   5  13
ATOM     13  O   UNL     1       1.172  -0.867   1.747  1.00  0.00    -0.493 OA
ATOM     14  C   UNL     1       1.788   0.250   1.950  1.00  0.00     0.278 C 
ENDBRANCH   5  13
TORSDOF 4
ENDMDL
MODEL 9
REMARK VINA RESULT:    -3.853      2.202      2.735
REMARK INTER + INTRA:          -5.014
REMARK INTER:                  -4.767
REMARK INTRA:                  -0.247
REMARK UNBOUND:                -0.486
REMARK SMILES COc1cccc(C(=O)O)c1O
REMARK SMILES IDX 7 1 11 2 6 3 5 4 3 5 4 6 8 7 9 8 10 9 12 11 2 13 1 14
REMARK H PARENT 10 10 12 12
ROOT
ATOM      1  C   UNL     1      -1.751   3.471  -3.414  1.00  0.00     0.105 A 
ATOM      2  C   UNL     1      -1.658   3.824  -4.732  1.00  0.00     0.172 A 
ATOM      3  C   UNL     1      -1.354   2.100  -3.043  1.00  0.00     0.020 A 
ATOM      4  C   UNL     1      -0.593   1.403  -3.926  1.00  0.00     0.005 A 
ATOM      5  C   UNL     1      -0.665   3.228  -5.614  1.00  0.00     0.161 A 
ATOM      6  C   UNL     1      -0.223   1.907  -5.208  1.00  0.00     0.050 A 
ENDROOT
BRANCH   1   7
ATOM      7  C   UNL     1      -2.152   4.495  -2.338  1.00  0.00     0.339 C 
ATOM      8  O   UNL     1      -1.141   4.297  -1.076  1.00  0.00    -0.246 OA
BRANCH   7   9
ATOM      9  O   UNL     1      -2.797   5.319  -2.222  1.00  0.00    -0.478 OA
ATOM     10  H   UNL     1      -3.404   6.094  -2.112  1.00  0.00     0.297 HD
ENDBRANCH   7   9
ENDBRANCH   1   7
BRANCH   2  11
ATOM     11  O   UNL     1      -2.506   4.795  -5.291  1.00  0.00    -0.504 OA
ATOM     12  H   UNL     1      -3.104   5.480  -5.684  1.00  0.00     0.293 HD
ENDBRANCH   2  11
BRANCH   5  13
ATOM     13  O   UNL     1      -0.543   3.810  -6.870  1.00  0.00    -0.493 OA
ATOM     14  C   UNL     1      -0.346   3.902  -8.144  1.00  0.00     0.278 C 
ENDBRANCH   5  13
TORSDOF 4
ENDMDL
