MODEL 1
REMARK VINA RESULT:    -4.743      0.000      0.000
REMARK INTER + INTRA:          -6.054
REMARK INTER:                  -5.575
REMARK INTRA:                  -0.479
REMARK UNBOUND:                -0.479
REMARK SMILES COc1cccc(C(=O)O)c1O
REMARK SMILES IDX 7 1 11 2 6 3 5 4 3 5 4 6 8 7 9 8 10 9 12 11 2 13 1 14
REMARK H PARENT 10 10 12 12
ROOT
ATOM      1  C   UNL     1       5.175  -2.499   5.799  1.00  0.00     0.105 A 
ATOM      2  C   UNL     1       3.979  -2.568   6.458  1.00  0.00     0.172 A 
ATOM      3  C   UNL     1       6.194  -3.514   6.123  1.00  0.00     0.020 A 
ATOM      4  C   UNL     1       5.781  -4.643   6.755  1.00  0.00     0.005 A 
ATOM      5  C   UNL     1       3.435  -3.836   6.923  1.00  0.00     0.161 A 
ATOM      6  C   UNL     1       4.435  -4.857   7.174  1.00  0.00     0.050 A 
ENDROOT
BRANCH   1   7
ATOM      7  C   UNL     1       5.416  -1.468   4.683  1.00  0.00     0.339 C 
ATOM      8  O   UNL     1       3.970  -0.830   4.289  1.00  0.00    -0.246 OA
BRANCH   7   9
ATOM      9  O   UNL     1       6.219  -1.000   4.188  1.00  0.00    -0.478 OA
ATOM     10  H   UNL     1       6.975  -0.560   3.722  1.00  0.00     0.297 HD
ENDBRANCH   7   9
ENDBRANCH   1   7
BRANCH   2  11
ATOM     11  O   UNL     1       3.208  -1.417   6.698  1.00  0.00    -0.504 OA
ATOM     12  H   UNL     1       2.665  -0.606   6.866  1.00  0.00     0.293 HD
ENDBRANCH   2  11
BRANCH   5  13
ATOM     13  O   UNL     1       2.130  -3.797   7.397  1.00  0.00    -0.493 OA
ATOM     14  C   UNL     1       0.912  -4.172   7.612  1.00  0.00     0.278 C 
ENDBRANCH   5  13
TORSDOF 4
ENDMDL
MODEL 2
REMARK VINA RESULT:    -4.696      2.094      3.064
REMARK INTER + INTRA:          -5.999
REMARK INTER:                  -5.729
REMARK INTRA:                  -0.270
REMARK UNBOUND:                -0.479
REMARK SMILES COc1cccc(C(=O)O)c1O
REMARK SMILES IDX 7 1 11 2 6 3 5 4 3 5 4 6 8 7 9 8 10 9 12 11 2 13 1 14
REMARK H PARENT 10 10 12 12
ROOT
ATOM      1  C   UNL     1       4.715  -2.566   5.787  1.00  0.00     0.105 A 
ATOM      2  C   UNL     1       5.524  -3.167   6.713  1.00  0.00     0.172 A 
ATOM      3  C   UNL     1       3.258  -2.646   5.998  1.00  0.00     0.020 A 
ATOM      4  C   UNL     1       2.817  -2.969   7.241  1.00  0.00     0.005 A 
ATOM      5  C   UNL     1       5.125  -3.292   8.108  1.00  0.00     0.161 A 
ATOM      6  C   UNL     1       3.690  -3.298   8.319  1.00  0.00     0.050 A 
ENDROOT
BRANCH   1   7
ATOM      7  C   UNL     1       5.301  -1.746   4.625  1.00  0.00     0.339 C 
ATOM      8  O   UNL     1       4.159  -0.685   4.153  1.00  0.00    -0.246 OA
BRANCH   7   9
ATOM      9  O   UNL     1       6.220  -1.607   4.130  1.00  0.00    -0.478 OA
ATOM     10  H   UNL     1       7.084  -1.476   3.664  1.00  0.00     0.297 HD
ENDBRANCH   7   9
ENDBRANCH   1   7
BRANCH   2  11
ATOM     11  O   UNL     1       6.788  -3.671   6.363  1.00  0.00    -0.504 OA
ATOM     12  H   UNL     1       7.678  -4.027   6.116  1.00  0.00     0.293 HD
ENDBRANCH   2  11
BRANCH   5  13
ATOM     13  O   UNL     1       6.109  -3.738   8.981  1.00  0.00    -0.493 OA
ATOM     14  C   UNL     1       7.011  -3.699   9.905  1.00  0.00     0.278 C 
ENDBRANCH   5  13
TORSDOF 4
ENDMDL
MODEL 3
REMARK VINA RESULT:    -4.693      2.867      4.336
REMARK INTER + INTRA:          -5.994
REMARK INTER:                  -5.724
REMARK INTRA:                  -0.271
REMARK UNBOUND:                -0.479
REMARK SMILES COc1cccc(C(=O)O)c1O
REMARK SMILES IDX 7 1 11 2 6 3 5 4 3 5 4 6 8 7 9 8 10 9 12 11 2 13 1 14
REMARK H PARENT 10 10 12 12
ROOT
ATOM      1  C   UNL     1       2.438  -3.366   7.379  1.00  0.00     0.105 A 
ATOM      2  C   UNL     1       3.156  -3.085   8.509  1.00  0.00     0.172 A 
ATOM      3  C   UNL     1       3.083  -3.109   6.078  1.00  0.00     0.020 A 
ATOM      4  C   UNL     1       4.433  -2.969   6.059  1.00  0.00     0.005 A 
ATOM      5  C   UNL     1       4.609  -3.173   8.532  1.00  0.00     0.161 A 
ATOM      6  C   UNL     1       5.238  -2.991   7.237  1.00  0.00     0.050 A 
ENDROOT
BRANCH   1   7
ATOM      7  C   UNL     1       1.050  -4.025   7.456  1.00  0.00     0.339 C 
ATOM      8  O   UNL     1       0.805  -4.810   6.049  1.00  0.00    -0.246 OA
BRANCH   7   9
ATOM      9  O   UNL     1       0.285  -4.194   8.159  1.00  0.00    -0.478 OA
ATOM     10  H   UNL     1      -0.435  -4.353   8.821  1.00  0.00     0.297 HD
ENDBRANCH   7   9
ENDBRANCH   1   7
BRANCH   2  11
ATOM     11  O   UNL     1       2.521  -2.719   9.707  1.00  0.00    -0.504 OA
ATOM     12  H   UNL     1       2.073  -2.462  10.552  1.00  0.00     0.293 HD
ENDBRANCH   2  11
BRANCH   5  13
ATOM     13  O   UNL     1       5.203  -3.058   9.782  1.00  0.00    -0.493 OA
ATOM     14  C   UNL     1       5.908  -3.376  10.818  1.00  0.00     0.278 C 
ENDBRANCH   5  13
TORSDOF 4
ENDMDL
MODEL 4
REMARK VINA RESULT:    -4.387      1.539      4.292
REMARK INTER + INTRA:          -5.635
REMARK INTER:                  -5.221
REMARK INTRA:                  -0.414
REMARK UNBOUND:                -0.479
REMARK SMILES COc1cccc(C(=O)O)c1O
REMARK SMILES IDX 7 1 11 2 6 3 5 4 3 5 4 6 8 7 9 8 10 9 12 11 2 13 1 14
REMARK H PARENT 10 10 12 12
ROOT
ATOM      1  C   UNL     1       2.615  -4.084   7.305  1.00  0.00     0.105 A 
ATOM      2  C   UNL     1       3.213  -3.348   6.320  1.00  0.00     0.172 A 
ATOM      3  C   UNL     1       3.483  -4.678   8.338  1.00  0.00     0.020 A 
ATOM      4  C   UNL     1       4.737  -4.176   8.473  1.00  0.00     0.005 A 
ATOM      5  C   UNL     1       4.449  -2.616   6.558  1.00  0.00     0.161 A 
ATOM      6  C   UNL     1       5.268  -3.160   7.624  1.00  0.00     0.050 A 
ENDROOT
BRANCH   1   7
ATOM      7  C   UNL     1       1.083  -4.204   7.396  1.00  0.00     0.339 C 
ATOM      8  O   UNL     1       0.564  -4.881   6.009  1.00  0.00    -0.246 OA
BRANCH   7   9
ATOM      9  O   UNL     1       0.314  -4.073   8.103  1.00  0.00    -0.478 OA
ATOM     10  H   UNL     1      -0.410  -3.950   8.767  1.00  0.00     0.297 HD
ENDBRANCH   7   9
ENDBRANCH   1   7
BRANCH   2  11
ATOM     11  O   UNL     1       2.650  -3.248   5.036  1.00  0.00    -0.504 OA
ATOM     12  H   UNL     1       2.253  -3.177   4.132  1.00  0.00     0.293 HD
ENDBRANCH   2  11
BRANCH   5  13
ATOM     13  O   UNL     1       4.846  -1.753   5.544  1.00  0.00    -0.493 OA
ATOM     14  C   UNL     1       5.473  -1.328   4.497  1.00  0.00     0.278 C 
ENDBRANCH   5  13
TORSDOF 4
ENDMDL
MODEL 5
REMARK VINA RESULT:    -3.991      2.031      2.825
REMARK INTER + INTRA:          -5.170
REMARK INTER:                  -4.746
REMARK INTRA:                  -0.423
REMARK UNBOUND:                -0.479
REMARK SMILES COc1cccc(C(=O)O)c1O
REMARK SMILES IDX 7 1 11 2 6 3 5 4 3 5 4 6 8 7 9 8 10 9 12 11 2 13 1 14
REMARK H PARENT 10 10 12 12
ROOT
ATOM      1  C   UNL     1       3.609  -2.638   6.285  1.00  0.00     0.105 A 
ATOM      2  C   UNL     1       3.814  -2.553   7.634  1.00  0.00     0.172 A 
ATOM      3  C   UNL     1       2.594  -3.595   5.807  1.00  0.00     0.020 A 
ATOM      4  C   UNL     1       1.685  -4.053   6.706  1.00  0.00     0.005 A 
ATOM      5  C   UNL     1       2.747  -2.821   8.588  1.00  0.00     0.161 A 
ATOM      6  C   UNL     1       1.711  -3.707   8.089  1.00  0.00     0.050 A 
ENDROOT
BRANCH   1   7
ATOM      7  C   UNL     1       4.331  -1.698   5.305  1.00  0.00     0.339 C 
ATOM      8  O   UNL     1       5.931  -1.957   5.470  1.00  0.00    -0.246 OA
BRANCH   7   9
ATOM      9  O   UNL     1       4.102  -1.034   4.520  1.00  0.00    -0.478 OA
ATOM     10  H   UNL     1       3.887  -0.411   3.781  1.00  0.00     0.297 HD
ENDBRANCH   7   9
ENDBRANCH   1   7
BRANCH   2  11
ATOM     11  O   UNL     1       5.062  -2.181   8.163  1.00  0.00    -0.504 OA
ATOM     12  H   UNL     1       5.942  -1.919   8.535  1.00  0.00     0.293 HD
ENDBRANCH   2  11
BRANCH   5  13
ATOM     13  O   UNL     1       3.025  -2.510   9.912  1.00  0.00    -0.493 OA
ATOM     14  C   UNL     1       3.084  -2.640  11.197  1.00  0.00     0.278 C 
ENDBRANCH   5  13
TORSDOF 4
ENDMDL
MODEL 6
REMARK VINA RESULT:    -3.824      2.270      4.420
REMARK INTER + INTRA:          -4.974
REMARK INTER:                  -4.752
REMARK INTRA:                  -0.221
REMARK UNBOUND:                -0.479
REMARK SMILES COc1cccc(C(=O)O)c1O
REMARK SMILES IDX 7 1 11 2 6 3 5 4 3 5 4 6 8 7 9 8 10 9 12 11 2 13 1 14
REMARK H PARENT 10 10 12 12
ROOT
ATOM      1  C   UNL     1       3.372  -3.424   6.742  1.00  0.00     0.105 A 
ATOM      2  C   UNL     1       4.647  -3.735   7.127  1.00  0.00     0.172 A 
ATOM      3  C   UNL     1       3.189  -2.259   5.857  1.00  0.00     0.020 A 
ATOM      4  C   UNL     1       4.278  -1.796   5.190  1.00  0.00     0.005 A 
ATOM      5  C   UNL     1       5.794  -3.440   6.279  1.00  0.00     0.161 A 
ATOM      6  C   UNL     1       5.586  -2.338   5.359  1.00  0.00     0.050 A 
ENDROOT
BRANCH   1   7
ATOM      7  C   UNL     1       2.179  -4.317   7.128  1.00  0.00     0.339 C 
ATOM      8  O   UNL     1       1.188  -4.391   5.837  1.00  0.00    -0.246 OA
BRANCH   7   9
ATOM      9  O   UNL     1       1.877  -4.948   7.915  1.00  0.00    -0.478 OA
ATOM     10  H   UNL     1       1.593  -5.542   8.654  1.00  0.00     0.297 HD
ENDBRANCH   7   9
ENDBRANCH   1   7
BRANCH   2  11
ATOM     11  O   UNL     1       4.907  -4.374   8.351  1.00  0.00    -0.504 OA
ATOM     12  H   UNL     1       5.089  -4.824   9.214  1.00  0.00     0.293 HD
ENDBRANCH   2  11
BRANCH   5  13
ATOM     13  O   UNL     1       7.006  -3.980   6.690  1.00  0.00    -0.493 OA
ATOM     14  C   UNL     1       8.128  -4.085   7.322  1.00  0.00     0.278 C 
ENDBRANCH   5  13
TORSDOF 4
ENDMDL
MODEL 7
REMARK VINA RESULT:    -3.653      2.170      3.190
REMARK INTER + INTRA:          -4.773
REMARK INTER:                  -4.617
REMARK INTRA:                  -0.156
REMARK UNBOUND:                -0.479
REMARK SMILES COc1cccc(C(=O)O)c1O
REMARK SMILES IDX 7 1 11 2 6 3 5 4 3 5 4 6 8 7 9 8 10 9 12 11 2 13 1 14
REMARK H PARENT 10 10 12 12
ROOT
ATOM      1  C   UNL     1       5.613  -3.444   6.587  1.00  0.00     0.105 A 
ATOM      2  C   UNL     1       4.386  -4.029   6.740  1.00  0.00     0.172 A 
ATOM      3  C   UNL     1       5.749  -2.402   5.552  1.00  0.00     0.020 A 
ATOM      4  C   UNL     1       4.611  -1.831   5.078  1.00  0.00     0.005 A 
ATOM      5  C   UNL     1       3.155  -3.308   6.450  1.00  0.00     0.161 A 
ATOM      6  C   UNL     1       3.306  -2.237   5.483  1.00  0.00     0.050 A 
ENDROOT
BRANCH   1   7
ATOM      7  C   UNL     1       6.784  -3.780   7.526  1.00  0.00     0.339 C 
ATOM      8  O   UNL     1       8.103  -4.008   6.598  1.00  0.00    -0.246 OA
BRANCH   7   9
ATOM      9  O   UNL     1       6.997  -3.808   8.557  1.00  0.00    -0.478 OA
ATOM     10  H   UNL     1       7.197  -3.834   9.527  1.00  0.00     0.297 HD
ENDBRANCH   7   9
ENDBRANCH   1   7
BRANCH   2  11
ATOM     11  O   UNL     1       4.258  -5.348   7.208  1.00  0.00    -0.504 OA
ATOM     12  H   UNL     1       4.168  -6.277   7.538  1.00  0.00     0.293 HD
ENDBRANCH   2  11
BRANCH   5  13
ATOM     13  O   UNL     1       1.979  -3.940   6.833  1.00  0.00    -0.493 OA
ATOM     14  C   UNL     1       0.973  -4.273   7.572  1.00  0.00     0.278 C 
ENDBRANCH   5  13
TORSDOF 4
ENDMDL
MODEL 8
REMARK VINA RESULT:    -3.624      2.205      4.524
REMARK INTER + INTRA:          -4.739
REMARK INTER:                  -4.593
REMARK INTRA:                  -0.145
REMARK UNBOUND:                -0.479
REMARK SMILES COc1cccc(C(=O)O)c1O
REMARK SMILES IDX 7 1 11 2 6 3 5 4 3 5 4 6 8 7 9 8 10 9 12 11 2 13 1 14
REMARK H PARENT 10 10 12 12
ROOT
ATOM      1  C   UNL     1       3.135  -2.800   8.598  1.00  0.00     0.105 A 
ATOM      2  C   UNL     1       3.702  -2.095   7.573  1.00  0.00     0.172 A 
ATOM      3  C   UNL     1       1.948  -3.619   8.290  1.00  0.00     0.020 A 
ATOM      4  C   UNL     1       1.710  -3.921   6.987  1.00  0.00     0.005 A 
ATOM      5  C   UNL     1       3.639  -2.565   6.196  1.00  0.00     0.161 A 
ATOM      6  C   UNL     1       2.508  -3.429   5.913  1.00  0.00     0.050 A 
ENDROOT
BRANCH   1   7
ATOM      7  C   UNL     1       3.769  -2.826   9.999  1.00  0.00     0.339 C 
ATOM      8  O   UNL     1       2.601  -2.446  11.070  1.00  0.00    -0.246 OA
BRANCH   7   9
ATOM      9  O   UNL     1       4.675  -3.102  10.460  1.00  0.00    -0.478 OA
ATOM     10  H   UNL     1       5.526  -3.362  10.894  1.00  0.00     0.297 HD
ENDBRANCH   7   9
ENDBRANCH   1   7
BRANCH   2  11
ATOM     11  O   UNL     1       4.393  -0.893   7.805  1.00  0.00    -0.504 OA
ATOM     12  H   UNL     1       4.879  -0.047   7.969  1.00  0.00     0.293 HD
ENDBRANCH   2  11
BRANCH   5  13
ATOM     13  O   UNL     1       4.419  -1.868   5.282  1.00  0.00    -0.493 OA
ATOM     14  C   UNL     1       5.462  -1.515   4.606  1.00  0.00     0.278 C 
ENDBRANCH   5  13
TORSDOF 4
ENDMDL
MODEL 9
REMARK VINA RESULT:    -3.613      7.088      8.266
REMARK INTER + INTRA:          -4.726
REMARK INTER:                  -4.473
REMARK INTRA:                  -0.253
REMARK UNBOUND:                -0.479
REMARK SMILES COc1cccc(C(=O)O)c1O
REMARK SMILES IDX 7 1 11 2 6 3 5 4 3 5 4 6 8 7 9 8 10 9 12 11 2 13 1 14
REMARK H PARENT 10 10 12 12
ROOT
ATOM      1  C   UNL     1      -1.264   2.383   2.238  1.00  0.00     0.105 A 
ATOM      2  C   UNL     1      -1.090   1.062   1.926  1.00  0.00     0.172 A 
ATOM      3  C   UNL     1      -2.135   2.705   3.383  1.00  0.00     0.020 A 
ATOM      4  C   UNL     1      -2.410   1.711   4.266  1.00  0.00     0.005 A 
ATOM      5  C   UNL     1      -1.153   0.022   2.942  1.00  0.00     0.161 A 
ATOM      6  C   UNL     1      -1.954   0.370   4.101  1.00  0.00     0.050 A 
ENDROOT
BRANCH   1   7
ATOM      7  C   UNL     1      -0.498   3.489   1.493  1.00  0.00     0.339 C 
ATOM      8  O   UNL     1       0.963   2.887   1.095  1.00  0.00    -0.246 OA
BRANCH   7   9
ATOM      9  O   UNL     1      -0.669   4.448   1.093  1.00  0.00    -0.478 OA
ATOM     10  H   UNL     1      -0.830   5.350   0.717  1.00  0.00     0.297 HD
ENDBRANCH   7   9
ENDBRANCH   1   7
BRANCH   2  11
ATOM     11  O   UNL     1      -0.819   0.652   0.609  1.00  0.00    -0.504 OA
ATOM     12  H   UNL     1      -0.629   0.362  -0.318  1.00  0.00     0.293 HD
ENDBRANCH   2  11
BRANCH   5  13
ATOM     13  O   UNL     1      -0.765  -1.248   2.535  1.00  0.00    -0.493 OA
ATOM     14  C   UNL     1      -0.160  -2.165   1.855  1.00  0.00     0.278 C 
ENDBRANCH   5  13
TORSDOF 4
ENDMDL
