MODEL 1
REMARK VINA RESULT:    -4.877      0.000      0.000
REMARK INTER + INTRA:          -6.194
REMARK INTER:                  -5.732
REMARK INTRA:                  -0.462
REMARK UNBOUND:                -0.462
REMARK SMILES COc1cccc(C(=O)O)c1O
REMARK SMILES IDX 7 1 11 2 6 3 5 4 3 5 4 6 8 7 9 8 10 9 12 11 2 13 1 14
REMARK H PARENT 10 10 12 12
ROOT
ATOM      1  C   UNL     1       1.642  -0.719   6.313  1.00  0.00     0.105 A 
ATOM      2  C   UNL     1       2.565  -1.489   5.659  1.00  0.00     0.172 A 
ATOM      3  C   UNL     1       2.143   0.285   7.268  1.00  0.00     0.020 A 
ATOM      4  C   UNL     1       3.450   0.643   7.181  1.00  0.00     0.005 A 
ATOM      5  C   UNL     1       3.901  -0.992   5.362  1.00  0.00     0.161 A 
ATOM      6  C   UNL     1       4.364   0.048   6.261  1.00  0.00     0.050 A 
ENDROOT
BRANCH   1   7
ATOM      7  C   UNL     1       0.142  -0.820   5.988  1.00  0.00     0.339 C 
ATOM      8  O   UNL     1      -0.004  -1.712   4.632  1.00  0.00    -0.246 OA
BRANCH   7   9
ATOM      9  O   UNL     1      -0.787  -0.576   6.421  1.00  0.00    -0.478 OA
ATOM     10  H   UNL     1      -1.659  -0.347   6.828  1.00  0.00     0.297 HD
ENDBRANCH   7   9
ENDBRANCH   1   7
BRANCH   2  11
ATOM     11  O   UNL     1       2.257  -2.790   5.226  1.00  0.00    -0.504 OA
ATOM     12  H   UNL     1       2.041  -3.707   4.921  1.00  0.00     0.293 HD
ENDBRANCH   2  11
BRANCH   5  13
ATOM     13  O   UNL     1       4.671  -1.790   4.526  1.00  0.00    -0.493 OA
ATOM     14  C   UNL     1       5.676  -2.491   4.115  1.00  0.00     0.278 C 
ENDBRANCH   5  13
TORSDOF 4
ENDMDL
MODEL 2
REMARK VINA RESULT:    -4.775      2.254      3.289
REMARK INTER + INTRA:          -6.075
REMARK INTER:                  -5.805
REMARK INTRA:                  -0.270
REMARK UNBOUND:                -0.462
REMARK SMILES COc1cccc(C(=O)O)c1O
REMARK SMILES IDX 7 1 11 2 6 3 5 4 3 5 4 6 8 7 9 8 10 9 12 11 2 13 1 14
REMARK H PARENT 10 10 12 12
ROOT
ATOM      1  C   UNL     1       1.805  -0.904   6.201  1.00  0.00     0.105 A 
ATOM      2  C   UNL     1       2.397  -0.402   7.327  1.00  0.00     0.172 A 
ATOM      3  C   UNL     1       2.601  -1.816   5.360  1.00  0.00     0.020 A 
ATOM      4  C   UNL     1       3.701  -2.388   5.914  1.00  0.00     0.005 A 
ATOM      5  C   UNL     1       3.418  -1.146   8.050  1.00  0.00     0.161 A 
ATOM      6  C   UNL     1       4.153  -2.096   7.235  1.00  0.00     0.050 A 
ENDROOT
BRANCH   1   7
ATOM      7  C   UNL     1       0.330  -0.615   5.876  1.00  0.00     0.339 C 
ATOM      8  O   UNL     1      -0.149  -1.711   4.770  1.00  0.00    -0.246 OA
BRANCH   7   9
ATOM      9  O   UNL     1      -0.458  -0.005   6.216  1.00  0.00    -0.478 OA
ATOM     10  H   UNL     1      -1.198   0.570   6.537  1.00  0.00     0.297 HD
ENDBRANCH   7   9
ENDBRANCH   1   7
BRANCH   2  11
ATOM     11  O   UNL     1       2.029   0.850   7.851  1.00  0.00    -0.504 OA
ATOM     12  H   UNL     1       1.771   1.731   8.220  1.00  0.00     0.293 HD
ENDBRANCH   2  11
BRANCH   5  13
ATOM     13  O   UNL     1       3.795  -0.620   9.279  1.00  0.00    -0.493 OA
ATOM     14  C   UNL     1       4.004  -0.558  10.553  1.00  0.00     0.278 C 
ENDBRANCH   5  13
TORSDOF 4
ENDMDL
MODEL 3
REMARK VINA RESULT:    -4.692      2.926      4.418
REMARK INTER + INTRA:          -5.978
REMARK INTER:                  -5.714
REMARK INTRA:                  -0.264
REMARK UNBOUND:                -0.462
REMARK SMILES COc1cccc(C(=O)O)c1O
REMARK SMILES IDX 7 1 11 2 6 3 5 4 3 5 4 6 8 7 9 8 10 9 12 11 2 13 1 14
REMARK H PARENT 10 10 12 12
ROOT
ATOM      1  C   UNL     1       4.455  -2.153   5.205  1.00  0.00     0.105 A 
ATOM      2  C   UNL     1       4.686  -2.617   6.470  1.00  0.00     0.172 A 
ATOM      3  C   UNL     1       3.239  -1.349   4.983  1.00  0.00     0.020 A 
ATOM      4  C   UNL     1       2.630  -0.813   6.072  1.00  0.00     0.005 A 
ATOM      5  C   UNL     1       4.224  -1.893   7.646  1.00  0.00     0.161 A 
ATOM      6  C   UNL     1       3.069  -1.047   7.408  1.00  0.00     0.050 A 
ENDROOT
BRANCH   1   7
ATOM      7  C   UNL     1       5.475  -2.369   4.074  1.00  0.00     0.339 C 
ATOM      8  O   UNL     1       5.095  -1.338   2.871  1.00  0.00    -0.246 OA
BRANCH   7   9
ATOM      9  O   UNL     1       6.370  -2.895   3.896  1.00  0.00    -0.478 OA
ATOM     10  H   UNL     1       7.211  -3.390   3.729  1.00  0.00     0.297 HD
ENDBRANCH   7   9
ENDBRANCH   1   7
BRANCH   2  11
ATOM     11  O   UNL     1       5.402  -3.806   6.694  1.00  0.00    -0.504 OA
ATOM     12  H   UNL     1       5.906  -4.643   6.852  1.00  0.00     0.293 HD
ENDBRANCH   2  11
BRANCH   5  13
ATOM     13  O   UNL     1       4.691  -2.361   8.868  1.00  0.00    -0.493 OA
ATOM     14  C   UNL     1       5.391  -2.413   9.953  1.00  0.00     0.278 C 
ENDBRANCH   5  13
TORSDOF 4
ENDMDL
MODEL 4
REMARK VINA RESULT:    -4.442      1.523      4.318
REMARK INTER + INTRA:          -5.683
REMARK INTER:                  -5.250
REMARK INTRA:                  -0.433
REMARK UNBOUND:                -0.462
REMARK SMILES COc1cccc(C(=O)O)c1O
REMARK SMILES IDX 7 1 11 2 6 3 5 4 3 5 4 6 8 7 9 8 10 9 12 11 2 13 1 14
REMARK H PARENT 10 10 12 12
ROOT
ATOM      1  C   UNL     1       4.713  -1.622   5.182  1.00  0.00     0.105 A 
ATOM      2  C   UNL     1       3.375  -1.352   5.105  1.00  0.00     0.172 A 
ATOM      3  C   UNL     1       5.400  -1.317   6.451  1.00  0.00     0.020 A 
ATOM      4  C   UNL     1       4.632  -1.144   7.558  1.00  0.00     0.005 A 
ATOM      5  C   UNL     1       2.516  -1.406   6.279  1.00  0.00     0.161 A 
ATOM      6  C   UNL     1       3.207  -1.176   7.534  1.00  0.00     0.050 A 
ENDROOT
BRANCH   1   7
ATOM      7  C   UNL     1       5.458  -2.316   4.028  1.00  0.00     0.339 C 
ATOM      8  O   UNL     1       5.244  -1.406   2.694  1.00  0.00    -0.246 OA
BRANCH   7   9
ATOM      9  O   UNL     1       6.121  -3.119   3.875  1.00  0.00    -0.478 OA
ATOM     10  H   UNL     1       6.744  -3.876   3.732  1.00  0.00     0.297 HD
ENDBRANCH   7   9
ENDBRANCH   1   7
BRANCH   2  11
ATOM     11  O   UNL     1       2.762  -1.032   3.881  1.00  0.00    -0.504 OA
ATOM     12  H   UNL     1       2.331  -0.806   3.019  1.00  0.00     0.293 HD
ENDBRANCH   2  11
BRANCH   5  13
ATOM     13  O   UNL     1       1.151  -1.308   6.037  1.00  0.00    -0.493 OA
ATOM     14  C   UNL     1      -0.026  -0.780   5.955  1.00  0.00     0.278 C 
ENDBRANCH   5  13
TORSDOF 4
ENDMDL
MODEL 5
REMARK VINA RESULT:    -4.064      2.289      3.380
REMARK INTER + INTRA:          -5.239
REMARK INTER:                  -4.778
REMARK INTRA:                  -0.461
REMARK UNBOUND:                -0.462
REMARK SMILES COc1cccc(C(=O)O)c1O
REMARK SMILES IDX 7 1 11 2 6 3 5 4 3 5 4 6 8 7 9 8 10 9 12 11 2 13 1 14
REMARK H PARENT 10 10 12 12
ROOT
ATOM      1  C   UNL     1       2.175  -1.308   5.926  1.00  0.00     0.105 A 
ATOM      2  C   UNL     1       2.499  -0.798   7.153  1.00  0.00     0.172 A 
ATOM      3  C   UNL     1       3.228  -2.026   5.184  1.00  0.00     0.020 A 
ATOM      4  C   UNL     1       4.311  -2.455   5.882  1.00  0.00     0.005 A 
ATOM      5  C   UNL     1       3.508  -1.422   7.997  1.00  0.00     0.161 A 
ATOM      6  C   UNL     1       4.503  -2.187   7.270  1.00  0.00     0.050 A 
ENDROOT
BRANCH   1   7
ATOM      7  C   UNL     1       0.738  -1.231   5.381  1.00  0.00     0.339 C 
ATOM      8  O   UNL     1       0.182   0.270   5.684  1.00  0.00    -0.246 OA
BRANCH   7   9
ATOM      9  O   UNL     1       0.071  -1.808   4.805  1.00  0.00    -0.478 OA
ATOM     10  H   UNL     1      -0.556  -2.350   4.263  1.00  0.00     0.297 HD
ENDBRANCH   7   9
ENDBRANCH   1   7
BRANCH   2  11
ATOM     11  O   UNL     1       1.855   0.342   7.664  1.00  0.00    -0.504 OA
ATOM     12  H   UNL     1       1.402   1.145   8.025  1.00  0.00     0.293 HD
ENDBRANCH   2  11
BRANCH   5  13
ATOM     13  O   UNL     1       3.603  -0.929   9.292  1.00  0.00    -0.493 OA
ATOM     14  C   UNL     1       4.089  -0.716  10.471  1.00  0.00     0.278 C 
ENDBRANCH   5  13
TORSDOF 4
ENDMDL
MODEL 6
REMARK VINA RESULT:    -3.998      2.156      3.088
REMARK INTER + INTRA:          -5.162
REMARK INTER:                  -4.860
REMARK INTRA:                  -0.301
REMARK UNBOUND:                -0.462
REMARK SMILES COc1cccc(C(=O)O)c1O
REMARK SMILES IDX 7 1 11 2 6 3 5 4 3 5 4 6 8 7 9 8 10 9 12 11 2 13 1 14
REMARK H PARENT 10 10 12 12
ROOT
ATOM      1  C   UNL     1       2.276  -0.025   6.925  1.00  0.00     0.105 A 
ATOM      2  C   UNL     1       3.366  -0.298   6.146  1.00  0.00     0.172 A 
ATOM      3  C   UNL     1       0.955  -0.447   6.424  1.00  0.00     0.020 A 
ATOM      4  C   UNL     1       0.923  -1.379   5.437  1.00  0.00     0.005 A 
ATOM      5  C   UNL     1       3.402  -1.453   5.259  1.00  0.00     0.161 A 
ATOM      6  C   UNL     1       2.095  -1.910   4.824  1.00  0.00     0.050 A 
ENDROOT
BRANCH   1   7
ATOM      7  C   UNL     1       2.427   0.603   8.321  1.00  0.00     0.339 C 
ATOM      8  O   UNL     1       3.652  -0.167   9.071  1.00  0.00    -0.246 OA
BRANCH   7   9
ATOM      9  O   UNL     1       2.053   1.416   8.875  1.00  0.00    -0.478 OA
ATOM     10  H   UNL     1       1.702   2.182   9.396  1.00  0.00     0.297 HD
ENDBRANCH   7   9
ENDBRANCH   1   7
BRANCH   2  11
ATOM     11  O   UNL     1       4.513   0.514   6.182  1.00  0.00    -0.504 OA
ATOM     12  H   UNL     1       5.321   1.086   6.207  1.00  0.00     0.293 HD
ENDBRANCH   2  11
BRANCH   5  13
ATOM     13  O   UNL     1       4.631  -1.730   4.675  1.00  0.00    -0.493 OA
ATOM     14  C   UNL     1       5.643  -2.418   4.260  1.00  0.00     0.278 C 
ENDBRANCH   5  13
TORSDOF 4
ENDMDL
MODEL 7
REMARK VINA RESULT:    -3.988      2.356      4.618
REMARK INTER + INTRA:          -5.150
REMARK INTER:                  -4.890
REMARK INTRA:                  -0.260
REMARK UNBOUND:                -0.462
REMARK SMILES COc1cccc(C(=O)O)c1O
REMARK SMILES IDX 7 1 11 2 6 3 5 4 3 5 4 6 8 7 9 8 10 9 12 11 2 13 1 14
REMARK H PARENT 10 10 12 12
ROOT
ATOM      1  C   UNL     1       4.539  -3.072   6.141  1.00  0.00     0.105 A 
ATOM      2  C   UNL     1       3.201  -2.788   6.170  1.00  0.00     0.172 A 
ATOM      3  C   UNL     1       5.296  -2.674   4.940  1.00  0.00     0.020 A 
ATOM      4  C   UNL     1       4.736  -1.750   4.118  1.00  0.00     0.005 A 
ATOM      5  C   UNL     1       2.649  -1.640   5.466  1.00  0.00     0.161 A 
ATOM      6  C   UNL     1       3.434  -1.205   4.326  1.00  0.00     0.050 A 
ENDROOT
BRANCH   1   7
ATOM      7  C   UNL     1       5.253  -3.688   7.357  1.00  0.00     0.339 C 
ATOM      8  O   UNL     1       4.788  -2.847   8.672  1.00  0.00    -0.246 OA
BRANCH   7   9
ATOM      9  O   UNL     1       5.852  -4.521   7.593  1.00  0.00    -0.478 OA
ATOM     10  H   UNL     1       6.416  -5.304   7.814  1.00  0.00     0.297 HD
ENDBRANCH   7   9
ENDBRANCH   1   7
BRANCH   2  11
ATOM     11  O   UNL     1       2.301  -3.582   6.901  1.00  0.00    -0.504 OA
ATOM     12  H   UNL     1       1.666  -4.142   7.415  1.00  0.00     0.293 HD
ENDBRANCH   2  11
BRANCH   5  13
ATOM     13  O   UNL     1       1.317  -1.348   5.735  1.00  0.00    -0.493 OA
ATOM     14  C   UNL     1       0.280  -0.672   6.105  1.00  0.00     0.278 C 
ENDBRANCH   5  13
TORSDOF 4
ENDMDL
MODEL 8
REMARK VINA RESULT:    -3.771      7.121      8.252
REMARK INTER + INTRA:          -4.895
REMARK INTER:                  -4.615
REMARK INTRA:                  -0.280
REMARK UNBOUND:                -0.462
REMARK SMILES COc1cccc(C(=O)O)c1O
REMARK SMILES IDX 7 1 11 2 6 3 5 4 3 5 4 6 8 7 9 8 10 9 12 11 2 13 1 14
REMARK H PARENT 10 10 12 12
ROOT
ATOM      1  C   UNL     1      -1.258  -5.661  -0.310  1.00  0.00     0.105 A 
ATOM      2  C   UNL     1      -0.692  -4.453  -0.616  1.00  0.00     0.172 A 
ATOM      3  C   UNL     1      -0.383  -6.847  -0.322  1.00  0.00     0.020 A 
ATOM      4  C   UNL     1       0.958  -6.644  -0.267  1.00  0.00     0.005 A 
ATOM      5  C   UNL     1       0.706  -4.170  -0.328  1.00  0.00     0.161 A 
ATOM      6  C   UNL     1       1.553  -5.347  -0.269  1.00  0.00     0.050 A 
ENDROOT
BRANCH   1   7
ATOM      7  C   UNL     1      -2.727  -5.767   0.134  1.00  0.00     0.339 C 
ATOM      8  O   UNL     1      -3.118  -4.364   0.865  1.00  0.00    -0.246 OA
BRANCH   7   9
ATOM      9  O   UNL     1      -3.550  -6.414   0.021  1.00  0.00    -0.478 OA
ATOM     10  H   UNL     1      -4.324  -7.023  -0.086  1.00  0.00     0.297 HD
ENDBRANCH   7   9
ENDBRANCH   1   7
BRANCH   2  11
ATOM     11  O   UNL     1      -1.444  -3.421  -1.203  1.00  0.00    -0.504 OA
ATOM     12  H   UNL     1      -1.973  -2.694  -1.618  1.00  0.00     0.293 HD
ENDBRANCH   2  11
BRANCH   5  13
ATOM     13  O   UNL     1       1.106  -2.851  -0.502  1.00  0.00    -0.493 OA
ATOM     14  C   UNL     1       1.019  -1.565  -0.588  1.00  0.00     0.278 C 
ENDBRANCH   5  13
TORSDOF 4
ENDMDL
MODEL 9
REMARK VINA RESULT:    -3.766      2.287      4.446
REMARK INTER + INTRA:          -4.889
REMARK INTER:                  -4.647
REMARK INTRA:                  -0.242
REMARK UNBOUND:                -0.462
REMARK SMILES COc1cccc(C(=O)O)c1O
REMARK SMILES IDX 7 1 11 2 6 3 5 4 3 5 4 6 8 7 9 8 10 9 12 11 2 13 1 14
REMARK H PARENT 10 10 12 12
ROOT
ATOM      1  C   UNL     1       3.642  -1.550   5.525  1.00  0.00     0.105 A 
ATOM      2  C   UNL     1       3.610  -0.893   6.724  1.00  0.00     0.172 A 
ATOM      3  C   UNL     1       2.355  -1.963   4.937  1.00  0.00     0.020 A 
ATOM      4  C   UNL     1       1.227  -1.367   5.404  1.00  0.00     0.005 A 
ATOM      5  C   UNL     1       2.480  -0.058   7.107  1.00  0.00     0.161 A 
ATOM      6  C   UNL     1       1.228  -0.422   6.472  1.00  0.00     0.050 A 
ENDROOT
BRANCH   1   7
ATOM      7  C   UNL     1       4.962  -1.760   4.762  1.00  0.00     0.339 C 
ATOM      8  O   UNL     1       4.686  -1.385   3.201  1.00  0.00    -0.246 OA
BRANCH   7   9
ATOM      9  O   UNL     1       5.974  -1.970   4.962  1.00  0.00    -0.478 OA
ATOM     10  H   UNL     1       6.926  -2.167   5.149  1.00  0.00     0.297 HD
ENDBRANCH   7   9
ENDBRANCH   1   7
BRANCH   2  11
ATOM     11  O   UNL     1       4.678  -0.977   7.633  1.00  0.00    -0.504 OA
ATOM     12  H   UNL     1       5.431  -1.036   8.274  1.00  0.00     0.293 HD
ENDBRANCH   2  11
BRANCH   5  13
ATOM     13  O   UNL     1       2.655   0.708   8.253  1.00  0.00    -0.493 OA
ATOM     14  C   UNL     1       2.479   1.130   9.461  1.00  0.00     0.278 C 
ENDBRANCH   5  13
TORSDOF 4
ENDMDL
