MODEL 1
REMARK VINA RESULT:    -4.890      0.000      0.000
REMARK INTER + INTRA:          -6.228
REMARK INTER:                  -5.748
REMARK INTRA:                  -0.480
REMARK UNBOUND:                -0.480
REMARK SMILES COc1cccc(C(=O)O)c1O
REMARK SMILES IDX 7 1 11 2 6 3 5 4 3 5 4 6 8 7 9 8 10 9 12 11 2 13 1 14
REMARK H PARENT 10 10 12 12
ROOT
ATOM      1  C   UNL     1      -6.087   2.297   0.420  1.00  0.00     0.105 A 
ATOM      2  C   UNL     1      -5.585   2.107  -0.838  1.00  0.00     0.172 A 
ATOM      3  C   UNL     1      -7.418   1.736   0.717  1.00  0.00     0.020 A 
ATOM      4  C   UNL     1      -7.899   0.777  -0.116  1.00  0.00     0.005 A 
ATOM      5  C   UNL     1      -5.933   0.936  -1.630  1.00  0.00     0.161 A 
ATOM      6  C   UNL     1      -7.212   0.343  -1.288  1.00  0.00     0.050 A 
ENDROOT
BRANCH   1   7
ATOM      7  C   UNL     1      -5.254   2.977   1.520  1.00  0.00     0.339 C 
ATOM      8  O   UNL     1      -3.715   3.050   0.991  1.00  0.00    -0.246 OA
BRANCH   7   9
ATOM      9  O   UNL     1      -5.398   3.477   2.436  1.00  0.00    -0.478 OA
ATOM     10  H   UNL     1      -5.532   3.948   3.296  1.00  0.00     0.297 HD
ENDBRANCH   7   9
ENDBRANCH   1   7
BRANCH   2  11
ATOM     11  O   UNL     1      -4.692   3.026  -1.415  1.00  0.00    -0.504 OA
ATOM     12  H   UNL     1      -4.063   3.673  -1.822  1.00  0.00     0.293 HD
ENDBRANCH   2  11
BRANCH   5  13
ATOM     13  O   UNL     1      -5.208   0.761  -2.802  1.00  0.00    -0.493 OA
ATOM     14  C   UNL     1      -4.959   0.686  -4.068  1.00  0.00     0.278 C 
ENDBRANCH   5  13
TORSDOF 4
ENDMDL
MODEL 2
REMARK VINA RESULT:    -4.881      1.750      4.655
REMARK INTER + INTRA:          -6.217
REMARK INTER:                  -5.732
REMARK INTRA:                  -0.485
REMARK UNBOUND:                -0.480
REMARK SMILES COc1cccc(C(=O)O)c1O
REMARK SMILES IDX 7 1 11 2 6 3 5 4 3 5 4 6 8 7 9 8 10 9 12 11 2 13 1 14
REMARK H PARENT 10 10 12 12
ROOT
ATOM      1  C   UNL     1      -5.678   1.609  -3.031  1.00  0.00     0.105 A 
ATOM      2  C   UNL     1      -5.579   1.626  -1.666  1.00  0.00     0.172 A 
ATOM      3  C   UNL     1      -6.355   2.745  -3.681  1.00  0.00     0.020 A 
ATOM      4  C   UNL     1      -6.509   3.886  -2.960  1.00  0.00     0.005 A 
ATOM      5  C   UNL     1      -5.505   2.875  -0.922  1.00  0.00     0.161 A 
ATOM      6  C   UNL     1      -6.110   4.008  -1.597  1.00  0.00     0.050 A 
ENDROOT
BRANCH   1   7
ATOM      7  C   UNL     1      -5.015   0.500  -3.867  1.00  0.00     0.339 C 
ATOM      8  O   UNL     1      -3.990  -0.302  -2.888  1.00  0.00    -0.246 OA
BRANCH   7   9
ATOM      9  O   UNL     1      -5.100   0.062  -4.821  1.00  0.00    -0.478 OA
ATOM     10  H   UNL     1      -5.179  -0.349  -5.718  1.00  0.00     0.297 HD
ENDBRANCH   7   9
ENDBRANCH   1   7
BRANCH   2  11
ATOM     11  O   UNL     1      -5.524   0.435  -0.922  1.00  0.00    -0.504 OA
ATOM     12  H   UNL     1      -5.485  -0.404  -0.397  1.00  0.00     0.293 HD
ENDBRANCH   2  11
BRANCH   5  13
ATOM     13  O   UNL     1      -5.209   2.757   0.430  1.00  0.00    -0.493 OA
ATOM     14  C   UNL     1      -5.364   2.831   1.711  1.00  0.00     0.278 C 
ENDBRANCH   5  13
TORSDOF 4
ENDMDL
MODEL 3
REMARK VINA RESULT:    -4.735      2.925      4.417
REMARK INTER + INTRA:          -6.045
REMARK INTER:                  -5.775
REMARK INTRA:                  -0.271
REMARK UNBOUND:                -0.480
REMARK SMILES COc1cccc(C(=O)O)c1O
REMARK SMILES IDX 7 1 11 2 6 3 5 4 3 5 4 6 8 7 9 8 10 9 12 11 2 13 1 14
REMARK H PARENT 10 10 12 12
ROOT
ATOM      1  C   UNL     1      -5.580   1.598  -2.812  1.00  0.00     0.105 A 
ATOM      2  C   UNL     1      -6.626   2.415  -3.144  1.00  0.00     0.172 A 
ATOM      3  C   UNL     1      -5.259   1.445  -1.381  1.00  0.00     0.020 A 
ATOM      4  C   UNL     1      -6.209   1.806  -0.479  1.00  0.00     0.005 A 
ATOM      5  C   UNL     1      -7.760   2.604  -2.251  1.00  0.00     0.161 A 
ATOM      6  C   UNL     1      -7.459   2.383  -0.849  1.00  0.00     0.050 A 
ENDROOT
BRANCH   1   7
ATOM      7  C   UNL     1      -4.831   0.783  -3.880  1.00  0.00     0.339 C 
ATOM      8  O   UNL     1      -4.088  -0.451  -3.119  1.00  0.00    -0.246 OA
BRANCH   7   9
ATOM      9  O   UNL     1      -4.742   0.732  -4.928  1.00  0.00    -0.478 OA
ATOM     10  H   UNL     1      -4.658   0.685  -5.914  1.00  0.00     0.297 HD
ENDBRANCH   7   9
ENDBRANCH   1   7
BRANCH   2  11
ATOM     11  O   UNL     1      -6.661   3.094  -4.374  1.00  0.00    -0.504 OA
ATOM     12  H   UNL     1      -6.687   3.572  -5.240  1.00  0.00     0.293 HD
ENDBRANCH   2  11
BRANCH   5  13
ATOM     13  O   UNL     1      -8.841   3.295  -2.784  1.00  0.00    -0.493 OA
ATOM     14  C   UNL     1     -10.034   3.512  -3.230  1.00  0.00     0.278 C 
ENDBRANCH   5  13
TORSDOF 4
ENDMDL
MODEL 4
REMARK VINA RESULT:    -4.727      2.247      3.265
REMARK INTER + INTRA:          -6.036
REMARK INTER:                  -5.767
REMARK INTRA:                  -0.269
REMARK UNBOUND:                -0.480
REMARK SMILES COc1cccc(C(=O)O)c1O
REMARK SMILES IDX 7 1 11 2 6 3 5 4 3 5 4 6 8 7 9 8 10 9 12 11 2 13 1 14
REMARK H PARENT 10 10 12 12
ROOT
ATOM      1  C   UNL     1      -5.956   2.304   0.219  1.00  0.00     0.105 A 
ATOM      2  C   UNL     1      -7.315   2.174   0.132  1.00  0.00     0.172 A 
ATOM      3  C   UNL     1      -5.179   2.202  -1.030  1.00  0.00     0.020 A 
ATOM      4  C   UNL     1      -5.846   2.354  -2.203  1.00  0.00     0.005 A 
ATOM      5  C   UNL     1      -8.045   2.571  -1.063  1.00  0.00     0.161 A 
ATOM      6  C   UNL     1      -7.258   2.538  -2.281  1.00  0.00     0.050 A 
ENDROOT
BRANCH   1   7
ATOM      7  C   UNL     1      -5.268   2.650   1.551  1.00  0.00     0.339 C 
ATOM      8  O   UNL     1      -3.789   3.234   1.198  1.00  0.00    -0.246 OA
BRANCH   7   9
ATOM      9  O   UNL     1      -5.499   2.711   2.576  1.00  0.00    -0.478 OA
ATOM     10  H   UNL     1      -5.717   2.768   3.541  1.00  0.00     0.297 HD
ENDBRANCH   7   9
ENDBRANCH   1   7
BRANCH   2  11
ATOM     11  O   UNL     1      -8.071   1.671   1.204  1.00  0.00    -0.504 OA
ATOM     12  H   UNL     1      -8.604   1.316   1.960  1.00  0.00     0.293 HD
ENDBRANCH   2  11
BRANCH   5  13
ATOM     13  O   UNL     1      -9.430   2.575  -0.953  1.00  0.00    -0.493 OA
ATOM     14  C   UNL     1     -10.657   2.920  -1.166  1.00  0.00     0.278 C 
ENDBRANCH   5  13
TORSDOF 4
ENDMDL
MODEL 5
REMARK VINA RESULT:    -4.547      1.317      1.396
REMARK INTER + INTRA:          -5.824
REMARK INTER:                  -5.404
REMARK INTRA:                  -0.420
REMARK UNBOUND:                -0.480
REMARK SMILES COc1cccc(C(=O)O)c1O
REMARK SMILES IDX 7 1 11 2 6 3 5 4 3 5 4 6 8 7 9 8 10 9 12 11 2 13 1 14
REMARK H PARENT 10 10 12 12
ROOT
ATOM      1  C   UNL     1      -5.767   2.904   0.043  1.00  0.00     0.105 A 
ATOM      2  C   UNL     1      -5.241   2.205  -1.009  1.00  0.00     0.172 A 
ATOM      3  C   UNL     1      -6.986   3.696  -0.204  1.00  0.00     0.020 A 
ATOM      4  C   UNL     1      -7.711   3.407  -1.316  1.00  0.00     0.005 A 
ATOM      5  C   UNL     1      -6.081   1.693  -2.082  1.00  0.00     0.161 A 
ATOM      6  C   UNL     1      -7.315   2.432  -2.277  1.00  0.00     0.050 A 
ENDROOT
BRANCH   1   7
ATOM      7  C   UNL     1      -5.174   2.788   1.458  1.00  0.00     0.339 C 
ATOM      8  O   UNL     1      -3.620   3.268   1.376  1.00  0.00    -0.246 OA
BRANCH   7   9
ATOM      9  O   UNL     1      -5.492   2.592   2.442  1.00  0.00    -0.478 OA
ATOM     10  H   UNL     1      -5.792   2.408   3.368  1.00  0.00     0.297 HD
ENDBRANCH   7   9
ENDBRANCH   1   7
BRANCH   2  11
ATOM     11  O   UNL     1      -3.865   1.930  -1.089  1.00  0.00    -0.504 OA
ATOM     12  H   UNL     1      -2.896   1.735  -1.145  1.00  0.00     0.293 HD
ENDBRANCH   2  11
BRANCH   5  13
ATOM     13  O   UNL     1      -5.459   0.836  -2.981  1.00  0.00    -0.493 OA
ATOM     14  C   UNL     1      -4.877   0.437  -4.064  1.00  0.00     0.278 C 
ENDBRANCH   5  13
TORSDOF 4
ENDMDL
MODEL 6
REMARK VINA RESULT:    -4.092      2.164      3.109
REMARK INTER + INTRA:          -5.289
REMARK INTER:                  -5.012
REMARK INTRA:                  -0.278
REMARK UNBOUND:                -0.480
REMARK SMILES COc1cccc(C(=O)O)c1O
REMARK SMILES IDX 7 1 11 2 6 3 5 4 3 5 4 6 8 7 9 8 10 9 12 11 2 13 1 14
REMARK H PARENT 10 10 12 12
ROOT
ATOM      1  C   UNL     1      -7.093   1.723   0.383  1.00  0.00     0.105 A 
ATOM      2  C   UNL     1      -6.631   1.067  -0.725  1.00  0.00     0.172 A 
ATOM      3  C   UNL     1      -6.109   2.444   1.211  1.00  0.00     0.020 A 
ATOM      4  C   UNL     1      -4.903   2.728   0.654  1.00  0.00     0.005 A 
ATOM      5  C   UNL     1      -5.460   1.533  -1.454  1.00  0.00     0.161 A 
ATOM      6  C   UNL     1      -4.527   2.304  -0.654  1.00  0.00     0.050 A 
ENDROOT
BRANCH   1   7
ATOM      7  C   UNL     1      -8.597   1.797   0.700  1.00  0.00     0.339 C 
ATOM      8  O   UNL     1      -9.368   2.177  -0.684  1.00  0.00    -0.246 OA
BRANCH   7   9
ATOM      9  O   UNL     1      -9.256   1.586   1.493  1.00  0.00    -0.478 OA
ATOM     10  H   UNL     1      -9.877   1.386   2.239  1.00  0.00     0.297 HD
ENDBRANCH   7   9
ENDBRANCH   1   7
BRANCH   2  11
ATOM     11  O   UNL     1      -7.280  -0.076  -1.223  1.00  0.00    -0.504 OA
ATOM     12  H   UNL     1      -7.737  -0.881  -1.573  1.00  0.00     0.293 HD
ENDBRANCH   2  11
BRANCH   5  13
ATOM     13  O   UNL     1      -5.211   0.902  -2.667  1.00  0.00    -0.493 OA
ATOM     14  C   UNL     1      -5.075   0.749  -3.943  1.00  0.00     0.278 C 
ENDBRANCH   5  13
TORSDOF 4
ENDMDL
MODEL 7
REMARK VINA RESULT:    -4.071      2.396      4.621
REMARK INTER + INTRA:          -5.265
REMARK INTER:                  -4.998
REMARK INTRA:                  -0.268
REMARK UNBOUND:                -0.480
REMARK SMILES COc1cccc(C(=O)O)c1O
REMARK SMILES IDX 7 1 11 2 6 3 5 4 3 5 4 6 8 7 9 8 10 9 12 11 2 13 1 14
REMARK H PARENT 10 10 12 12
ROOT
ATOM      1  C   UNL     1      -6.204   2.643  -3.286  1.00  0.00     0.105 A 
ATOM      2  C   UNL     1      -5.884   3.088  -2.033  1.00  0.00     0.172 A 
ATOM      3  C   UNL     1      -5.518   1.434  -3.778  1.00  0.00     0.020 A 
ATOM      4  C   UNL     1      -4.909   0.638  -2.863  1.00  0.00     0.005 A 
ATOM      5  C   UNL     1      -5.455   2.173  -0.984  1.00  0.00     0.161 A 
ATOM      6  C   UNL     1      -4.845   0.951  -1.473  1.00  0.00     0.050 A 
ENDROOT
BRANCH   1   7
ATOM      7  C   UNL     1      -7.314   3.314  -4.114  1.00  0.00     0.339 C 
ATOM      8  O   UNL     1      -8.596   3.523  -3.131  1.00  0.00    -0.246 OA
BRANCH   7   9
ATOM      9  O   UNL     1      -7.448   3.750  -5.063  1.00  0.00    -0.478 OA
ATOM     10  H   UNL     1      -7.576   4.159  -5.956  1.00  0.00     0.297 HD
ENDBRANCH   7   9
ENDBRANCH   1   7
BRANCH   2  11
ATOM     11  O   UNL     1      -5.976   4.448  -1.693  1.00  0.00    -0.504 OA
ATOM     12  H   UNL     1      -6.041   5.407  -1.454  1.00  0.00     0.293 HD
ENDBRANCH   2  11
BRANCH   5  13
ATOM     13  O   UNL     1      -5.352   2.717   0.289  1.00  0.00    -0.493 OA
ATOM     14  C   UNL     1      -5.417   2.796   1.578  1.00  0.00     0.278 C 
ENDBRANCH   5  13
TORSDOF 4
ENDMDL
MODEL 8
REMARK VINA RESULT:    -4.062      2.730      4.229
REMARK INTER + INTRA:          -5.255
REMARK INTER:                  -4.821
REMARK INTRA:                  -0.433
REMARK UNBOUND:                -0.480
REMARK SMILES COc1cccc(C(=O)O)c1O
REMARK SMILES IDX 7 1 11 2 6 3 5 4 3 5 4 6 8 7 9 8 10 9 12 11 2 13 1 14
REMARK H PARENT 10 10 12 12
ROOT
ATOM      1  C   UNL     1      -5.254   1.579  -2.170  1.00  0.00     0.105 A 
ATOM      2  C   UNL     1      -6.376   2.292  -2.489  1.00  0.00     0.172 A 
ATOM      3  C   UNL     1      -4.675   1.780  -0.829  1.00  0.00     0.020 A 
ATOM      4  C   UNL     1      -5.462   2.352   0.119  1.00  0.00     0.005 A 
ATOM      5  C   UNL     1      -7.340   2.694  -1.474  1.00  0.00     0.161 A 
ATOM      6  C   UNL     1      -6.782   2.822  -0.141  1.00  0.00     0.050 A 
ENDROOT
BRANCH   1   7
ATOM      7  C   UNL     1      -4.673   0.527  -3.130  1.00  0.00     0.339 C 
ATOM      8  O   UNL     1      -4.736   1.153  -4.633  1.00  0.00    -0.246 OA
BRANCH   7   9
ATOM      9  O   UNL     1      -4.176  -0.401  -3.092  1.00  0.00    -0.478 OA
ATOM     10  H   UNL     1      -3.709  -1.273  -3.056  1.00  0.00     0.297 HD
ENDBRANCH   7   9
ENDBRANCH   1   7
BRANCH   2  11
ATOM     11  O   UNL     1      -6.662   2.650  -3.818  1.00  0.00    -0.504 OA
ATOM     12  H   UNL     1      -6.864   2.902  -4.754  1.00  0.00     0.293 HD
ENDBRANCH   2  11
BRANCH   5  13
ATOM     13  O   UNL     1      -8.528   3.236  -1.948  1.00  0.00    -0.493 OA
ATOM     14  C   UNL     1      -9.771   3.301  -2.296  1.00  0.00     0.278 C 
ENDBRANCH   5  13
TORSDOF 4
ENDMDL
MODEL 9
REMARK VINA RESULT:    -3.599      2.205      2.949
REMARK INTER + INTRA:          -4.710
REMARK INTER:                  -4.551
REMARK INTRA:                  -0.160
REMARK UNBOUND:                -0.480
REMARK SMILES COc1cccc(C(=O)O)c1O
REMARK SMILES IDX 7 1 11 2 6 3 5 4 3 5 4 6 8 7 9 8 10 9 12 11 2 13 1 14
REMARK H PARENT 10 10 12 12
ROOT
ATOM      1  C   UNL     1      -5.611   2.107  -1.110  1.00  0.00     0.105 A 
ATOM      2  C   UNL     1      -6.478   2.701  -1.986  1.00  0.00     0.172 A 
ATOM      3  C   UNL     1      -4.947   0.864  -1.543  1.00  0.00     0.020 A 
ATOM      4  C   UNL     1      -4.938   0.582  -2.871  1.00  0.00     0.005 A 
ATOM      5  C   UNL     1      -6.310   2.581  -3.427  1.00  0.00     0.161 A 
ATOM      6  C   UNL     1      -5.594   1.390  -3.846  1.00  0.00     0.050 A 
ENDROOT
BRANCH   1   7
ATOM      7  C   UNL     1      -5.256   2.765   0.234  1.00  0.00     0.339 C 
ATOM      8  O   UNL     1      -6.352   2.258   1.328  1.00  0.00    -0.246 OA
BRANCH   7   9
ATOM      9  O   UNL     1      -4.487   3.344   0.661  1.00  0.00    -0.478 OA
ATOM     10  H   UNL     1      -3.764   3.889   1.062  1.00  0.00     0.297 HD
ENDBRANCH   7   9
ENDBRANCH   1   7
BRANCH   2  11
ATOM     11  O   UNL     1      -7.562   3.473  -1.532  1.00  0.00    -0.504 OA
ATOM     12  H   UNL     1      -8.325   4.017  -1.213  1.00  0.00     0.293 HD
ENDBRANCH   2  11
BRANCH   5  13
ATOM     13  O   UNL     1      -7.134   3.387  -4.202  1.00  0.00    -0.493 OA
ATOM     14  C   UNL     1      -8.149   3.739  -4.921  1.00  0.00     0.278 C 
ENDBRANCH   5  13
TORSDOF 4
ENDMDL
