MODEL 1
REMARK VINA RESULT:    -4.808      0.000      0.000
REMARK INTER + INTRA:          -6.133
REMARK INTER:                  -5.651
REMARK INTRA:                  -0.482
REMARK UNBOUND:                -0.482
REMARK SMILES COc1cccc(C(=O)O)c1O
REMARK SMILES IDX 7 1 11 2 6 3 5 4 3 5 4 6 8 7 9 8 10 9 12 11 2 13 1 14
REMARK H PARENT 10 10 12 12
ROOT
ATOM      1  C   UNL     1      -5.178  -5.548   2.812  1.00  0.00     0.105 A 
ATOM      2  C   UNL     1      -4.508  -4.814   3.752  1.00  0.00     0.172 A 
ATOM      3  C   UNL     1      -6.627  -5.741   3.001  1.00  0.00     0.020 A 
ATOM      4  C   UNL     1      -7.269  -4.904   3.856  1.00  0.00     0.005 A 
ATOM      5  C   UNL     1      -5.162  -3.749   4.498  1.00  0.00     0.161 A 
ATOM      6  C   UNL     1      -6.600  -3.904   4.621  1.00  0.00     0.050 A 
ENDROOT
BRANCH   1   7
ATOM      7  C   UNL     1      -4.470  -6.065   1.547  1.00  0.00     0.339 C 
ATOM      8  O   UNL     1      -3.038  -5.296   1.441  1.00  0.00    -0.246 OA
BRANCH   7   9
ATOM      9  O   UNL     1      -4.591  -6.812   0.814  1.00  0.00    -0.478 OA
ATOM     10  H   UNL     1      -4.704  -7.514   0.125  1.00  0.00     0.297 HD
ENDBRANCH   7   9
ENDBRANCH   1   7
BRANCH   2  11
ATOM     11  O   UNL     1      -3.148  -5.042   4.025  1.00  0.00    -0.504 OA
ATOM     12  H   UNL     1      -2.190  -5.202   4.218  1.00  0.00     0.293 HD
ENDBRANCH   2  11
BRANCH   5  13
ATOM     13  O   UNL     1      -4.329  -2.953   5.274  1.00  0.00    -0.493 OA
ATOM     14  C   UNL     1      -3.944  -1.953   5.996  1.00  0.00     0.278 C 
ENDBRANCH   5  13
TORSDOF 4
ENDMDL
MODEL 2
REMARK VINA RESULT:    -4.720      1.780      4.632
REMARK INTER + INTRA:          -6.031
REMARK INTER:                  -5.574
REMARK INTRA:                  -0.457
REMARK UNBOUND:                -0.482
REMARK SMILES COc1cccc(C(=O)O)c1O
REMARK SMILES IDX 7 1 11 2 6 3 5 4 3 5 4 6 8 7 9 8 10 9 12 11 2 13 1 14
REMARK H PARENT 10 10 12 12
ROOT
ATOM      1  C   UNL     1      -4.317  -3.459   5.525  1.00  0.00     0.105 A 
ATOM      2  C   UNL     1      -4.519  -4.002   4.286  1.00  0.00     0.172 A 
ATOM      3  C   UNL     1      -4.060  -4.385   6.644  1.00  0.00     0.020 A 
ATOM      4  C   UNL     1      -3.677  -5.651   6.339  1.00  0.00     0.005 A 
ATOM      5  C   UNL     1      -3.899  -5.259   3.893  1.00  0.00     0.161 A 
ATOM      6  C   UNL     1      -3.581  -6.139   5.003  1.00  0.00     0.050 A 
ENDROOT
BRANCH   1   7
ATOM      7  C   UNL     1      -4.255  -1.936   5.731  1.00  0.00     0.339 C 
ATOM      8  O   UNL     1      -4.098  -1.252   4.261  1.00  0.00    -0.246 OA
BRANCH   7   9
ATOM      9  O   UNL     1      -4.378  -1.229   6.502  1.00  0.00    -0.478 OA
ATOM     10  H   UNL     1      -4.493  -0.564   7.226  1.00  0.00     0.297 HD
ENDBRANCH   7   9
ENDBRANCH   1   7
BRANCH   2  11
ATOM     11  O   UNL     1      -5.319  -3.358   3.327  1.00  0.00    -0.504 OA
ATOM     12  H   UNL     1      -5.883  -2.905   2.651  1.00  0.00     0.293 HD
ENDBRANCH   2  11
BRANCH   5  13
ATOM     13  O   UNL     1      -4.021  -5.601   2.552  1.00  0.00    -0.493 OA
ATOM     14  C   UNL     1      -4.528  -6.107   1.476  1.00  0.00     0.278 C 
ENDBRANCH   5  13
TORSDOF 4
ENDMDL
MODEL 3
REMARK VINA RESULT:    -4.699      2.885      4.357
REMARK INTER + INTRA:          -6.005
REMARK INTER:                  -5.740
REMARK INTRA:                  -0.265
REMARK UNBOUND:                -0.482
REMARK SMILES COc1cccc(C(=O)O)c1O
REMARK SMILES IDX 7 1 11 2 6 3 5 4 3 5 4 6 8 7 9 8 10 9 12 11 2 13 1 14
REMARK H PARENT 10 10 12 12
ROOT
ATOM      1  C   UNL     1      -4.212  -3.476   5.205  1.00  0.00     0.105 A 
ATOM      2  C   UNL     1      -4.570  -4.488   6.053  1.00  0.00     0.172 A 
ATOM      3  C   UNL     1      -4.280  -3.742   3.756  1.00  0.00     0.020 A 
ATOM      4  C   UNL     1      -5.020  -4.803   3.343  1.00  0.00     0.005 A 
ATOM      5  C   UNL     1      -5.554  -5.491   5.673  1.00  0.00     0.161 A 
ATOM      6  C   UNL     1      -5.670  -5.700   4.241  1.00  0.00     0.050 A 
ENDROOT
BRANCH   1   7
ATOM      7  C   UNL     1      -3.854  -2.077   5.735  1.00  0.00     0.339 C 
ATOM      8  O   UNL     1      -4.159  -1.011   4.541  1.00  0.00    -0.246 OA
BRANCH   7   9
ATOM      9  O   UNL     1      -3.575  -1.613   6.638  1.00  0.00    -0.478 OA
ATOM     10  H   UNL     1      -3.313  -1.176   7.487  1.00  0.00     0.297 HD
ENDBRANCH   7   9
ENDBRANCH   1   7
BRANCH   2  11
ATOM     11  O   UNL     1      -4.017  -4.593   7.340  1.00  0.00    -0.504 OA
ATOM     12  H   UNL     1      -3.627  -4.667   8.248  1.00  0.00     0.293 HD
ENDBRANCH   2  11
BRANCH   5  13
ATOM     13  O   UNL     1      -5.974  -6.342   6.687  1.00  0.00    -0.493 OA
ATOM     14  C   UNL     1      -6.713  -6.821   7.633  1.00  0.00     0.278 C 
ENDBRANCH   5  13
TORSDOF 4
ENDMDL
MODEL 4
REMARK VINA RESULT:    -4.694      2.077      3.046
REMARK INTER + INTRA:          -6.000
REMARK INTER:                  -5.729
REMARK INTRA:                  -0.271
REMARK UNBOUND:                -0.482
REMARK SMILES COc1cccc(C(=O)O)c1O
REMARK SMILES IDX 7 1 11 2 6 3 5 4 3 5 4 6 8 7 9 8 10 9 12 11 2 13 1 14
REMARK H PARENT 10 10 12 12
ROOT
ATOM      1  C   UNL     1      -4.947  -5.218   2.906  1.00  0.00     0.105 A 
ATOM      2  C   UNL     1      -5.997  -5.700   3.639  1.00  0.00     0.172 A 
ATOM      3  C   UNL     1      -4.154  -4.121   3.489  1.00  0.00     0.020 A 
ATOM      4  C   UNL     1      -4.261  -3.905   4.825  1.00  0.00     0.005 A 
ATOM      5  C   UNL     1      -5.987  -5.675   5.095  1.00  0.00     0.161 A 
ATOM      6  C   UNL     1      -5.148  -4.639   5.667  1.00  0.00     0.050 A 
ENDROOT
BRANCH   1   7
ATOM      7  C   UNL     1      -4.541  -5.863   1.570  1.00  0.00     0.339 C 
ATOM      8  O   UNL     1      -2.995  -5.443   1.276  1.00  0.00    -0.246 OA
BRANCH   7   9
ATOM      9  O   UNL     1      -4.920  -6.550   0.867  1.00  0.00    -0.478 OA
ATOM     10  H   UNL     1      -5.278  -7.195   0.206  1.00  0.00     0.297 HD
ENDBRANCH   7   9
ENDBRANCH   1   7
BRANCH   2  11
ATOM     11  O   UNL     1      -7.125  -6.264   3.019  1.00  0.00    -0.504 OA
ATOM     12  H   UNL     1      -7.920  -6.660   2.582  1.00  0.00     0.293 HD
ENDBRANCH   2  11
BRANCH   5  13
ATOM     13  O   UNL     1      -7.015  -6.370   5.719  1.00  0.00    -0.493 OA
ATOM     14  C   UNL     1      -7.604  -7.284   6.418  1.00  0.00     0.278 C 
ENDBRANCH   5  13
TORSDOF 4
ENDMDL
MODEL 5
REMARK VINA RESULT:    -3.951      7.304      7.806
REMARK INTER + INTRA:          -5.126
REMARK INTER:                  -4.888
REMARK INTRA:                  -0.238
REMARK UNBOUND:                -0.482
REMARK SMILES COc1cccc(C(=O)O)c1O
REMARK SMILES IDX 7 1 11 2 6 3 5 4 3 5 4 6 8 7 9 8 10 9 12 11 2 13 1 14
REMARK H PARENT 10 10 12 12
ROOT
ATOM      1  C   UNL     1      -5.303   1.086  -1.327  1.00  0.00     0.105 A 
ATOM      2  C   UNL     1      -4.120   0.585  -0.859  1.00  0.00     0.172 A 
ATOM      3  C   UNL     1      -5.752   2.387  -0.797  1.00  0.00     0.020 A 
ATOM      4  C   UNL     1      -4.829   3.170  -0.181  1.00  0.00     0.005 A 
ATOM      5  C   UNL     1      -3.040   1.459  -0.421  1.00  0.00     0.161 A 
ATOM      6  C   UNL     1      -3.478   2.766   0.033  1.00  0.00     0.050 A 
ENDROOT
BRANCH   1   7
ATOM      7  C   UNL     1      -6.089   0.375  -2.442  1.00  0.00     0.339 C 
ATOM      8  O   UNL     1      -5.005  -0.385  -3.392  1.00  0.00    -0.246 OA
BRANCH   7   9
ATOM      9  O   UNL     1      -7.086   0.161  -2.704  1.00  0.00    -0.478 OA
ATOM     10  H   UNL     1      -8.024  -0.039  -2.950  1.00  0.00     0.297 HD
ENDBRANCH   7   9
ENDBRANCH   1   7
BRANCH   2  11
ATOM     11  O   UNL     1      -3.883  -0.799  -0.800  1.00  0.00    -0.504 OA
ATOM     12  H   UNL     1      -3.717  -1.774  -0.759  1.00  0.00     0.293 HD
ENDBRANCH   2  11
BRANCH   5  13
ATOM     13  O   UNL     1      -1.826   0.837  -0.158  1.00  0.00    -0.493 OA
ATOM     14  C   UNL     1      -0.949  -0.107  -0.066  1.00  0.00     0.278 C 
ENDBRANCH   5  13
TORSDOF 4
ENDMDL
MODEL 6
REMARK VINA RESULT:    -3.928      2.256      4.682
REMARK INTER + INTRA:          -5.099
REMARK INTER:                  -4.782
REMARK INTRA:                  -0.317
REMARK UNBOUND:                -0.482
REMARK SMILES COc1cccc(C(=O)O)c1O
REMARK SMILES IDX 7 1 11 2 6 3 5 4 3 5 4 6 8 7 9 8 10 9 12 11 2 13 1 14
REMARK H PARENT 10 10 12 12
ROOT
ATOM      1  C   UNL     1      -4.064  -4.336   6.260  1.00  0.00     0.105 A 
ATOM      2  C   UNL     1      -4.007  -5.102   5.129  1.00  0.00     0.172 A 
ATOM      3  C   UNL     1      -4.036  -2.871   6.095  1.00  0.00     0.020 A 
ATOM      4  C   UNL     1      -4.324  -2.369   4.867  1.00  0.00     0.005 A 
ATOM      5  C   UNL     1      -4.543  -4.632   3.860  1.00  0.00     0.161 A 
ATOM      6  C   UNL     1      -4.581  -3.187   3.728  1.00  0.00     0.050 A 
ENDROOT
BRANCH   1   7
ATOM      7  C   UNL     1      -4.256  -4.970   7.649  1.00  0.00     0.339 C 
ATOM      8  O   UNL     1      -5.396  -6.125   7.503  1.00  0.00    -0.246 OA
BRANCH   7   9
ATOM      9  O   UNL     1      -3.816  -4.947   8.605  1.00  0.00    -0.478 OA
ATOM     10  H   UNL     1      -3.402  -4.925   9.504  1.00  0.00     0.297 HD
ENDBRANCH   7   9
ENDBRANCH   1   7
BRANCH   2  11
ATOM     11  O   UNL     1      -3.447  -6.391   5.146  1.00  0.00    -0.504 OA
ATOM     12  H   UNL     1      -3.052  -7.299   5.158  1.00  0.00     0.293 HD
ENDBRANCH   2  11
BRANCH   5  13
ATOM     13  O   UNL     1      -4.604  -5.574   2.841  1.00  0.00    -0.493 OA
ATOM     14  C   UNL     1      -4.666  -6.055   1.644  1.00  0.00     0.278 C 
ENDBRANCH   5  13
TORSDOF 4
ENDMDL
MODEL 7
REMARK VINA RESULT:    -3.907      2.167      3.108
REMARK INTER + INTRA:          -5.074
REMARK INTER:                  -4.820
REMARK INTRA:                  -0.255
REMARK UNBOUND:                -0.482
REMARK SMILES COc1cccc(C(=O)O)c1O
REMARK SMILES IDX 7 1 11 2 6 3 5 4 3 5 4 6 8 7 9 8 10 9 12 11 2 13 1 14
REMARK H PARENT 10 10 12 12
ROOT
ATOM      1  C   UNL     1      -6.274  -5.503   3.169  1.00  0.00     0.105 A 
ATOM      2  C   UNL     1      -6.015  -4.352   3.862  1.00  0.00     0.172 A 
ATOM      3  C   UNL     1      -5.292  -5.924   2.153  1.00  0.00     0.020 A 
ATOM      4  C   UNL     1      -4.049  -5.381   2.213  1.00  0.00     0.005 A 
ATOM      5  C   UNL     1      -4.654  -3.907   4.123  1.00  0.00     0.161 A 
ATOM      6  C   UNL     1      -3.677  -4.382   3.161  1.00  0.00     0.050 A 
ENDROOT
BRANCH   1   7
ATOM      7  C   UNL     1      -7.488  -6.385   3.508  1.00  0.00     0.339 C 
ATOM      8  O   UNL     1      -7.515  -6.577   5.125  1.00  0.00    -0.246 OA
BRANCH   7   9
ATOM      9  O   UNL     1      -8.329  -6.802   3.030  1.00  0.00    -0.478 OA
ATOM     10  H   UNL     1      -9.120  -7.194   2.582  1.00  0.00     0.297 HD
ENDBRANCH   7   9
ENDBRANCH   1   7
BRANCH   2  11
ATOM     11  O   UNL     1      -7.055  -3.557   4.373  1.00  0.00    -0.504 OA
ATOM     12  H   UNL     1      -7.788  -2.996   4.732  1.00  0.00     0.293 HD
ENDBRANCH   2  11
BRANCH   5  13
ATOM     13  O   UNL     1      -4.524  -2.838   5.000  1.00  0.00    -0.493 OA
ATOM     14  C   UNL     1      -4.036  -2.105   5.946  1.00  0.00     0.278 C 
ENDBRANCH   5  13
TORSDOF 4
ENDMDL
MODEL 8
REMARK VINA RESULT:    -3.738      2.287      4.398
REMARK INTER + INTRA:          -4.876
REMARK INTER:                  -4.458
REMARK INTRA:                  -0.419
REMARK UNBOUND:                -0.482
REMARK SMILES COc1cccc(C(=O)O)c1O
REMARK SMILES IDX 7 1 11 2 6 3 5 4 3 5 4 6 8 7 9 8 10 9 12 11 2 13 1 14
REMARK H PARENT 10 10 12 12
ROOT
ATOM      1  C   UNL     1      -4.593  -3.942   4.074  1.00  0.00     0.105 A 
ATOM      2  C   UNL     1      -5.679  -4.744   4.298  1.00  0.00     0.172 A 
ATOM      3  C   UNL     1      -3.618  -4.380   3.059  1.00  0.00     0.020 A 
ATOM      4  C   UNL     1      -4.017  -5.322   2.165  1.00  0.00     0.005 A 
ATOM      5  C   UNL     1      -6.243  -5.577   3.245  1.00  0.00     0.161 A 
ATOM      6  C   UNL     1      -5.298  -5.947   2.208  1.00  0.00     0.050 A 
ENDROOT
BRANCH   1   7
ATOM      7  C   UNL     1      -4.444  -2.582   4.777  1.00  0.00     0.339 C 
ATOM      8  O   UNL     1      -4.378  -2.867   6.380  1.00  0.00    -0.246 OA
BRANCH   7   9
ATOM      9  O   UNL     1      -4.278  -1.572   4.533  1.00  0.00    -0.478 OA
ATOM     10  H   UNL     1      -4.123  -0.621   4.302  1.00  0.00     0.297 HD
ENDBRANCH   7   9
ENDBRANCH   1   7
BRANCH   2  11
ATOM     11  O   UNL     1      -6.314  -4.782   5.551  1.00  0.00    -0.504 OA
ATOM     12  H   UNL     1      -6.761  -4.809   6.434  1.00  0.00     0.293 HD
ENDBRANCH   2  11
BRANCH   5  13
ATOM     13  O   UNL     1      -7.455  -6.187   3.541  1.00  0.00    -0.493 OA
ATOM     14  C   UNL     1      -8.371  -7.099   3.577  1.00  0.00     0.278 C 
ENDBRANCH   5  13
TORSDOF 4
ENDMDL
MODEL 9
REMARK VINA RESULT:    -3.652      7.516      8.432
REMARK INTER + INTRA:          -4.774
REMARK INTER:                  -4.437
REMARK INTRA:                  -0.337
REMARK UNBOUND:                -0.482
REMARK SMILES COc1cccc(C(=O)O)c1O
REMARK SMILES IDX 7 1 11 2 6 3 5 4 3 5 4 6 8 7 9 8 10 9 12 11 2 13 1 14
REMARK H PARENT 10 10 12 12
ROOT
ATOM      1  C   UNL     1      -4.682   2.231  -0.923  1.00  0.00     0.105 A 
ATOM      2  C   UNL     1      -3.497   1.559  -0.795  1.00  0.00     0.172 A 
ATOM      3  C   UNL     1      -5.666   1.703  -1.886  1.00  0.00     0.020 A 
ATOM      4  C   UNL     1      -5.513   0.420  -2.305  1.00  0.00     0.005 A 
ATOM      5  C   UNL     1      -3.405   0.124  -1.020  1.00  0.00     0.161 A 
ATOM      6  C   UNL     1      -4.419  -0.406  -1.913  1.00  0.00     0.050 A 
ENDROOT
BRANCH   1   7
ATOM      7  C   UNL     1      -5.024   3.431  -0.023  1.00  0.00     0.339 C 
ATOM      8  O   UNL     1      -4.144   3.283   1.340  1.00  0.00    -0.246 OA
BRANCH   7   9
ATOM      9  O   UNL     1      -5.562   4.335  -0.069  1.00  0.00    -0.478 OA
ATOM     10  H   UNL     1      -6.067   5.185  -0.113  1.00  0.00     0.297 HD
ENDBRANCH   7   9
ENDBRANCH   1   7
BRANCH   2  11
ATOM     11  O   UNL     1      -2.318   2.223  -0.416  1.00  0.00    -0.504 OA
ATOM     12  H   UNL     1      -1.486   2.690  -0.150  1.00  0.00     0.293 HD
ENDBRANCH   2  11
BRANCH   5  13
ATOM     13  O   UNL     1      -2.199  -0.468  -0.666  1.00  0.00    -0.493 OA
ATOM     14  C   UNL     1      -1.126  -0.710   0.011  1.00  0.00     0.278 C 
ENDBRANCH   5  13
TORSDOF 4
ENDMDL
