MODEL 1
REMARK VINA RESULT:    -4.815      0.000      0.000
REMARK INTER + INTRA:          -6.141
REMARK INTER:                  -5.659
REMARK INTRA:                  -0.482
REMARK UNBOUND:                -0.482
REMARK SMILES COc1cccc(C(=O)O)c1O
REMARK SMILES IDX 7 1 11 2 6 3 5 4 3 5 4 6 8 7 9 8 10 9 12 11 2 13 1 14
REMARK H PARENT 10 10 12 12
ROOT
ATOM      1  C   UNL     1      -5.053  -2.702   1.620  1.00  0.00     0.105 A 
ATOM      2  C   UNL     1      -4.788  -1.582   2.359  1.00  0.00     0.172 A 
ATOM      3  C   UNL     1      -6.305  -2.725   0.840  1.00  0.00     0.020 A 
ATOM      4  C   UNL     1      -6.922  -1.540   0.603  1.00  0.00     0.005 A 
ATOM      5  C   UNL     1      -5.266  -0.268   1.953  1.00  0.00     0.161 A 
ATOM      6  C   UNL     1      -6.457  -0.297   1.126  1.00  0.00     0.050 A 
ENDROOT
BRANCH   1   7
ATOM      7  C   UNL     1      -4.038  -3.854   1.519  1.00  0.00     0.339 C 
ATOM      8  O   UNL     1      -2.619  -3.305   2.100  1.00  0.00    -0.246 OA
BRANCH   7   9
ATOM      9  O   UNL     1      -4.017  -4.881   1.286  1.00  0.00    -0.478 OA
ATOM     10  H   UNL     1      -3.998  -5.846   1.067  1.00  0.00     0.297 HD
ENDBRANCH   7   9
ENDBRANCH   1   7
BRANCH   2  11
ATOM     11  O   UNL     1      -4.020  -1.647   3.535  1.00  0.00    -0.504 OA
ATOM     12  H   UNL     1      -3.480  -1.692   4.363  1.00  0.00     0.293 HD
ENDBRANCH   2  11
BRANCH   5  13
ATOM     13  O   UNL     1      -4.765   0.808   2.675  1.00  0.00    -0.493 OA
ATOM     14  C   UNL     1      -4.502   2.033   2.989  1.00  0.00     0.278 C 
ENDBRANCH   5  13
TORSDOF 4
ENDMDL
MODEL 2
REMARK VINA RESULT:    -4.802      2.284      3.371
REMARK INTER + INTRA:          -6.126
REMARK INTER:                  -5.865
REMARK INTRA:                  -0.261
REMARK UNBOUND:                -0.482
REMARK SMILES COc1cccc(C(=O)O)c1O
REMARK SMILES IDX 7 1 11 2 6 3 5 4 3 5 4 6 8 7 9 8 10 9 12 11 2 13 1 14
REMARK H PARENT 10 10 12 12
ROOT
ATOM      1  C   UNL     1      -5.048  -2.523   1.845  1.00  0.00     0.105 A 
ATOM      2  C   UNL     1      -6.381  -2.521   1.539  1.00  0.00     0.172 A 
ATOM      3  C   UNL     1      -4.555  -1.477   2.760  1.00  0.00     0.020 A 
ATOM      4  C   UNL     1      -5.469  -0.821   3.520  1.00  0.00     0.005 A 
ATOM      5  C   UNL     1      -7.379  -2.026   2.477  1.00  0.00     0.161 A 
ATOM      6  C   UNL     1      -6.874  -1.048   3.423  1.00  0.00     0.050 A 
ENDROOT
BRANCH   1   7
ATOM      7  C   UNL     1      -4.112  -3.636   1.341  1.00  0.00     0.339 C 
ATOM      8  O   UNL     1      -2.694  -3.472   2.125  1.00  0.00    -0.246 OA
BRANCH   7   9
ATOM      9  O   UNL     1      -4.150  -4.497   0.736  1.00  0.00    -0.478 OA
ATOM     10  H   UNL     1      -4.186  -5.307   0.167  1.00  0.00     0.297 HD
ENDBRANCH   7   9
ENDBRANCH   1   7
BRANCH   2  11
ATOM     11  O   UNL     1      -6.851  -3.019   0.312  1.00  0.00    -0.504 OA
ATOM     12  H   UNL     1      -7.182  -3.370  -0.553  1.00  0.00     0.293 HD
ENDBRANCH   2  11
BRANCH   5  13
ATOM     13  O   UNL     1      -8.704  -2.260   2.131  1.00  0.00    -0.493 OA
ATOM     14  C   UNL     1      -9.886  -2.781   2.163  1.00  0.00     0.278 C 
ENDBRANCH   5  13
TORSDOF 4
ENDMDL
MODEL 3
REMARK VINA RESULT:    -4.799      3.055      4.392
REMARK INTER + INTRA:          -6.123
REMARK INTER:                  -5.867
REMARK INTRA:                  -0.256
REMARK UNBOUND:                -0.482
REMARK SMILES COc1cccc(C(=O)O)c1O
REMARK SMILES IDX 7 1 11 2 6 3 5 4 3 5 4 6 8 7 9 8 10 9 12 11 2 13 1 14
REMARK H PARENT 10 10 12 12
ROOT
ATOM      1  C   UNL     1      -5.227   0.513   2.899  1.00  0.00     0.105 A 
ATOM      2  C   UNL     1      -6.194   0.185   3.809  1.00  0.00     0.172 A 
ATOM      3  C   UNL     1      -5.003  -0.414   1.775  1.00  0.00     0.020 A 
ATOM      4  C   UNL     1      -5.979  -1.317   1.498  1.00  0.00     0.005 A 
ATOM      5  C   UNL     1      -7.365  -0.593   3.431  1.00  0.00     0.161 A 
ATOM      6  C   UNL     1      -7.164  -1.452   2.279  1.00  0.00     0.050 A 
ENDROOT
BRANCH   1   7
ATOM      7  C   UNL     1      -4.471   1.851   2.982  1.00  0.00     0.339 C 
ATOM      8  O   UNL     1      -3.597   2.002   1.616  1.00  0.00    -0.246 OA
BRANCH   7   9
ATOM      9  O   UNL     1      -4.431   2.708   3.593  1.00  0.00    -0.478 OA
ATOM     10  H   UNL     1      -4.393   3.514   4.166  1.00  0.00     0.297 HD
ENDBRANCH   7   9
ENDBRANCH   1   7
BRANCH   2  11
ATOM     11  O   UNL     1      -6.111   0.603   5.148  1.00  0.00    -0.504 OA
ATOM     12  H   UNL     1      -6.052   0.898   6.092  1.00  0.00     0.293 HD
ENDBRANCH   2  11
BRANCH   5  13
ATOM     13  O   UNL     1      -8.364  -0.690   4.392  1.00  0.00    -0.493 OA
ATOM     14  C   UNL     1      -9.496  -0.489   4.981  1.00  0.00     0.278 C 
ENDBRANCH   5  13
TORSDOF 4
ENDMDL
MODEL 4
REMARK VINA RESULT:    -4.571      2.840      4.455
REMARK INTER + INTRA:          -5.855
REMARK INTER:                  -5.584
REMARK INTRA:                  -0.271
REMARK UNBOUND:                -0.482
REMARK SMILES COc1cccc(C(=O)O)c1O
REMARK SMILES IDX 7 1 11 2 6 3 5 4 3 5 4 6 8 7 9 8 10 9 12 11 2 13 1 14
REMARK H PARENT 10 10 12 12
ROOT
ATOM      1  C   UNL     1      -4.696   0.429   2.822  1.00  0.00     0.105 A 
ATOM      2  C   UNL     1      -5.810  -0.063   3.444  1.00  0.00     0.172 A 
ATOM      3  C   UNL     1      -3.783  -0.540   2.189  1.00  0.00     0.020 A 
ATOM      4  C   UNL     1      -4.260  -1.786   1.938  1.00  0.00     0.005 A 
ATOM      5  C   UNL     1      -6.453  -1.292   3.001  1.00  0.00     0.161 A 
ATOM      6  C   UNL     1      -5.567  -2.214   2.315  1.00  0.00     0.050 A 
ENDROOT
BRANCH   1   7
ATOM      7  C   UNL     1      -4.455   1.943   2.691  1.00  0.00     0.339 C 
ATOM      8  O   UNL     1      -3.357   2.160   1.507  1.00  0.00    -0.246 OA
BRANCH   7   9
ATOM      9  O   UNL     1      -4.848   2.848   3.058  1.00  0.00    -0.478 OA
ATOM     10  H   UNL     1      -5.218   3.699   3.404  1.00  0.00     0.297 HD
ENDBRANCH   7   9
ENDBRANCH   1   7
BRANCH   2  11
ATOM     11  O   UNL     1      -6.399   0.609   4.529  1.00  0.00    -0.504 OA
ATOM     12  H   UNL     1      -6.814   1.083   5.293  1.00  0.00     0.293 HD
ENDBRANCH   2  11
BRANCH   5  13
ATOM     13  O   UNL     1      -7.681  -1.577   3.584  1.00  0.00    -0.493 OA
ATOM     14  C   UNL     1      -8.958  -1.753   3.686  1.00  0.00     0.278 C 
ENDBRANCH   5  13
TORSDOF 4
ENDMDL
MODEL 5
REMARK VINA RESULT:    -4.490      1.552      4.320
REMARK INTER + INTRA:          -5.759
REMARK INTER:                  -5.346
REMARK INTRA:                  -0.413
REMARK UNBOUND:                -0.482
REMARK SMILES COc1cccc(C(=O)O)c1O
REMARK SMILES IDX 7 1 11 2 6 3 5 4 3 5 4 6 8 7 9 8 10 9 12 11 2 13 1 14
REMARK H PARENT 10 10 12 12
ROOT
ATOM      1  C   UNL     1      -5.245   0.626   2.379  1.00  0.00     0.105 A 
ATOM      2  C   UNL     1      -4.646  -0.553   2.033  1.00  0.00     0.172 A 
ATOM      3  C   UNL     1      -6.718   0.654   2.433  1.00  0.00     0.020 A 
ATOM      4  C   UNL     1      -7.370  -0.535   2.503  1.00  0.00     0.005 A 
ATOM      5  C   UNL     1      -5.259  -1.839   2.335  1.00  0.00     0.161 A 
ATOM      6  C   UNL     1      -6.704  -1.795   2.458  1.00  0.00     0.050 A 
ENDROOT
BRANCH   1   7
ATOM      7  C   UNL     1      -4.416   1.852   2.800  1.00  0.00     0.339 C 
ATOM      8  O   UNL     1      -3.405   2.202   1.571  1.00  0.00    -0.246 OA
BRANCH   7   9
ATOM      9  O   UNL     1      -4.380   2.563   3.576  1.00  0.00    -0.478 OA
ATOM     10  H   UNL     1      -4.346   3.232   4.306  1.00  0.00     0.297 HD
ENDBRANCH   7   9
ENDBRANCH   1   7
BRANCH   2  11
ATOM     11  O   UNL     1      -3.397  -0.578   1.389  1.00  0.00    -0.504 OA
ATOM     12  H   UNL     1      -2.517  -0.596   0.935  1.00  0.00     0.293 HD
ENDBRANCH   2  11
BRANCH   5  13
ATOM     13  O   UNL     1      -4.464  -2.956   2.112  1.00  0.00    -0.493 OA
ATOM     14  C   UNL     1      -3.931  -3.953   1.487  1.00  0.00     0.278 C 
ENDBRANCH   5  13
TORSDOF 4
ENDMDL
MODEL 6
REMARK VINA RESULT:    -4.055      2.170      3.116
REMARK INTER + INTRA:          -5.248
REMARK INTER:                  -5.044
REMARK INTRA:                  -0.204
REMARK UNBOUND:                -0.482
REMARK SMILES COc1cccc(C(=O)O)c1O
REMARK SMILES IDX 7 1 11 2 6 3 5 4 3 5 4 6 8 7 9 8 10 9 12 11 2 13 1 14
REMARK H PARENT 10 10 12 12
ROOT
ATOM      1  C   UNL     1      -6.047  -2.355   1.101  1.00  0.00     0.105 A 
ATOM      2  C   UNL     1      -5.769  -1.021   1.228  1.00  0.00     0.172 A 
ATOM      3  C   UNL     1      -4.947  -3.307   1.343  1.00  0.00     0.020 A 
ATOM      4  C   UNL     1      -3.859  -2.856   2.018  1.00  0.00     0.005 A 
ATOM      5  C   UNL     1      -4.748  -0.537   2.145  1.00  0.00     0.161 A 
ATOM      6  C   UNL     1      -3.704  -1.502   2.438  1.00  0.00     0.050 A 
ENDROOT
BRANCH   1   7
ATOM      7  C   UNL     1      -7.475  -2.852   0.821  1.00  0.00     0.339 C 
ATOM      8  O   UNL     1      -8.429  -2.293   2.017  1.00  0.00    -0.246 OA
BRANCH   7   9
ATOM      9  O   UNL     1      -8.014  -3.345   0.062  1.00  0.00    -0.478 OA
ATOM     10  H   UNL     1      -8.521  -3.808  -0.651  1.00  0.00     0.297 HD
ENDBRANCH   7   9
ENDBRANCH   1   7
BRANCH   2  11
ATOM     11  O   UNL     1      -6.476  -0.054   0.492  1.00  0.00    -0.504 OA
ATOM     12  H   UNL     1      -6.973   0.627  -0.027  1.00  0.00     0.293 HD
ENDBRANCH   2  11
BRANCH   5  13
ATOM     13  O   UNL     1      -4.700   0.839   2.326  1.00  0.00    -0.493 OA
ATOM     14  C   UNL     1      -4.600   1.974   2.937  1.00  0.00     0.278 C 
ENDBRANCH   5  13
TORSDOF 4
ENDMDL
MODEL 7
REMARK VINA RESULT:    -4.047      2.224      4.617
REMARK INTER + INTRA:          -5.239
REMARK INTER:                  -5.034
REMARK INTRA:                  -0.205
REMARK UNBOUND:                -0.482
REMARK SMILES COc1cccc(C(=O)O)c1O
REMARK SMILES IDX 7 1 11 2 6 3 5 4 3 5 4 6 8 7 9 8 10 9 12 11 2 13 1 14
REMARK H PARENT 10 10 12 12
ROOT
ATOM      1  C   UNL     1      -5.625   0.140   4.015  1.00  0.00     0.105 A 
ATOM      2  C   UNL     1      -5.101  -1.078   3.679  1.00  0.00     0.172 A 
ATOM      3  C   UNL     1      -5.063   1.332   3.353  1.00  0.00     0.020 A 
ATOM      4  C   UNL     1      -4.346   1.143   2.216  1.00  0.00     0.005 A 
ATOM      5  C   UNL     1      -4.546  -1.332   2.357  1.00  0.00     0.161 A 
ATOM      6  C   UNL     1      -4.059  -0.145   1.678  1.00  0.00     0.050 A 
ENDROOT
BRANCH   1   7
ATOM      7  C   UNL     1      -6.826   0.258   4.969  1.00  0.00     0.339 C 
ATOM      8  O   UNL     1      -8.048  -0.605   4.322  1.00  0.00    -0.246 OA
BRANCH   7   9
ATOM      9  O   UNL     1      -7.052   0.636   5.925  1.00  0.00    -0.478 OA
ATOM     10  H   UNL     1      -7.263   0.990   6.826  1.00  0.00     0.297 HD
ENDBRANCH   7   9
ENDBRANCH   1   7
BRANCH   2  11
ATOM     11  O   UNL     1      -5.095  -2.149   4.589  1.00  0.00    -0.504 OA
ATOM     12  H   UNL     1      -5.090  -2.903   5.231  1.00  0.00     0.293 HD
ENDBRANCH   2  11
BRANCH   5  13
ATOM     13  O   UNL     1      -4.229  -2.655   2.077  1.00  0.00    -0.493 OA
ATOM     14  C   UNL     1      -4.209  -3.785   1.450  1.00  0.00     0.278 C 
ENDBRANCH   5  13
TORSDOF 4
ENDMDL
MODEL 8
REMARK VINA RESULT:    -3.781      2.158      2.857
REMARK INTER + INTRA:          -4.927
REMARK INTER:                  -4.445
REMARK INTRA:                  -0.482
REMARK UNBOUND:                -0.482
REMARK SMILES COc1cccc(C(=O)O)c1O
REMARK SMILES IDX 7 1 11 2 6 3 5 4 3 5 4 6 8 7 9 8 10 9 12 11 2 13 1 14
REMARK H PARENT 10 10 12 12
ROOT
ATOM      1  C   UNL     1      -4.752  -1.205   2.292  1.00  0.00     0.105 A 
ATOM      2  C   UNL     1      -5.749  -0.996   3.204  1.00  0.00     0.172 A 
ATOM      3  C   UNL     1      -4.131  -0.020   1.672  1.00  0.00     0.020 A 
ATOM      4  C   UNL     1      -4.309   1.179   2.286  1.00  0.00     0.005 A 
ATOM      5  C   UNL     1      -5.788   0.202   4.031  1.00  0.00     0.161 A 
ATOM      6  C   UNL     1      -5.115   1.349   3.450  1.00  0.00     0.050 A 
ENDROOT
BRANCH   1   7
ATOM      7  C   UNL     1      -4.220  -2.619   1.997  1.00  0.00     0.339 C 
ATOM      8  O   UNL     1      -4.792  -3.606   3.160  1.00  0.00    -0.246 OA
BRANCH   7   9
ATOM      9  O   UNL     1      -3.698  -3.134   1.241  1.00  0.00    -0.478 OA
ATOM     10  H   UNL     1      -3.208  -3.618   0.530  1.00  0.00     0.297 HD
ENDBRANCH   7   9
ENDBRANCH   1   7
BRANCH   2  11
ATOM     11  O   UNL     1      -6.771  -1.940   3.400  1.00  0.00    -0.504 OA
ATOM     12  H   UNL     1      -7.491  -2.606   3.538  1.00  0.00     0.293 HD
ENDBRANCH   2  11
BRANCH   5  13
ATOM     13  O   UNL     1      -6.733   0.204   5.049  1.00  0.00    -0.493 OA
ATOM     14  C   UNL     1      -7.746   0.584   5.756  1.00  0.00     0.278 C 
ENDBRANCH   5  13
TORSDOF 4
ENDMDL
MODEL 9
REMARK VINA RESULT:    -3.383      8.049      9.104
REMARK INTER + INTRA:          -4.459
REMARK INTER:                  -4.013
REMARK INTRA:                  -0.446
REMARK UNBOUND:                -0.482
REMARK SMILES COc1cccc(C(=O)O)c1O
REMARK SMILES IDX 7 1 11 2 6 3 5 4 3 5 4 6 8 7 9 8 10 9 12 11 2 13 1 14
REMARK H PARENT 10 10 12 12
ROOT
ATOM      1  C   UNL     1     -12.266  -3.045   6.776  1.00  0.00     0.105 A 
ATOM      2  C   UNL     1     -12.052  -2.774   5.452  1.00  0.00     0.172 A 
ATOM      3  C   UNL     1     -11.695  -4.290   7.320  1.00  0.00     0.020 A 
ATOM      4  C   UNL     1     -10.708  -4.895   6.609  1.00  0.00     0.005 A 
ATOM      5  C   UNL     1     -10.857  -3.237   4.762  1.00  0.00     0.161 A 
ATOM      6  C   UNL     1     -10.255  -4.423   5.343  1.00  0.00     0.050 A 
ENDROOT
BRANCH   1   7
ATOM      7  C   UNL     1     -12.986  -2.039   7.692  1.00  0.00     0.339 C 
ATOM      8  O   UNL     1     -14.443  -1.734   7.030  1.00  0.00    -0.246 OA
BRANCH   7   9
ATOM      9  O   UNL     1     -12.859  -1.586   8.633  1.00  0.00    -0.478 OA
ATOM     10  H   UNL     1     -12.739  -1.159   9.519  1.00  0.00     0.297 HD
ENDBRANCH   7   9
ENDBRANCH   1   7
BRANCH   2  11
ATOM     11  O   UNL     1     -12.968  -2.017   4.702  1.00  0.00    -0.504 OA
ATOM     12  H   UNL     1     -13.614  -1.483   4.175  1.00  0.00     0.293 HD
ENDBRANCH   2  11
BRANCH   5  13
ATOM     13  O   UNL     1     -10.662  -2.732   3.482  1.00  0.00    -0.493 OA
ATOM     14  C   UNL     1     -10.503  -2.721   2.200  1.00  0.00     0.278 C 
ENDBRANCH   5  13
TORSDOF 4
ENDMDL
