MODEL 1
REMARK VINA RESULT:    -4.855      0.000      0.000
REMARK INTER + INTRA:          -6.135
REMARK INTER:                  -5.707
REMARK INTRA:                  -0.429
REMARK UNBOUND:                -0.429
REMARK SMILES COc1cccc(C(=O)O)c1O
REMARK SMILES IDX 7 1 11 2 6 3 5 4 3 5 4 6 8 7 9 8 10 9 12 11 2 13 1 14
REMARK H PARENT 10 10 12 12
ROOT
ATOM      1  C   UNL     1      -5.436  -3.998  -3.598  1.00  0.00     0.105 A 
ATOM      2  C   UNL     1      -5.230  -4.533  -2.356  1.00  0.00     0.172 A 
ATOM      3  C   UNL     1      -6.813  -4.001  -4.124  1.00  0.00     0.020 A 
ATOM      4  C   UNL     1      -7.827  -4.181  -3.238  1.00  0.00     0.005 A 
ATOM      5  C   UNL     1      -6.263  -4.501  -1.331  1.00  0.00     0.161 A 
ATOM      6  C   UNL     1      -7.616  -4.432  -1.850  1.00  0.00     0.050 A 
ENDROOT
BRANCH   1   7
ATOM      7  C   UNL     1      -4.295  -3.322  -4.378  1.00  0.00     0.339 C 
ATOM      8  O   UNL     1      -3.021  -3.200  -3.369  1.00  0.00    -0.246 OA
BRANCH   7   9
ATOM      9  O   UNL     1      -4.071  -3.018  -5.361  1.00  0.00    -0.478 OA
ATOM     10  H   UNL     1      -3.861  -2.731  -6.285  1.00  0.00     0.297 HD
ENDBRANCH   7   9
ENDBRANCH   1   7
BRANCH   2  11
ATOM     11  O   UNL     1      -4.001  -5.118  -2.006  1.00  0.00    -0.504 OA
ATOM     12  H   UNL     1      -3.135  -5.530  -1.760  1.00  0.00     0.293 HD
ENDBRANCH   2  11
BRANCH   5  13
ATOM     13  O   UNL     1      -5.866  -4.895  -0.059  1.00  0.00    -0.493 OA
ATOM     14  C   UNL     1      -5.827  -5.581   1.035  1.00  0.00     0.278 C 
ENDBRANCH   5  13
TORSDOF 4
ENDMDL
MODEL 2
REMARK VINA RESULT:    -4.786      1.764      4.658
REMARK INTER + INTRA:          -6.054
REMARK INTER:                  -5.576
REMARK INTRA:                  -0.478
REMARK UNBOUND:                -0.429
REMARK SMILES COc1cccc(C(=O)O)c1O
REMARK SMILES IDX 7 1 11 2 6 3 5 4 3 5 4 6 8 7 9 8 10 9 12 11 2 13 1 14
REMARK H PARENT 10 10 12 12
ROOT
ATOM      1  C   UNL     1      -5.875  -5.760  -0.504  1.00  0.00     0.105 A 
ATOM      2  C   UNL     1      -5.629  -4.830  -1.475  1.00  0.00     0.172 A 
ATOM      3  C   UNL     1      -5.823  -7.182  -0.890  1.00  0.00     0.020 A 
ATOM      4  C   UNL     1      -5.190  -7.499  -2.049  1.00  0.00     0.005 A 
ATOM      5  C   UNL     1      -4.747  -5.114  -2.599  1.00  0.00     0.161 A 
ATOM      6  C   UNL     1      -4.641  -6.522  -2.932  1.00  0.00     0.050 A 
ENDROOT
BRANCH   1   7
ATOM      7  C   UNL     1      -6.095  -5.348   0.962  1.00  0.00     0.339 C 
ATOM      8  O   UNL     1      -5.512  -3.837   1.136  1.00  0.00    -0.246 OA
BRANCH   7   9
ATOM      9  O   UNL     1      -6.581  -5.702   1.827  1.00  0.00    -0.478 OA
ATOM     10  H   UNL     1      -7.038  -6.035   2.639  1.00  0.00     0.297 HD
ENDBRANCH   7   9
ENDBRANCH   1   7
BRANCH   2  11
ATOM     11  O   UNL     1      -6.200  -3.547  -1.421  1.00  0.00    -0.504 OA
ATOM     12  H   UNL     1      -6.602  -2.643  -1.383  1.00  0.00     0.293 HD
ENDBRANCH   2  11
BRANCH   5  13
ATOM     13  O   UNL     1      -4.423  -4.029  -3.404  1.00  0.00    -0.493 OA
ATOM     14  C   UNL     1      -4.432  -3.241  -4.428  1.00  0.00     0.278 C 
ENDBRANCH   5  13
TORSDOF 4
ENDMDL
MODEL 3
REMARK VINA RESULT:    -4.771      2.250      3.283
REMARK INTER + INTRA:          -6.036
REMARK INTER:                  -5.767
REMARK INTRA:                  -0.269
REMARK UNBOUND:                -0.429
REMARK SMILES COc1cccc(C(=O)O)c1O
REMARK SMILES IDX 7 1 11 2 6 3 5 4 3 5 4 6 8 7 9 8 10 9 12 11 2 13 1 14
REMARK H PARENT 10 10 12 12
ROOT
ATOM      1  C   UNL     1      -5.364  -4.131  -3.385  1.00  0.00     0.105 A 
ATOM      2  C   UNL     1      -6.559  -4.596  -3.861  1.00  0.00     0.172 A 
ATOM      3  C   UNL     1      -4.897  -4.649  -2.086  1.00  0.00     0.020 A 
ATOM      4  C   UNL     1      -5.464  -5.793  -1.623  1.00  0.00     0.005 A 
ATOM      5  C   UNL     1      -7.041  -5.932  -3.540  1.00  0.00     0.161 A 
ATOM      6  C   UNL     1      -6.524  -6.468  -2.295  1.00  0.00     0.050 A 
ENDROOT
BRANCH   1   7
ATOM      7  C   UNL     1      -4.485  -3.183  -4.220  1.00  0.00     0.339 C 
ATOM      8  O   UNL     1      -2.976  -3.256  -3.610  1.00  0.00    -0.246 OA
BRANCH   7   9
ATOM      9  O   UNL     1      -4.546  -2.601  -5.095  1.00  0.00    -0.478 OA
ATOM     10  H   UNL     1      -4.604  -2.054  -5.918  1.00  0.00     0.297 HD
ENDBRANCH   7   9
ENDBRANCH   1   7
BRANCH   2  11
ATOM     11  O   UNL     1      -7.368  -3.811  -4.701  1.00  0.00    -0.504 OA
ATOM     12  H   UNL     1      -7.937  -3.257  -5.293  1.00  0.00     0.293 HD
ENDBRANCH   2  11
BRANCH   5  13
ATOM     13  O   UNL     1      -8.164  -6.354  -4.240  1.00  0.00    -0.493 OA
ATOM     14  C   UNL     1      -8.957  -7.144  -4.887  1.00  0.00     0.278 C 
ENDBRANCH   5  13
TORSDOF 4
ENDMDL
MODEL 4
REMARK VINA RESULT:    -4.749      2.971      4.452
REMARK INTER + INTRA:          -6.010
REMARK INTER:                  -5.744
REMARK INTRA:                  -0.266
REMARK UNBOUND:                -0.429
REMARK SMILES COc1cccc(C(=O)O)c1O
REMARK SMILES IDX 7 1 11 2 6 3 5 4 3 5 4 6 8 7 9 8 10 9 12 11 2 13 1 14
REMARK H PARENT 10 10 12 12
ROOT
ATOM      1  C   UNL     1      -5.781  -5.550  -0.578  1.00  0.00     0.105 A 
ATOM      2  C   UNL     1      -6.161  -6.706  -1.202  1.00  0.00     0.172 A 
ATOM      3  C   UNL     1      -5.493  -4.378  -1.424  1.00  0.00     0.020 A 
ATOM      4  C   UNL     1      -5.962  -4.389  -2.699  1.00  0.00     0.005 A 
ATOM      5  C   UNL     1      -6.882  -6.689  -2.467  1.00  0.00     0.161 A 
ATOM      6  C   UNL     1      -6.653  -5.500  -3.267  1.00  0.00     0.050 A 
ENDROOT
BRANCH   1   7
ATOM      7  C   UNL     1      -5.755  -5.441   0.957  1.00  0.00     0.339 C 
ATOM      8  O   UNL     1      -5.679  -3.857   1.331  1.00  0.00    -0.246 OA
BRANCH   7   9
ATOM      9  O   UNL     1      -5.867  -6.058   1.803  1.00  0.00    -0.478 OA
ATOM     10  H   UNL     1      -5.974  -6.638   2.598  1.00  0.00     0.297 HD
ENDBRANCH   7   9
ENDBRANCH   1   7
BRANCH   2  11
ATOM     11  O   UNL     1      -5.891  -7.965  -0.639  1.00  0.00    -0.504 OA
ATOM     12  H   UNL     1      -5.701  -8.852  -0.243  1.00  0.00     0.293 HD
ENDBRANCH   2  11
BRANCH   5  13
ATOM     13  O   UNL     1      -7.382  -7.912  -2.896  1.00  0.00    -0.493 OA
ATOM     14  C   UNL     1      -8.246  -8.825  -3.195  1.00  0.00     0.278 C 
ENDBRANCH   5  13
TORSDOF 4
ENDMDL
MODEL 5
REMARK VINA RESULT:    -4.132      2.705      4.283
REMARK INTER + INTRA:          -5.285
REMARK INTER:                  -4.821
REMARK INTRA:                  -0.465
REMARK UNBOUND:                -0.429
REMARK SMILES COc1cccc(C(=O)O)c1O
REMARK SMILES IDX 7 1 11 2 6 3 5 4 3 5 4 6 8 7 9 8 10 9 12 11 2 13 1 14
REMARK H PARENT 10 10 12 12
ROOT
ATOM      1  C   UNL     1      -5.407  -4.924  -0.910  1.00  0.00     0.105 A 
ATOM      2  C   UNL     1      -5.989  -5.952  -1.600  1.00  0.00     0.172 A 
ATOM      3  C   UNL     1      -4.644  -3.927  -1.684  1.00  0.00     0.020 A 
ATOM      4  C   UNL     1      -4.861  -3.868  -3.023  1.00  0.00     0.005 A 
ATOM      5  C   UNL     1      -6.435  -5.792  -2.976  1.00  0.00     0.161 A 
ATOM      6  C   UNL     1      -5.731  -4.761  -3.715  1.00  0.00     0.050 A 
ENDROOT
BRANCH   1   7
ATOM      7  C   UNL     1      -5.625  -4.750   0.603  1.00  0.00     0.339 C 
ATOM      8  O   UNL     1      -5.464  -6.218   1.290  1.00  0.00    -0.246 OA
BRANCH   7   9
ATOM      9  O   UNL     1      -5.745  -3.977   1.308  1.00  0.00    -0.478 OA
ATOM     10  H   UNL     1      -5.859  -3.250   1.971  1.00  0.00     0.297 HD
ENDBRANCH   7   9
ENDBRANCH   1   7
BRANCH   2  11
ATOM     11  O   UNL     1      -6.202  -7.206  -1.001  1.00  0.00    -0.504 OA
ATOM     12  H   UNL     1      -6.352  -8.089  -0.580  1.00  0.00     0.293 HD
ENDBRANCH   2  11
BRANCH   5  13
ATOM     13  O   UNL     1      -7.184  -6.841  -3.495  1.00  0.00    -0.493 OA
ATOM     14  C   UNL     1      -7.966  -7.484  -4.299  1.00  0.00     0.278 C 
ENDBRANCH   5  13
TORSDOF 4
ENDMDL
MODEL 6
REMARK VINA RESULT:    -4.096      2.193      3.114
REMARK INTER + INTRA:          -5.244
REMARK INTER:                  -5.040
REMARK INTRA:                  -0.203
REMARK UNBOUND:                -0.429
REMARK SMILES COc1cccc(C(=O)O)c1O
REMARK SMILES IDX 7 1 11 2 6 3 5 4 3 5 4 6 8 7 9 8 10 9 12 11 2 13 1 14
REMARK H PARENT 10 10 12 12
ROOT
ATOM      1  C   UNL     1      -6.643  -4.095  -3.678  1.00  0.00     0.105 A 
ATOM      2  C   UNL     1      -6.794  -4.272  -2.330  1.00  0.00     0.172 A 
ATOM      3  C   UNL     1      -5.317  -3.678  -4.169  1.00  0.00     0.020 A 
ATOM      4  C   UNL     1      -4.255  -3.848  -3.339  1.00  0.00     0.005 A 
ATOM      5  C   UNL     1      -5.683  -4.689  -1.486  1.00  0.00     0.161 A 
ATOM      6  C   UNL     1      -4.375  -4.340  -2.007  1.00  0.00     0.050 A 
ENDROOT
BRANCH   1   7
ATOM      7  C   UNL     1      -7.782  -4.421  -4.660  1.00  0.00     0.339 C 
ATOM      8  O   UNL     1      -8.160  -5.993  -4.463  1.00  0.00    -0.246 OA
BRANCH   7   9
ATOM      9  O   UNL     1      -8.430  -3.923  -5.324  1.00  0.00    -0.478 OA
ATOM     10  H   UNL     1      -9.039  -3.455  -5.949  1.00  0.00     0.297 HD
ENDBRANCH   7   9
ENDBRANCH   1   7
BRANCH   2  11
ATOM     11  O   UNL     1      -8.035  -4.078  -1.701  1.00  0.00    -0.504 OA
ATOM     12  H   UNL     1      -8.910  -3.942  -1.258  1.00  0.00     0.293 HD
ENDBRANCH   2  11
BRANCH   5  13
ATOM     13  O   UNL     1      -6.010  -5.023  -0.177  1.00  0.00    -0.493 OA
ATOM     14  C   UNL     1      -5.894  -5.540   1.001  1.00  0.00     0.278 C 
ENDBRANCH   5  13
TORSDOF 4
ENDMDL
MODEL 7
REMARK VINA RESULT:    -4.073      2.424      4.689
REMARK INTER + INTRA:          -5.216
REMARK INTER:                  -4.908
REMARK INTRA:                  -0.308
REMARK UNBOUND:                -0.429
REMARK SMILES COc1cccc(C(=O)O)c1O
REMARK SMILES IDX 7 1 11 2 6 3 5 4 3 5 4 6 8 7 9 8 10 9 12 11 2 13 1 14
REMARK H PARENT 10 10 12 12
ROOT
ATOM      1  C   UNL     1      -5.713  -6.813  -1.047  1.00  0.00     0.105 A 
ATOM      2  C   UNL     1      -5.142  -6.160  -2.104  1.00  0.00     0.172 A 
ATOM      3  C   UNL     1      -5.856  -6.070   0.219  1.00  0.00     0.020 A 
ATOM      4  C   UNL     1      -5.764  -4.716   0.170  1.00  0.00     0.005 A 
ATOM      5  C   UNL     1      -5.260  -4.717  -2.265  1.00  0.00     0.161 A 
ATOM      6  C   UNL     1      -5.472  -3.995  -1.025  1.00  0.00     0.050 A 
ENDROOT
BRANCH   1   7
ATOM      7  C   UNL     1      -6.284  -8.233  -1.198  1.00  0.00     0.339 C 
ATOM      8  O   UNL     1      -7.114  -8.279  -2.598  1.00  0.00    -0.246 OA
BRANCH   7   9
ATOM      9  O   UNL     1      -6.216  -9.174  -0.730  1.00  0.00    -0.478 OA
ATOM     10  H   UNL     1      -6.151 -10.059  -0.290  1.00  0.00     0.297 HD
ENDBRANCH   7   9
ENDBRANCH   1   7
BRANCH   2  11
ATOM     11  O   UNL     1      -4.432  -6.856  -3.097  1.00  0.00    -0.504 OA
ATOM     12  H   UNL     1      -3.931  -7.347  -3.797  1.00  0.00     0.293 HD
ENDBRANCH   2  11
BRANCH   5  13
ATOM     13  O   UNL     1      -4.809  -4.204  -3.475  1.00  0.00    -0.493 OA
ATOM     14  C   UNL     1      -4.459  -3.330  -4.360  1.00  0.00     0.278 C 
ENDBRANCH   5  13
TORSDOF 4
ENDMDL
MODEL 8
REMARK VINA RESULT:    -4.042      2.204      3.030
REMARK INTER + INTRA:          -5.180
REMARK INTER:                  -4.740
REMARK INTRA:                  -0.440
REMARK UNBOUND:                -0.429
REMARK SMILES COc1cccc(C(=O)O)c1O
REMARK SMILES IDX 7 1 11 2 6 3 5 4 3 5 4 6 8 7 9 8 10 9 12 11 2 13 1 14
REMARK H PARENT 10 10 12 12
ROOT
ATOM      1  C   UNL     1      -5.103  -4.348  -2.477  1.00  0.00     0.105 A 
ATOM      2  C   UNL     1      -5.996  -5.289  -2.911  1.00  0.00     0.172 A 
ATOM      3  C   UNL     1      -4.967  -4.155  -1.022  1.00  0.00     0.020 A 
ATOM      4  C   UNL     1      -5.434  -5.137  -0.208  1.00  0.00     0.005 A 
ATOM      5  C   UNL     1      -6.307  -6.470  -2.118  1.00  0.00     0.161 A 
ATOM      6  C   UNL     1      -6.103  -6.299  -0.691  1.00  0.00     0.050 A 
ENDROOT
BRANCH   1   7
ATOM      7  C   UNL     1      -4.196  -3.591  -3.462  1.00  0.00     0.339 C 
ATOM      8  O   UNL     1      -5.157  -2.927  -4.598  1.00  0.00    -0.246 OA
BRANCH   7   9
ATOM      9  O   UNL     1      -3.188  -3.304  -3.559  1.00  0.00    -0.478 OA
ATOM     10  H   UNL     1      -2.239  -3.035  -3.651  1.00  0.00     0.297 HD
ENDBRANCH   7   9
ENDBRANCH   1   7
BRANCH   2  11
ATOM     11  O   UNL     1      -6.638  -5.169  -4.155  1.00  0.00    -0.504 OA
ATOM     12  H   UNL     1      -7.091  -5.085  -5.032  1.00  0.00     0.293 HD
ENDBRANCH   2  11
BRANCH   5  13
ATOM     13  O   UNL     1      -7.071  -7.441  -2.752  1.00  0.00    -0.493 OA
ATOM     14  C   UNL     1      -8.116  -8.114  -3.107  1.00  0.00     0.278 C 
ENDBRANCH   5  13
TORSDOF 4
ENDMDL
MODEL 9
REMARK VINA RESULT:    -3.790      7.465      8.470
REMARK INTER + INTRA:          -4.883
REMARK INTER:                  -4.642
REMARK INTRA:                  -0.241
REMARK UNBOUND:                -0.429
REMARK SMILES COc1cccc(C(=O)O)c1O
REMARK SMILES IDX 7 1 11 2 6 3 5 4 3 5 4 6 8 7 9 8 10 9 12 11 2 13 1 14
REMARK H PARENT 10 10 12 12
ROOT
ATOM      1  C   UNL     1      -4.667   2.468   2.393  1.00  0.00     0.105 A 
ATOM      2  C   UNL     1      -3.618   1.687   1.992  1.00  0.00     0.172 A 
ATOM      3  C   UNL     1      -5.270   3.368   1.393  1.00  0.00     0.020 A 
ATOM      4  C   UNL     1      -5.015   3.117   0.083  1.00  0.00     0.005 A 
ATOM      5  C   UNL     1      -3.490   1.226   0.617  1.00  0.00     0.161 A 
ATOM      6  C   UNL     1      -4.146   2.076  -0.359  1.00  0.00     0.050 A 
ENDROOT
BRANCH   1   7
ATOM      7  C   UNL     1      -5.268   2.340   3.803  1.00  0.00     0.339 C 
ATOM      8  O   UNL     1      -5.145   0.777   4.245  1.00  0.00    -0.246 OA
BRANCH   7   9
ATOM      9  O   UNL     1      -5.630   2.958   4.576  1.00  0.00    -0.478 OA
ATOM     10  H   UNL     1      -5.970   3.538   5.302  1.00  0.00     0.297 HD
ENDBRANCH   7   9
ENDBRANCH   1   7
BRANCH   2  11
ATOM     11  O   UNL     1      -2.625   1.275   2.898  1.00  0.00    -0.504 OA
ATOM     12  H   UNL     1      -1.926   0.985   3.536  1.00  0.00     0.293 HD
ENDBRANCH   2  11
BRANCH   5  13
ATOM     13  O   UNL     1      -2.497   0.283   0.384  1.00  0.00    -0.493 OA
ATOM     14  C   UNL     1      -1.641  -0.653   0.628  1.00  0.00     0.278 C 
ENDBRANCH   5  13
TORSDOF 4
ENDMDL
