MODEL 1
REMARK VINA RESULT:    -4.889      0.000      0.000
REMARK INTER + INTRA:          -6.225
REMARK INTER:                  -5.746
REMARK INTRA:                  -0.479
REMARK UNBOUND:                -0.479
REMARK SMILES COc1cccc(C(=O)O)c1O
REMARK SMILES IDX 7 1 11 2 6 3 5 4 3 5 4 6 8 7 9 8 10 9 12 11 2 13 1 14
REMARK H PARENT 10 10 12 12
ROOT
ATOM      1  C   UNL     1       2.649  -3.648  -5.172  1.00  0.00     0.105 A 
ATOM      2  C   UNL     1       2.134  -2.387  -5.295  1.00  0.00     0.172 A 
ATOM      3  C   UNL     1       4.032  -3.869  -5.635  1.00  0.00     0.020 A 
ATOM      4  C   UNL     1       4.823  -2.779  -5.805  1.00  0.00     0.005 A 
ATOM      5  C   UNL     1       2.982  -1.206  -5.235  1.00  0.00     0.161 A 
ATOM      6  C   UNL     1       4.360  -1.442  -5.623  1.00  0.00     0.050 A 
ENDROOT
BRANCH   1   7
ATOM      7  C   UNL     1       1.859  -4.773  -4.481  1.00  0.00     0.339 C 
ATOM      8  O   UNL     1       0.602  -4.081  -3.709  1.00  0.00    -0.246 OA
BRANCH   7   9
ATOM      9  O   UNL     1       1.835  -5.825  -4.443  1.00  0.00    -0.478 OA
ATOM     10  H   UNL     1       1.813  -6.814  -4.408  1.00  0.00     0.297 HD
ENDBRANCH   7   9
ENDBRANCH   1   7
BRANCH   2  11
ATOM     11  O   UNL     1       0.755  -2.174  -5.463  1.00  0.00    -0.504 OA
ATOM     12  H   UNL     1      -0.217  -2.024  -5.582  1.00  0.00     0.293 HD
ENDBRANCH   2  11
BRANCH   5  13
ATOM     13  O   UNL     1       2.320   0.013  -5.173  1.00  0.00    -0.493 OA
ATOM     14  C   UNL     1       2.137   1.292  -5.220  1.00  0.00     0.278 C 
ENDBRANCH   5  13
TORSDOF 4
ENDMDL
MODEL 2
REMARK VINA RESULT:    -4.865      1.757      4.690
REMARK INTER + INTRA:          -6.197
REMARK INTER:                  -5.718
REMARK INTRA:                  -0.479
REMARK UNBOUND:                -0.479
REMARK SMILES COc1cccc(C(=O)O)c1O
REMARK SMILES IDX 7 1 11 2 6 3 5 4 3 5 4 6 8 7 9 8 10 9 12 11 2 13 1 14
REMARK H PARENT 10 10 12 12
ROOT
ATOM      1  C   UNL     1       2.170  -0.097  -5.876  1.00  0.00     0.105 A 
ATOM      2  C   UNL     1       2.458  -1.294  -5.279  1.00  0.00     0.172 A 
ATOM      3  C   UNL     1       1.665  -0.128  -7.261  1.00  0.00     0.020 A 
ATOM      4  C   UNL     1       1.174  -1.305  -7.728  1.00  0.00     0.005 A 
ATOM      5  C   UNL     1       1.745  -2.514  -5.631  1.00  0.00     0.161 A 
ATOM      6  C   UNL     1       1.188  -2.513  -6.971  1.00  0.00     0.050 A 
ENDROOT
BRANCH   1   7
ATOM      7  C   UNL     1       2.266   1.228  -5.099  1.00  0.00     0.339 C 
ATOM      8  O   UNL     1       2.407   0.857  -3.519  1.00  0.00    -0.246 OA
BRANCH   7   9
ATOM      9  O   UNL     1       2.363   2.259  -5.290  1.00  0.00    -0.478 OA
ATOM     10  H   UNL     1       2.454   3.228  -5.468  1.00  0.00     0.297 HD
ENDBRANCH   7   9
ENDBRANCH   1   7
BRANCH   2  11
ATOM     11  O   UNL     1       3.443  -1.396  -4.282  1.00  0.00    -0.504 OA
ATOM     12  H   UNL     1       4.136  -1.468  -3.579  1.00  0.00     0.293 HD
ENDBRANCH   2  11
BRANCH   5  13
ATOM     13  O   UNL     1       1.991  -3.614  -4.819  1.00  0.00    -0.493 OA
ATOM     14  C   UNL     1       2.035  -4.849  -4.440  1.00  0.00     0.278 C 
ENDBRANCH   5  13
TORSDOF 4
ENDMDL
MODEL 3
REMARK VINA RESULT:    -4.727      2.203      3.214
REMARK INTER + INTRA:          -6.035
REMARK INTER:                  -5.766
REMARK INTRA:                  -0.269
REMARK UNBOUND:                -0.479
REMARK SMILES COc1cccc(C(=O)O)c1O
REMARK SMILES IDX 7 1 11 2 6 3 5 4 3 5 4 6 8 7 9 8 10 9 12 11 2 13 1 14
REMARK H PARENT 10 10 12 12
ROOT
ATOM      1  C   UNL     1       2.534  -3.376  -5.143  1.00  0.00     0.105 A 
ATOM      2  C   UNL     1       3.540  -3.467  -6.065  1.00  0.00     0.172 A 
ATOM      3  C   UNL     1       1.837  -2.083  -5.017  1.00  0.00     0.020 A 
ATOM      4  C   UNL     1       1.965  -1.195  -6.036  1.00  0.00     0.005 A 
ATOM      5  C   UNL     1       3.536  -2.667  -7.281  1.00  0.00     0.161 A 
ATOM      6  C   UNL     1       2.789  -1.427  -7.176  1.00  0.00     0.050 A 
ENDROOT
BRANCH   1   7
ATOM      7  C   UNL     1       2.072  -4.604  -4.339  1.00  0.00     0.339 C 
ATOM      8  O   UNL     1       0.571  -4.289  -3.789  1.00  0.00    -0.246 OA
BRANCH   7   9
ATOM      9  O   UNL     1       2.387  -5.587  -4.133  1.00  0.00    -0.478 OA
ATOM     10  H   UNL     1       2.684  -6.512  -3.938  1.00  0.00     0.297 HD
ENDBRANCH   7   9
ENDBRANCH   1   7
BRANCH   2  11
ATOM     11  O   UNL     1       4.616  -4.354  -5.889  1.00  0.00    -0.504 OA
ATOM     12  H   UNL     1       5.374  -4.979  -5.765  1.00  0.00     0.293 HD
ENDBRANCH   2  11
BRANCH   5  13
ATOM     13  O   UNL     1       4.503  -2.992  -8.224  1.00  0.00    -0.493 OA
ATOM     14  C   UNL     1       5.039  -3.200  -9.381  1.00  0.00     0.278 C 
ENDBRANCH   5  13
TORSDOF 4
ENDMDL
MODEL 4
REMARK VINA RESULT:    -4.687      2.954      4.419
REMARK INTER + INTRA:          -5.988
REMARK INTER:                  -5.722
REMARK INTRA:                  -0.266
REMARK UNBOUND:                -0.479
REMARK SMILES COc1cccc(C(=O)O)c1O
REMARK SMILES IDX 7 1 11 2 6 3 5 4 3 5 4 6 8 7 9 8 10 9 12 11 2 13 1 14
REMARK H PARENT 10 10 12 12
ROOT
ATOM      1  C   UNL     1       2.204  -0.326  -5.663  1.00  0.00     0.105 A 
ATOM      2  C   UNL     1       2.266  -0.541  -7.013  1.00  0.00     0.172 A 
ATOM      3  C   UNL     1       2.340  -1.497  -4.778  1.00  0.00     0.020 A 
ATOM      4  C   UNL     1       2.873  -2.629  -5.306  1.00  0.00     0.005 A 
ATOM      5  C   UNL     1       3.047  -1.633  -7.577  1.00  0.00     0.161 A 
ATOM      6  C   UNL     1       3.239  -2.755  -6.678  1.00  0.00     0.050 A 
ENDROOT
BRANCH   1   7
ATOM      7  C   UNL     1       2.104   1.095  -5.083  1.00  0.00     0.339 C 
ATOM      8  O   UNL     1       2.498   1.006  -3.505  1.00  0.00    -0.246 OA
BRANCH   7   9
ATOM      9  O   UNL     1       1.958   2.084  -5.415  1.00  0.00    -0.478 OA
ATOM     10  H   UNL     1       1.821   3.014  -5.726  1.00  0.00     0.297 HD
ENDBRANCH   7   9
ENDBRANCH   1   7
BRANCH   2  11
ATOM     11  O   UNL     1       1.594   0.297  -7.919  1.00  0.00    -0.504 OA
ATOM     12  H   UNL     1       1.121   0.888  -8.557  1.00  0.00     0.293 HD
ENDBRANCH   2  11
BRANCH   5  13
ATOM     13  O   UNL     1       3.189  -1.624  -8.959  1.00  0.00    -0.493 OA
ATOM     14  C   UNL     1       3.770  -1.592 -10.113  1.00  0.00     0.278 C 
ENDBRANCH   5  13
TORSDOF 4
ENDMDL
MODEL 5
REMARK VINA RESULT:    -4.091      2.185      3.111
REMARK INTER + INTRA:          -5.287
REMARK INTER:                  -4.967
REMARK INTRA:                  -0.320
REMARK UNBOUND:                -0.479
REMARK SMILES COc1cccc(C(=O)O)c1O
REMARK SMILES IDX 7 1 11 2 6 3 5 4 3 5 4 6 8 7 9 8 10 9 12 11 2 13 1 14
REMARK H PARENT 10 10 12 12
ROOT
ATOM      1  C   UNL     1       3.759  -3.512  -5.620  1.00  0.00     0.105 A 
ATOM      2  C   UNL     1       3.725  -2.156  -5.448  1.00  0.00     0.172 A 
ATOM      3  C   UNL     1       2.699  -4.310  -4.976  1.00  0.00     0.020 A 
ATOM      4  C   UNL     1       1.576  -3.660  -4.574  1.00  0.00     0.005 A 
ATOM      5  C   UNL     1       2.471  -1.441  -5.253  1.00  0.00     0.161 A 
ATOM      6  C   UNL     1       1.408  -2.248  -4.684  1.00  0.00     0.050 A 
ENDROOT
BRANCH   1   7
ATOM      7  C   UNL     1       4.799  -4.176  -6.539  1.00  0.00     0.339 C 
ATOM      8  O   UNL     1       4.904  -3.272  -7.890  1.00  0.00    -0.246 OA
BRANCH   7   9
ATOM      9  O   UNL     1       5.506  -4.956  -6.510  1.00  0.00    -0.478 OA
ATOM     10  H   UNL     1       6.171  -5.690  -6.484  1.00  0.00     0.297 HD
ENDBRANCH   7   9
ENDBRANCH   1   7
BRANCH   2  11
ATOM     11  O   UNL     1       4.900  -1.386  -5.472  1.00  0.00    -0.504 OA
ATOM     12  H   UNL     1       5.728  -0.843  -5.490  1.00  0.00     0.293 HD
ENDBRANCH   2  11
BRANCH   5  13
ATOM     13  O   UNL     1       2.552  -0.055  -5.289  1.00  0.00    -0.493 OA
ATOM     14  C   UNL     1       2.169   1.178  -5.244  1.00  0.00     0.278 C 
ENDBRANCH   5  13
TORSDOF 4
ENDMDL
MODEL 6
REMARK VINA RESULT:    -4.012      2.101      2.874
REMARK INTER + INTRA:          -5.194
REMARK INTER:                  -4.753
REMARK INTRA:                  -0.441
REMARK UNBOUND:                -0.479
REMARK SMILES COc1cccc(C(=O)O)c1O
REMARK SMILES IDX 7 1 11 2 6 3 5 4 3 5 4 6 8 7 9 8 10 9 12 11 2 13 1 14
REMARK H PARENT 10 10 12 12
ROOT
ATOM      1  C   UNL     1       2.036  -2.133  -5.154  1.00  0.00     0.105 A 
ATOM      2  C   UNL     1       2.129  -1.831  -6.485  1.00  0.00     0.172 A 
ATOM      3  C   UNL     1       2.327  -1.059  -4.188  1.00  0.00     0.020 A 
ATOM      4  C   UNL     1       2.306   0.221  -4.641  1.00  0.00     0.005 A 
ATOM      5  C   UNL     1       1.867  -0.488  -6.984  1.00  0.00     0.161 A 
ATOM      6  C   UNL     1       2.086   0.563  -6.008  1.00  0.00     0.050 A 
ENDROOT
BRANCH   1   7
ATOM      7  C   UNL     1       1.544  -3.511  -4.679  1.00  0.00     0.339 C 
ATOM      8  O   UNL     1       2.526  -4.632  -5.335  1.00  0.00    -0.246 OA
BRANCH   7   9
ATOM      9  O   UNL     1       0.848  -3.920  -4.003  1.00  0.00    -0.478 OA
ATOM     10  H   UNL     1       0.193  -4.305  -3.367  1.00  0.00     0.297 HD
ENDBRANCH   7   9
ENDBRANCH   1   7
BRANCH   2  11
ATOM     11  O   UNL     1       2.462  -2.811  -7.436  1.00  0.00    -0.504 OA
ATOM     12  H   UNL     1       2.697  -3.501  -8.106  1.00  0.00     0.293 HD
ENDBRANCH   2  11
BRANCH   5  13
ATOM     13  O   UNL     1       1.800  -0.357  -8.365  1.00  0.00    -0.493 OA
ATOM     14  C   UNL     1       1.961   0.161  -9.538  1.00  0.00     0.278 C 
ENDBRANCH   5  13
TORSDOF 4
ENDMDL
MODEL 7
REMARK VINA RESULT:    -3.884      2.295      4.440
REMARK INTER + INTRA:          -5.044
REMARK INTER:                  -4.805
REMARK INTRA:                  -0.239
REMARK UNBOUND:                -0.479
REMARK SMILES COc1cccc(C(=O)O)c1O
REMARK SMILES IDX 7 1 11 2 6 3 5 4 3 5 4 6 8 7 9 8 10 9 12 11 2 13 1 14
REMARK H PARENT 10 10 12 12
ROOT
ATOM      1  C   UNL     1       2.518  -1.362  -5.416  1.00  0.00     0.105 A 
ATOM      2  C   UNL     1       3.449  -2.069  -6.126  1.00  0.00     0.172 A 
ATOM      3  C   UNL     1       1.451  -2.122  -4.740  1.00  0.00     0.020 A 
ATOM      4  C   UNL     1       1.648  -3.452  -4.548  1.00  0.00     0.005 A 
ATOM      5  C   UNL     1       3.823  -3.426  -5.754  1.00  0.00     0.161 A 
ATOM      6  C   UNL     1       2.797  -4.149  -5.026  1.00  0.00     0.050 A 
ENDROOT
BRANCH   1   7
ATOM      7  C   UNL     1       2.636   0.162  -5.238  1.00  0.00     0.339 C 
ATOM      8  O   UNL     1       2.358   0.492  -3.667  1.00  0.00    -0.246 OA
BRANCH   7   9
ATOM      9  O   UNL     1       2.929   1.009  -5.790  1.00  0.00    -0.478 OA
ATOM     10  H   UNL     1       3.205   1.806  -6.309  1.00  0.00     0.297 HD
ENDBRANCH   7   9
ENDBRANCH   1   7
BRANCH   2  11
ATOM     11  O   UNL     1       4.104  -1.509  -7.236  1.00  0.00    -0.504 OA
ATOM     12  H   UNL     1       4.565  -1.114  -8.018  1.00  0.00     0.293 HD
ENDBRANCH   2  11
BRANCH   5  13
ATOM     13  O   UNL     1       4.914  -3.960  -6.428  1.00  0.00    -0.493 OA
ATOM     14  C   UNL     1       5.582  -4.705  -7.246  1.00  0.00     0.278 C 
ENDBRANCH   5  13
TORSDOF 4
ENDMDL
MODEL 8
REMARK VINA RESULT:    -3.663      2.308      4.559
REMARK INTER + INTRA:          -4.784
REMARK INTER:                  -4.635
REMARK INTRA:                  -0.149
REMARK UNBOUND:                -0.479
REMARK SMILES COc1cccc(C(=O)O)c1O
REMARK SMILES IDX 7 1 11 2 6 3 5 4 3 5 4 6 8 7 9 8 10 9 12 11 2 13 1 14
REMARK H PARENT 10 10 12 12
ROOT
ATOM      1  C   UNL     1       1.993  -0.740  -7.057  1.00  0.00     0.105 A 
ATOM      2  C   UNL     1       1.640  -1.921  -6.462  1.00  0.00     0.172 A 
ATOM      3  C   UNL     1       2.113   0.450  -6.195  1.00  0.00     0.020 A 
ATOM      4  C   UNL     1       2.233   0.251  -4.857  1.00  0.00     0.005 A 
ATOM      5  C   UNL     1       1.991  -2.214  -5.080  1.00  0.00     0.161 A 
ATOM      6  C   UNL     1       2.179  -1.038  -4.251  1.00  0.00     0.050 A 
ENDROOT
BRANCH   1   7
ATOM      7  C   UNL     1       2.355  -0.674  -8.551  1.00  0.00     0.339 C 
ATOM      8  O   UNL     1       1.613   0.636  -9.173  1.00  0.00    -0.246 OA
BRANCH   7   9
ATOM      9  O   UNL     1       2.994  -1.149  -9.239  1.00  0.00    -0.478 OA
ATOM     10  H   UNL     1       3.597  -1.596  -9.885  1.00  0.00     0.297 HD
ENDBRANCH   7   9
ENDBRANCH   1   7
BRANCH   2  11
ATOM     11  O   UNL     1       0.940  -2.915  -7.167  1.00  0.00    -0.504 OA
ATOM     12  H   UNL     1       0.447  -3.615  -7.664  1.00  0.00     0.293 HD
ENDBRANCH   2  11
BRANCH   5  13
ATOM     13  O   UNL     1       1.752  -3.516  -4.658  1.00  0.00    -0.493 OA
ATOM     14  C   UNL     1       1.954  -4.776  -4.456  1.00  0.00     0.278 C 
ENDBRANCH   5  13
TORSDOF 4
ENDMDL
MODEL 9
REMARK VINA RESULT:    -3.352      2.166      3.141
REMARK INTER + INTRA:          -4.419
REMARK INTER:                  -3.940
REMARK INTRA:                  -0.479
REMARK UNBOUND:                -0.479
REMARK SMILES COc1cccc(C(=O)O)c1O
REMARK SMILES IDX 7 1 11 2 6 3 5 4 3 5 4 6 8 7 9 8 10 9 12 11 2 13 1 14
REMARK H PARENT 10 10 12 12
ROOT
ATOM      1  C   UNL     1       2.269  -2.207  -5.230  1.00  0.00     0.105 A 
ATOM      2  C   UNL     1       2.305  -1.729  -6.511  1.00  0.00     0.172 A 
ATOM      3  C   UNL     1       2.959  -3.481  -4.956  1.00  0.00     0.020 A 
ATOM      4  C   UNL     1       3.876  -3.910  -5.861  1.00  0.00     0.005 A 
ATOM      5  C   UNL     1       3.425  -2.007  -7.398  1.00  0.00     0.161 A 
ATOM      6  C   UNL     1       4.147  -3.226  -7.082  1.00  0.00     0.050 A 
ENDROOT
BRANCH   1   7
ATOM      7  C   UNL     1       1.624  -1.398  -4.091  1.00  0.00     0.339 C 
ATOM      8  O   UNL     1       1.596   0.162  -4.559  1.00  0.00    -0.246 OA
BRANCH   7   9
ATOM      9  O   UNL     1       1.127  -1.562  -3.178  1.00  0.00    -0.478 OA
ATOM     10  H   UNL     1       0.658  -1.717  -2.319  1.00  0.00     0.297 HD
ENDBRANCH   7   9
ENDBRANCH   1   7
BRANCH   2  11
ATOM     11  O   UNL     1       1.270  -0.928  -7.022  1.00  0.00    -0.504 OA
ATOM     12  H   UNL     1       0.541  -0.363  -7.382  1.00  0.00     0.293 HD
ENDBRANCH   2  11
BRANCH   5  13
ATOM     13  O   UNL     1       3.437  -1.305  -8.597  1.00  0.00    -0.493 OA
ATOM     14  C   UNL     1       3.397  -1.091  -9.870  1.00  0.00     0.278 C 
ENDBRANCH   5  13
TORSDOF 4
ENDMDL
