MODEL 1
REMARK VINA RESULT:    -4.828      0.000      0.000
REMARK INTER + INTRA:          -6.157
REMARK INTER:                  -5.675
REMARK INTRA:                  -0.483
REMARK UNBOUND:                -0.483
REMARK SMILES COc1cccc(C(=O)O)c1O
REMARK SMILES IDX 7 1 11 2 6 3 5 4 3 5 4 6 8 7 9 8 10 9 12 11 2 13 1 14
REMARK H PARENT 10 10 12 12
ROOT
ATOM      1  C   UNL     1       1.220  -4.314  -4.279  1.00  0.00     0.105 A 
ATOM      2  C   UNL     1       0.883  -4.838  -3.061  1.00  0.00     0.172 A 
ATOM      3  C   UNL     1       0.517  -4.833  -5.466  1.00  0.00     0.020 A 
ATOM      4  C   UNL     1      -0.646  -5.505  -5.266  1.00  0.00     0.005 A 
ATOM      5  C   UNL     1      -0.457  -5.341  -2.792  1.00  0.00     0.161 A 
ATOM      6  C   UNL     1      -1.175  -5.786  -3.972  1.00  0.00     0.050 A 
ENDROOT
BRANCH   1   7
ATOM      7  C   UNL     1       2.221  -3.151  -4.400  1.00  0.00     0.339 C 
ATOM      8  O   UNL     1       2.431  -2.532  -2.907  1.00  0.00    -0.246 OA
BRANCH   7   9
ATOM      9  O   UNL     1       2.859  -2.719  -5.117  1.00  0.00    -0.478 OA
ATOM     10  H   UNL     1       3.459  -2.312  -5.792  1.00  0.00     0.297 HD
ENDBRANCH   7   9
ENDBRANCH   1   7
BRANCH   2  11
ATOM     11  O   UNL     1       1.809  -4.895  -2.006  1.00  0.00    -0.504 OA
ATOM     12  H   UNL     1       2.462  -4.934  -1.263  1.00  0.00     0.293 HD
ENDBRANCH   2  11
BRANCH   5  13
ATOM     13  O   UNL     1      -0.728  -5.662  -1.468  1.00  0.00    -0.493 OA
ATOM     14  C   UNL     1      -1.416  -5.928  -0.407  1.00  0.00     0.278 C 
ENDBRANCH   5  13
TORSDOF 4
ENDMDL
MODEL 2
REMARK VINA RESULT:    -4.808      1.764      4.673
REMARK INTER + INTRA:          -6.134
REMARK INTER:                  -5.655
REMARK INTRA:                  -0.478
REMARK UNBOUND:                -0.483
REMARK SMILES COc1cccc(C(=O)O)c1O
REMARK SMILES IDX 7 1 11 2 6 3 5 4 3 5 4 6 8 7 9 8 10 9 12 11 2 13 1 14
REMARK H PARENT 10 10 12 12
ROOT
ATOM      1  C   UNL     1      -0.408  -6.091  -1.584  1.00  0.00     0.105 A 
ATOM      2  C   UNL     1       0.035  -5.141  -2.464  1.00  0.00     0.172 A 
ATOM      3  C   UNL     1       0.395  -7.319  -1.444  1.00  0.00     0.020 A 
ATOM      4  C   UNL     1       1.677  -7.291  -1.891  1.00  0.00     0.005 A 
ATOM      5  C   UNL     1       1.452  -4.968  -2.751  1.00  0.00     0.161 A 
ATOM      6  C   UNL     1       2.252  -6.161  -2.543  1.00  0.00     0.050 A 
ENDROOT
BRANCH   1   7
ATOM      7  C   UNL     1      -1.639  -5.845  -0.694  1.00  0.00     0.339 C 
ATOM      8  O   UNL     1      -1.912  -4.239  -0.673  1.00  0.00    -0.246 OA
BRANCH   7   9
ATOM      9  O   UNL     1      -2.385  -6.396  -0.196  1.00  0.00    -0.478 OA
ATOM     10  H   UNL     1      -3.088  -6.913   0.272  1.00  0.00     0.297 HD
ENDBRANCH   7   9
ENDBRANCH   1   7
BRANCH   2  11
ATOM     11  O   UNL     1      -0.858  -4.273  -3.114  1.00  0.00    -0.504 OA
ATOM     12  H   UNL     1      -1.488  -3.661  -3.572  1.00  0.00     0.293 HD
ENDBRANCH   2  11
BRANCH   5  13
ATOM     13  O   UNL     1       1.785  -3.849  -3.503  1.00  0.00    -0.493 OA
ATOM     14  C   UNL     1       2.143  -3.143  -4.525  1.00  0.00     0.278 C 
ENDBRANCH   5  13
TORSDOF 4
ENDMDL
MODEL 3
REMARK VINA RESULT:    -4.699      2.119      3.176
REMARK INTER + INTRA:          -6.005
REMARK INTER:                  -5.739
REMARK INTRA:                  -0.266
REMARK UNBOUND:                -0.483
REMARK SMILES COc1cccc(C(=O)O)c1O
REMARK SMILES IDX 7 1 11 2 6 3 5 4 3 5 4 6 8 7 9 8 10 9 12 11 2 13 1 14
REMARK H PARENT 10 10 12 12
ROOT
ATOM      1  C   UNL     1       1.183  -4.301  -3.959  1.00  0.00     0.105 A 
ATOM      2  C   UNL     1       0.842  -5.257  -4.876  1.00  0.00     0.172 A 
ATOM      3  C   UNL     1       0.751  -4.507  -2.564  1.00  0.00     0.020 A 
ATOM      4  C   UNL     1       0.380  -5.761  -2.198  1.00  0.00     0.005 A 
ATOM      5  C   UNL     1       0.679  -6.654  -4.499  1.00  0.00     0.161 A 
ATOM      6  C   UNL     1       0.324  -6.858  -3.107  1.00  0.00     0.050 A 
ENDROOT
BRANCH   1   7
ATOM      7  C   UNL     1       2.073  -3.106  -4.341  1.00  0.00     0.339 C 
ATOM      8  O   UNL     1       2.597  -2.427  -2.957  1.00  0.00    -0.246 OA
BRANCH   7   9
ATOM      9  O   UNL     1       2.507  -2.677  -5.199  1.00  0.00    -0.478 OA
ATOM     10  H   UNL     1       2.914  -2.272  -6.006  1.00  0.00     0.297 HD
ENDBRANCH   7   9
ENDBRANCH   1   7
BRANCH   2  11
ATOM     11  O   UNL     1       0.653  -4.936  -6.232  1.00  0.00    -0.504 OA
ATOM     12  H   UNL     1       0.521  -4.710  -7.186  1.00  0.00     0.293 HD
ENDBRANCH   2  11
BRANCH   5  13
ATOM     13  O   UNL     1       0.529  -7.551  -5.549  1.00  0.00    -0.493 OA
ATOM     14  C   UNL     1       0.808  -8.516  -6.362  1.00  0.00     0.278 C 
ENDBRANCH   5  13
TORSDOF 4
ENDMDL
MODEL 4
REMARK VINA RESULT:    -4.676      2.953      4.391
REMARK INTER + INTRA:          -5.979
REMARK INTER:                  -5.712
REMARK INTRA:                  -0.266
REMARK UNBOUND:                -0.483
REMARK SMILES COc1cccc(C(=O)O)c1O
REMARK SMILES IDX 7 1 11 2 6 3 5 4 3 5 4 6 8 7 9 8 10 9 12 11 2 13 1 14
REMARK H PARENT 10 10 12 12
ROOT
ATOM      1  C   UNL     1      -0.360  -5.812  -1.671  1.00  0.00     0.105 A 
ATOM      2  C   UNL     1       0.169  -6.999  -2.096  1.00  0.00     0.172 A 
ATOM      3  C   UNL     1      -0.010  -4.597  -2.429  1.00  0.00     0.020 A 
ATOM      4  C   UNL     1       0.494  -4.756  -3.680  1.00  0.00     0.005 A 
ATOM      5  C   UNL     1       0.485  -7.237  -3.498  1.00  0.00     0.161 A 
ATOM      6  C   UNL     1       0.760  -6.032  -4.259  1.00  0.00     0.050 A 
ENDROOT
BRANCH   1   7
ATOM      7  C   UNL     1      -1.369  -5.756  -0.511  1.00  0.00     0.339 C 
ATOM      8  O   UNL     1      -2.101  -4.302  -0.572  1.00  0.00    -0.246 OA
BRANCH   7   9
ATOM      9  O   UNL     1      -1.780  -6.392   0.221  1.00  0.00    -0.478 OA
ATOM     10  H   UNL     1      -2.167  -6.989   0.909  1.00  0.00     0.297 HD
ENDBRANCH   7   9
ENDBRANCH   1   7
BRANCH   2  11
ATOM     11  O   UNL     1       0.413  -8.054  -1.200  1.00  0.00    -0.504 OA
ATOM     12  H   UNL     1       0.585  -8.798  -0.569  1.00  0.00     0.293 HD
ENDBRANCH   2  11
BRANCH   5  13
ATOM     13  O   UNL     1       0.828  -8.541  -3.829  1.00  0.00    -0.493 OA
ATOM     14  C   UNL     1       0.737  -9.716  -4.360  1.00  0.00     0.278 C 
ENDBRANCH   5  13
TORSDOF 4
ENDMDL
MODEL 5
REMARK VINA RESULT:    -3.968      2.152      3.090
REMARK INTER + INTRA:          -5.146
REMARK INTER:                  -4.846
REMARK INTRA:                  -0.301
REMARK UNBOUND:                -0.483
REMARK SMILES COc1cccc(C(=O)O)c1O
REMARK SMILES IDX 7 1 11 2 6 3 5 4 3 5 4 6 8 7 9 8 10 9 12 11 2 13 1 14
REMARK H PARENT 10 10 12 12
ROOT
ATOM      1  C   UNL     1       0.557  -4.837  -4.978  1.00  0.00     0.105 A 
ATOM      2  C   UNL     1      -0.340  -5.100  -3.980  1.00  0.00     0.172 A 
ATOM      3  C   UNL     1       1.602  -3.832  -4.711  1.00  0.00     0.020 A 
ATOM      4  C   UNL     1       1.846  -3.505  -3.416  1.00  0.00     0.005 A 
ATOM      5  C   UNL     1       0.020  -4.969  -2.575  1.00  0.00     0.161 A 
ATOM      6  C   UNL     1       1.098  -4.032  -2.322  1.00  0.00     0.050 A 
ENDROOT
BRANCH   1   7
ATOM      7  C   UNL     1       0.545  -5.633  -6.295  1.00  0.00     0.339 C 
ATOM      8  O   UNL     1       0.357  -7.205  -5.911  1.00  0.00    -0.246 OA
BRANCH   7   9
ATOM      9  O   UNL     1       0.524  -5.458  -7.333  1.00  0.00    -0.478 OA
ATOM     10  H   UNL     1       0.504  -5.294  -8.309  1.00  0.00     0.297 HD
ENDBRANCH   7   9
ENDBRANCH   1   7
BRANCH   2  11
ATOM     11  O   UNL     1      -1.648  -5.530  -4.265  1.00  0.00    -0.504 OA
ATOM     12  H   UNL     1      -2.568  -5.833  -4.467  1.00  0.00     0.293 HD
ENDBRANCH   2  11
BRANCH   5  13
ATOM     13  O   UNL     1      -0.910  -5.452  -1.664  1.00  0.00    -0.493 OA
ATOM     14  C   UNL     1      -1.376  -6.005  -0.593  1.00  0.00     0.278 C 
ENDBRANCH   5  13
TORSDOF 4
ENDMDL
MODEL 6
REMARK VINA RESULT:    -3.953      2.258      4.679
REMARK INTER + INTRA:          -5.128
REMARK INTER:                  -4.811
REMARK INTRA:                  -0.317
REMARK UNBOUND:                -0.483
REMARK SMILES COc1cccc(C(=O)O)c1O
REMARK SMILES IDX 7 1 11 2 6 3 5 4 3 5 4 6 8 7 9 8 10 9 12 11 2 13 1 14
REMARK H PARENT 10 10 12 12
ROOT
ATOM      1  C   UNL     1       0.403  -6.949  -1.619  1.00  0.00     0.105 A 
ATOM      2  C   UNL     1       1.214  -6.108  -2.330  1.00  0.00     0.172 A 
ATOM      3  C   UNL     1      -0.751  -6.356  -0.919  1.00  0.00     0.020 A 
ATOM      4  C   UNL     1      -1.155  -5.118  -1.305  1.00  0.00     0.005 A 
ATOM      5  C   UNL     1       0.702  -4.891  -2.944  1.00  0.00     0.161 A 
ATOM      6  C   UNL     1      -0.478  -4.349  -2.296  1.00  0.00     0.050 A 
ENDROOT
BRANCH   1   7
ATOM      7  C   UNL     1       0.622  -8.472  -1.631  1.00  0.00     0.339 C 
ATOM      8  O   UNL     1       0.940  -8.906  -3.169  1.00  0.00    -0.246 OA
BRANCH   7   9
ATOM      9  O   UNL     1       0.720  -9.270  -0.951  1.00  0.00    -0.478 OA
ATOM     10  H   UNL     1       0.812 -10.019  -0.310  1.00  0.00     0.297 HD
ENDBRANCH   7   9
ENDBRANCH   1   7
BRANCH   2  11
ATOM     11  O   UNL     1       2.577  -6.393  -2.520  1.00  0.00    -0.504 OA
ATOM     12  H   UNL     1       3.538  -6.594  -2.653  1.00  0.00     0.293 HD
ENDBRANCH   2  11
BRANCH   5  13
ATOM     13  O   UNL     1       1.574  -4.231  -3.800  1.00  0.00    -0.493 OA
ATOM     14  C   UNL     1       2.119  -3.259  -4.455  1.00  0.00     0.278 C 
ENDBRANCH   5  13
TORSDOF 4
ENDMDL
MODEL 7
REMARK VINA RESULT:    -3.832      7.177      8.585
REMARK INTER + INTRA:          -4.986
REMARK INTER:                  -4.706
REMARK INTRA:                  -0.281
REMARK UNBOUND:                -0.483
REMARK SMILES COc1cccc(C(=O)O)c1O
REMARK SMILES IDX 7 1 11 2 6 3 5 4 3 5 4 6 8 7 9 8 10 9 12 11 2 13 1 14
REMARK H PARENT 10 10 12 12
ROOT
ATOM      1  C   UNL     1       3.432  -1.077   3.126  1.00  0.00     0.105 A 
ATOM      2  C   UNL     1       2.422  -0.711   2.279  1.00  0.00     0.172 A 
ATOM      3  C   UNL     1       4.769  -0.504   2.884  1.00  0.00     0.020 A 
ATOM      4  C   UNL     1       4.849   0.601   2.100  1.00  0.00     0.005 A 
ATOM      5  C   UNL     1       2.408   0.590   1.625  1.00  0.00     0.161 A 
ATOM      6  C   UNL     1       3.720   1.184   1.452  1.00  0.00     0.050 A 
ENDROOT
BRANCH   1   7
ATOM      7  C   UNL     1       3.165  -1.970   4.350  1.00  0.00     0.339 C 
ATOM      8  O   UNL     1       1.687  -1.586   4.919  1.00  0.00    -0.246 OA
BRANCH   7   9
ATOM      9  O   UNL     1       3.597  -2.790   4.849  1.00  0.00    -0.478 OA
ATOM     10  H   UNL     1       4.003  -3.562   5.318  1.00  0.00     0.297 HD
ENDBRANCH   7   9
ENDBRANCH   1   7
BRANCH   2  11
ATOM     11  O   UNL     1       1.340  -1.568   2.017  1.00  0.00    -0.504 OA
ATOM     12  H   UNL     1       0.577  -2.172   1.833  1.00  0.00     0.293 HD
ENDBRANCH   2  11
BRANCH   5  13
ATOM     13  O   UNL     1       1.238   0.916   0.951  1.00  0.00    -0.493 OA
ATOM     14  C   UNL     1      -0.027   1.017   0.708  1.00  0.00     0.278 C 
ENDBRANCH   5  13
TORSDOF 4
ENDMDL
MODEL 8
REMARK VINA RESULT:    -3.806      7.621      8.504
REMARK INTER + INTRA:          -4.956
REMARK INTER:                  -4.738
REMARK INTRA:                  -0.218
REMARK UNBOUND:                -0.483
REMARK SMILES COc1cccc(C(=O)O)c1O
REMARK SMILES IDX 7 1 11 2 6 3 5 4 3 5 4 6 8 7 9 8 10 9 12 11 2 13 1 14
REMARK H PARENT 10 10 12 12
ROOT
ATOM      1  C   UNL     1      -4.302   1.809  -1.033  1.00  0.00     0.105 A 
ATOM      2  C   UNL     1      -3.071   1.512  -0.517  1.00  0.00     0.172 A 
ATOM      3  C   UNL     1      -4.354   2.387  -2.389  1.00  0.00     0.020 A 
ATOM      4  C   UNL     1      -3.254   2.253  -3.174  1.00  0.00     0.005 A 
ATOM      5  C   UNL     1      -1.954   1.135  -1.372  1.00  0.00     0.161 A 
ATOM      6  C   UNL     1      -2.043   1.646  -2.728  1.00  0.00     0.050 A 
ENDROOT
BRANCH   1   7
ATOM      7  C   UNL     1      -5.594   1.457  -0.275  1.00  0.00     0.339 C 
ATOM      8  O   UNL     1      -5.311   0.086   0.558  1.00  0.00    -0.246 OA
BRANCH   7   9
ATOM      9  O   UNL     1      -6.536   1.877  -0.067  1.00  0.00    -0.478 OA
ATOM     10  H   UNL     1      -7.422   2.273   0.130  1.00  0.00     0.297 HD
ENDBRANCH   7   9
ENDBRANCH   1   7
BRANCH   2  11
ATOM     11  O   UNL     1      -2.833   1.537   0.868  1.00  0.00    -0.504 OA
ATOM     12  H   UNL     1      -2.665   1.554   1.844  1.00  0.00     0.293 HD
ENDBRANCH   2  11
BRANCH   5  13
ATOM     13  O   UNL     1      -0.821   0.669  -0.719  1.00  0.00    -0.493 OA
ATOM     14  C   UNL     1      -0.038   0.343   0.256  1.00  0.00     0.278 C 
ENDBRANCH   5  13
TORSDOF 4
ENDMDL
MODEL 9
REMARK VINA RESULT:    -3.749      7.282      7.811
REMARK INTER + INTRA:          -4.889
REMARK INTER:                  -4.632
REMARK INTRA:                  -0.257
REMARK UNBOUND:                -0.483
REMARK SMILES COc1cccc(C(=O)O)c1O
REMARK SMILES IDX 7 1 11 2 6 3 5 4 3 5 4 6 8 7 9 8 10 9 12 11 2 13 1 14
REMARK H PARENT 10 10 12 12
ROOT
ATOM      1  C   UNL     1      -3.622   1.503  -2.298  1.00  0.00     0.105 A 
ATOM      2  C   UNL     1      -2.594   1.169  -1.459  1.00  0.00     0.172 A 
ATOM      3  C   UNL     1      -4.998   1.303  -1.807  1.00  0.00     0.020 A 
ATOM      4  C   UNL     1      -5.176   1.160  -0.468  1.00  0.00     0.005 A 
ATOM      5  C   UNL     1      -2.733   1.251  -0.012  1.00  0.00     0.161 A 
ATOM      6  C   UNL     1      -4.098   1.125   0.464  1.00  0.00     0.050 A 
ENDROOT
BRANCH   1   7
ATOM      7  C   UNL     1      -3.358   2.162  -3.663  1.00  0.00     0.339 C 
ATOM      8  O   UNL     1      -1.951   2.974  -3.548  1.00  0.00    -0.246 OA
BRANCH   7   9
ATOM      9  O   UNL     1      -3.754   2.161  -4.639  1.00  0.00    -0.478 OA
ATOM     10  H   UNL     1      -4.126   2.161  -5.556  1.00  0.00     0.297 HD
ENDBRANCH   7   9
ENDBRANCH   1   7
BRANCH   2  11
ATOM     11  O   UNL     1      -1.349   0.751  -1.958  1.00  0.00    -0.504 OA
ATOM     12  H   UNL     1      -0.471   0.456  -2.309  1.00  0.00     0.293 HD
ENDBRANCH   2  11
BRANCH   5  13
ATOM     13  O   UNL     1      -1.564   1.077   0.719  1.00  0.00    -0.493 OA
ATOM     14  C   UNL     1      -0.331   0.784   0.973  1.00  0.00     0.278 C 
ENDBRANCH   5  13
TORSDOF 4
ENDMDL
