MODEL 1
REMARK VINA RESULT:    -4.932      0.000      0.000
REMARK INTER + INTRA:          -6.067
REMARK INTER:                  -5.797
REMARK INTRA:                  -0.270
REMARK UNBOUND:                -0.270
REMARK SMILES COc1cccc(C(=O)O)c1O
REMARK SMILES IDX 7 1 11 2 6 3 5 4 3 5 4 6 8 7 9 8 10 9 12 11 2 13 1 14
REMARK H PARENT 10 10 12 12
ROOT
ATOM      1  C   UNL     1       4.511  -5.983  -1.983  1.00  0.00     0.105 A 
ATOM      2  C   UNL     1       5.340  -7.040  -1.726  1.00  0.00     0.172 A 
ATOM      3  C   UNL     1       5.051  -4.626  -1.780  1.00  0.00     0.020 A 
ATOM      4  C   UNL     1       6.400  -4.486  -1.714  1.00  0.00     0.005 A 
ATOM      5  C   UNL     1       6.783  -6.937  -1.893  1.00  0.00     0.161 A 
ATOM      6  C   UNL     1       7.303  -5.589  -1.763  1.00  0.00     0.050 A 
ENDROOT
BRANCH   1   7
ATOM      7  C   UNL     1       3.102  -6.193  -2.564  1.00  0.00     0.339 C 
ATOM      8  O   UNL     1       2.622  -4.774  -3.202  1.00  0.00    -0.246 OA
BRANCH   7   9
ATOM      9  O   UNL     1       2.426  -6.978  -2.751  1.00  0.00    -0.478 OA
ATOM     10  H   UNL     1       1.789  -7.716  -2.927  1.00  0.00     0.297 HD
ENDBRANCH   7   9
ENDBRANCH   1   7
BRANCH   2  11
ATOM     11  O   UNL     1       4.833  -8.282  -1.308  1.00  0.00    -0.504 OA
ATOM     12  H   UNL     1       4.476  -9.158  -1.014  1.00  0.00     0.293 HD
ENDBRANCH   2  11
BRANCH   5  13
ATOM     13  O   UNL     1       7.490  -8.129  -1.792  1.00  0.00    -0.493 OA
ATOM     14  C   UNL     1       8.272  -9.101  -2.130  1.00  0.00     0.278 C 
ENDBRANCH   5  13
TORSDOF 4
ENDMDL
MODEL 2
REMARK VINA RESULT:    -4.928      2.958      3.983
REMARK INTER + INTRA:          -6.062
REMARK INTER:                  -5.793
REMARK INTRA:                  -0.269
REMARK UNBOUND:                -0.270
REMARK SMILES COc1cccc(C(=O)O)c1O
REMARK SMILES IDX 7 1 11 2 6 3 5 4 3 5 4 6 8 7 9 8 10 9 12 11 2 13 1 14
REMARK H PARENT 10 10 12 12
ROOT
ATOM      1  C   UNL     1       6.589  -4.027  -0.999  1.00  0.00     0.105 A 
ATOM      2  C   UNL     1       7.568  -4.744  -1.631  1.00  0.00     0.172 A 
ATOM      3  C   UNL     1       5.216  -4.561  -1.040  1.00  0.00     0.020 A 
ATOM      4  C   UNL     1       5.057  -5.870  -1.364  1.00  0.00     0.005 A 
ATOM      5  C   UNL     1       7.491  -6.192  -1.760  1.00  0.00     0.161 A 
ATOM      6  C   UNL     1       6.140  -6.722  -1.728  1.00  0.00     0.050 A 
ENDROOT
BRANCH   1   7
ATOM      7  C   UNL     1       6.922  -2.766  -0.183  1.00  0.00     0.339 C 
ATOM      8  O   UNL     1       5.673  -2.495   0.827  1.00  0.00    -0.246 OA
BRANCH   7   9
ATOM      9  O   UNL     1       7.730  -2.110  -0.022  1.00  0.00    -0.478 OA
ATOM     10  H   UNL     1       8.489  -1.492   0.130  1.00  0.00     0.297 HD
ENDBRANCH   7   9
ENDBRANCH   1   7
BRANCH   2  11
ATOM     11  O   UNL     1       8.704  -4.116  -2.167  1.00  0.00    -0.504 OA
ATOM     12  H   UNL     1       9.505  -3.673  -2.545  1.00  0.00     0.293 HD
ENDBRANCH   2  11
BRANCH   5  13
ATOM     13  O   UNL     1       8.633  -6.819  -2.243  1.00  0.00    -0.493 OA
ATOM     14  C   UNL     1       9.717  -7.521  -2.239  1.00  0.00     0.278 C 
ENDBRANCH   5  13
TORSDOF 4
ENDMDL
MODEL 3
REMARK VINA RESULT:    -4.634      1.868      3.141
REMARK INTER + INTRA:          -5.717
REMARK INTER:                  -5.290
REMARK INTRA:                  -0.427
REMARK UNBOUND:                -0.270
REMARK SMILES COc1cccc(C(=O)O)c1O
REMARK SMILES IDX 7 1 11 2 6 3 5 4 3 5 4 6 8 7 9 8 10 9 12 11 2 13 1 14
REMARK H PARENT 10 10 12 12
ROOT
ATOM      1  C   UNL     1       4.577  -6.100  -2.238  1.00  0.00     0.105 A 
ATOM      2  C   UNL     1       5.084  -4.956  -1.686  1.00  0.00     0.172 A 
ATOM      3  C   UNL     1       5.498  -7.236  -2.423  1.00  0.00     0.020 A 
ATOM      4  C   UNL     1       6.661  -7.226  -1.722  1.00  0.00     0.005 A 
ATOM      5  C   UNL     1       6.191  -4.989  -0.742  1.00  0.00     0.161 A 
ATOM      6  C   UNL     1       7.056  -6.146  -0.879  1.00  0.00     0.050 A 
ENDROOT
BRANCH   1   7
ATOM      7  C   UNL     1       3.078  -6.238  -2.558  1.00  0.00     0.339 C 
ATOM      8  O   UNL     1       2.589  -4.831  -3.218  1.00  0.00    -0.246 OA
BRANCH   7   9
ATOM      9  O   UNL     1       2.329  -6.978  -2.568  1.00  0.00    -0.478 OA
ATOM     10  H   UNL     1       1.625  -7.674  -2.576  1.00  0.00     0.297 HD
ENDBRANCH   7   9
ENDBRANCH   1   7
BRANCH   2  11
ATOM     11  O   UNL     1       4.542  -3.695  -1.989  1.00  0.00    -0.504 OA
ATOM     12  H   UNL     1       4.161  -2.806  -2.203  1.00  0.00     0.293 HD
ENDBRANCH   2  11
BRANCH   5  13
ATOM     13  O   UNL     1       6.481  -3.789  -0.105  1.00  0.00    -0.493 OA
ATOM     14  C   UNL     1       7.082  -2.675   0.155  1.00  0.00     0.278 C 
ENDBRANCH   5  13
TORSDOF 4
ENDMDL
MODEL 4
REMARK VINA RESULT:    -4.527      2.739      4.313
REMARK INTER + INTRA:          -5.592
REMARK INTER:                  -5.246
REMARK INTRA:                  -0.346
REMARK UNBOUND:                -0.270
REMARK SMILES COc1cccc(C(=O)O)c1O
REMARK SMILES IDX 7 1 11 2 6 3 5 4 3 5 4 6 8 7 9 8 10 9 12 11 2 13 1 14
REMARK H PARENT 10 10 12 12
ROOT
ATOM      1  C   UNL     1       6.308  -4.245  -0.554  1.00  0.00     0.105 A 
ATOM      2  C   UNL     1       5.150  -4.667  -1.149  1.00  0.00     0.172 A 
ATOM      3  C   UNL     1       7.380  -5.239  -0.366  1.00  0.00     0.020 A 
ATOM      4  C   UNL     1       7.318  -6.381  -1.099  1.00  0.00     0.005 A 
ATOM      5  C   UNL     1       5.142  -5.749  -2.122  1.00  0.00     0.161 A 
ATOM      6  C   UNL     1       6.240  -6.687  -1.980  1.00  0.00     0.050 A 
ENDROOT
BRANCH   1   7
ATOM      7  C   UNL     1       6.528  -2.767  -0.190  1.00  0.00     0.339 C 
ATOM      8  O   UNL     1       5.424  -2.375   0.942  1.00  0.00    -0.246 OA
BRANCH   7   9
ATOM      9  O   UNL     1       7.218  -1.994  -0.376  1.00  0.00    -0.478 OA
ATOM     10  H   UNL     1       7.866  -1.266  -0.552  1.00  0.00     0.297 HD
ENDBRANCH   7   9
ENDBRANCH   1   7
BRANCH   2  11
ATOM     11  O   UNL     1       3.917  -4.057  -0.862  1.00  0.00    -0.504 OA
ATOM     12  H   UNL     1       3.047  -3.628  -0.661  1.00  0.00     0.293 HD
ENDBRANCH   2  11
BRANCH   5  13
ATOM     13  O   UNL     1       3.943  -5.948  -2.796  1.00  0.00    -0.493 OA
ATOM     14  C   UNL     1       2.725  -6.324  -3.008  1.00  0.00     0.278 C 
ENDBRANCH   5  13
TORSDOF 4
ENDMDL
MODEL 5
REMARK VINA RESULT:    -4.186      2.561      3.524
REMARK INTER + INTRA:          -5.191
REMARK INTER:                  -4.763
REMARK INTRA:                  -0.428
REMARK UNBOUND:                -0.270
REMARK SMILES COc1cccc(C(=O)O)c1O
REMARK SMILES IDX 7 1 11 2 6 3 5 4 3 5 4 6 8 7 9 8 10 9 12 11 2 13 1 14
REMARK H PARENT 10 10 12 12
ROOT
ATOM      1  C   UNL     1       5.760  -4.340  -1.066  1.00  0.00     0.105 A 
ATOM      2  C   UNL     1       6.606  -5.375  -1.355  1.00  0.00     0.172 A 
ATOM      3  C   UNL     1       4.390  -4.406  -1.608  1.00  0.00     0.020 A 
ATOM      4  C   UNL     1       3.936  -5.614  -2.031  1.00  0.00     0.005 A 
ATOM      5  C   UNL     1       6.113  -6.727  -1.574  1.00  0.00     0.161 A 
ATOM      6  C   UNL     1       4.740  -6.792  -2.039  1.00  0.00     0.050 A 
ENDROOT
BRANCH   1   7
ATOM      7  C   UNL     1       6.183  -3.199  -0.125  1.00  0.00     0.339 C 
ATOM      8  O   UNL     1       7.624  -2.647  -0.645  1.00  0.00    -0.246 OA
BRANCH   7   9
ATOM      9  O   UNL     1       5.785  -2.628   0.665  1.00  0.00    -0.478 OA
ATOM     10  H   UNL     1       5.410  -2.090   1.407  1.00  0.00     0.297 HD
ENDBRANCH   7   9
ENDBRANCH   1   7
BRANCH   2  11
ATOM     11  O   UNL     1       7.996  -5.183  -1.433  1.00  0.00    -0.504 OA
ATOM     12  H   UNL     1       8.976  -5.048  -1.487  1.00  0.00     0.293 HD
ENDBRANCH   2  11
BRANCH   5  13
ATOM     13  O   UNL     1       7.082  -7.719  -1.662  1.00  0.00    -0.493 OA
ATOM     14  C   UNL     1       7.972  -8.493  -2.188  1.00  0.00     0.278 C 
ENDBRANCH   5  13
TORSDOF 4
ENDMDL
MODEL 6
REMARK VINA RESULT:    -4.038      2.235      3.766
REMARK INTER + INTRA:          -5.016
REMARK INTER:                  -4.682
REMARK INTRA:                  -0.334
REMARK UNBOUND:                -0.270
REMARK SMILES COc1cccc(C(=O)O)c1O
REMARK SMILES IDX 7 1 11 2 6 3 5 4 3 5 4 6 8 7 9 8 10 9 12 11 2 13 1 14
REMARK H PARENT 10 10 12 12
ROOT
ATOM      1  C   UNL     1       4.917  -7.095  -1.412  1.00  0.00     0.105 A 
ATOM      2  C   UNL     1       5.619  -6.118  -0.763  1.00  0.00     0.172 A 
ATOM      3  C   UNL     1       3.773  -6.678  -2.244  1.00  0.00     0.020 A 
ATOM      4  C   UNL     1       3.705  -5.372  -2.613  1.00  0.00     0.005 A 
ATOM      5  C   UNL     1       5.732  -4.771  -1.304  1.00  0.00     0.161 A 
ATOM      6  C   UNL     1       4.640  -4.387  -2.179  1.00  0.00     0.050 A 
ENDROOT
BRANCH   1   7
ATOM      7  C   UNL     1       5.363  -8.567  -1.366  1.00  0.00     0.339 C 
ATOM      8  O   UNL     1       6.984  -8.590  -1.527  1.00  0.00    -0.246 OA
BRANCH   7   9
ATOM      9  O   UNL     1       4.957  -9.518  -1.169  1.00  0.00    -0.478 OA
ATOM     10  H   UNL     1       4.574 -10.413  -0.983  1.00  0.00     0.297 HD
ENDBRANCH   7   9
ENDBRANCH   1   7
BRANCH   2  11
ATOM     11  O   UNL     1       6.284  -6.377   0.448  1.00  0.00    -0.504 OA
ATOM     12  H   UNL     1       6.752  -6.559   1.302  1.00  0.00     0.293 HD
ENDBRANCH   2  11
BRANCH   5  13
ATOM     13  O   UNL     1       6.630  -3.932  -0.656  1.00  0.00    -0.493 OA
ATOM     14  C   UNL     1       7.087  -2.875  -0.069  1.00  0.00     0.278 C 
ENDBRANCH   5  13
TORSDOF 4
ENDMDL
MODEL 7
REMARK VINA RESULT:    -4.036      2.280      4.628
REMARK INTER + INTRA:          -5.014
REMARK INTER:                  -4.680
REMARK INTRA:                  -0.334
REMARK UNBOUND:                -0.270
REMARK SMILES COc1cccc(C(=O)O)c1O
REMARK SMILES IDX 7 1 11 2 6 3 5 4 3 5 4 6 8 7 9 8 10 9 12 11 2 13 1 14
REMARK H PARENT 10 10 12 12
ROOT
ATOM      1  C   UNL     1       7.572  -4.262  -1.853  1.00  0.00     0.105 A 
ATOM      2  C   UNL     1       6.487  -4.863  -2.429  1.00  0.00     0.172 A 
ATOM      3  C   UNL     1       7.325  -3.338  -0.731  1.00  0.00     0.020 A 
ATOM      4  C   UNL     1       6.122  -3.413  -0.104  1.00  0.00     0.005 A 
ATOM      5  C   UNL     1       5.280  -5.154  -1.668  1.00  0.00     0.161 A 
ATOM      6  C   UNL     1       5.077  -4.288  -0.522  1.00  0.00     0.050 A 
ENDROOT
BRANCH   1   7
ATOM      7  C   UNL     1       9.006  -4.614  -2.285  1.00  0.00     0.339 C 
ATOM      8  O   UNL     1       9.073  -6.230  -2.481  1.00  0.00    -0.246 OA
BRANCH   7   9
ATOM      9  O   UNL     1       9.894  -4.128  -2.575  1.00  0.00    -0.478 OA
ATOM     10  H   UNL     1      10.729  -3.671  -2.849  1.00  0.00     0.297 HD
ENDBRANCH   7   9
ENDBRANCH   1   7
BRANCH   2  11
ATOM     11  O   UNL     1       6.497  -5.249  -3.781  1.00  0.00    -0.504 OA
ATOM     12  H   UNL     1       6.504  -5.521  -4.733  1.00  0.00     0.293 HD
ENDBRANCH   2  11
BRANCH   5  13
ATOM     13  O   UNL     1       4.333  -5.940  -2.312  1.00  0.00    -0.493 OA
ATOM     14  C   UNL     1       3.175  -6.343  -2.720  1.00  0.00     0.278 C 
ENDBRANCH   5  13
TORSDOF 4
ENDMDL
MODEL 8
REMARK VINA RESULT:    -3.946      1.879      2.459
REMARK INTER + INTRA:          -4.908
REMARK INTER:                  -4.648
REMARK INTRA:                  -0.260
REMARK UNBOUND:                -0.270
REMARK SMILES COc1cccc(C(=O)O)c1O
REMARK SMILES IDX 7 1 11 2 6 3 5 4 3 5 4 6 8 7 9 8 10 9 12 11 2 13 1 14
REMARK H PARENT 10 10 12 12
ROOT
ATOM      1  C   UNL     1       5.291  -5.165  -1.905  1.00  0.00     0.105 A 
ATOM      2  C   UNL     1       6.600  -5.401  -2.225  1.00  0.00     0.172 A 
ATOM      3  C   UNL     1       5.017  -4.292  -0.750  1.00  0.00     0.020 A 
ATOM      4  C   UNL     1       6.023  -3.494  -0.308  1.00  0.00     0.005 A 
ATOM      5  C   UNL     1       7.641  -4.419  -1.955  1.00  0.00     0.161 A 
ATOM      6  C   UNL     1       7.337  -3.514  -0.862  1.00  0.00     0.050 A 
ENDROOT
BRANCH   1   7
ATOM      7  C   UNL     1       4.145  -5.703  -2.779  1.00  0.00     0.339 C 
ATOM      8  O   UNL     1       2.980  -4.564  -2.810  1.00  0.00    -0.246 OA
BRANCH   7   9
ATOM      9  O   UNL     1       3.941  -6.515  -3.417  1.00  0.00    -0.478 OA
ATOM     10  H   UNL     1       3.750  -7.279  -4.017  1.00  0.00     0.297 HD
ENDBRANCH   7   9
ENDBRANCH   1   7
BRANCH   2  11
ATOM     11  O   UNL     1       6.997  -6.595  -2.851  1.00  0.00    -0.504 OA
ATOM     12  H   UNL     1       7.276  -7.436  -3.292  1.00  0.00     0.293 HD
ENDBRANCH   2  11
BRANCH   5  13
ATOM     13  O   UNL     1       8.888  -4.692  -2.503  1.00  0.00    -0.493 OA
ATOM     14  C   UNL     1      10.163  -4.894  -2.562  1.00  0.00     0.278 C 
ENDBRANCH   5  13
TORSDOF 4
ENDMDL
