MODEL 1
REMARK VINA RESULT:    -4.820      0.000      0.000
REMARK INTER + INTRA:          -6.145
REMARK INTER:                  -5.665
REMARK INTRA:                  -0.480
REMARK UNBOUND:                -0.480
REMARK SMILES COc1cccc(C(=O)O)c1O
REMARK SMILES IDX 7 1 11 2 6 3 5 4 3 5 4 6 8 7 9 8 10 9 12 11 2 13 1 14
REMARK H PARENT 10 10 12 12
ROOT
ATOM      1  C   UNL     1      -0.780   0.802  -7.326  1.00  0.00     0.105 A 
ATOM      2  C   UNL     1       0.363   1.203  -6.691  1.00  0.00     0.172 A 
ATOM      3  C   UNL     1      -0.645  -0.166  -8.430  1.00  0.00     0.020 A 
ATOM      4  C   UNL     1       0.513  -0.870  -8.514  1.00  0.00     0.005 A 
ATOM      5  C   UNL     1       1.524   0.332  -6.586  1.00  0.00     0.161 A 
ATOM      6  C   UNL     1       1.617  -0.667  -7.634  1.00  0.00     0.050 A 
ENDROOT
BRANCH   1   7
ATOM      7  C   UNL     1      -2.167   1.258  -6.841  1.00  0.00     0.339 C 
ATOM      8  O   UNL     1      -1.972   1.928  -5.369  1.00  0.00    -0.246 OA
BRANCH   7   9
ATOM      9  O   UNL     1      -3.150   1.350  -7.207  1.00  0.00    -0.478 OA
ATOM     10  H   UNL     1      -4.075   1.437  -7.551  1.00  0.00     0.297 HD
ENDBRANCH   7   9
ENDBRANCH   1   7
BRANCH   2  11
ATOM     11  O   UNL     1       0.460   2.471  -6.092  1.00  0.00    -0.504 OA
ATOM     12  H   UNL     1       0.529   3.364  -5.669  1.00  0.00     0.293 HD
ENDBRANCH   2  11
BRANCH   5  13
ATOM     13  O   UNL     1       2.542   0.777  -5.752  1.00  0.00    -0.493 OA
ATOM     14  C   UNL     1       3.708   1.202  -5.391  1.00  0.00     0.278 C 
ENDBRANCH   5  13
TORSDOF 4
ENDMDL
MODEL 2
REMARK VINA RESULT:    -4.683      2.873      4.390
REMARK INTER + INTRA:          -5.984
REMARK INTER:                  -5.714
REMARK INTRA:                  -0.271
REMARK UNBOUND:                -0.480
REMARK SMILES COc1cccc(C(=O)O)c1O
REMARK SMILES IDX 7 1 11 2 6 3 5 4 3 5 4 6 8 7 9 8 10 9 12 11 2 13 1 14
REMARK H PARENT 10 10 12 12
ROOT
ATOM      1  C   UNL     1       2.293   1.391  -6.402  1.00  0.00     0.105 A 
ATOM      2  C   UNL     1       2.508   1.930  -7.641  1.00  0.00     0.172 A 
ATOM      3  C   UNL     1       0.953   0.846  -6.117  1.00  0.00     0.020 A 
ATOM      4  C   UNL     1       0.145   0.573  -7.174  1.00  0.00     0.005 A 
ATOM      5  C   UNL     1       1.792   1.453  -8.816  1.00  0.00     0.161 A 
ATOM      6  C   UNL     1       0.504   0.852  -8.525  1.00  0.00     0.050 A 
ENDROOT
BRANCH   1   7
ATOM      7  C   UNL     1       3.432   1.261  -5.377  1.00  0.00     0.339 C 
ATOM      8  O   UNL     1       2.991   0.121  -4.300  1.00  0.00    -0.246 OA
BRANCH   7   9
ATOM      9  O   UNL     1       4.416   1.606  -5.229  1.00  0.00    -0.478 OA
ATOM     10  H   UNL     1       5.341   1.931  -5.090  1.00  0.00     0.297 HD
ENDBRANCH   7   9
ENDBRANCH   1   7
BRANCH   2  11
ATOM     11  O   UNL     1       3.447   2.956  -7.839  1.00  0.00    -0.504 OA
ATOM     12  H   UNL     1       4.109   3.679  -7.979  1.00  0.00     0.293 HD
ENDBRANCH   2  11
BRANCH   5  13
ATOM     13  O   UNL     1       2.241   1.940 -10.037  1.00  0.00    -0.493 OA
ATOM     14  C   UNL     1       2.787   1.944 -11.208  1.00  0.00     0.278 C 
ENDBRANCH   5  13
TORSDOF 4
ENDMDL
MODEL 3
REMARK VINA RESULT:    -4.668      2.161      3.170
REMARK INTER + INTRA:          -5.967
REMARK INTER:                  -5.699
REMARK INTRA:                  -0.268
REMARK UNBOUND:                -0.480
REMARK SMILES COc1cccc(C(=O)O)c1O
REMARK SMILES IDX 7 1 11 2 6 3 5 4 3 5 4 6 8 7 9 8 10 9 12 11 2 13 1 14
REMARK H PARENT 10 10 12 12
ROOT
ATOM      1  C   UNL     1      -0.550   0.906  -7.070  1.00  0.00     0.105 A 
ATOM      2  C   UNL     1      -0.164   0.473  -8.309  1.00  0.00     0.172 A 
ATOM      3  C   UNL     1       0.508   1.316  -6.129  1.00  0.00     0.020 A 
ATOM      4  C   UNL     1       1.735   1.591  -6.640  1.00  0.00     0.005 A 
ATOM      5  C   UNL     1       1.048   0.967  -8.947  1.00  0.00     0.161 A 
ATOM      6  C   UNL     1       2.060   1.437  -8.020  1.00  0.00     0.050 A 
ENDROOT
BRANCH   1   7
ATOM      7  C   UNL     1      -2.036   1.061  -6.705  1.00  0.00     0.339 C 
ATOM      8  O   UNL     1      -2.116   2.017  -5.388  1.00  0.00    -0.246 OA
BRANCH   7   9
ATOM      9  O   UNL     1      -2.984   0.823  -7.097  1.00  0.00    -0.478 OA
ATOM     10  H   UNL     1      -3.875   0.600  -7.467  1.00  0.00     0.297 HD
ENDBRANCH   7   9
ENDBRANCH   1   7
BRANCH   2  11
ATOM     11  O   UNL     1      -0.933  -0.455  -9.033  1.00  0.00    -0.504 OA
ATOM     12  H   UNL     1      -1.474  -1.108  -9.543  1.00  0.00     0.293 HD
ENDBRANCH   2  11
BRANCH   5  13
ATOM     13  O   UNL     1       1.224   0.604 -10.276  1.00  0.00    -0.493 OA
ATOM     14  C   UNL     1       1.253   0.712 -11.564  1.00  0.00     0.278 C 
ENDBRANCH   5  13
TORSDOF 4
ENDMDL
MODEL 4
REMARK VINA RESULT:    -4.406      1.721      4.427
REMARK INTER + INTRA:          -5.659
REMARK INTER:                  -5.246
REMARK INTRA:                  -0.413
REMARK UNBOUND:                -0.480
REMARK SMILES COc1cccc(C(=O)O)c1O
REMARK SMILES IDX 7 1 11 2 6 3 5 4 3 5 4 6 8 7 9 8 10 9 12 11 2 13 1 14
REMARK H PARENT 10 10 12 12
ROOT
ATOM      1  C   UNL     1       2.502   1.242  -6.586  1.00  0.00     0.105 A 
ATOM      2  C   UNL     1       1.156   1.071  -6.407  1.00  0.00     0.172 A 
ATOM      3  C   UNL     1       2.984   1.481  -7.959  1.00  0.00     0.020 A 
ATOM      4  C   UNL     1       2.075   1.879  -8.887  1.00  0.00     0.005 A 
ATOM      5  C   UNL     1       0.183   1.708  -7.282  1.00  0.00     0.161 A 
ATOM      6  C   UNL     1       0.682   2.007  -8.611  1.00  0.00     0.050 A 
ENDROOT
BRANCH   1   7
ATOM      7  C   UNL     1       3.469   1.290  -5.391  1.00  0.00     0.339 C 
ATOM      8  O   UNL     1       3.003   0.134  -4.341  1.00  0.00    -0.246 OA
BRANCH   7   9
ATOM      9  O   UNL     1       4.366   1.763  -5.108  1.00  0.00    -0.478 OA
ATOM     10  H   UNL     1       5.209   2.209  -4.842  1.00  0.00     0.297 HD
ENDBRANCH   7   9
ENDBRANCH   1   7
BRANCH   2  11
ATOM     11  O   UNL     1       0.652   0.288  -5.355  1.00  0.00    -0.504 OA
ATOM     12  H   UNL     1       0.297  -0.263  -4.613  1.00  0.00     0.293 HD
ENDBRANCH   2  11
BRANCH   5  13
ATOM     13  O   UNL     1      -1.144   1.619  -6.879  1.00  0.00    -0.493 OA
ATOM     14  C   UNL     1      -2.351   1.166  -6.789  1.00  0.00     0.278 C 
ENDBRANCH   5  13
TORSDOF 4
ENDMDL
MODEL 5
REMARK VINA RESULT:    -4.037      2.372      4.594
REMARK INTER + INTRA:          -5.225
REMARK INTER:                  -4.965
REMARK INTRA:                  -0.260
REMARK UNBOUND:                -0.480
REMARK SMILES COc1cccc(C(=O)O)c1O
REMARK SMILES IDX 7 1 11 2 6 3 5 4 3 5 4 6 8 7 9 8 10 9 12 11 2 13 1 14
REMARK H PARENT 10 10 12 12
ROOT
ATOM      1  C   UNL     1       2.578   2.346  -7.232  1.00  0.00     0.105 A 
ATOM      2  C   UNL     1       1.215   2.396  -7.134  1.00  0.00     0.172 A 
ATOM      3  C   UNL     1       3.313   1.619  -6.181  1.00  0.00     0.020 A 
ATOM      4  C   UNL     1       2.612   0.751  -5.406  1.00  0.00     0.005 A 
ATOM      5  C   UNL     1       0.455   1.327  -6.502  1.00  0.00     0.161 A 
ATOM      6  C   UNL     1       1.203   0.566  -5.518  1.00  0.00     0.050 A 
ENDROOT
BRANCH   1   7
ATOM      7  C   UNL     1       3.315   2.934  -8.448  1.00  0.00     0.339 C 
ATOM      8  O   UNL     1       2.538   2.420  -9.784  1.00  0.00    -0.246 OA
BRANCH   7   9
ATOM      9  O   UNL     1       4.083   3.623  -8.658  1.00  0.00    -0.478 OA
ATOM     10  H   UNL     1       4.806   4.271  -8.857  1.00  0.00     0.297 HD
ENDBRANCH   7   9
ENDBRANCH   1   7
BRANCH   2  11
ATOM     11  O   UNL     1       0.482   3.473  -7.661  1.00  0.00    -0.504 OA
ATOM     12  H   UNL     1      -0.034   4.233  -8.031  1.00  0.00     0.293 HD
ENDBRANCH   2  11
BRANCH   5  13
ATOM     13  O   UNL     1      -0.925   1.400  -6.642  1.00  0.00    -0.493 OA
ATOM     14  C   UNL     1      -2.129   1.038  -6.940  1.00  0.00     0.278 C 
ENDBRANCH   5  13
TORSDOF 4
ENDMDL
MODEL 6
REMARK VINA RESULT:    -4.025      2.149      3.080
REMARK INTER + INTRA:          -5.211
REMARK INTER:                  -4.905
REMARK INTRA:                  -0.306
REMARK UNBOUND:                -0.480
REMARK SMILES COc1cccc(C(=O)O)c1O
REMARK SMILES IDX 7 1 11 2 6 3 5 4 3 5 4 6 8 7 9 8 10 9 12 11 2 13 1 14
REMARK H PARENT 10 10 12 12
ROOT
ATOM      1  C   UNL     1      -0.475   0.033  -8.033  1.00  0.00     0.105 A 
ATOM      2  C   UNL     1       0.705  -0.059  -7.348  1.00  0.00     0.172 A 
ATOM      3  C   UNL     1      -1.606   0.699  -7.361  1.00  0.00     0.020 A 
ATOM      4  C   UNL     1      -1.328   1.488  -6.291  1.00  0.00     0.005 A 
ATOM      5  C   UNL     1       1.096   0.940  -6.364  1.00  0.00     0.161 A 
ATOM      6  C   UNL     1      -0.017   1.645  -5.755  1.00  0.00     0.050 A 
ENDROOT
BRANCH   1   7
ATOM      7  C   UNL     1      -0.593  -0.444  -9.491  1.00  0.00     0.339 C 
ATOM      8  O   UNL     1       0.730   0.080 -10.284  1.00  0.00    -0.246 OA
BRANCH   7   9
ATOM      9  O   UNL     1      -1.204  -1.068 -10.080  1.00  0.00    -0.478 OA
ATOM     10  H   UNL     1      -1.779  -1.654 -10.633  1.00  0.00     0.297 HD
ENDBRANCH   7   9
ENDBRANCH   1   7
BRANCH   2  11
ATOM     11  O   UNL     1       1.605  -1.113  -7.579  1.00  0.00    -0.504 OA
ATOM     12  H   UNL     1       2.239  -1.856  -7.742  1.00  0.00     0.293 HD
ENDBRANCH   2  11
BRANCH   5  13
ATOM     13  O   UNL     1       2.397   0.841  -5.885  1.00  0.00    -0.493 OA
ATOM     14  C   UNL     1       3.610   1.188  -5.606  1.00  0.00     0.278 C 
ENDBRANCH   5  13
TORSDOF 4
ENDMDL
MODEL 7
REMARK VINA RESULT:    -3.900      2.549      4.304
REMARK INTER + INTRA:          -5.064
REMARK INTER:                  -4.628
REMARK INTRA:                  -0.437
REMARK UNBOUND:                -0.480
REMARK SMILES COc1cccc(C(=O)O)c1O
REMARK SMILES IDX 7 1 11 2 6 3 5 4 3 5 4 6 8 7 9 8 10 9 12 11 2 13 1 14
REMARK H PARENT 10 10 12 12
ROOT
ATOM      1  C   UNL     1       1.605   1.147  -6.334  1.00  0.00     0.105 A 
ATOM      2  C   UNL     1       1.688   1.149  -7.700  1.00  0.00     0.172 A 
ATOM      3  C   UNL     1       0.262   1.228  -5.731  1.00  0.00     0.020 A 
ATOM      4  C   UNL     1      -0.803   0.933  -6.520  1.00  0.00     0.005 A 
ATOM      5  C   UNL     1       0.624   0.604  -8.530  1.00  0.00     0.161 A 
ATOM      6  C   UNL     1      -0.686   0.619  -7.906  1.00  0.00     0.050 A 
ENDROOT
BRANCH   1   7
ATOM      7  C   UNL     1       2.855   0.960  -5.457  1.00  0.00     0.339 C 
ATOM      8  O   UNL     1       3.980   2.015  -5.982  1.00  0.00    -0.246 OA
BRANCH   7   9
ATOM      9  O   UNL     1       3.151   0.442  -4.589  1.00  0.00    -0.478 OA
ATOM     10  H   UNL     1       3.428  -0.045  -3.773  1.00  0.00     0.297 HD
ENDBRANCH   7   9
ENDBRANCH   1   7
BRANCH   2  11
ATOM     11  O   UNL     1       2.817   1.659  -8.363  1.00  0.00    -0.504 OA
ATOM     12  H   UNL     1       3.612   2.018  -8.831  1.00  0.00     0.293 HD
ENDBRANCH   2  11
BRANCH   5  13
ATOM     13  O   UNL     1       0.913   0.484  -9.884  1.00  0.00    -0.493 OA
ATOM     14  C   UNL     1       1.002   0.806 -11.132  1.00  0.00     0.278 C 
ENDBRANCH   5  13
TORSDOF 4
ENDMDL
MODEL 8
REMARK VINA RESULT:    -3.863      2.222      2.764
REMARK INTER + INTRA:          -5.021
REMARK INTER:                  -4.763
REMARK INTRA:                  -0.258
REMARK UNBOUND:                -0.480
REMARK SMILES COc1cccc(C(=O)O)c1O
REMARK SMILES IDX 7 1 11 2 6 3 5 4 3 5 4 6 8 7 9 8 10 9 12 11 2 13 1 14
REMARK H PARENT 10 10 12 12
ROOT
ATOM      1  C   UNL     1       0.353   1.378  -6.845  1.00  0.00     0.105 A 
ATOM      2  C   UNL     1       1.165   1.878  -7.825  1.00  0.00     0.172 A 
ATOM      3  C   UNL     1       0.995   0.673  -5.719  1.00  0.00     0.020 A 
ATOM      4  C   UNL     1       2.324   0.874  -5.524  1.00  0.00     0.005 A 
ATOM      5  C   UNL     1       2.525   2.315  -7.542  1.00  0.00     0.161 A 
ATOM      6  C   UNL     1       3.129   1.672  -6.390  1.00  0.00     0.050 A 
ENDROOT
BRANCH   1   7
ATOM      7  C   UNL     1      -1.164   1.629  -6.857  1.00  0.00     0.339 C 
ATOM      8  O   UNL     1      -1.632   1.859  -5.313  1.00  0.00    -0.246 OA
BRANCH   7   9
ATOM      9  O   UNL     1      -1.941   1.788  -7.549  1.00  0.00    -0.478 OA
ATOM     10  H   UNL     1      -2.672   1.937  -8.201  1.00  0.00     0.297 HD
ENDBRANCH   7   9
ENDBRANCH   1   7
BRANCH   2  11
ATOM     11  O   UNL     1       0.715   2.014  -9.149  1.00  0.00    -0.504 OA
ATOM     12  H   UNL     1       0.398   2.110 -10.082  1.00  0.00     0.293 HD
ENDBRANCH   2  11
BRANCH   5  13
ATOM     13  O   UNL     1       3.174   2.983  -8.572  1.00  0.00    -0.493 OA
ATOM     14  C   UNL     1       4.145   3.448  -9.286  1.00  0.00     0.278 C 
ENDBRANCH   5  13
TORSDOF 4
ENDMDL
MODEL 9
REMARK VINA RESULT:    -3.603      1.674      2.225
REMARK INTER + INTRA:          -4.715
REMARK INTER:                  -4.531
REMARK INTRA:                  -0.184
REMARK UNBOUND:                -0.480
REMARK SMILES COc1cccc(C(=O)O)c1O
REMARK SMILES IDX 7 1 11 2 6 3 5 4 3 5 4 6 8 7 9 8 10 9 12 11 2 13 1 14
REMARK H PARENT 10 10 12 12
ROOT
ATOM      1  C   UNL     1      -0.626   1.608  -7.014  1.00  0.00     0.105 A 
ATOM      2  C   UNL     1       0.409   1.355  -6.157  1.00  0.00     0.172 A 
ATOM      3  C   UNL     1      -0.463   2.713  -7.976  1.00  0.00     0.020 A 
ATOM      4  C   UNL     1       0.797   3.164  -8.211  1.00  0.00     0.005 A 
ATOM      5  C   UNL     1       1.791   1.628  -6.526  1.00  0.00     0.161 A 
ATOM      6  C   UNL     1       1.945   2.668  -7.527  1.00  0.00     0.050 A 
ENDROOT
BRANCH   1   7
ATOM      7  C   UNL     1      -1.874   0.709  -7.048  1.00  0.00     0.339 C 
ATOM      8  O   UNL     1      -1.717  -0.294  -8.322  1.00  0.00    -0.246 OA
BRANCH   7   9
ATOM      9  O   UNL     1      -2.719   0.493  -6.458  1.00  0.00    -0.478 OA
ATOM     10  H   UNL     1      -3.513   0.291  -5.902  1.00  0.00     0.297 HD
ENDBRANCH   7   9
ENDBRANCH   1   7
BRANCH   2  11
ATOM     11  O   UNL     1       0.187   0.797  -4.886  1.00  0.00    -0.504 OA
ATOM     12  H   UNL     1       0.031   0.405  -3.990  1.00  0.00     0.293 HD
ENDBRANCH   2  11
BRANCH   5  13
ATOM     13  O   UNL     1       2.758   1.146  -5.653  1.00  0.00    -0.493 OA
ATOM     14  C   UNL     1       3.922   0.963  -5.123  1.00  0.00     0.278 C 
ENDBRANCH   5  13
TORSDOF 4
ENDMDL
