MODEL 1
REMARK VINA RESULT:    -4.769      0.000      0.000
REMARK INTER + INTRA:          -6.086
REMARK INTER:                  -5.605
REMARK INTRA:                  -0.480
REMARK UNBOUND:                -0.480
REMARK SMILES COc1cccc(C(=O)O)c1O
REMARK SMILES IDX 7 1 11 2 6 3 5 4 3 5 4 6 8 7 9 8 10 9 12 11 2 13 1 14
REMARK H PARENT 10 10 12 12
ROOT
ATOM      1  C   UNL     1       4.660   1.957   4.406  1.00  0.00     0.105 A 
ATOM      2  C   UNL     1       5.002   2.480   3.189  1.00  0.00     0.172 A 
ATOM      3  C   UNL     1       4.481   2.897   5.527  1.00  0.00     0.020 A 
ATOM      4  C   UNL     1       4.301   4.210   5.228  1.00  0.00     0.005 A 
ATOM      5  C   UNL     1       4.592   3.818   2.790  1.00  0.00     0.161 A 
ATOM      6  C   UNL     1       4.347   4.722   3.898  1.00  0.00     0.050 A 
ENDROOT
BRANCH   1   7
ATOM      7  C   UNL     1       4.367   0.457   4.579  1.00  0.00     0.339 C 
ATOM      8  O   UNL     1       4.204  -0.183   3.090  1.00  0.00    -0.246 OA
BRANCH   7   9
ATOM      9  O   UNL     1       4.341  -0.268   5.342  1.00  0.00    -0.478 OA
ATOM     10  H   UNL     1       4.316  -0.950   6.060  1.00  0.00     0.297 HD
ENDBRANCH   7   9
ENDBRANCH   1   7
BRANCH   2  11
ATOM     11  O   UNL     1       5.750   1.738   2.259  1.00  0.00    -0.504 OA
ATOM     12  H   UNL     1       6.276   1.215   1.603  1.00  0.00     0.293 HD
ENDBRANCH   2  11
BRANCH   5  13
ATOM     13  O   UNL     1       4.831   4.155   1.463  1.00  0.00    -0.493 OA
ATOM     14  C   UNL     1       5.381   4.725   0.443  1.00  0.00     0.278 C 
ENDBRANCH   5  13
TORSDOF 4
ENDMDL
MODEL 2
REMARK VINA RESULT:    -4.755      2.221      3.287
REMARK INTER + INTRA:          -6.070
REMARK INTER:                  -5.799
REMARK INTRA:                  -0.271
REMARK UNBOUND:                -0.480
REMARK SMILES COc1cccc(C(=O)O)c1O
REMARK SMILES IDX 7 1 11 2 6 3 5 4 3 5 4 6 8 7 9 8 10 9 12 11 2 13 1 14
REMARK H PARENT 10 10 12 12
ROOT
ATOM      1  C   UNL     1       4.685   1.968   4.172  1.00  0.00     0.105 A 
ATOM      2  C   UNL     1       5.035   2.876   5.133  1.00  0.00     0.172 A 
ATOM      3  C   UNL     1       5.019   2.290   2.773  1.00  0.00     0.020 A 
ATOM      4  C   UNL     1       5.952   3.252   2.552  1.00  0.00     0.005 A 
ATOM      5  C   UNL     1       6.194   3.744   4.977  1.00  0.00     0.161 A 
ATOM      6  C   UNL     1       6.564   4.002   3.598  1.00  0.00     0.050 A 
ENDROOT
BRANCH   1   7
ATOM      7  C   UNL     1       4.062   0.611   4.543  1.00  0.00     0.339 C 
ATOM      8  O   UNL     1       4.261  -0.382   3.267  1.00  0.00    -0.246 OA
BRANCH   7   9
ATOM      9  O   UNL     1       3.649   0.125   5.381  1.00  0.00    -0.478 OA
ATOM     10  H   UNL     1       3.261  -0.332   6.169  1.00  0.00     0.297 HD
ENDBRANCH   7   9
ENDBRANCH   1   7
BRANCH   2  11
ATOM     11  O   UNL     1       4.303   2.998   6.326  1.00  0.00    -0.504 OA
ATOM     12  H   UNL     1       3.787   3.084   7.167  1.00  0.00     0.293 HD
ENDBRANCH   2  11
BRANCH   5  13
ATOM     13  O   UNL     1       6.557   4.477   6.100  1.00  0.00    -0.493 OA
ATOM     14  C   UNL     1       7.255   4.860   7.118  1.00  0.00     0.278 C 
ENDBRANCH   5  13
TORSDOF 4
ENDMDL
MODEL 3
REMARK VINA RESULT:    -4.700      2.868      4.373
REMARK INTER + INTRA:          -6.004
REMARK INTER:                  -5.734
REMARK INTRA:                  -0.270
REMARK UNBOUND:                -0.480
REMARK SMILES COc1cccc(C(=O)O)c1O
REMARK SMILES IDX 7 1 11 2 6 3 5 4 3 5 4 6 8 7 9 8 10 9 12 11 2 13 1 14
REMARK H PARENT 10 10 12 12
ROOT
ATOM      1  C   UNL     1       5.604   3.809   1.915  1.00  0.00     0.105 A 
ATOM      2  C   UNL     1       6.733   4.119   2.622  1.00  0.00     0.172 A 
ATOM      3  C   UNL     1       4.625   2.909   2.551  1.00  0.00     0.020 A 
ATOM      4  C   UNL     1       4.703   2.740   3.896  1.00  0.00     0.005 A 
ATOM      5  C   UNL     1       6.733   4.165   4.078  1.00  0.00     0.161 A 
ATOM      6  C   UNL     1       5.721   3.333   4.700  1.00  0.00     0.050 A 
ENDROOT
BRANCH   1   7
ATOM      7  C   UNL     1       5.313   4.455   0.549  1.00  0.00     0.339 C 
ATOM      8  O   UNL     1       3.708   4.345   0.291  1.00  0.00    -0.246 OA
BRANCH   7   9
ATOM      9  O   UNL     1       5.810   5.013  -0.192  1.00  0.00    -0.478 OA
ATOM     10  H   UNL     1       6.279   5.538  -0.889  1.00  0.00     0.297 HD
ENDBRANCH   7   9
ENDBRANCH   1   7
BRANCH   2  11
ATOM     11  O   UNL     1       7.941   4.430   1.974  1.00  0.00    -0.504 OA
ATOM     12  H   UNL     1       8.791   4.650   1.518  1.00  0.00     0.293 HD
ENDBRANCH   2  11
BRANCH   5  13
ATOM     13  O   UNL     1       7.880   4.683   4.667  1.00  0.00    -0.493 OA
ATOM     14  C   UNL     1       8.644   5.514   5.297  1.00  0.00     0.278 C 
ENDBRANCH   5  13
TORSDOF 4
ENDMDL
MODEL 4
REMARK VINA RESULT:    -4.493      1.481      4.258
REMARK INTER + INTRA:          -5.761
REMARK INTER:                  -5.414
REMARK INTRA:                  -0.348
REMARK UNBOUND:                -0.480
REMARK SMILES COc1cccc(C(=O)O)c1O
REMARK SMILES IDX 7 1 11 2 6 3 5 4 3 5 4 6 8 7 9 8 10 9 12 11 2 13 1 14
REMARK H PARENT 10 10 12 12
ROOT
ATOM      1  C   UNL     1       5.002   4.122   2.016  1.00  0.00     0.105 A 
ATOM      2  C   UNL     1       4.573   2.946   2.568  1.00  0.00     0.172 A 
ATOM      3  C   UNL     1       5.524   5.155   2.929  1.00  0.00     0.020 A 
ATOM      4  C   UNL     1       5.891   4.767   4.177  1.00  0.00     0.005 A 
ATOM      5  C   UNL     1       5.153   2.423   3.797  1.00  0.00     0.161 A 
ATOM      6  C   UNL     1       5.731   3.435   4.661  1.00  0.00     0.050 A 
ENDROOT
BRANCH   1   7
ATOM      7  C   UNL     1       5.039   4.323   0.491  1.00  0.00     0.339 C 
ATOM      8  O   UNL     1       3.496   4.392  -0.029  1.00  0.00    -0.246 OA
BRANCH   7   9
ATOM      9  O   UNL     1       5.738   4.521  -0.271  1.00  0.00    -0.478 OA
ATOM     10  H   UNL     1       6.396   4.707  -0.987  1.00  0.00     0.297 HD
ENDBRANCH   7   9
ENDBRANCH   1   7
BRANCH   2  11
ATOM     11  O   UNL     1       3.565   2.177   1.961  1.00  0.00    -0.504 OA
ATOM     12  H   UNL     1       2.855   1.636   1.533  1.00  0.00     0.293 HD
ENDBRANCH   2  11
BRANCH   5  13
ATOM     13  O   UNL     1       4.773   1.133   4.145  1.00  0.00    -0.493 OA
ATOM     14  C   UNL     1       4.166   0.182   4.774  1.00  0.00     0.278 C 
ENDBRANCH   5  13
TORSDOF 4
ENDMDL
MODEL 5
REMARK VINA RESULT:    -4.095      2.050      3.021
REMARK INTER + INTRA:          -5.294
REMARK INTER:                  -4.834
REMARK INTRA:                  -0.460
REMARK UNBOUND:                -0.480
REMARK SMILES COc1cccc(C(=O)O)c1O
REMARK SMILES IDX 7 1 11 2 6 3 5 4 3 5 4 6 8 7 9 8 10 9 12 11 2 13 1 14
REMARK H PARENT 10 10 12 12
ROOT
ATOM      1  C   UNL     1       4.571   2.119   3.376  1.00  0.00     0.105 A 
ATOM      2  C   UNL     1       5.101   2.994   4.284  1.00  0.00     0.172 A 
ATOM      3  C   UNL     1       4.381   2.599   1.995  1.00  0.00     0.020 A 
ATOM      4  C   UNL     1       5.059   3.712   1.614  1.00  0.00     0.005 A 
ATOM      5  C   UNL     1       6.024   4.045   3.882  1.00  0.00     0.161 A 
ATOM      6  C   UNL     1       5.883   4.467   2.501  1.00  0.00     0.050 A 
ENDROOT
BRANCH   1   7
ATOM      7  C   UNL     1       4.281   0.655   3.750  1.00  0.00     0.339 C 
ATOM      8  O   UNL     1       3.567   0.659   5.214  1.00  0.00    -0.246 OA
BRANCH   7   9
ATOM      9  O   UNL     1       4.316  -0.302   3.313  1.00  0.00    -0.478 OA
ATOM     10  H   UNL     1       4.349  -1.202   2.901  1.00  0.00     0.297 HD
ENDBRANCH   7   9
ENDBRANCH   1   7
BRANCH   2  11
ATOM     11  O   UNL     1       4.794   2.903   5.652  1.00  0.00    -0.504 OA
ATOM     12  H   UNL     1       4.577   2.839   6.616  1.00  0.00     0.293 HD
ENDBRANCH   2  11
BRANCH   5  13
ATOM     13  O   UNL     1       6.642   4.737   4.917  1.00  0.00    -0.493 OA
ATOM     14  C   UNL     1       7.568   5.105   5.739  1.00  0.00     0.278 C 
ENDBRANCH   5  13
TORSDOF 4
ENDMDL
MODEL 6
REMARK VINA RESULT:    -4.019      2.404      4.610
REMARK INTER + INTRA:          -5.204
REMARK INTER:                  -5.000
REMARK INTRA:                  -0.204
REMARK UNBOUND:                -0.480
REMARK SMILES COc1cccc(C(=O)O)c1O
REMARK SMILES IDX 7 1 11 2 6 3 5 4 3 5 4 6 8 7 9 8 10 9 12 11 2 13 1 14
REMARK H PARENT 10 10 12 12
ROOT
ATOM      1  C   UNL     1       6.896   3.848   2.150  1.00  0.00     0.105 A 
ATOM      2  C   UNL     1       6.500   2.691   2.762  1.00  0.00     0.172 A 
ATOM      3  C   UNL     1       5.961   4.469   1.194  1.00  0.00     0.020 A 
ATOM      4  C   UNL     1       4.659   4.089   1.247  1.00  0.00     0.005 A 
ATOM      5  C   UNL     1       5.097   2.407   3.026  1.00  0.00     0.161 A 
ATOM      6  C   UNL     1       4.175   3.077   2.128  1.00  0.00     0.050 A 
ENDROOT
BRANCH   1   7
ATOM      7  C   UNL     1       8.221   4.537   2.520  1.00  0.00     0.339 C 
ATOM      8  O   UNL     1       8.167   4.872   4.113  1.00  0.00    -0.246 OA
BRANCH   7   9
ATOM      9  O   UNL     1       9.155   4.757   2.085  1.00  0.00    -0.478 OA
ATOM     10  H   UNL     1      10.033   4.963   1.677  1.00  0.00     0.297 HD
ENDBRANCH   7   9
ENDBRANCH   1   7
BRANCH   2  11
ATOM     11  O   UNL     1       7.435   1.730   3.185  1.00  0.00    -0.504 OA
ATOM     12  H   UNL     1       8.094   1.054   3.483  1.00  0.00     0.293 HD
ENDBRANCH   2  11
BRANCH   5  13
ATOM     13  O   UNL     1       4.842   1.300   3.825  1.00  0.00    -0.493 OA
ATOM     14  C   UNL     1       4.241   0.542   4.682  1.00  0.00     0.278 C 
ENDBRANCH   5  13
TORSDOF 4
ENDMDL
MODEL 7
REMARK VINA RESULT:    -3.746      2.220      4.429
REMARK INTER + INTRA:          -4.883
REMARK INTER:                  -4.397
REMARK INTRA:                  -0.486
REMARK UNBOUND:                -0.480
REMARK SMILES COc1cccc(C(=O)O)c1O
REMARK SMILES IDX 7 1 11 2 6 3 5 4 3 5 4 6 8 7 9 8 10 9 12 11 2 13 1 14
REMARK H PARENT 10 10 12 12
ROOT
ATOM      1  C   UNL     1       5.051   3.035   2.759  1.00  0.00     0.105 A 
ATOM      2  C   UNL     1       5.232   3.513   4.027  1.00  0.00     0.172 A 
ATOM      3  C   UNL     1       4.853   1.583   2.598  1.00  0.00     0.020 A 
ATOM      4  C   UNL     1       4.499   0.868   3.697  1.00  0.00     0.005 A 
ATOM      5  C   UNL     1       4.638   2.857   5.183  1.00  0.00     0.161 A 
ATOM      6  C   UNL     1       4.378   1.442   4.997  1.00  0.00     0.050 A 
ENDROOT
BRANCH   1   7
ATOM      7  C   UNL     1       4.950   3.984   1.552  1.00  0.00     0.339 C 
ATOM      8  O   UNL     1       4.747   5.492   2.134  1.00  0.00    -0.246 OA
BRANCH   7   9
ATOM      9  O   UNL     1       5.068   3.960   0.506  1.00  0.00    -0.478 OA
ATOM     10  H   UNL     1       5.179   3.937  -0.478  1.00  0.00     0.297 HD
ENDBRANCH   7   9
ENDBRANCH   1   7
BRANCH   2  11
ATOM     11  O   UNL     1       5.985   4.675   4.270  1.00  0.00    -0.504 OA
ATOM     12  H   UNL     1       6.515   5.493   4.442  1.00  0.00     0.293 HD
ENDBRANCH   2  11
BRANCH   5  13
ATOM     13  O   UNL     1       4.730   3.547   6.385  1.00  0.00    -0.493 OA
ATOM     14  C   UNL     1       5.037   3.792   7.616  1.00  0.00     0.278 C 
ENDBRANCH   5  13
TORSDOF 4
ENDMDL
MODEL 8
REMARK VINA RESULT:    -3.743      7.227      8.488
REMARK INTER + INTRA:          -4.880
REMARK INTER:                  -4.697
REMARK INTRA:                  -0.183
REMARK UNBOUND:                -0.480
REMARK SMILES COc1cccc(C(=O)O)c1O
REMARK SMILES IDX 7 1 11 2 6 3 5 4 3 5 4 6 8 7 9 8 10 9 12 11 2 13 1 14
REMARK H PARENT 10 10 12 12
ROOT
ATOM      1  C   UNL     1       5.185  -2.358  -2.776  1.00  0.00     0.105 A 
ATOM      2  C   UNL     1       4.187  -1.478  -2.459  1.00  0.00     0.172 A 
ATOM      3  C   UNL     1       5.208  -3.650  -2.067  1.00  0.00     0.020 A 
ATOM      4  C   UNL     1       4.072  -4.043  -1.435  1.00  0.00     0.005 A 
ATOM      5  C   UNL     1       2.882  -1.935  -2.003  1.00  0.00     0.161 A 
ATOM      6  C   UNL     1       2.896  -3.240  -1.369  1.00  0.00     0.050 A 
ENDROOT
BRANCH   1   7
ATOM      7  C   UNL     1       6.186  -2.059  -3.905  1.00  0.00     0.339 C 
ATOM      8  O   UNL     1       5.889  -3.112  -5.112  1.00  0.00    -0.246 OA
BRANCH   7   9
ATOM      9  O   UNL     1       6.912  -1.339  -4.158  1.00  0.00    -0.478 OA
ATOM     10  H   UNL     1       7.595  -0.662  -4.396  1.00  0.00     0.297 HD
ENDBRANCH   7   9
ENDBRANCH   1   7
BRANCH   2  11
ATOM     11  O   UNL     1       4.370  -0.090  -2.578  1.00  0.00    -0.504 OA
ATOM     12  H   UNL     1       4.499   0.888  -2.663  1.00  0.00     0.293 HD
ENDBRANCH   2  11
BRANCH   5  13
ATOM     13  O   UNL     1       1.899  -0.959  -1.905  1.00  0.00    -0.493 OA
ATOM     14  C   UNL     1       0.990  -0.211  -1.372  1.00  0.00     0.278 C 
ENDBRANCH   5  13
TORSDOF 4
ENDMDL
MODEL 9
REMARK VINA RESULT:    -3.740      7.175      8.349
REMARK INTER + INTRA:          -4.877
REMARK INTER:                  -4.696
REMARK INTRA:                  -0.181
REMARK UNBOUND:                -0.480
REMARK SMILES COc1cccc(C(=O)O)c1O
REMARK SMILES IDX 7 1 11 2 6 3 5 4 3 5 4 6 8 7 9 8 10 9 12 11 2 13 1 14
REMARK H PARENT 10 10 12 12
ROOT
ATOM      1  C   UNL     1       4.337  -3.599  -2.505  1.00  0.00     0.105 A 
ATOM      2  C   UNL     1       3.238  -2.916  -2.062  1.00  0.00     0.172 A 
ATOM      3  C   UNL     1       5.183  -2.947  -3.521  1.00  0.00     0.020 A 
ATOM      4  C   UNL     1       5.051  -1.605  -3.686  1.00  0.00     0.005 A 
ATOM      5  C   UNL     1       3.207  -1.461  -2.024  1.00  0.00     0.161 A 
ATOM      6  C   UNL     1       4.094  -0.821  -2.977  1.00  0.00     0.050 A 
ENDROOT
BRANCH   1   7
ATOM      7  C   UNL     1       4.740  -4.951  -1.892  1.00  0.00     0.339 C 
ATOM      8  O   UNL     1       6.149  -4.730  -1.105  1.00  0.00    -0.246 OA
BRANCH   7   9
ATOM      9  O   UNL     1       4.339  -5.915  -1.753  1.00  0.00    -0.478 OA
ATOM     10  H   UNL     1       3.963  -6.822  -1.623  1.00  0.00     0.297 HD
ENDBRANCH   7   9
ENDBRANCH   1   7
BRANCH   2  11
ATOM     11  O   UNL     1       2.094  -3.591  -1.602  1.00  0.00    -0.504 OA
ATOM     12  H   UNL     1       1.288  -4.066  -1.278  1.00  0.00     0.293 HD
ENDBRANCH   2  11
BRANCH   5  13
ATOM     13  O   UNL     1       2.118  -0.895  -1.373  1.00  0.00    -0.493 OA
ATOM     14  C   UNL     1       1.145  -0.079  -1.133  1.00  0.00     0.278 C 
ENDBRANCH   5  13
TORSDOF 4
ENDMDL
