MODEL 1
REMARK VINA RESULT:    -4.828      0.000      0.000
REMARK INTER + INTRA:          -6.157
REMARK INTER:                  -5.675
REMARK INTRA:                  -0.482
REMARK UNBOUND:                -0.482
REMARK SMILES COc1cccc(C(=O)O)c1O
REMARK SMILES IDX 7 1 11 2 6 3 5 4 3 5 4 6 8 7 9 8 10 9 12 11 2 13 1 14
REMARK H PARENT 10 10 12 12
ROOT
ATOM      1  C   UNL     1       5.054  -8.003  -0.744  1.00  0.00     0.105 A 
ATOM      2  C   UNL     1       5.779  -6.955  -1.239  1.00  0.00     0.172 A 
ATOM      3  C   UNL     1       5.737  -8.938   0.169  1.00  0.00     0.020 A 
ATOM      4  C   UNL     1       6.893  -8.522   0.748  1.00  0.00     0.005 A 
ATOM      5  C   UNL     1       6.876  -6.363  -0.486  1.00  0.00     0.161 A 
ATOM      6  C   UNL     1       7.502  -7.265   0.463  1.00  0.00     0.050 A 
ENDROOT
BRANCH   1   7
ATOM      7  C   UNL     1       3.551  -8.147  -1.042  1.00  0.00     0.339 C 
ATOM      8  O   UNL     1       3.042  -6.735  -1.674  1.00  0.00    -0.246 OA
BRANCH   7   9
ATOM      9  O   UNL     1       2.807  -8.892  -1.049  1.00  0.00    -0.478 OA
ATOM     10  H   UNL     1       2.107  -9.593  -1.056  1.00  0.00     0.297 HD
ENDBRANCH   7   9
ENDBRANCH   1   7
BRANCH   2  11
ATOM     11  O   UNL     1       5.484  -6.386  -2.489  1.00  0.00    -0.504 OA
ATOM     12  H   UNL     1       5.276  -5.985  -3.370  1.00  0.00     0.293 HD
ENDBRANCH   2  11
BRANCH   5  13
ATOM     13  O   UNL     1       7.401  -5.186  -1.005  1.00  0.00    -0.493 OA
ATOM     14  C   UNL     1       8.104  -4.104  -1.071  1.00  0.00     0.278 C 
ENDBRANCH   5  13
TORSDOF 4
ENDMDL
MODEL 2
REMARK VINA RESULT:    -4.703      2.932      4.355
REMARK INTER + INTRA:          -6.011
REMARK INTER:                  -5.741
REMARK INTRA:                  -0.270
REMARK UNBOUND:                -0.482
REMARK SMILES COc1cccc(C(=O)O)c1O
REMARK SMILES IDX 7 1 11 2 6 3 5 4 3 5 4 6 8 7 9 8 10 9 12 11 2 13 1 14
REMARK H PARENT 10 10 12 12
ROOT
ATOM      1  C   UNL     1       7.343  -5.666  -1.276  1.00  0.00     0.105 A 
ATOM      2  C   UNL     1       8.090  -6.593  -1.950  1.00  0.00     0.172 A 
ATOM      3  C   UNL     1       6.099  -6.127  -0.632  1.00  0.00     0.020 A 
ATOM      4  C   UNL     1       5.952  -7.461  -0.427  1.00  0.00     0.005 A 
ATOM      5  C   UNL     1       8.101  -7.995  -1.558  1.00  0.00     0.161 A 
ATOM      6  C   UNL     1       6.904  -8.429  -0.862  1.00  0.00     0.050 A 
ENDROOT
BRANCH   1   7
ATOM      7  C   UNL     1       7.832  -4.217  -1.102  1.00  0.00     0.339 C 
ATOM      8  O   UNL     1       6.990  -3.564   0.130  1.00  0.00    -0.246 OA
BRANCH   7   9
ATOM      9  O   UNL     1       8.589  -3.582  -1.465  1.00  0.00    -0.478 OA
ATOM     10  H   UNL     1       9.301  -2.984  -1.806  1.00  0.00     0.297 HD
ENDBRANCH   7   9
ENDBRANCH   1   7
BRANCH   2  11
ATOM     11  O   UNL     1       8.898  -6.228  -3.040  1.00  0.00    -0.504 OA
ATOM     12  H   UNL     1       9.468  -5.972  -3.808  1.00  0.00     0.293 HD
ENDBRANCH   2  11
BRANCH   5  13
ATOM     13  O   UNL     1       9.045  -8.793  -2.192  1.00  0.00    -0.493 OA
ATOM     14  C   UNL     1       9.978  -9.675  -2.337  1.00  0.00     0.278 C 
ENDBRANCH   5  13
TORSDOF 4
ENDMDL
MODEL 3
REMARK VINA RESULT:    -4.657      2.101      3.084
REMARK INTER + INTRA:          -5.956
REMARK INTER:                  -5.685
REMARK INTRA:                  -0.271
REMARK UNBOUND:                -0.482
REMARK SMILES COc1cccc(C(=O)O)c1O
REMARK SMILES IDX 7 1 11 2 6 3 5 4 3 5 4 6 8 7 9 8 10 9 12 11 2 13 1 14
REMARK H PARENT 10 10 12 12
ROOT
ATOM      1  C   UNL     1       5.136  -7.626  -0.782  1.00  0.00     0.105 A 
ATOM      2  C   UNL     1       6.091  -8.570  -0.523  1.00  0.00     0.172 A 
ATOM      3  C   UNL     1       5.591  -6.250  -1.056  1.00  0.00     0.020 A 
ATOM      4  C   UNL     1       6.893  -6.072  -1.395  1.00  0.00     0.005 A 
ATOM      5  C   UNL     1       7.426  -8.483  -1.097  1.00  0.00     0.161 A 
ATOM      6  C   UNL     1       7.844  -7.134  -1.432  1.00  0.00     0.050 A 
ENDROOT
BRANCH   1   7
ATOM      7  C   UNL     1       3.648  -8.002  -0.890  1.00  0.00     0.339 C 
ATOM      8  O   UNL     1       2.900  -6.802  -1.701  1.00  0.00    -0.246 OA
BRANCH   7   9
ATOM      9  O   UNL     1       3.014  -8.819  -0.690  1.00  0.00    -0.478 OA
ATOM     10  H   UNL     1       2.418  -9.587  -0.502  1.00  0.00     0.297 HD
ENDBRANCH   7   9
ENDBRANCH   1   7
BRANCH   2  11
ATOM     11  O   UNL     1       5.819  -9.681   0.294  1.00  0.00    -0.504 OA
ATOM     12  H   UNL     1       5.627 -10.463   0.869  1.00  0.00     0.293 HD
ENDBRANCH   2  11
BRANCH   5  13
ATOM     13  O   UNL     1       8.235  -9.598  -0.920  1.00  0.00    -0.493 OA
ATOM     14  C   UNL     1       8.945 -10.635  -1.222  1.00  0.00     0.278 C 
ENDBRANCH   5  13
TORSDOF 4
ENDMDL
MODEL 4
REMARK VINA RESULT:    -4.333      1.518      4.328
REMARK INTER + INTRA:          -5.576
REMARK INTER:                  -5.125
REMARK INTRA:                  -0.451
REMARK UNBOUND:                -0.482
REMARK SMILES COc1cccc(C(=O)O)c1O
REMARK SMILES IDX 7 1 11 2 6 3 5 4 3 5 4 6 8 7 9 8 10 9 12 11 2 13 1 14
REMARK H PARENT 10 10 12 12
ROOT
ATOM      1  C   UNL     1       7.500  -5.654  -0.638  1.00  0.00     0.105 A 
ATOM      2  C   UNL     1       6.203  -6.088  -0.598  1.00  0.00     0.172 A 
ATOM      3  C   UNL     1       8.563  -6.666  -0.500  1.00  0.00     0.020 A 
ATOM      4  C   UNL     1       8.229  -7.966  -0.710  1.00  0.00     0.005 A 
ATOM      5  C   UNL     1       5.828  -7.418  -1.057  1.00  0.00     0.161 A 
ATOM      6  C   UNL     1       6.898  -8.396  -0.986  1.00  0.00     0.050 A 
ENDROOT
BRANCH   1   7
ATOM      7  C   UNL     1       7.843  -4.182  -0.922  1.00  0.00     0.339 C 
ATOM      8  O   UNL     1       7.042  -3.276   0.169  1.00  0.00    -0.246 OA
BRANCH   7   9
ATOM      9  O   UNL     1       8.495  -3.616  -1.526  1.00  0.00    -0.478 OA
ATOM     10  H   UNL     1       9.107  -3.085  -2.094  1.00  0.00     0.297 HD
ENDBRANCH   7   9
ENDBRANCH   1   7
BRANCH   2  11
ATOM     11  O   UNL     1       5.168  -5.258  -0.133  1.00  0.00    -0.504 OA
ATOM     12  H   UNL     1       4.439  -4.674   0.195  1.00  0.00     0.293 HD
ENDBRANCH   2  11
BRANCH   5  13
ATOM     13  O   UNL     1       4.464  -7.664  -1.150  1.00  0.00    -0.493 OA
ATOM     14  C   UNL     1       3.339  -8.287  -1.029  1.00  0.00     0.278 C 
ENDBRANCH   5  13
TORSDOF 4
ENDMDL
MODEL 5
REMARK VINA RESULT:    -3.995      2.858      4.152
REMARK INTER + INTRA:          -5.178
REMARK INTER:                  -4.821
REMARK INTRA:                  -0.356
REMARK UNBOUND:                -0.482
REMARK SMILES COc1cccc(C(=O)O)c1O
REMARK SMILES IDX 7 1 11 2 6 3 5 4 3 5 4 6 8 7 9 8 10 9 12 11 2 13 1 14
REMARK H PARENT 10 10 12 12
ROOT
ATOM      1  C   UNL     1       6.879  -5.801  -1.141  1.00  0.00     0.105 A 
ATOM      2  C   UNL     1       7.769  -6.604  -1.800  1.00  0.00     0.172 A 
ATOM      3  C   UNL     1       5.554  -6.364  -0.825  1.00  0.00     0.020 A 
ATOM      4  C   UNL     1       5.417  -7.714  -0.864  1.00  0.00     0.005 A 
ATOM      5  C   UNL     1       7.755  -8.051  -1.639  1.00  0.00     0.161 A 
ATOM      6  C   UNL     1       6.466  -8.596  -1.258  1.00  0.00     0.050 A 
ENDROOT
BRANCH   1   7
ATOM      7  C   UNL     1       7.278  -4.397  -0.653  1.00  0.00     0.339 C 
ATOM      8  O   UNL     1       8.312  -3.776  -1.748  1.00  0.00    -0.246 OA
BRANCH   7   9
ATOM      9  O   UNL     1       7.014  -3.709   0.099  1.00  0.00    -0.478 OA
ATOM     10  H   UNL     1       6.765  -3.062   0.806  1.00  0.00     0.297 HD
ENDBRANCH   7   9
ENDBRANCH   1   7
BRANCH   2  11
ATOM     11  O   UNL     1       8.753  -6.066  -2.647  1.00  0.00    -0.504 OA
ATOM     12  H   UNL     1       9.446  -5.687  -3.244  1.00  0.00     0.293 HD
ENDBRANCH   2  11
BRANCH   5  13
ATOM     13  O   UNL     1       8.827  -8.733  -2.201  1.00  0.00    -0.493 OA
ATOM     14  C   UNL     1       9.928  -9.406  -2.269  1.00  0.00     0.278 C 
ENDBRANCH   5  13
TORSDOF 4
ENDMDL
MODEL 6
REMARK VINA RESULT:    -3.922      2.155      3.101
REMARK INTER + INTRA:          -5.093
REMARK INTER:                  -4.894
REMARK INTRA:                  -0.198
REMARK UNBOUND:                -0.482
REMARK SMILES COc1cccc(C(=O)O)c1O
REMARK SMILES IDX 7 1 11 2 6 3 5 4 3 5 4 6 8 7 9 8 10 9 12 11 2 13 1 14
REMARK H PARENT 10 10 12 12
ROOT
ATOM      1  C   UNL     1       5.765  -8.499  -0.069  1.00  0.00     0.105 A 
ATOM      2  C   UNL     1       6.445  -7.319   0.060  1.00  0.00     0.172 A 
ATOM      3  C   UNL     1       4.404  -8.445  -0.634  1.00  0.00     0.020 A 
ATOM      4  C   UNL     1       4.050  -7.328  -1.320  1.00  0.00     0.005 A 
ATOM      5  C   UNL     1       6.216  -6.203  -0.846  1.00  0.00     0.161 A 
ATOM      6  C   UNL     1       4.900  -6.192  -1.457  1.00  0.00     0.050 A 
ENDROOT
BRANCH   1   7
ATOM      7  C   UNL     1       6.429  -9.846   0.264  1.00  0.00     0.339 C 
ATOM      8  O   UNL     1       7.732  -9.998  -0.702  1.00  0.00    -0.246 OA
BRANCH   7   9
ATOM      9  O   UNL     1       6.350 -10.622   0.972  1.00  0.00    -0.478 OA
ATOM     10  H   UNL     1       6.276 -11.351   1.637  1.00  0.00     0.297 HD
ENDBRANCH   7   9
ENDBRANCH   1   7
BRANCH   2  11
ATOM     11  O   UNL     1       7.414  -7.139   1.062  1.00  0.00    -0.504 OA
ATOM     12  H   UNL     1       8.096  -7.012   1.768  1.00  0.00     0.293 HD
ENDBRANCH   2  11
BRANCH   5  13
ATOM     13  O   UNL     1       7.104  -5.141  -0.735  1.00  0.00    -0.493 OA
ATOM     14  C   UNL     1       8.126  -4.390  -0.985  1.00  0.00     0.278 C 
ENDBRANCH   5  13
TORSDOF 4
ENDMDL
MODEL 7
REMARK VINA RESULT:    -3.704      7.635      8.541
REMARK INTER + INTRA:          -4.836
REMARK INTER:                  -4.601
REMARK INTRA:                  -0.235
REMARK UNBOUND:                -0.482
REMARK SMILES COc1cccc(C(=O)O)c1O
REMARK SMILES IDX 7 1 11 2 6 3 5 4 3 5 4 6 8 7 9 8 10 9 12 11 2 13 1 14
REMARK H PARENT 10 10 12 12
ROOT
ATOM      1  C   UNL     1       2.689  -1.286   4.521  1.00  0.00     0.105 A 
ATOM      2  C   UNL     1       2.309  -1.328   3.207  1.00  0.00     0.172 A 
ATOM      3  C   UNL     1       2.125  -2.302   5.428  1.00  0.00     0.020 A 
ATOM      4  C   UNL     1       1.576  -3.412   4.869  1.00  0.00     0.005 A 
ATOM      5  C   UNL     1       1.949  -2.579   2.556  1.00  0.00     0.161 A 
ATOM      6  C   UNL     1       1.461  -3.603   3.461  1.00  0.00     0.050 A 
ENDROOT
BRANCH   1   7
ATOM      7  C   UNL     1       3.746  -0.284   5.017  1.00  0.00     0.339 C 
ATOM      8  O   UNL     1       4.836  -0.094   3.820  1.00  0.00    -0.246 OA
BRANCH   7   9
ATOM      9  O   UNL     1       3.912   0.363   5.830  1.00  0.00    -0.478 OA
ATOM     10  H   UNL     1       4.068   0.972   6.595  1.00  0.00     0.297 HD
ENDBRANCH   7   9
ENDBRANCH   1   7
BRANCH   2  11
ATOM     11  O   UNL     1       2.271  -0.164   2.419  1.00  0.00    -0.504 OA
ATOM     12  H   UNL     1       2.244   0.655   1.864  1.00  0.00     0.293 HD
ENDBRANCH   2  11
BRANCH   5  13
ATOM     13  O   UNL     1       1.775  -2.517   1.179  1.00  0.00    -0.493 OA
ATOM     14  C   UNL     1       1.895  -2.090  -0.035  1.00  0.00     0.278 C 
ENDBRANCH   5  13
TORSDOF 4
ENDMDL
MODEL 8
REMARK VINA RESULT:    -3.690      7.381      7.933
REMARK INTER + INTRA:          -4.819
REMARK INTER:                  -4.637
REMARK INTRA:                  -0.183
REMARK UNBOUND:                -0.482
REMARK SMILES COc1cccc(C(=O)O)c1O
REMARK SMILES IDX 7 1 11 2 6 3 5 4 3 5 4 6 8 7 9 8 10 9 12 11 2 13 1 14
REMARK H PARENT 10 10 12 12
ROOT
ATOM      1  C   UNL     1       2.412  -2.799   4.528  1.00  0.00     0.105 A 
ATOM      2  C   UNL     1       2.133  -2.823   3.189  1.00  0.00     0.172 A 
ATOM      3  C   UNL     1       3.395  -1.808   5.004  1.00  0.00     0.020 A 
ATOM      4  C   UNL     1       3.681  -0.761   4.188  1.00  0.00     0.005 A 
ATOM      5  C   UNL     1       2.218  -1.622   2.371  1.00  0.00     0.161 A 
ATOM      6  C   UNL     1       3.132  -0.617   2.880  1.00  0.00     0.050 A 
ENDROOT
BRANCH   1   7
ATOM      7  C   UNL     1       1.655  -3.700   5.520  1.00  0.00     0.339 C 
ATOM      8  O   UNL     1       0.734  -2.732   6.451  1.00  0.00    -0.246 OA
BRANCH   7   9
ATOM      9  O   UNL     1       1.489  -4.724   5.701  1.00  0.00    -0.478 OA
ATOM     10  H   UNL     1       1.332  -5.686   5.871  1.00  0.00     0.297 HD
ENDBRANCH   7   9
ENDBRANCH   1   7
BRANCH   2  11
ATOM     11  O   UNL     1       1.729  -4.005   2.547  1.00  0.00    -0.504 OA
ATOM     12  H   UNL     1       1.444  -4.839   2.094  1.00  0.00     0.293 HD
ENDBRANCH   2  11
BRANCH   5  13
ATOM     13  O   UNL     1       1.720  -1.733   1.078  1.00  0.00    -0.493 OA
ATOM     14  C   UNL     1       1.694  -1.690  -0.213  1.00  0.00     0.278 C 
ENDBRANCH   5  13
TORSDOF 4
ENDMDL
MODEL 9
REMARK VINA RESULT:    -3.400      2.454      4.414
REMARK INTER + INTRA:          -4.479
REMARK INTER:                  -4.308
REMARK INTRA:                  -0.171
REMARK UNBOUND:                -0.482
REMARK SMILES COc1cccc(C(=O)O)c1O
REMARK SMILES IDX 7 1 11 2 6 3 5 4 3 5 4 6 8 7 9 8 10 9 12 11 2 13 1 14
REMARK H PARENT 10 10 12 12
ROOT
ATOM      1  C   UNL     1       7.678  -5.671  -0.944  1.00  0.00     0.105 A 
ATOM      2  C   UNL     1       7.515  -6.842  -0.257  1.00  0.00     0.172 A 
ATOM      3  C   UNL     1       8.406  -5.726  -2.225  1.00  0.00     0.020 A 
ATOM      4  C   UNL     1       8.546  -6.939  -2.820  1.00  0.00     0.005 A 
ATOM      5  C   UNL     1       7.428  -8.124  -0.942  1.00  0.00     0.161 A 
ATOM      6  C   UNL     1       8.085  -8.155  -2.235  1.00  0.00     0.050 A 
ENDROOT
BRANCH   1   7
ATOM      7  C   UNL     1       7.035  -4.361  -0.457  1.00  0.00     0.339 C 
ATOM      8  O   UNL     1       5.420  -4.539  -0.572  1.00  0.00    -0.246 OA
BRANCH   7   9
ATOM      9  O   UNL     1       7.317  -3.457   0.003  1.00  0.00    -0.478 OA
ATOM     10  H   UNL     1       7.583  -2.607   0.436  1.00  0.00     0.297 HD
ENDBRANCH   7   9
ENDBRANCH   1   7
BRANCH   2  11
ATOM     11  O   UNL     1       7.402  -6.859   1.144  1.00  0.00    -0.504 OA
ATOM     12  H   UNL     1       7.322  -6.871   2.131  1.00  0.00     0.293 HD
ENDBRANCH   2  11
BRANCH   5  13
ATOM     13  O   UNL     1       7.066  -9.209  -0.153  1.00  0.00    -0.493 OA
ATOM     14  C   UNL     1       6.311 -10.017   0.515  1.00  0.00     0.278 C 
ENDBRANCH   5  13
TORSDOF 4
ENDMDL
