MODEL 1
REMARK VINA RESULT:    -4.830      0.000      0.000
REMARK INTER + INTRA:          -6.132
REMARK INTER:                  -5.677
REMARK INTRA:                  -0.455
REMARK UNBOUND:                -0.455
REMARK SMILES COc1cccc(C(=O)O)c1O
REMARK SMILES IDX 7 1 11 2 6 3 5 4 3 5 4 6 8 7 9 8 10 9 12 11 2 13 1 14
REMARK H PARENT 10 10 12 12
ROOT
ATOM      1  C   UNL     1       7.793   1.355   2.282  1.00  0.00     0.105 A 
ATOM      2  C   UNL     1       7.109   1.140   3.446  1.00  0.00     0.172 A 
ATOM      3  C   UNL     1       9.194   0.898   2.218  1.00  0.00     0.020 A 
ATOM      4  C   UNL     1       9.604  -0.011   3.140  1.00  0.00     0.005 A 
ATOM      5  C   UNL     1       7.410   0.009   4.312  1.00  0.00     0.161 A 
ATOM      6  C   UNL     1       8.770  -0.484   4.196  1.00  0.00     0.050 A 
ENDROOT
BRANCH   1   7
ATOM      7  C   UNL     1       7.102   1.954   1.045  1.00  0.00     0.339 C 
ATOM      8  O   UNL     1       5.499   1.961   1.339  1.00  0.00    -0.246 OA
BRANCH   7   9
ATOM      9  O   UNL     1       7.355   2.433   0.142  1.00  0.00    -0.478 OA
ATOM     10  H   UNL     1       7.594   2.883  -0.707  1.00  0.00     0.297 HD
ENDBRANCH   7   9
ENDBRANCH   1   7
BRANCH   2  11
ATOM     11  O   UNL     1       6.066   1.991   3.849  1.00  0.00    -0.504 OA
ATOM     12  H   UNL     1       5.331   2.591   4.133  1.00  0.00     0.293 HD
ENDBRANCH   2  11
BRANCH   5  13
ATOM     13  O   UNL     1       6.519  -0.209   5.355  1.00  0.00    -0.493 OA
ATOM     14  C   UNL     1       6.098  -0.453   6.552  1.00  0.00     0.278 C 
ENDBRANCH   5  13
TORSDOF 4
ENDMDL
MODEL 2
REMARK VINA RESULT:    -4.786      1.756      4.674
REMARK INTER + INTRA:          -6.080
REMARK INTER:                  -5.666
REMARK INTRA:                  -0.415
REMARK UNBOUND:                -0.455
REMARK SMILES COc1cccc(C(=O)O)c1O
REMARK SMILES IDX 7 1 11 2 6 3 5 4 3 5 4 6 8 7 9 8 10 9 12 11 2 13 1 14
REMARK H PARENT 10 10 12 12
ROOT
ATOM      1  C   UNL     1       6.901   0.507   5.740  1.00  0.00     0.105 A 
ATOM      2  C   UNL     1       6.986   0.545   4.376  1.00  0.00     0.172 A 
ATOM      3  C   UNL     1       7.474   1.638   6.492  1.00  0.00     0.020 A 
ATOM      4  C   UNL     1       7.711   2.791   5.815  1.00  0.00     0.005 A 
ATOM      5  C   UNL     1       6.998   1.804   3.646  1.00  0.00     0.161 A 
ATOM      6  C   UNL     1       7.496   2.932   4.412  1.00  0.00     0.050 A 
ENDROOT
BRANCH   1   7
ATOM      7  C   UNL     1       6.145  -0.620   6.464  1.00  0.00     0.339 C 
ATOM      8  O   UNL     1       5.388  -1.508   5.327  1.00  0.00    -0.246 OA
BRANCH   7   9
ATOM      9  O   UNL     1       6.056  -1.029   7.431  1.00  0.00    -0.478 OA
ATOM     10  H   UNL     1       5.972  -1.414   8.339  1.00  0.00     0.297 HD
ENDBRANCH   7   9
ENDBRANCH   1   7
BRANCH   2  11
ATOM     11  O   UNL     1       7.042  -0.635   3.613  1.00  0.00    -0.504 OA
ATOM     12  H   UNL     1       7.082  -1.465   3.076  1.00  0.00     0.293 HD
ENDBRANCH   2  11
BRANCH   5  13
ATOM     13  O   UNL     1       6.886   1.705   2.265  1.00  0.00    -0.493 OA
ATOM     14  C   UNL     1       7.208   1.806   1.017  1.00  0.00     0.278 C 
ENDBRANCH   5  13
TORSDOF 4
ENDMDL
MODEL 3
REMARK VINA RESULT:    -4.780      2.225      3.267
REMARK INTER + INTRA:          -6.074
REMARK INTER:                  -5.804
REMARK INTRA:                  -0.270
REMARK UNBOUND:                -0.455
REMARK SMILES COc1cccc(C(=O)O)c1O
REMARK SMILES IDX 7 1 11 2 6 3 5 4 3 5 4 6 8 7 9 8 10 9 12 11 2 13 1 14
REMARK H PARENT 10 10 12 12
ROOT
ATOM      1  C   UNL     1       7.633   1.325   2.502  1.00  0.00     0.105 A 
ATOM      2  C   UNL     1       8.971   1.266   2.783  1.00  0.00     0.172 A 
ATOM      3  C   UNL     1       6.691   1.148   3.622  1.00  0.00     0.020 A 
ATOM      4  C   UNL     1       7.172   1.303   4.882  1.00  0.00     0.005 A 
ATOM      5  C   UNL     1       9.498   1.668   4.079  1.00  0.00     0.161 A 
ATOM      6  C   UNL     1       8.546   1.560   5.169  1.00  0.00     0.050 A 
ENDROOT
BRANCH   1   7
ATOM      7  C   UNL     1       7.126   1.671   1.091  1.00  0.00     0.339 C 
ATOM      8  O   UNL     1       5.573   2.141   1.233  1.00  0.00    -0.246 OA
BRANCH   7   9
ATOM      9  O   UNL     1       7.502   1.782   0.114  1.00  0.00    -0.478 OA
ATOM     10  H   UNL     1       7.855   1.888  -0.805  1.00  0.00     0.297 HD
ENDBRANCH   7   9
ENDBRANCH   1   7
BRANCH   2  11
ATOM     11  O   UNL     1       9.901   0.833   1.823  1.00  0.00    -0.504 OA
ATOM     12  H   UNL     1      10.557   0.527   1.146  1.00  0.00     0.293 HD
ENDBRANCH   2  11
BRANCH   5  13
ATOM     13  O   UNL     1      10.881   1.749   4.172  1.00  0.00    -0.493 OA
ATOM     14  C   UNL     1      12.052   2.271   4.337  1.00  0.00     0.278 C 
ENDBRANCH   5  13
TORSDOF 4
ENDMDL
MODEL 4
REMARK VINA RESULT:    -4.685      2.931      4.477
REMARK INTER + INTRA:          -5.962
REMARK INTER:                  -5.693
REMARK INTRA:                  -0.269
REMARK UNBOUND:                -0.455
REMARK SMILES COc1cccc(C(=O)O)c1O
REMARK SMILES IDX 7 1 11 2 6 3 5 4 3 5 4 6 8 7 9 8 10 9 12 11 2 13 1 14
REMARK H PARENT 10 10 12 12
ROOT
ATOM      1  C   UNL     1       6.737   0.410   5.409  1.00  0.00     0.105 A 
ATOM      2  C   UNL     1       7.705   1.271   5.847  1.00  0.00     0.172 A 
ATOM      3  C   UNL     1       6.438   0.395   3.965  1.00  0.00     0.020 A 
ATOM      4  C   UNL     1       7.357   0.938   3.125  1.00  0.00     0.005 A 
ATOM      5  C   UNL     1       8.824   1.658   5.000  1.00  0.00     0.161 A 
ATOM      6  C   UNL     1       8.550   1.574   3.577  1.00  0.00     0.050 A 
ENDROOT
BRANCH   1   7
ATOM      7  C   UNL     1       6.056  -0.583   6.366  1.00  0.00     0.339 C 
ATOM      8  O   UNL     1       5.327  -1.718   5.452  1.00  0.00    -0.246 OA
BRANCH   7   9
ATOM      9  O   UNL     1       6.008  -0.793   7.397  1.00  0.00    -0.478 OA
ATOM     10  H   UNL     1       5.963  -0.990   8.366  1.00  0.00     0.297 HD
ENDBRANCH   7   9
ENDBRANCH   1   7
BRANCH   2  11
ATOM     11  O   UNL     1       7.675   1.806   7.147  1.00  0.00    -0.504 OA
ATOM     12  H   UNL     1       7.653   2.182   8.062  1.00  0.00     0.293 HD
ENDBRANCH   2  11
BRANCH   5  13
ATOM     13  O   UNL     1       9.837   2.375   5.624  1.00  0.00    -0.493 OA
ATOM     14  C   UNL     1      10.984   2.622   6.165  1.00  0.00     0.278 C 
ENDBRANCH   5  13
TORSDOF 4
ENDMDL
MODEL 5
REMARK VINA RESULT:    -4.138      2.024      3.002
REMARK INTER + INTRA:          -5.319
REMARK INTER:                  -4.862
REMARK INTRA:                  -0.457
REMARK UNBOUND:                -0.455
REMARK SMILES COc1cccc(C(=O)O)c1O
REMARK SMILES IDX 7 1 11 2 6 3 5 4 3 5 4 6 8 7 9 8 10 9 12 11 2 13 1 14
REMARK H PARENT 10 10 12 12
ROOT
ATOM      1  C   UNL     1       7.005   0.971   2.920  1.00  0.00     0.105 A 
ATOM      2  C   UNL     1       8.310   1.069   3.318  1.00  0.00     0.172 A 
ATOM      3  C   UNL     1       6.068   0.269   3.816  1.00  0.00     0.020 A 
ATOM      4  C   UNL     1       6.444   0.090   5.108  1.00  0.00     0.005 A 
ATOM      5  C   UNL     1       8.677   1.115   4.726  1.00  0.00     0.161 A 
ATOM      6  C   UNL     1       7.717   0.485   5.613  1.00  0.00     0.050 A 
ENDROOT
BRANCH   1   7
ATOM      7  C   UNL     1       6.506   1.659   1.637  1.00  0.00     0.339 C 
ATOM      8  O   UNL     1       7.612   1.381   0.474  1.00  0.00    -0.246 OA
BRANCH   7   9
ATOM      9  O   UNL     1       5.648   2.151   1.278  1.00  0.00    -0.478 OA
ATOM     10  H   UNL     1       4.840   2.614   0.940  1.00  0.00     0.297 HD
ENDBRANCH   7   9
ENDBRANCH   1   7
BRANCH   2  11
ATOM     11  O   UNL     1       9.356   1.150   2.383  1.00  0.00    -0.504 OA
ATOM     12  H   UNL     1      10.093   1.207   1.724  1.00  0.00     0.293 HD
ENDBRANCH   2  11
BRANCH   5  13
ATOM     13  O   UNL     1      10.007   1.413   4.995  1.00  0.00    -0.493 OA
ATOM     14  C   UNL     1      11.049   2.112   5.307  1.00  0.00     0.278 C 
ENDBRANCH   5  13
TORSDOF 4
ENDMDL
MODEL 6
REMARK VINA RESULT:    -4.132      2.719      4.261
REMARK INTER + INTRA:          -5.312
REMARK INTER:                  -4.846
REMARK INTRA:                  -0.466
REMARK UNBOUND:                -0.455
REMARK SMILES COc1cccc(C(=O)O)c1O
REMARK SMILES IDX 7 1 11 2 6 3 5 4 3 5 4 6 8 7 9 8 10 9 12 11 2 13 1 14
REMARK H PARENT 10 10 12 12
ROOT
ATOM      1  C   UNL     1       6.560   0.452   4.720  1.00  0.00     0.105 A 
ATOM      2  C   UNL     1       7.615   1.211   5.148  1.00  0.00     0.172 A 
ATOM      3  C   UNL     1       6.109   0.632   3.328  1.00  0.00     0.020 A 
ATOM      4  C   UNL     1       6.960   1.238   2.462  1.00  0.00     0.005 A 
ATOM      5  C   UNL     1       8.656   1.656   4.232  1.00  0.00     0.161 A 
ATOM      6  C   UNL     1       8.228   1.764   2.850  1.00  0.00     0.050 A 
ENDROOT
BRANCH   1   7
ATOM      7  C   UNL     1       5.933  -0.626   5.621  1.00  0.00     0.339 C 
ATOM      8  O   UNL     1       5.758   0.021   7.106  1.00  0.00    -0.246 OA
BRANCH   7   9
ATOM      9  O   UNL     1       5.509  -1.586   5.539  1.00  0.00    -0.478 OA
ATOM     10  H   UNL     1       5.110  -2.490   5.463  1.00  0.00     0.297 HD
ENDBRANCH   7   9
ENDBRANCH   1   7
BRANCH   2  11
ATOM     11  O   UNL     1       7.752   1.578   6.497  1.00  0.00    -0.504 OA
ATOM     12  H   UNL     1       7.850   1.836   7.448  1.00  0.00     0.293 HD
ENDBRANCH   2  11
BRANCH   5  13
ATOM     13  O   UNL     1       9.767   2.247   4.821  1.00  0.00    -0.493 OA
ATOM     14  C   UNL     1      10.980   2.381   5.245  1.00  0.00     0.278 C 
ENDBRANCH   5  13
TORSDOF 4
ENDMDL
MODEL 7
REMARK VINA RESULT:    -4.072      2.386      4.644
REMARK INTER + INTRA:          -5.242
REMARK INTER:                  -5.039
REMARK INTRA:                  -0.203
REMARK UNBOUND:                -0.455
REMARK SMILES COc1cccc(C(=O)O)c1O
REMARK SMILES IDX 7 1 11 2 6 3 5 4 3 5 4 6 8 7 9 8 10 9 12 11 2 13 1 14
REMARK H PARENT 10 10 12 12
ROOT
ATOM      1  C   UNL     1       7.330   1.627   5.979  1.00  0.00     0.105 A 
ATOM      2  C   UNL     1       7.171   2.095   4.704  1.00  0.00     0.172 A 
ATOM      3  C   UNL     1       6.694   0.340   6.318  1.00  0.00     0.020 A 
ATOM      4  C   UNL     1       6.317  -0.467   5.293  1.00  0.00     0.005 A 
ATOM      5  C   UNL     1       7.004   1.193   3.573  1.00  0.00     0.161 A 
ATOM      6  C   UNL     1       6.444  -0.100   3.921  1.00  0.00     0.050 A 
ENDROOT
BRANCH   1   7
ATOM      7  C   UNL     1       8.225   2.357   6.995  1.00  0.00     0.339 C 
ATOM      8  O   UNL     1       9.740   2.357   6.398  1.00  0.00    -0.246 OA
BRANCH   7   9
ATOM      9  O   UNL     1       8.132   2.922   7.879  1.00  0.00    -0.478 OA
ATOM     10  H   UNL     1       8.045   3.453   8.710  1.00  0.00     0.297 HD
ENDBRANCH   7   9
ENDBRANCH   1   7
BRANCH   2  11
ATOM     11  O   UNL     1       7.184   3.473   4.423  1.00  0.00    -0.504 OA
ATOM     12  H   UNL     1       7.193   4.443   4.226  1.00  0.00     0.293 HD
ENDBRANCH   2  11
BRANCH   5  13
ATOM     13  O   UNL     1       7.052   1.782   2.316  1.00  0.00    -0.493 OA
ATOM     14  C   UNL     1       7.207   1.887   1.038  1.00  0.00     0.278 C 
ENDBRANCH   5  13
TORSDOF 4
ENDMDL
MODEL 8
REMARK VINA RESULT:    -4.029      2.213      3.127
REMARK INTER + INTRA:          -5.191
REMARK INTER:                  -4.987
REMARK INTRA:                  -0.204
REMARK UNBOUND:                -0.455
REMARK SMILES COc1cccc(C(=O)O)c1O
REMARK SMILES IDX 7 1 11 2 6 3 5 4 3 5 4 6 8 7 9 8 10 9 12 11 2 13 1 14
REMARK H PARENT 10 10 12 12
ROOT
ATOM      1  C   UNL     1       8.910   0.837   2.565  1.00  0.00     0.105 A 
ATOM      2  C   UNL     1       8.397   0.157   3.636  1.00  0.00     0.172 A 
ATOM      3  C   UNL     1       7.957   1.504   1.659  1.00  0.00     0.020 A 
ATOM      4  C   UNL     1       6.697   1.720   2.116  1.00  0.00     0.005 A 
ATOM      5  C   UNL     1       7.148   0.557   4.268  1.00  0.00     0.161 A 
ATOM      6  C   UNL     1       6.241   1.276   3.392  1.00  0.00     0.050 A 
ENDROOT
BRANCH   1   7
ATOM      7  C   UNL     1      10.428   0.994   2.369  1.00  0.00     0.339 C 
ATOM      8  O   UNL     1      11.027   1.671   3.724  1.00  0.00    -0.246 OA
BRANCH   7   9
ATOM      9  O   UNL     1      11.177   0.714   1.684  1.00  0.00    -0.478 OA
ATOM     10  H   UNL     1      11.881   0.449   1.040  1.00  0.00     0.297 HD
ENDBRANCH   7   9
ENDBRANCH   1   7
BRANCH   2  11
ATOM     11  O   UNL     1       9.067  -0.948   4.188  1.00  0.00    -0.504 OA
ATOM     12  H   UNL     1       9.538  -1.727   4.578  1.00  0.00     0.293 HD
ENDBRANCH   2  11
BRANCH   5  13
ATOM     13  O   UNL     1       6.839  -0.087   5.459  1.00  0.00    -0.493 OA
ATOM     14  C   UNL     1       6.141  -0.480   6.473  1.00  0.00     0.278 C 
ENDBRANCH   5  13
TORSDOF 4
ENDMDL
MODEL 9
REMARK VINA RESULT:    -3.405      2.818      3.577
REMARK INTER + INTRA:          -4.457
REMARK INTER:                  -3.993
REMARK INTRA:                  -0.464
REMARK UNBOUND:                -0.455
REMARK SMILES COc1cccc(C(=O)O)c1O
REMARK SMILES IDX 7 1 11 2 6 3 5 4 3 5 4 6 8 7 9 8 10 9 12 11 2 13 1 14
REMARK H PARENT 10 10 12 12
ROOT
ATOM      1  C   UNL     1       9.473   1.218   2.655  1.00  0.00     0.105 A 
ATOM      2  C   UNL     1       9.162   1.208   3.987  1.00  0.00     0.172 A 
ATOM      3  C   UNL     1       8.361   1.332   1.695  1.00  0.00     0.020 A 
ATOM      4  C   UNL     1       7.168   1.782   2.161  1.00  0.00     0.005 A 
ATOM      5  C   UNL     1       7.993   1.905   4.504  1.00  0.00     0.161 A 
ATOM      6  C   UNL     1       6.927   2.079   3.535  1.00  0.00     0.050 A 
ENDROOT
BRANCH   1   7
ATOM      7  C   UNL     1      10.935   1.217   2.175  1.00  0.00     0.339 C 
ATOM      8  O   UNL     1      11.860   1.691   3.429  1.00  0.00    -0.246 OA
BRANCH   7   9
ATOM      9  O   UNL     1      11.500   0.918   1.338  1.00  0.00    -0.478 OA
ATOM     10  H   UNL     1      12.031   0.636   0.551  1.00  0.00     0.297 HD
ENDBRANCH   7   9
ENDBRANCH   1   7
BRANCH   2  11
ATOM     11  O   UNL     1       9.972   0.540   4.922  1.00  0.00    -0.504 OA
ATOM     12  H   UNL     1      10.542   0.069   5.581  1.00  0.00     0.293 HD
ENDBRANCH   2  11
BRANCH   5  13
ATOM     13  O   UNL     1       7.898   1.985   5.888  1.00  0.00    -0.493 OA
ATOM     14  C   UNL     1       8.083   2.429   7.087  1.00  0.00     0.278 C 
ENDBRANCH   5  13
TORSDOF 4
ENDMDL
