MODEL 1
REMARK VINA RESULT:    -4.923      0.000      0.000
REMARK INTER + INTRA:          -6.057
REMARK INTER:                  -5.786
REMARK INTRA:                  -0.270
REMARK UNBOUND:                -0.270
REMARK SMILES COc1cccc(C(=O)O)c1O
REMARK SMILES IDX 7 1 11 2 6 3 5 4 3 5 4 6 8 7 9 8 10 9 12 11 2 13 1 14
REMARK H PARENT 10 10 12 12
ROOT
ATOM      1  C   UNL     1      -1.488  -6.115  -0.444  1.00  0.00     0.105 A 
ATOM      2  C   UNL     1      -2.056  -7.257  -0.938  1.00  0.00     0.172 A 
ATOM      3  C   UNL     1      -1.813  -5.733   0.942  1.00  0.00     0.020 A 
ATOM      4  C   UNL     1      -2.337  -6.689   1.753  1.00  0.00     0.005 A 
ATOM      5  C   UNL     1      -2.395  -8.377  -0.072  1.00  0.00     0.161 A 
ATOM      6  C   UNL     1      -2.645  -8.008   1.309  1.00  0.00     0.050 A 
ENDROOT
BRANCH   1   7
ATOM      7  C   UNL     1      -0.464  -5.311  -1.265  1.00  0.00     0.339 C 
ATOM      8  O   UNL     1       0.375  -4.383  -0.221  1.00  0.00    -0.246 OA
BRANCH   7   9
ATOM      9  O   UNL     1      -0.093  -5.260  -2.249  1.00  0.00    -0.478 OA
ATOM     10  H   UNL     1       0.255  -5.213  -3.174  1.00  0.00     0.297 HD
ENDBRANCH   7   9
ENDBRANCH   1   7
BRANCH   2  11
ATOM     11  O   UNL     1      -2.319  -7.409  -2.310  1.00  0.00    -0.504 OA
ATOM     12  H   UNL     1      -2.505  -7.516  -3.277  1.00  0.00     0.293 HD
ENDBRANCH   2  11
BRANCH   5  13
ATOM     13  O   UNL     1      -2.780  -9.546  -0.716  1.00  0.00    -0.493 OA
ATOM     14  C   UNL     1      -2.773 -10.790  -1.066  1.00  0.00     0.278 C 
ENDBRANCH   5  13
TORSDOF 4
ENDMDL
MODEL 2
REMARK VINA RESULT:    -4.888      3.064      4.096
REMARK INTER + INTRA:          -6.016
REMARK INTER:                  -5.750
REMARK INTRA:                  -0.266
REMARK UNBOUND:                -0.270
REMARK SMILES COc1cccc(C(=O)O)c1O
REMARK SMILES IDX 7 1 11 2 6 3 5 4 3 5 4 6 8 7 9 8 10 9 12 11 2 13 1 14
REMARK H PARENT 10 10 12 12
ROOT
ATOM      1  C   UNL     1      -3.174  -6.363   2.236  1.00  0.00     0.105 A 
ATOM      2  C   UNL     1      -2.921  -7.705   2.309  1.00  0.00     0.172 A 
ATOM      3  C   UNL     1      -2.661  -5.634   1.062  1.00  0.00     0.020 A 
ATOM      4  C   UNL     1      -2.305  -6.362  -0.028  1.00  0.00     0.005 A 
ATOM      5  C   UNL     1      -2.778  -8.522   1.112  1.00  0.00     0.161 A 
ATOM      6  C   UNL     1      -2.341  -7.787  -0.061  1.00  0.00     0.050 A 
ENDROOT
BRANCH   1   7
ATOM      7  C   UNL     1      -4.051  -5.655   3.284  1.00  0.00     0.339 C 
ATOM      8  O   UNL     1      -4.473  -4.207   2.668  1.00  0.00    -0.246 OA
BRANCH   7   9
ATOM      9  O   UNL     1      -4.521  -5.864   4.203  1.00  0.00    -0.478 OA
ATOM     10  H   UNL     1      -4.963  -6.060   5.067  1.00  0.00     0.297 HD
ENDBRANCH   7   9
ENDBRANCH   1   7
BRANCH   2  11
ATOM     11  O   UNL     1      -2.810  -8.363   3.546  1.00  0.00    -0.504 OA
ATOM     12  H   UNL     1      -2.732  -8.825   4.418  1.00  0.00     0.293 HD
ENDBRANCH   2  11
BRANCH   5  13
ATOM     13  O   UNL     1      -2.722  -9.894   1.318  1.00  0.00    -0.493 OA
ATOM     14  C   UNL     1      -3.015 -11.147   1.193  1.00  0.00     0.278 C 
ENDBRANCH   5  13
TORSDOF 4
ENDMDL
MODEL 3
REMARK VINA RESULT:    -4.876      2.227      3.237
REMARK INTER + INTRA:          -6.002
REMARK INTER:                  -5.530
REMARK INTRA:                  -0.472
REMARK UNBOUND:                -0.270
REMARK SMILES COc1cccc(C(=O)O)c1O
REMARK SMILES IDX 7 1 11 2 6 3 5 4 3 5 4 6 8 7 9 8 10 9 12 11 2 13 1 14
REMARK H PARENT 10 10 12 12
ROOT
ATOM      1  C   UNL     1      -1.378  -6.244  -0.676  1.00  0.00     0.105 A 
ATOM      2  C   UNL     1      -1.786  -6.192   0.628  1.00  0.00     0.172 A 
ATOM      3  C   UNL     1      -2.267  -6.914  -1.643  1.00  0.00     0.020 A 
ATOM      4  C   UNL     1      -3.562  -7.106  -1.283  1.00  0.00     0.005 A 
ATOM      5  C   UNL     1      -3.197  -6.158   0.987  1.00  0.00     0.161 A 
ATOM      6  C   UNL     1      -4.077  -6.754  -0.000  1.00  0.00     0.050 A 
ENDROOT
BRANCH   1   7
ATOM      7  C   UNL     1      -0.092  -5.540  -1.142  1.00  0.00     0.339 C 
ATOM      8  O   UNL     1       0.220  -4.345  -0.081  1.00  0.00    -0.246 OA
BRANCH   7   9
ATOM      9  O   UNL     1       0.669  -5.662  -1.860  1.00  0.00    -0.478 OA
ATOM     10  H   UNL     1       1.385  -5.776  -2.534  1.00  0.00     0.297 HD
ENDBRANCH   7   9
ENDBRANCH   1   7
BRANCH   2  11
ATOM     11  O   UNL     1      -0.858  -6.146   1.683  1.00  0.00    -0.504 OA
ATOM     12  H   UNL     1      -0.205  -6.114   2.426  1.00  0.00     0.293 HD
ENDBRANCH   2  11
BRANCH   5  13
ATOM     13  O   UNL     1      -3.475  -5.905   2.324  1.00  0.00    -0.493 OA
ATOM     14  C   UNL     1      -4.161  -5.791   3.414  1.00  0.00     0.278 C 
ENDBRANCH   5  13
TORSDOF 4
ENDMDL
MODEL 4
REMARK VINA RESULT:    -4.248      8.304      9.439
REMARK INTER + INTRA:          -5.264
REMARK INTER:                  -5.015
REMARK INTRA:                  -0.249
REMARK UNBOUND:                -0.270
REMARK SMILES COc1cccc(C(=O)O)c1O
REMARK SMILES IDX 7 1 11 2 6 3 5 4 3 5 4 6 8 7 9 8 10 9 12 11 2 13 1 14
REMARK H PARENT 10 10 12 12
ROOT
ATOM      1  C   UNL     1       1.816  -1.136   5.068  1.00  0.00     0.105 A 
ATOM      2  C   UNL     1       0.865  -0.806   4.141  1.00  0.00     0.172 A 
ATOM      3  C   UNL     1       3.230  -1.037   4.662  1.00  0.00     0.020 A 
ATOM      4  C   UNL     1       3.519  -0.296   3.561  1.00  0.00     0.005 A 
ATOM      5  C   UNL     1       1.122   0.179   3.101  1.00  0.00     0.161 A 
ATOM      6  C   UNL     1       2.523   0.326   2.752  1.00  0.00     0.050 A 
ENDROOT
BRANCH   1   7
ATOM      7  C   UNL     1       1.433  -1.495   6.514  1.00  0.00     0.339 C 
ATOM      8  O   UNL     1       0.109  -0.626   6.898  1.00  0.00    -0.246 OA
BRANCH   7   9
ATOM      9  O   UNL     1       1.705  -2.182   7.264  1.00  0.00    -0.478 OA
ATOM     10  H   UNL     1       1.961  -2.828   7.970  1.00  0.00     0.297 HD
ENDBRANCH   7   9
ENDBRANCH   1   7
BRANCH   2  11
ATOM     11  O   UNL     1      -0.414  -1.389   4.166  1.00  0.00    -0.504 OA
ATOM     12  H   UNL     1      -1.314  -1.800   4.183  1.00  0.00     0.293 HD
ENDBRANCH   2  11
BRANCH   5  13
ATOM     13  O   UNL     1       0.020   0.568   2.350  1.00  0.00    -0.493 OA
ATOM     14  C   UNL     1      -1.218   0.762   2.033  1.00  0.00     0.278 C 
ENDBRANCH   5  13
TORSDOF 4
ENDMDL
MODEL 5
REMARK VINA RESULT:    -4.220      2.891      3.783
REMARK INTER + INTRA:          -5.230
REMARK INTER:                  -4.846
REMARK INTRA:                  -0.384
REMARK UNBOUND:                -0.270
REMARK SMILES COc1cccc(C(=O)O)c1O
REMARK SMILES IDX 7 1 11 2 6 3 5 4 3 5 4 6 8 7 9 8 10 9 12 11 2 13 1 14
REMARK H PARENT 10 10 12 12
ROOT
ATOM      1  C   UNL     1      -2.816  -5.964   1.830  1.00  0.00     0.105 A 
ATOM      2  C   UNL     1      -2.705  -7.327   1.874  1.00  0.00     0.172 A 
ATOM      3  C   UNL     1      -1.977  -5.241   0.857  1.00  0.00     0.020 A 
ATOM      4  C   UNL     1      -1.437  -5.956  -0.164  1.00  0.00     0.005 A 
ATOM      5  C   UNL     1      -2.352  -8.103   0.694  1.00  0.00     0.161 A 
ATOM      6  C   UNL     1      -1.587  -7.368  -0.295  1.00  0.00     0.050 A 
ENDROOT
BRANCH   1   7
ATOM      7  C   UNL     1      -3.852  -5.217   2.688  1.00  0.00     0.339 C 
ATOM      8  O   UNL     1      -3.886  -5.938   4.148  1.00  0.00    -0.246 OA
BRANCH   7   9
ATOM      9  O   UNL     1      -4.450  -4.351   2.643  1.00  0.00    -0.478 OA
ATOM     10  H   UNL     1      -5.011  -3.537   2.600  1.00  0.00     0.297 HD
ENDBRANCH   7   9
ENDBRANCH   1   7
BRANCH   2  11
ATOM     11  O   UNL     1      -2.949  -8.043   3.059  1.00  0.00    -0.504 OA
ATOM     12  H   UNL     1      -3.121  -8.547   3.894  1.00  0.00     0.293 HD
ENDBRANCH   2  11
BRANCH   5  13
ATOM     13  O   UNL     1      -2.466  -9.482   0.820  1.00  0.00    -0.493 OA
ATOM     14  C   UNL     1      -3.019 -10.649   0.857  1.00  0.00     0.278 C 
ENDBRANCH   5  13
TORSDOF 4
ENDMDL
MODEL 6
REMARK VINA RESULT:    -4.189      8.000      9.040
REMARK INTER + INTRA:          -5.194
REMARK INTER:                  -4.969
REMARK INTRA:                  -0.224
REMARK UNBOUND:                -0.270
REMARK SMILES COc1cccc(C(=O)O)c1O
REMARK SMILES IDX 7 1 11 2 6 3 5 4 3 5 4 6 8 7 9 8 10 9 12 11 2 13 1 14
REMARK H PARENT 10 10 12 12
ROOT
ATOM      1  C   UNL     1       2.588  -0.139   4.262  1.00  0.00     0.105 A 
ATOM      2  C   UNL     1       1.385   0.126   3.667  1.00  0.00     0.172 A 
ATOM      3  C   UNL     1       2.570  -0.635   5.650  1.00  0.00     0.020 A 
ATOM      4  C   UNL     1       1.402  -1.143   6.124  1.00  0.00     0.005 A 
ATOM      5  C   UNL     1       0.178  -0.604   4.027  1.00  0.00     0.161 A 
ATOM      6  C   UNL     1       0.192  -1.153   5.370  1.00  0.00     0.050 A 
ENDROOT
BRANCH   1   7
ATOM      7  C   UNL     1       3.909  -0.027   3.481  1.00  0.00     0.339 C 
ATOM      8  O   UNL     1       3.605  -0.472   1.943  1.00  0.00    -0.246 OA
BRANCH   7   9
ATOM      9  O   UNL     1       4.889   0.333   3.618  1.00  0.00    -0.478 OA
ATOM     10  H   UNL     1       5.811   0.672   3.747  1.00  0.00     0.297 HD
ENDBRANCH   7   9
ENDBRANCH   1   7
BRANCH   2  11
ATOM     11  O   UNL     1       1.264   1.103   2.664  1.00  0.00    -0.504 OA
ATOM     12  H   UNL     1       1.179   1.791   1.957  1.00  0.00     0.293 HD
ENDBRANCH   2  11
BRANCH   5  13
ATOM     13  O   UNL     1      -0.928  -0.382   3.218  1.00  0.00    -0.493 OA
ATOM     14  C   UNL     1      -1.619   0.007   2.197  1.00  0.00     0.278 C 
ENDBRANCH   5  13
TORSDOF 4
ENDMDL
MODEL 7
REMARK VINA RESULT:    -3.970      2.239      4.646
REMARK INTER + INTRA:          -4.937
REMARK INTER:                  -4.690
REMARK INTRA:                  -0.247
REMARK UNBOUND:                -0.270
REMARK SMILES COc1cccc(C(=O)O)c1O
REMARK SMILES IDX 7 1 11 2 6 3 5 4 3 5 4 6 8 7 9 8 10 9 12 11 2 13 1 14
REMARK H PARENT 10 10 12 12
ROOT
ATOM      1  C   UNL     1      -2.603  -7.403   2.627  1.00  0.00     0.105 A 
ATOM      2  C   UNL     1      -1.677  -6.921   1.744  1.00  0.00     0.172 A 
ATOM      3  C   UNL     1      -3.630  -6.467   3.120  1.00  0.00     0.020 A 
ATOM      4  C   UNL     1      -3.830  -5.323   2.417  1.00  0.00     0.005 A 
ATOM      5  C   UNL     1      -1.992  -5.838   0.823  1.00  0.00     0.161 A 
ATOM      6  C   UNL     1      -3.053  -4.959   1.278  1.00  0.00     0.050 A 
ENDROOT
BRANCH   1   7
ATOM      7  C   UNL     1      -2.640  -8.892   3.015  1.00  0.00     0.339 C 
ATOM      8  O   UNL     1      -2.535  -9.757   1.639  1.00  0.00    -0.246 OA
BRANCH   7   9
ATOM      9  O   UNL     1      -2.615  -9.492   3.880  1.00  0.00    -0.478 OA
ATOM     10  H   UNL     1      -2.591 -10.056   4.694  1.00  0.00     0.297 HD
ENDBRANCH   7   9
ENDBRANCH   1   7
BRANCH   2  11
ATOM     11  O   UNL     1      -0.384  -7.466   1.669  1.00  0.00    -0.504 OA
ATOM     12  H   UNL     1       0.527  -7.850   1.617  1.00  0.00     0.293 HD
ENDBRANCH   2  11
BRANCH   5  13
ATOM     13  O   UNL     1      -1.038  -5.576  -0.152  1.00  0.00    -0.493 OA
ATOM     14  C   UNL     1      -0.415  -5.648  -1.282  1.00  0.00     0.278 C 
ENDBRANCH   5  13
TORSDOF 4
ENDMDL
MODEL 8
REMARK VINA RESULT:    -3.656      2.138      4.019
REMARK INTER + INTRA:          -4.567
REMARK INTER:                  -4.457
REMARK INTRA:                  -0.110
REMARK UNBOUND:                -0.270
REMARK SMILES COc1cccc(C(=O)O)c1O
REMARK SMILES IDX 7 1 11 2 6 3 5 4 3 5 4 6 8 7 9 8 10 9 12 11 2 13 1 14
REMARK H PARENT 10 10 12 12
ROOT
ATOM      1  C   UNL     1      -2.343  -7.072  -0.840  1.00  0.00     0.105 A 
ATOM      2  C   UNL     1      -3.130  -6.604   0.176  1.00  0.00     0.172 A 
ATOM      3  C   UNL     1      -1.178  -6.257  -1.232  1.00  0.00     0.020 A 
ATOM      4  C   UNL     1      -0.744  -5.314  -0.357  1.00  0.00     0.005 A 
ATOM      5  C   UNL     1      -2.587  -5.780   1.246  1.00  0.00     0.161 A 
ATOM      6  C   UNL     1      -1.399  -5.033   0.878  1.00  0.00     0.050 A 
ENDROOT
BRANCH   1   7
ATOM      7  C   UNL     1      -2.596  -8.448  -1.481  1.00  0.00     0.339 C 
ATOM      8  O   UNL     1      -2.655  -8.230  -3.094  1.00  0.00    -0.246 OA
BRANCH   7   9
ATOM      9  O   UNL     1      -2.641  -9.462  -1.202  1.00  0.00    -0.478 OA
ATOM     10  H   UNL     1      -2.684 -10.416  -0.939  1.00  0.00     0.297 HD
ENDBRANCH   7   9
ENDBRANCH   1   7
BRANCH   2  11
ATOM     11  O   UNL     1      -4.499  -6.917   0.243  1.00  0.00    -0.504 OA
ATOM     12  H   UNL     1      -5.463  -7.137   0.291  1.00  0.00     0.293 HD
ENDBRANCH   2  11
BRANCH   5  13
ATOM     13  O   UNL     1      -3.440  -5.536   2.315  1.00  0.00    -0.493 OA
ATOM     14  C   UNL     1      -4.169  -5.771   3.356  1.00  0.00     0.278 C 
ENDBRANCH   5  13
TORSDOF 4
ENDMDL
MODEL 9
REMARK VINA RESULT:    -3.597      2.100      2.732
REMARK INTER + INTRA:          -4.498
REMARK INTER:                  -4.220
REMARK INTRA:                  -0.278
REMARK UNBOUND:                -0.270
REMARK SMILES COc1cccc(C(=O)O)c1O
REMARK SMILES IDX 7 1 11 2 6 3 5 4 3 5 4 6 8 7 9 8 10 9 12 11 2 13 1 14
REMARK H PARENT 10 10 12 12
ROOT
ATOM      1  C   UNL     1      -1.896  -6.034   0.946  1.00  0.00     0.105 A 
ATOM      2  C   UNL     1      -2.016  -7.304   1.439  1.00  0.00     0.172 A 
ATOM      3  C   UNL     1      -2.932  -5.055   1.323  1.00  0.00     0.020 A 
ATOM      4  C   UNL     1      -3.714  -5.344   2.395  1.00  0.00     0.005 A 
ATOM      5  C   UNL     1      -2.655  -7.570   2.719  1.00  0.00     0.161 A 
ATOM      6  C   UNL     1      -3.623  -6.567   3.121  1.00  0.00     0.050 A 
ENDROOT
BRANCH   1   7
ATOM      7  C   UNL     1      -0.672  -5.609   0.117  1.00  0.00     0.339 C 
ATOM      8  O   UNL     1       0.193  -6.953  -0.200  1.00  0.00    -0.246 OA
BRANCH   7   9
ATOM      9  O   UNL     1      -0.296  -4.754  -0.370  1.00  0.00    -0.478 OA
ATOM     10  H   UNL     1       0.058  -3.950  -0.828  1.00  0.00     0.297 HD
ENDBRANCH   7   9
ENDBRANCH   1   7
BRANCH   2  11
ATOM     11  O   UNL     1      -1.506  -8.411   0.738  1.00  0.00    -0.504 OA
ATOM     12  H   UNL     1      -1.147  -9.191   0.245  1.00  0.00     0.293 HD
ENDBRANCH   2  11
BRANCH   5  13
ATOM     13  O   UNL     1      -2.537  -8.869   3.197  1.00  0.00    -0.493 OA
ATOM     14  C   UNL     1      -2.884 -10.068   3.533  1.00  0.00     0.278 C 
ENDBRANCH   5  13
TORSDOF 4
ENDMDL
