MODEL 1
REMARK VINA RESULT:    -4.937      0.000      0.000
REMARK INTER + INTRA:          -6.290
REMARK INTER:                  -5.803
REMARK INTRA:                  -0.487
REMARK UNBOUND:                -0.487
REMARK SMILES COc1cccc(C(=O)O)c1O
REMARK SMILES IDX 7 1 11 2 6 3 5 4 3 5 4 6 8 7 9 8 10 9 12 11 2 13 1 14
REMARK H PARENT 10 10 12 12
ROOT
ATOM      1  C   UNL     1       1.336   4.870  -3.953  1.00  0.00     0.105 A 
ATOM      2  C   UNL     1       0.229   4.493  -3.242  1.00  0.00     0.172 A 
ATOM      3  C   UNL     1       1.571   6.313  -4.137  1.00  0.00     0.020 A 
ATOM      4  C   UNL     1       0.917   7.170  -3.311  1.00  0.00     0.005 A 
ATOM      5  C   UNL     1      -0.322   5.330  -2.186  1.00  0.00     0.161 A 
ATOM      6  C   UNL     1      -0.028   6.744  -2.332  1.00  0.00     0.050 A 
ENDROOT
BRANCH   1   7
ATOM      7  C   UNL     1       2.357   3.833  -4.452  1.00  0.00     0.339 C 
ATOM      8  O   UNL     1       2.044   2.431  -3.683  1.00  0.00    -0.246 OA
BRANCH   7   9
ATOM      9  O   UNL     1       3.105   3.740  -5.188  1.00  0.00    -0.478 OA
ATOM     10  H   UNL     1       3.808   3.652  -5.879  1.00  0.00     0.297 HD
ENDBRANCH   7   9
ENDBRANCH   1   7
BRANCH   2  11
ATOM     11  O   UNL     1      -0.415   3.268  -3.486  1.00  0.00    -0.504 OA
ATOM     12  H   UNL     1      -0.869   2.405  -3.658  1.00  0.00     0.293 HD
ENDBRANCH   2  11
BRANCH   5  13
ATOM     13  O   UNL     1      -1.319   4.751  -1.412  1.00  0.00    -0.493 OA
ATOM     14  C   UNL     1      -2.459   4.609  -0.820  1.00  0.00     0.278 C 
ENDBRANCH   5  13
TORSDOF 4
ENDMDL
MODEL 2
REMARK VINA RESULT:    -4.885      1.747      4.667
REMARK INTER + INTRA:          -6.228
REMARK INTER:                  -5.747
REMARK INTRA:                  -0.481
REMARK UNBOUND:                -0.487
REMARK SMILES COc1cccc(C(=O)O)c1O
REMARK SMILES IDX 7 1 11 2 6 3 5 4 3 5 4 6 8 7 9 8 10 9 12 11 2 13 1 14
REMARK H PARENT 10 10 12 12
ROOT
ATOM      1  C   UNL     1      -1.767   4.864  -2.232  1.00  0.00     0.105 A 
ATOM      2  C   UNL     1      -0.449   4.754  -2.579  1.00  0.00     0.172 A 
ATOM      3  C   UNL     1      -2.762   4.878  -3.321  1.00  0.00     0.020 A 
ATOM      4  C   UNL     1      -2.370   4.423  -4.539  1.00  0.00     0.005 A 
ATOM      5  C   UNL     1      -0.032   4.047  -3.781  1.00  0.00     0.161 A 
ATOM      6  C   UNL     1      -1.039   4.001  -4.825  1.00  0.00     0.050 A 
ENDROOT
BRANCH   1   7
ATOM      7  C   UNL     1      -2.210   4.866  -0.758  1.00  0.00     0.339 C 
ATOM      8  O   UNL     1      -0.981   4.255   0.120  1.00  0.00    -0.246 OA
BRANCH   7   9
ATOM      9  O   UNL     1      -3.002   5.223  -0.164  1.00  0.00    -0.478 OA
ATOM     10  H   UNL     1      -3.747   5.558   0.396  1.00  0.00     0.297 HD
ENDBRANCH   7   9
ENDBRANCH   1   7
BRANCH   2  11
ATOM     11  O   UNL     1       0.567   5.302  -1.776  1.00  0.00    -0.504 OA
ATOM     12  H   UNL     1       1.282   5.688  -1.211  1.00  0.00     0.293 HD
ENDBRANCH   2  11
BRANCH   5  13
ATOM     13  O   UNL     1       1.335   3.836  -3.916  1.00  0.00    -0.493 OA
ATOM     14  C   UNL     1       2.536   3.963  -4.374  1.00  0.00     0.278 C 
ENDBRANCH   5  13
TORSDOF 4
ENDMDL
MODEL 3
REMARK VINA RESULT:    -4.686      2.939      4.429
REMARK INTER + INTRA:          -5.994
REMARK INTER:                  -5.724
REMARK INTRA:                  -0.270
REMARK UNBOUND:                -0.487
REMARK SMILES COc1cccc(C(=O)O)c1O
REMARK SMILES IDX 7 1 11 2 6 3 5 4 3 5 4 6 8 7 9 8 10 9 12 11 2 13 1 14
REMARK H PARENT 10 10 12 12
ROOT
ATOM      1  C   UNL     1      -1.559   4.755  -2.215  1.00  0.00     0.105 A 
ATOM      2  C   UNL     1      -2.212   5.250  -3.310  1.00  0.00     0.172 A 
ATOM      3  C   UNL     1      -0.095   4.605  -2.303  1.00  0.00     0.020 A 
ATOM      4  C   UNL     1       0.552   5.287  -3.283  1.00  0.00     0.005 A 
ATOM      5  C   UNL     1      -1.568   6.178  -4.229  1.00  0.00     0.161 A 
ATOM      6  C   UNL     1      -0.121   6.077  -4.260  1.00  0.00     0.050 A 
ENDROOT
BRANCH   1   7
ATOM      7  C   UNL     1      -2.306   4.464  -0.902  1.00  0.00     0.339 C 
ATOM      8  O   UNL     1      -1.192   4.391   0.285  1.00  0.00    -0.246 OA
BRANCH   7   9
ATOM      9  O   UNL     1      -3.293   4.399  -0.543  1.00  0.00    -0.478 OA
ATOM     10  H   UNL     1      -4.223   4.338  -0.206  1.00  0.00     0.297 HD
ENDBRANCH   7   9
ENDBRANCH   1   7
BRANCH   2  11
ATOM     11  O   UNL     1      -3.546   4.901  -3.587  1.00  0.00    -0.504 OA
ATOM     12  H   UNL     1      -4.485   4.655  -3.781  1.00  0.00     0.293 HD
ENDBRANCH   2  11
BRANCH   5  13
ATOM     13  O   UNL     1      -2.395   6.758  -5.182  1.00  0.00    -0.493 OA
ATOM     14  C   UNL     1      -3.084   7.666  -5.792  1.00  0.00     0.278 C 
ENDBRANCH   5  13
TORSDOF 4
ENDMDL
MODEL 4
REMARK VINA RESULT:    -4.635      2.154      3.180
REMARK INTER + INTRA:          -5.935
REMARK INTER:                  -5.665
REMARK INTRA:                  -0.270
REMARK UNBOUND:                -0.487
REMARK SMILES COc1cccc(C(=O)O)c1O
REMARK SMILES IDX 7 1 11 2 6 3 5 4 3 5 4 6 8 7 9 8 10 9 12 11 2 13 1 14
REMARK H PARENT 10 10 12 12
ROOT
ATOM      1  C   UNL     1       1.144   4.678  -3.743  1.00  0.00     0.105 A 
ATOM      2  C   UNL     1       0.888   5.930  -4.231  1.00  0.00     0.172 A 
ATOM      3  C   UNL     1       0.141   4.075  -2.848  1.00  0.00     0.020 A 
ATOM      4  C   UNL     1      -1.109   4.608  -2.850  1.00  0.00     0.005 A 
ATOM      5  C   UNL     1      -0.472   6.400  -4.452  1.00  0.00     0.161 A 
ATOM      6  C   UNL     1      -1.468   5.753  -3.619  1.00  0.00     0.050 A 
ENDROOT
BRANCH   1   7
ATOM      7  C   UNL     1       2.381   3.881  -4.193  1.00  0.00     0.339 C 
ATOM      8  O   UNL     1       2.126   2.322  -3.798  1.00  0.00    -0.246 OA
BRANCH   7   9
ATOM      9  O   UNL     1       3.265   4.026  -4.747  1.00  0.00    -0.478 OA
ATOM     10  H   UNL     1       4.096   4.161  -5.268  1.00  0.00     0.297 HD
ENDBRANCH   7   9
ENDBRANCH   1   7
BRANCH   2  11
ATOM     11  O   UNL     1       1.930   6.813  -4.562  1.00  0.00    -0.504 OA
ATOM     12  H   UNL     1       2.664   7.436  -4.795  1.00  0.00     0.293 HD
ENDBRANCH   2  11
BRANCH   5  13
ATOM     13  O   UNL     1      -0.593   7.605  -5.132  1.00  0.00    -0.493 OA
ATOM     14  C   UNL     1      -0.850   8.427  -6.096  1.00  0.00     0.278 C 
ENDBRANCH   5  13
TORSDOF 4
ENDMDL
MODEL 5
REMARK VINA RESULT:    -4.067      2.166      3.099
REMARK INTER + INTRA:          -5.267
REMARK INTER:                  -5.000
REMARK INTRA:                  -0.268
REMARK UNBOUND:                -0.487
REMARK SMILES COc1cccc(C(=O)O)c1O
REMARK SMILES IDX 7 1 11 2 6 3 5 4 3 5 4 6 8 7 9 8 10 9 12 11 2 13 1 14
REMARK H PARENT 10 10 12 12
ROOT
ATOM      1  C   UNL     1       1.296   6.034  -3.875  1.00  0.00     0.105 A 
ATOM      2  C   UNL     1       0.424   5.974  -2.824  1.00  0.00     0.172 A 
ATOM      3  C   UNL     1       2.018   4.800  -4.237  1.00  0.00     0.020 A 
ATOM      4  C   UNL     1       1.526   3.623  -3.773  1.00  0.00     0.005 A 
ATOM      5  C   UNL     1      -0.282   4.746  -2.487  1.00  0.00     0.161 A 
ATOM      6  C   UNL     1       0.396   3.534  -2.907  1.00  0.00     0.050 A 
ENDROOT
BRANCH   1   7
ATOM      7  C   UNL     1       1.445   7.311  -4.720  1.00  0.00     0.339 C 
ATOM      8  O   UNL     1      -0.056   7.843  -5.066  1.00  0.00    -0.246 OA
BRANCH   7   9
ATOM      9  O   UNL     1       2.199   7.971  -5.044  1.00  0.00    -0.478 OA
ATOM     10  H   UNL     1       2.908   8.591  -5.348  1.00  0.00     0.297 HD
ENDBRANCH   7   9
ENDBRANCH   1   7
BRANCH   2  11
ATOM     11  O   UNL     1       0.152   7.103  -2.033  1.00  0.00    -0.504 OA
ATOM     12  H   UNL     1      -0.039   7.899  -1.475  1.00  0.00     0.293 HD
ENDBRANCH   2  11
BRANCH   5  13
ATOM     13  O   UNL     1      -1.282   4.865  -1.530  1.00  0.00    -0.493 OA
ATOM     14  C   UNL     1      -2.408   4.664  -0.929  1.00  0.00     0.278 C 
ENDBRANCH   5  13
TORSDOF 4
ENDMDL
MODEL 6
REMARK VINA RESULT:    -4.064      2.685      4.272
REMARK INTER + INTRA:          -5.263
REMARK INTER:                  -4.802
REMARK INTRA:                  -0.462
REMARK UNBOUND:                -0.487
REMARK SMILES COc1cccc(C(=O)O)c1O
REMARK SMILES IDX 7 1 11 2 6 3 5 4 3 5 4 6 8 7 9 8 10 9 12 11 2 13 1 14
REMARK H PARENT 10 10 12 12
ROOT
ATOM      1  C   UNL     1      -0.823   4.380  -2.212  1.00  0.00     0.105 A 
ATOM      2  C   UNL     1      -1.370   5.047  -3.273  1.00  0.00     0.172 A 
ATOM      3  C   UNL     1       0.472   3.707  -2.422  1.00  0.00     0.020 A 
ATOM      4  C   UNL     1       1.210   4.079  -3.500  1.00  0.00     0.005 A 
ATOM      5  C   UNL     1      -0.540   5.651  -4.306  1.00  0.00     0.161 A 
ATOM      6  C   UNL     1       0.762   5.031  -4.462  1.00  0.00     0.050 A 
ENDROOT
BRANCH   1   7
ATOM      7  C   UNL     1      -1.476   4.417  -0.820  1.00  0.00     0.339 C 
ATOM      8  O   UNL     1      -3.077   4.198  -1.027  1.00  0.00    -0.246 OA
BRANCH   7   9
ATOM      9  O   UNL     1      -1.193   4.443   0.194  1.00  0.00    -0.478 OA
ATOM     10  H   UNL     1      -0.927   4.467   1.148  1.00  0.00     0.297 HD
ENDBRANCH   7   9
ENDBRANCH   1   7
BRANCH   2  11
ATOM     11  O   UNL     1      -2.761   5.198  -3.404  1.00  0.00    -0.504 OA
ATOM     12  H   UNL     1      -3.741   5.304  -3.496  1.00  0.00     0.293 HD
ENDBRANCH   2  11
BRANCH   5  13
ATOM     13  O   UNL     1      -1.203   6.464  -5.217  1.00  0.00    -0.493 OA
ATOM     14  C   UNL     1      -1.462   7.499  -5.946  1.00  0.00     0.278 C 
ENDBRANCH   5  13
TORSDOF 4
ENDMDL
MODEL 7
REMARK VINA RESULT:    -4.062      2.407      4.646
REMARK INTER + INTRA:          -5.262
REMARK INTER:                  -4.922
REMARK INTRA:                  -0.340
REMARK UNBOUND:                -0.487
REMARK SMILES COc1cccc(C(=O)O)c1O
REMARK SMILES IDX 7 1 11 2 6 3 5 4 3 5 4 6 8 7 9 8 10 9 12 11 2 13 1 14
REMARK H PARENT 10 10 12 12
ROOT
ATOM      1  C   UNL     1      -2.358   4.812  -3.281  1.00  0.00     0.105 A 
ATOM      2  C   UNL     1      -1.199   4.422  -3.895  1.00  0.00     0.172 A 
ATOM      3  C   UNL     1      -2.411   4.736  -1.810  1.00  0.00     0.020 A 
ATOM      4  C   UNL     1      -1.234   4.646  -1.139  1.00  0.00     0.005 A 
ATOM      5  C   UNL     1       0.094   4.558  -3.240  1.00  0.00     0.161 A 
ATOM      6  C   UNL     1       0.031   4.554  -1.790  1.00  0.00     0.050 A 
ENDROOT
BRANCH   1   7
ATOM      7  C   UNL     1      -3.527   5.407  -4.084  1.00  0.00     0.339 C 
ATOM      8  O   UNL     1      -2.892   6.421  -5.191  1.00  0.00    -0.246 OA
BRANCH   7   9
ATOM      9  O   UNL     1      -4.567   5.283  -4.191  1.00  0.00    -0.478 OA
ATOM     10  H   UNL     1      -5.546   5.166  -4.290  1.00  0.00     0.297 HD
ENDBRANCH   7   9
ENDBRANCH   1   7
BRANCH   2  11
ATOM     11  O   UNL     1      -1.203   3.893  -5.196  1.00  0.00    -0.504 OA
ATOM     12  H   UNL     1      -1.205   3.520  -6.114  1.00  0.00     0.293 HD
ENDBRANCH   2  11
BRANCH   5  13
ATOM     13  O   UNL     1       1.205   4.314  -4.037  1.00  0.00    -0.493 OA
ATOM     14  C   UNL     1       2.412   3.979  -4.357  1.00  0.00     0.278 C 
ENDBRANCH   5  13
TORSDOF 4
ENDMDL
MODEL 8
REMARK VINA RESULT:    -4.053      2.017      3.010
REMARK INTER + INTRA:          -5.251
REMARK INTER:                  -4.806
REMARK INTRA:                  -0.445
REMARK UNBOUND:                -0.487
REMARK SMILES COc1cccc(C(=O)O)c1O
REMARK SMILES IDX 7 1 11 2 6 3 5 4 3 5 4 6 8 7 9 8 10 9 12 11 2 13 1 14
REMARK H PARENT 10 10 12 12
ROOT
ATOM      1  C   UNL     1       0.835   4.376  -3.135  1.00  0.00     0.105 A 
ATOM      2  C   UNL     1       0.477   5.562  -3.715  1.00  0.00     0.172 A 
ATOM      3  C   UNL     1       0.080   3.942  -1.946  1.00  0.00     0.020 A 
ATOM      4  C   UNL     1      -1.125   4.524  -1.716  1.00  0.00     0.005 A 
ATOM      5  C   UNL     1      -0.891   6.057  -3.659  1.00  0.00     0.161 A 
ATOM      6  C   UNL     1      -1.654   5.571  -2.525  1.00  0.00     0.050 A 
ENDROOT
BRANCH   1   7
ATOM      7  C   UNL     1       1.913   3.473  -3.759  1.00  0.00     0.339 C 
ATOM      8  O   UNL     1       3.151   4.432  -4.208  1.00  0.00    -0.246 OA
BRANCH   7   9
ATOM      9  O   UNL     1       2.121   2.448  -3.886  1.00  0.00    -0.478 OA
ATOM     10  H   UNL     1       2.316   1.485  -4.005  1.00  0.00     0.297 HD
ENDBRANCH   7   9
ENDBRANCH   1   7
BRANCH   2  11
ATOM     11  O   UNL     1       1.412   6.346  -4.412  1.00  0.00    -0.504 OA
ATOM     12  H   UNL     1       2.071   6.899  -4.903  1.00  0.00     0.293 HD
ENDBRANCH   2  11
BRANCH   5  13
ATOM     13  O   UNL     1      -1.166   7.165  -4.450  1.00  0.00    -0.493 OA
ATOM     14  C   UNL     1      -1.494   7.851  -5.495  1.00  0.00     0.278 C 
ENDBRANCH   5  13
TORSDOF 4
ENDMDL
MODEL 9
REMARK VINA RESULT:    -3.911      7.254      7.768
REMARK INTER + INTRA:          -5.083
REMARK INTER:                  -4.802
REMARK INTRA:                  -0.282
REMARK UNBOUND:                -0.487
REMARK SMILES COc1cccc(C(=O)O)c1O
REMARK SMILES IDX 7 1 11 2 6 3 5 4 3 5 4 6 8 7 9 8 10 9 12 11 2 13 1 14
REMARK H PARENT 10 10 12 12
ROOT
ATOM      1  C   UNL     1       4.462   3.684   3.174  1.00  0.00     0.105 A 
ATOM      2  C   UNL     1       3.692   2.749   2.539  1.00  0.00     0.172 A 
ATOM      3  C   UNL     1       3.966   4.223   4.454  1.00  0.00     0.020 A 
ATOM      4  C   UNL     1       2.998   3.523   5.101  1.00  0.00     0.005 A 
ATOM      5  C   UNL     1       2.830   1.838   3.280  1.00  0.00     0.161 A 
ATOM      6  C   UNL     1       2.401   2.342   4.571  1.00  0.00     0.050 A 
ENDROOT
BRANCH   1   7
ATOM      7  C   UNL     1       5.845   4.084   2.632  1.00  0.00     0.339 C 
ATOM      8  O   UNL     1       6.460   2.787   1.862  1.00  0.00    -0.246 OA
BRANCH   7   9
ATOM      9  O   UNL     1       6.444   4.944   2.530  1.00  0.00    -0.478 OA
ATOM     10  H   UNL     1       7.007   5.752   2.434  1.00  0.00     0.297 HD
ENDBRANCH   7   9
ENDBRANCH   1   7
BRANCH   2  11
ATOM     11  O   UNL     1       3.714   2.610   1.141  1.00  0.00    -0.504 OA
ATOM     12  H   UNL     1       3.730   2.512   0.156  1.00  0.00     0.293 HD
ENDBRANCH   2  11
BRANCH   5  13
ATOM     13  O   UNL     1       2.256   0.812   2.541  1.00  0.00    -0.493 OA
ATOM     14  C   UNL     1       2.113  -0.070   1.607  1.00  0.00     0.278 C 
ENDBRANCH   5  13
TORSDOF 4
ENDMDL
