MODEL 1
REMARK VINA RESULT:    -4.845      0.000      0.000
REMARK INTER + INTRA:          -6.137
REMARK INTER:                  -5.695
REMARK INTRA:                  -0.442
REMARK UNBOUND:                -0.442
REMARK SMILES COc1cccc(C(=O)O)c1O
REMARK SMILES IDX 7 1 11 2 6 3 5 4 3 5 4 6 8 7 9 8 10 9 12 11 2 13 1 14
REMARK H PARENT 10 10 12 12
ROOT
ATOM      1  C   UNL     1      -6.764   1.803   2.276  1.00  0.00     0.105 A 
ATOM      2  C   UNL     1      -6.599   2.696   1.253  1.00  0.00     0.172 A 
ATOM      3  C   UNL     1      -7.931   0.904   2.216  1.00  0.00     0.020 A 
ATOM      4  C   UNL     1      -8.550   0.752   1.017  1.00  0.00     0.005 A 
ATOM      5  C   UNL     1      -7.065   2.407  -0.096  1.00  0.00     0.161 A 
ATOM      6  C   UNL     1      -8.168   1.466  -0.156  1.00  0.00     0.050 A 
ENDROOT
BRANCH   1   7
ATOM      7  C   UNL     1      -5.718   1.664   3.395  1.00  0.00     0.339 C 
ATOM      8  O   UNL     1      -4.411   2.529   2.949  1.00  0.00    -0.246 OA
BRANCH   7   9
ATOM      9  O   UNL     1      -5.638   1.273   4.369  1.00  0.00    -0.478 OA
ATOM     10  H   UNL     1      -5.564   0.906   5.286  1.00  0.00     0.297 HD
ENDBRANCH   7   9
ENDBRANCH   1   7
BRANCH   2  11
ATOM     11  O   UNL     1      -5.950   3.926   1.454  1.00  0.00    -0.504 OA
ATOM     12  H   UNL     1      -5.493   4.793   1.595  1.00  0.00     0.293 HD
ENDBRANCH   2  11
BRANCH   5  13
ATOM     13  O   UNL     1      -6.663   3.301  -1.080  1.00  0.00    -0.493 OA
ATOM     14  C   UNL     1      -6.752   4.203  -2.002  1.00  0.00     0.278 C 
ENDBRANCH   5  13
TORSDOF 4
ENDMDL
MODEL 2
REMARK VINA RESULT:    -4.832      1.752      4.686
REMARK INTER + INTRA:          -6.121
REMARK INTER:                  -5.634
REMARK INTRA:                  -0.487
REMARK UNBOUND:                -0.442
REMARK SMILES COc1cccc(C(=O)O)c1O
REMARK SMILES IDX 7 1 11 2 6 3 5 4 3 5 4 6 8 7 9 8 10 9 12 11 2 13 1 14
REMARK H PARENT 10 10 12 12
ROOT
ATOM      1  C   UNL     1      -7.269   3.927  -0.627  1.00  0.00     0.105 A 
ATOM      2  C   UNL     1      -6.817   2.996   0.267  1.00  0.00     0.172 A 
ATOM      3  C   UNL     1      -8.166   4.982  -0.121  1.00  0.00     0.020 A 
ATOM      4  C   UNL     1      -8.197   5.194   1.220  1.00  0.00     0.005 A 
ATOM      5  C   UNL     1      -6.630   3.317   1.675  1.00  0.00     0.161 A 
ATOM      6  C   UNL     1      -7.463   4.404   2.154  1.00  0.00     0.050 A 
ENDROOT
BRANCH   1   7
ATOM      7  C   UNL     1      -6.780   3.940  -2.086  1.00  0.00     0.339 C 
ATOM      8  O   UNL     1      -5.478   2.964  -2.171  1.00  0.00    -0.246 OA
BRANCH   7   9
ATOM      9  O   UNL     1      -7.085   4.301  -3.027  1.00  0.00    -0.478 OA
ATOM     10  H   UNL     1      -7.373   4.639  -3.912  1.00  0.00     0.297 HD
ENDBRANCH   7   9
ENDBRANCH   1   7
BRANCH   2  11
ATOM     11  O   UNL     1      -6.491   1.690  -0.138  1.00  0.00    -0.504 OA
ATOM     12  H   UNL     1      -6.262   0.770  -0.424  1.00  0.00     0.293 HD
ENDBRANCH   2  11
BRANCH   5  13
ATOM     13  O   UNL     1      -5.982   2.352   2.435  1.00  0.00    -0.493 OA
ATOM     14  C   UNL     1      -5.796   1.466   3.357  1.00  0.00     0.278 C 
ENDBRANCH   5  13
TORSDOF 4
ENDMDL
MODEL 3
REMARK VINA RESULT:    -4.732      2.225      3.218
REMARK INTER + INTRA:          -6.003
REMARK INTER:                  -5.736
REMARK INTRA:                  -0.268
REMARK UNBOUND:                -0.442
REMARK SMILES COc1cccc(C(=O)O)c1O
REMARK SMILES IDX 7 1 11 2 6 3 5 4 3 5 4 6 8 7 9 8 10 9 12 11 2 13 1 14
REMARK H PARENT 10 10 12 12
ROOT
ATOM      1  C   UNL     1      -6.692   2.048   2.022  1.00  0.00     0.105 A 
ATOM      2  C   UNL     1      -8.020   1.721   2.015  1.00  0.00     0.172 A 
ATOM      3  C   UNL     1      -6.218   3.004   1.005  1.00  0.00     0.020 A 
ATOM      4  C   UNL     1      -7.147   3.770   0.377  1.00  0.00     0.005 A 
ATOM      5  C   UNL     1      -9.035   2.658   1.554  1.00  0.00     0.161 A 
ATOM      6  C   UNL     1      -8.549   3.643   0.606  1.00  0.00     0.050 A 
ENDROOT
BRANCH   1   7
ATOM      7  C   UNL     1      -5.744   1.522   3.114  1.00  0.00     0.339 C 
ATOM      8  O   UNL     1      -4.434   2.490   3.128  1.00  0.00    -0.246 OA
BRANCH   7   9
ATOM      9  O   UNL     1      -5.738   0.811   3.890  1.00  0.00    -0.478 OA
ATOM     10  H   UNL     1      -5.731   0.142   4.620  1.00  0.00     0.297 HD
ENDBRANCH   7   9
ENDBRANCH   1   7
BRANCH   2  11
ATOM     11  O   UNL     1      -8.468   0.470   2.475  1.00  0.00    -0.504 OA
ATOM     12  H   UNL     1      -8.784  -0.411   2.798  1.00  0.00     0.293 HD
ENDBRANCH   2  11
BRANCH   5  13
ATOM     13  O   UNL     1     -10.353   2.283   1.782  1.00  0.00    -0.493 OA
ATOM     14  C   UNL     1     -11.519   2.247   2.337  1.00  0.00     0.278 C 
ENDBRANCH   5  13
TORSDOF 4
ENDMDL
MODEL 4
REMARK VINA RESULT:    -4.670      2.965      4.452
REMARK INTER + INTRA:          -5.930
REMARK INTER:                  -5.660
REMARK INTRA:                  -0.270
REMARK UNBOUND:                -0.442
REMARK SMILES COc1cccc(C(=O)O)c1O
REMARK SMILES IDX 7 1 11 2 6 3 5 4 3 5 4 6 8 7 9 8 10 9 12 11 2 13 1 14
REMARK H PARENT 10 10 12 12
ROOT
ATOM      1  C   UNL     1      -7.074   3.754  -0.517  1.00  0.00     0.105 A 
ATOM      2  C   UNL     1      -8.237   4.276  -0.020  1.00  0.00     0.172 A 
ATOM      3  C   UNL     1      -6.348   2.783   0.322  1.00  0.00     0.020 A 
ATOM      4  C   UNL     1      -7.028   2.194   1.339  1.00  0.00     0.005 A 
ATOM      5  C   UNL     1      -9.082   3.524   0.896  1.00  0.00     0.161 A 
ATOM      6  C   UNL     1      -8.376   2.520   1.670  1.00  0.00     0.050 A 
ENDROOT
BRANCH   1   7
ATOM      7  C   UNL     1      -6.594   4.082  -1.941  1.00  0.00     0.339 C 
ATOM      8  O   UNL     1      -5.477   2.968  -2.347  1.00  0.00    -0.246 OA
BRANCH   7   9
ATOM      9  O   UNL     1      -6.837   4.729  -2.736  1.00  0.00    -0.478 OA
ATOM     10  H   UNL     1      -7.064   5.337  -3.483  1.00  0.00     0.297 HD
ENDBRANCH   7   9
ENDBRANCH   1   7
BRANCH   2  11
ATOM     11  O   UNL     1      -8.679   5.558  -0.389  1.00  0.00    -0.504 OA
ATOM     12  H   UNL     1      -8.991   6.461  -0.649  1.00  0.00     0.293 HD
ENDBRANCH   2  11
BRANCH   5  13
ATOM     13  O   UNL     1     -10.324   4.082   1.170  1.00  0.00    -0.493 OA
ATOM     14  C   UNL     1     -11.607   4.239   1.156  1.00  0.00     0.278 C 
ENDBRANCH   5  13
TORSDOF 4
ENDMDL
MODEL 5
REMARK VINA RESULT:    -4.191      2.097      2.833
REMARK INTER + INTRA:          -5.368
REMARK INTER:                  -5.202
REMARK INTRA:                  -0.166
REMARK UNBOUND:                -0.442
REMARK SMILES COc1cccc(C(=O)O)c1O
REMARK SMILES IDX 7 1 11 2 6 3 5 4 3 5 4 6 8 7 9 8 10 9 12 11 2 13 1 14
REMARK H PARENT 10 10 12 12
ROOT
ATOM      1  C   UNL     1      -6.547   2.183   1.779  1.00  0.00     0.105 A 
ATOM      2  C   UNL     1      -7.908   2.289   1.695  1.00  0.00     0.172 A 
ATOM      3  C   UNL     1      -5.755   2.601   0.607  1.00  0.00     0.020 A 
ATOM      4  C   UNL     1      -6.363   3.390  -0.316  1.00  0.00     0.005 A 
ATOM      5  C   UNL     1      -8.546   3.307   0.873  1.00  0.00     0.161 A 
ATOM      6  C   UNL     1      -7.735   3.769  -0.239  1.00  0.00     0.050 A 
ENDROOT
BRANCH   1   7
ATOM      7  C   UNL     1      -5.857   1.745   3.082  1.00  0.00     0.339 C 
ATOM      8  O   UNL     1      -4.406   2.483   3.137  1.00  0.00    -0.246 OA
BRANCH   7   9
ATOM      9  O   UNL     1      -6.079   1.209   3.961  1.00  0.00    -0.478 OA
ATOM     10  H   UNL     1      -6.287   0.704   4.787  1.00  0.00     0.297 HD
ENDBRANCH   7   9
ENDBRANCH   1   7
BRANCH   2  11
ATOM     11  O   UNL     1      -8.755   1.430   2.417  1.00  0.00    -0.504 OA
ATOM     12  H   UNL     1      -9.351   0.825   2.926  1.00  0.00     0.293 HD
ENDBRANCH   2  11
BRANCH   5  13
ATOM     13  O   UNL     1      -9.920   3.437   1.027  1.00  0.00    -0.493 OA
ATOM     14  C   UNL     1     -11.170   3.107   1.044  1.00  0.00     0.278 C 
ENDBRANCH   5  13
TORSDOF 4
ENDMDL
MODEL 6
REMARK VINA RESULT:    -3.999      2.176      3.094
REMARK INTER + INTRA:          -5.142
REMARK INTER:                  -4.846
REMARK INTRA:                  -0.296
REMARK UNBOUND:                -0.442
REMARK SMILES COc1cccc(C(=O)O)c1O
REMARK SMILES IDX 7 1 11 2 6 3 5 4 3 5 4 6 8 7 9 8 10 9 12 11 2 13 1 14
REMARK H PARENT 10 10 12 12
ROOT
ATOM      1  C   UNL     1      -7.716   1.219   1.958  1.00  0.00     0.105 A 
ATOM      2  C   UNL     1      -7.622   1.685   0.676  1.00  0.00     0.172 A 
ATOM      3  C   UNL     1      -6.563   1.437   2.851  1.00  0.00     0.020 A 
ATOM      4  C   UNL     1      -5.655   2.379   2.490  1.00  0.00     0.005 A 
ATOM      5  C   UNL     1      -6.820   2.855   0.346  1.00  0.00     0.161 A 
ATOM      6  C   UNL     1      -5.729   3.109   1.267  1.00  0.00     0.050 A 
ENDROOT
BRANCH   1   7
ATOM      7  C   UNL     1      -9.015   0.584   2.485  1.00  0.00     0.339 C 
ATOM      8  O   UNL     1     -10.251   1.523   1.992  1.00  0.00    -0.246 OA
BRANCH   7   9
ATOM      9  O   UNL     1      -9.334  -0.296   2.967  1.00  0.00    -0.478 OA
ATOM     10  H   UNL     1      -9.634  -1.124   3.420  1.00  0.00     0.297 HD
ENDBRANCH   7   9
ENDBRANCH   1   7
BRANCH   2  11
ATOM     11  O   UNL     1      -8.314   1.068  -0.380  1.00  0.00    -0.504 OA
ATOM     12  H   UNL     1      -8.801   0.633  -1.124  1.00  0.00     0.293 HD
ENDBRANCH   2  11
BRANCH   5  13
ATOM     13  O   UNL     1      -6.965   3.343  -0.947  1.00  0.00    -0.493 OA
ATOM     14  C   UNL     1      -6.827   4.130  -1.963  1.00  0.00     0.278 C 
ENDBRANCH   5  13
TORSDOF 4
ENDMDL
MODEL 7
REMARK VINA RESULT:    -3.971      2.353      4.628
REMARK INTER + INTRA:          -5.109
REMARK INTER:                  -4.848
REMARK INTRA:                  -0.260
REMARK UNBOUND:                -0.442
REMARK SMILES COc1cccc(C(=O)O)c1O
REMARK SMILES IDX 7 1 11 2 6 3 5 4 3 5 4 6 8 7 9 8 10 9 12 11 2 13 1 14
REMARK H PARENT 10 10 12 12
ROOT
ATOM      1  C   UNL     1      -7.851   4.616   0.005  1.00  0.00     0.105 A 
ATOM      2  C   UNL     1      -7.232   4.111   1.115  1.00  0.00     0.172 A 
ATOM      3  C   UNL     1      -7.240   4.334  -1.307  1.00  0.00     0.020 A 
ATOM      4  C   UNL     1      -6.344   3.316  -1.380  1.00  0.00     0.005 A 
ATOM      5  C   UNL     1      -6.464   2.875   1.065  1.00  0.00     0.161 A 
ATOM      6  C   UNL     1      -5.923   2.562  -0.245  1.00  0.00     0.050 A 
ENDROOT
BRANCH   1   7
ATOM      7  C   UNL     1      -9.193   5.362   0.107  1.00  0.00     0.339 C 
ATOM      8  O   UNL     1     -10.173   4.474   1.058  1.00  0.00    -0.246 OA
BRANCH   7   9
ATOM      9  O   UNL     1      -9.614   6.288  -0.165  1.00  0.00    -0.478 OA
ATOM     10  H   UNL     1     -10.009   7.159  -0.421  1.00  0.00     0.297 HD
ENDBRANCH   7   9
ENDBRANCH   1   7
BRANCH   2  11
ATOM     11  O   UNL     1      -7.328   4.752   2.362  1.00  0.00    -0.504 OA
ATOM     12  H   UNL     1      -7.395   5.204   3.240  1.00  0.00     0.293 HD
ENDBRANCH   2  11
BRANCH   5  13
ATOM     13  O   UNL     1      -6.054   2.366   2.291  1.00  0.00    -0.493 OA
ATOM     14  C   UNL     1      -5.966   1.555   3.292  1.00  0.00     0.278 C 
ENDBRANCH   5  13
TORSDOF 4
ENDMDL
MODEL 8
REMARK VINA RESULT:    -3.658      1.698      2.244
REMARK INTER + INTRA:          -4.741
REMARK INTER:                  -4.558
REMARK INTRA:                  -0.183
REMARK UNBOUND:                -0.442
REMARK SMILES COc1cccc(C(=O)O)c1O
REMARK SMILES IDX 7 1 11 2 6 3 5 4 3 5 4 6 8 7 9 8 10 9 12 11 2 13 1 14
REMARK H PARENT 10 10 12 12
ROOT
ATOM      1  C   UNL     1      -6.486   2.686   2.343  1.00  0.00     0.105 A 
ATOM      2  C   UNL     1      -6.058   2.981   1.078  1.00  0.00     0.172 A 
ATOM      3  C   UNL     1      -7.362   3.664   3.014  1.00  0.00     0.020 A 
ATOM      4  C   UNL     1      -7.983   4.590   2.239  1.00  0.00     0.005 A 
ATOM      5  C   UNL     1      -6.860   3.789   0.170  1.00  0.00     0.161 A 
ATOM      6  C   UNL     1      -7.774   4.701   0.833  1.00  0.00     0.050 A 
ENDROOT
BRANCH   1   7
ATOM      7  C   UNL     1      -6.154   1.338   3.006  1.00  0.00     0.339 C 
ATOM      8  O   UNL     1      -7.490   0.410   2.918  1.00  0.00    -0.246 OA
BRANCH   7   9
ATOM      9  O   UNL     1      -5.322   0.824   3.395  1.00  0.00    -0.478 OA
ATOM     10  H   UNL     1      -4.539   0.340   3.761  1.00  0.00     0.297 HD
ENDBRANCH   7   9
ENDBRANCH   1   7
BRANCH   2  11
ATOM     11  O   UNL     1      -4.833   2.498   0.588  1.00  0.00    -0.504 OA
ATOM     12  H   UNL     1      -3.970   2.157   0.243  1.00  0.00     0.293 HD
ENDBRANCH   2  11
BRANCH   5  13
ATOM     13  O   UNL     1      -6.411   3.850  -1.143  1.00  0.00    -0.493 OA
ATOM     14  C   UNL     1      -6.454   3.957  -2.430  1.00  0.00     0.278 C 
ENDBRANCH   5  13
TORSDOF 4
ENDMDL
