MODEL 1
REMARK VINA RESULT:    -4.942      0.000      0.000
REMARK INTER + INTRA:          -6.288
REMARK INTER:                  -5.808
REMARK INTRA:                  -0.480
REMARK UNBOUND:                -0.480
REMARK SMILES COc1cccc(C(=O)O)c1O
REMARK SMILES IDX 7 1 11 2 6 3 5 4 3 5 4 6 8 7 9 8 10 9 12 11 2 13 1 14
REMARK H PARENT 10 10 12 12
ROOT
ATOM      1  C   UNL     1       4.339  -1.815   3.466  1.00  0.00     0.105 A 
ATOM      2  C   UNL     1       3.645  -2.893   2.990  1.00  0.00     0.172 A 
ATOM      3  C   UNL     1       5.802  -1.943   3.588  1.00  0.00     0.020 A 
ATOM      4  C   UNL     1       6.408  -2.944   2.898  1.00  0.00     0.005 A 
ATOM      5  C   UNL     1       4.244  -3.834   2.054  1.00  0.00     0.161 A 
ATOM      6  C   UNL     1       5.692  -3.906   2.126  1.00  0.00     0.050 A 
ENDROOT
BRANCH   1   7
ATOM      7  C   UNL     1       3.636  -0.480   3.766  1.00  0.00     0.339 C 
ATOM      8  O   UNL     1       2.147  -0.554   3.107  1.00  0.00    -0.246 OA
BRANCH   7   9
ATOM      9  O   UNL     1       3.790   0.394   4.333  1.00  0.00    -0.478 OA
ATOM     10  H   UNL     1       3.935   1.216   4.866  1.00  0.00     0.297 HD
ENDBRANCH   7   9
ENDBRANCH   1   7
BRANCH   2  11
ATOM     11  O   UNL     1       2.312  -3.130   3.366  1.00  0.00    -0.504 OA
ATOM     12  H   UNL     1       1.372  -3.297   3.631  1.00  0.00     0.293 HD
ENDBRANCH   2  11
BRANCH   5  13
ATOM     13  O   UNL     1       3.379  -4.766   1.495  1.00  0.00    -0.493 OA
ATOM     14  C   UNL     1       2.980  -5.866   0.946  1.00  0.00     0.278 C 
ENDBRANCH   5  13
TORSDOF 4
ENDMDL
MODEL 2
REMARK VINA RESULT:    -4.932      1.780      4.689
REMARK INTER + INTRA:          -6.277
REMARK INTER:                  -5.794
REMARK INTRA:                  -0.482
REMARK UNBOUND:                -0.480
REMARK SMILES COc1cccc(C(=O)O)c1O
REMARK SMILES IDX 7 1 11 2 6 3 5 4 3 5 4 6 8 7 9 8 10 9 12 11 2 13 1 14
REMARK H PARENT 10 10 12 12
ROOT
ATOM      1  C   UNL     1       3.409  -5.121   2.252  1.00  0.00     0.105 A 
ATOM      2  C   UNL     1       3.846  -3.831   2.379  1.00  0.00     0.172 A 
ATOM      3  C   UNL     1       3.151  -5.880   3.490  1.00  0.00     0.020 A 
ATOM      4  C   UNL     1       3.003  -5.178   4.642  1.00  0.00     0.005 A 
ATOM      5  C   UNL     1       3.474  -3.008   3.521  1.00  0.00     0.161 A 
ATOM      6  C   UNL     1       3.151  -3.761   4.719  1.00  0.00     0.050 A 
ENDROOT
BRANCH   1   7
ATOM      7  C   UNL     1       3.096  -5.728   0.874  1.00  0.00     0.339 C 
ATOM      8  O   UNL     1       3.042  -4.502  -0.197  1.00  0.00    -0.246 OA
BRANCH   7   9
ATOM      9  O   UNL     1       3.008  -6.674   0.420  1.00  0.00    -0.478 OA
ATOM     10  H   UNL     1       2.926  -7.564  -0.007  1.00  0.00     0.297 HD
ENDBRANCH   7   9
ENDBRANCH   1   7
BRANCH   2  11
ATOM     11  O   UNL     1       4.657  -3.234   1.400  1.00  0.00    -0.504 OA
ATOM     12  H   UNL     1       5.229  -2.813   0.710  1.00  0.00     0.293 HD
ENDBRANCH   2  11
BRANCH   5  13
ATOM     13  O   UNL     1       3.815  -1.664   3.435  1.00  0.00    -0.493 OA
ATOM     14  C   UNL     1       3.813  -0.399   3.699  1.00  0.00     0.278 C 
ENDBRANCH   5  13
TORSDOF 4
ENDMDL
MODEL 3
REMARK VINA RESULT:    -4.650      2.257      3.262
REMARK INTER + INTRA:          -5.945
REMARK INTER:                  -5.676
REMARK INTRA:                  -0.269
REMARK UNBOUND:                -0.480
REMARK SMILES COc1cccc(C(=O)O)c1O
REMARK SMILES IDX 7 1 11 2 6 3 5 4 3 5 4 6 8 7 9 8 10 9 12 11 2 13 1 14
REMARK H PARENT 10 10 12 12
ROOT
ATOM      1  C   UNL     1       4.195  -2.005   3.432  1.00  0.00     0.105 A 
ATOM      2  C   UNL     1       5.376  -2.512   3.899  1.00  0.00     0.172 A 
ATOM      3  C   UNL     1       3.214  -2.956   2.878  1.00  0.00     0.020 A 
ATOM      4  C   UNL     1       3.363  -4.269   3.188  1.00  0.00     0.005 A 
ATOM      5  C   UNL     1       5.463  -3.856   4.454  1.00  0.00     0.161 A 
ATOM      6  C   UNL     1       4.452  -4.771   3.960  1.00  0.00     0.050 A 
ENDROOT
BRANCH   1   7
ATOM      7  C   UNL     1       3.854  -0.511   3.574  1.00  0.00     0.339 C 
ATOM      8  O   UNL     1       2.247  -0.355   3.351  1.00  0.00    -0.246 OA
BRANCH   7   9
ATOM      9  O   UNL     1       4.318   0.390   3.859  1.00  0.00    -0.478 OA
ATOM     10  H   UNL     1       4.755   1.237   4.128  1.00  0.00     0.297 HD
ENDBRANCH   7   9
ENDBRANCH   1   7
BRANCH   2  11
ATOM     11  O   UNL     1       6.556  -1.750   3.885  1.00  0.00    -0.504 OA
ATOM     12  H   UNL     1       7.388  -1.213   3.875  1.00  0.00     0.293 HD
ENDBRANCH   2  11
BRANCH   5  13
ATOM     13  O   UNL     1       6.665  -4.179   5.072  1.00  0.00    -0.493 OA
ATOM     14  C   UNL     1       7.478  -4.676   5.944  1.00  0.00     0.278 C 
ENDBRANCH   5  13
TORSDOF 4
ENDMDL
MODEL 4
REMARK VINA RESULT:    -4.631      2.898      4.382
REMARK INTER + INTRA:          -5.923
REMARK INTER:                  -5.657
REMARK INTRA:                  -0.266
REMARK UNBOUND:                -0.480
REMARK SMILES COc1cccc(C(=O)O)c1O
REMARK SMILES IDX 7 1 11 2 6 3 5 4 3 5 4 6 8 7 9 8 10 9 12 11 2 13 1 14
REMARK H PARENT 10 10 12 12
ROOT
ATOM      1  C   UNL     1       3.424  -4.707   2.192  1.00  0.00     0.105 A 
ATOM      2  C   UNL     1       3.811  -5.288   3.368  1.00  0.00     0.172 A 
ATOM      3  C   UNL     1       3.551  -3.243   2.078  1.00  0.00     0.020 A 
ATOM      4  C   UNL     1       4.362  -2.609   2.964  1.00  0.00     0.005 A 
ATOM      5  C   UNL     1       4.862  -4.712   4.194  1.00  0.00     0.161 A 
ATOM      6  C   UNL     1       5.033  -3.280   4.028  1.00  0.00     0.050 A 
ENDROOT
BRANCH   1   7
ATOM      7  C   UNL     1       2.972  -5.556   0.991  1.00  0.00     0.339 C 
ATOM      8  O   UNL     1       3.057  -4.611  -0.333  1.00  0.00    -0.246 OA
BRANCH   7   9
ATOM      9  O   UNL     1       2.728  -6.556   0.767  1.00  0.00    -0.478 OA
ATOM     10  H   UNL     1       2.499  -7.496   0.557  1.00  0.00     0.297 HD
ENDBRANCH   7   9
ENDBRANCH   1   7
BRANCH   2  11
ATOM     11  O   UNL     1       3.226  -6.483   3.822  1.00  0.00    -0.504 OA
ATOM     12  H   UNL     1       2.814  -7.324   4.141  1.00  0.00     0.293 HD
ENDBRANCH   2  11
BRANCH   5  13
ATOM     13  O   UNL     1       5.298  -5.496   5.255  1.00  0.00    -0.493 OA
ATOM     14  C   UNL     1       6.041  -6.312   5.928  1.00  0.00     0.278 C 
ENDBRANCH   5  13
TORSDOF 4
ENDMDL
MODEL 5
REMARK VINA RESULT:    -4.142      2.168      3.097
REMARK INTER + INTRA:          -5.348
REMARK INTER:                  -5.040
REMARK INTRA:                  -0.308
REMARK UNBOUND:                -0.480
REMARK SMILES COc1cccc(C(=O)O)c1O
REMARK SMILES IDX 7 1 11 2 6 3 5 4 3 5 4 6 8 7 9 8 10 9 12 11 2 13 1 14
REMARK H PARENT 10 10 12 12
ROOT
ATOM      1  C   UNL     1       5.436  -2.163   3.435  1.00  0.00     0.105 A 
ATOM      2  C   UNL     1       5.125  -3.144   2.533  1.00  0.00     0.172 A 
ATOM      3  C   UNL     1       4.431  -1.111   3.674  1.00  0.00     0.020 A 
ATOM      4  C   UNL     1       3.153  -1.360   3.289  1.00  0.00     0.005 A 
ATOM      5  C   UNL     1       3.750  -3.565   2.307  1.00  0.00     0.161 A 
ATOM      6  C   UNL     1       2.758  -2.550   2.611  1.00  0.00     0.050 A 
ENDROOT
BRANCH   1   7
ATOM      7  C   UNL     1       6.739  -2.211   4.251  1.00  0.00     0.339 C 
ATOM      8  O   UNL     1       6.933  -3.742   4.772  1.00  0.00    -0.246 OA
BRANCH   7   9
ATOM      9  O   UNL     1       7.560  -1.592   4.480  1.00  0.00    -0.478 OA
ATOM     10  H   UNL     1       8.332  -1.010   4.695  1.00  0.00     0.297 HD
ENDBRANCH   7   9
ENDBRANCH   1   7
BRANCH   2  11
ATOM     11  O   UNL     1       6.124  -3.805   1.799  1.00  0.00    -0.504 OA
ATOM     12  H   UNL     1       6.828  -4.271   1.281  1.00  0.00     0.293 HD
ENDBRANCH   2  11
BRANCH   5  13
ATOM     13  O   UNL     1       3.586  -4.697   1.519  1.00  0.00    -0.493 OA
ATOM     14  C   UNL     1       3.050  -5.777   1.054  1.00  0.00     0.278 C 
ENDBRANCH   5  13
TORSDOF 4
ENDMDL
MODEL 6
REMARK VINA RESULT:    -4.108      2.353      4.625
REMARK INTER + INTRA:          -5.308
REMARK INTER:                  -5.049
REMARK INTRA:                  -0.259
REMARK UNBOUND:                -0.480
REMARK SMILES COc1cccc(C(=O)O)c1O
REMARK SMILES IDX 7 1 11 2 6 3 5 4 3 5 4 6 8 7 9 8 10 9 12 11 2 13 1 14
REMARK H PARENT 10 10 12 12
ROOT
ATOM      1  C   UNL     1       3.249  -5.392   3.393  1.00  0.00     0.105 A 
ATOM      2  C   UNL     1       3.102  -4.088   3.778  1.00  0.00     0.172 A 
ATOM      3  C   UNL     1       3.153  -5.695   1.953  1.00  0.00     0.020 A 
ATOM      4  C   UNL     1       3.293  -4.663   1.081  1.00  0.00     0.005 A 
ATOM      5  C   UNL     1       3.486  -2.986   2.907  1.00  0.00     0.161 A 
ATOM      6  C   UNL     1       3.459  -3.308   1.493  1.00  0.00     0.050 A 
ENDROOT
BRANCH   1   7
ATOM      7  C   UNL     1       3.608  -6.491   4.409  1.00  0.00     0.339 C 
ATOM      8  O   UNL     1       4.835  -5.929   5.322  1.00  0.00    -0.246 OA
BRANCH   7   9
ATOM      9  O   UNL     1       3.243  -7.422   4.739  1.00  0.00    -0.478 OA
ATOM     10  H   UNL     1       2.900  -8.297   5.049  1.00  0.00     0.297 HD
ENDBRANCH   7   9
ENDBRANCH   1   7
BRANCH   2  11
ATOM     11  O   UNL     1       2.592  -3.752   5.044  1.00  0.00    -0.504 OA
ATOM     12  H   UNL     1       2.233  -3.516   5.936  1.00  0.00     0.293 HD
ENDBRANCH   2  11
BRANCH   5  13
ATOM     13  O   UNL     1       3.473  -1.723   3.486  1.00  0.00    -0.493 OA
ATOM     14  C   UNL     1       3.823  -0.504   3.731  1.00  0.00     0.278 C 
ENDBRANCH   5  13
TORSDOF 4
ENDMDL
MODEL 7
REMARK VINA RESULT:    -4.064      2.022      2.971
REMARK INTER + INTRA:          -5.256
REMARK INTER:                  -4.794
REMARK INTRA:                  -0.463
REMARK UNBOUND:                -0.480
REMARK SMILES COc1cccc(C(=O)O)c1O
REMARK SMILES IDX 7 1 11 2 6 3 5 4 3 5 4 6 8 7 9 8 10 9 12 11 2 13 1 14
REMARK H PARENT 10 10 12 12
ROOT
ATOM      1  C   UNL     1       3.701  -2.336   2.751  1.00  0.00     0.105 A 
ATOM      2  C   UNL     1       4.772  -2.921   3.369  1.00  0.00     0.172 A 
ATOM      3  C   UNL     1       3.031  -3.096   1.680  1.00  0.00     0.020 A 
ATOM      4  C   UNL     1       3.260  -4.433   1.616  1.00  0.00     0.005 A 
ATOM      5  C   UNL     1       4.881  -4.367   3.500  1.00  0.00     0.161 A 
ATOM      6  C   UNL     1       4.161  -5.114   2.486  1.00  0.00     0.050 A 
ENDROOT
BRANCH   1   7
ATOM      7  C   UNL     1       3.146  -0.981   3.223  1.00  0.00     0.339 C 
ATOM      8  O   UNL     1       4.419   0.002   3.485  1.00  0.00    -0.246 OA
BRANCH   7   9
ATOM      9  O   UNL     1       2.221  -0.490   3.328  1.00  0.00    -0.478 OA
ATOM     10  H   UNL     1       1.350  -0.029   3.426  1.00  0.00     0.297 HD
ENDBRANCH   7   9
ENDBRANCH   1   7
BRANCH   2  11
ATOM     11  O   UNL     1       5.807  -2.150   3.924  1.00  0.00    -0.504 OA
ATOM     12  H   UNL     1       6.536  -1.607   4.316  1.00  0.00     0.293 HD
ENDBRANCH   2  11
BRANCH   5  13
ATOM     13  O   UNL     1       5.908  -4.824   4.316  1.00  0.00    -0.493 OA
ATOM     14  C   UNL     1       6.491  -5.394   5.320  1.00  0.00     0.278 C 
ENDBRANCH   5  13
TORSDOF 4
ENDMDL
MODEL 8
REMARK VINA RESULT:    -3.564      7.277      7.799
REMARK INTER + INTRA:          -4.668
REMARK INTER:                  -4.370
REMARK INTRA:                  -0.298
REMARK UNBOUND:                -0.480
REMARK SMILES COc1cccc(C(=O)O)c1O
REMARK SMILES IDX 7 1 11 2 6 3 5 4 3 5 4 6 8 7 9 8 10 9 12 11 2 13 1 14
REMARK H PARENT 10 10 12 12
ROOT
ATOM      1  C   UNL     1       3.779   0.330  -4.056  1.00  0.00     0.105 A 
ATOM      2  C   UNL     1       2.690   0.025  -3.288  1.00  0.00     0.172 A 
ATOM      3  C   UNL     1       4.039  -0.511  -5.239  1.00  0.00     0.020 A 
ATOM      4  C   UNL     1       3.021  -1.280  -5.702  1.00  0.00     0.005 A 
ATOM      5  C   UNL     1       1.500  -0.591  -3.859  1.00  0.00     0.161 A 
ATOM      6  C   UNL     1       1.748  -1.361  -5.064  1.00  0.00     0.050 A 
ENDROOT
BRANCH   1   7
ATOM      7  C   UNL     1       4.643   1.569  -3.763  1.00  0.00     0.339 C 
ATOM      8  O   UNL     1       3.678   2.682  -3.067  1.00  0.00    -0.246 OA
BRANCH   7   9
ATOM      9  O   UNL     1       5.654   1.861  -3.789  1.00  0.00    -0.478 OA
ATOM     10  H   UNL     1       6.605   2.135  -3.813  1.00  0.00     0.297 HD
ENDBRANCH   7   9
ENDBRANCH   1   7
BRANCH   2  11
ATOM     11  O   UNL     1       2.661   0.311  -1.912  1.00  0.00    -0.504 OA
ATOM     12  H   UNL     1       2.641   0.514  -0.943  1.00  0.00     0.293 HD
ENDBRANCH   2  11
BRANCH   5  13
ATOM     13  O   UNL     1       0.396  -0.669  -3.020  1.00  0.00    -0.493 OA
ATOM     14  C   UNL     1      -0.434  -0.345  -2.084  1.00  0.00     0.278 C 
ENDBRANCH   5  13
TORSDOF 4
ENDMDL
MODEL 9
REMARK VINA RESULT:    -3.546      1.818      2.106
REMARK INTER + INTRA:          -4.648
REMARK INTER:                  -4.351
REMARK INTRA:                  -0.297
REMARK UNBOUND:                -0.480
REMARK SMILES COc1cccc(C(=O)O)c1O
REMARK SMILES IDX 7 1 11 2 6 3 5 4 3 5 4 6 8 7 9 8 10 9 12 11 2 13 1 14
REMARK H PARENT 10 10 12 12
ROOT
ATOM      1  C   UNL     1       3.154  -2.602   3.251  1.00  0.00     0.105 A 
ATOM      2  C   UNL     1       2.826  -3.000   1.984  1.00  0.00     0.172 A 
ATOM      3  C   UNL     1       3.280  -3.645   4.284  1.00  0.00     0.020 A 
ATOM      4  C   UNL     1       3.429  -4.930   3.870  1.00  0.00     0.005 A 
ATOM      5  C   UNL     1       3.208  -4.308   1.472  1.00  0.00     0.161 A 
ATOM      6  C   UNL     1       3.401  -5.317   2.497  1.00  0.00     0.050 A 
ENDROOT
BRANCH   1   7
ATOM      7  C   UNL     1       3.484  -1.133   3.567  1.00  0.00     0.339 C 
ATOM      8  O   UNL     1       2.148  -0.255   3.257  1.00  0.00    -0.246 OA
BRANCH   7   9
ATOM      9  O   UNL     1       4.257  -0.565   4.002  1.00  0.00    -0.478 OA
ATOM     10  H   UNL     1       4.984  -0.031   4.411  1.00  0.00     0.297 HD
ENDBRANCH   7   9
ENDBRANCH   1   7
BRANCH   2  11
ATOM     11  O   UNL     1       2.122  -2.154   1.110  1.00  0.00    -0.504 OA
ATOM     12  H   UNL     1       1.627  -1.558   0.494  1.00  0.00     0.293 HD
ENDBRANCH   2  11
BRANCH   5  13
ATOM     13  O   UNL     1       2.992  -4.515   0.115  1.00  0.00    -0.493 OA
ATOM     14  C   UNL     1       2.990  -4.283  -1.156  1.00  0.00     0.278 C 
ENDBRANCH   5  13
TORSDOF 4
ENDMDL
