MODEL 1
REMARK VINA RESULT:    -4.885      0.000      0.000
REMARK INTER + INTRA:          -6.184
REMARK INTER:                  -5.741
REMARK INTRA:                  -0.442
REMARK UNBOUND:                -0.442
REMARK SMILES COc1cccc(C(=O)O)c1O
REMARK SMILES IDX 7 1 11 2 6 3 5 4 3 5 4 6 8 7 9 8 10 9 12 11 2 13 1 14
REMARK H PARENT 10 10 12 12
ROOT
ATOM      1  C   UNL     1      -7.119   3.138  -2.476  1.00  0.00     0.105 A 
ATOM      2  C   UNL     1      -7.230   2.354  -1.361  1.00  0.00     0.172 A 
ATOM      3  C   UNL     1      -7.680   4.500  -2.413  1.00  0.00     0.020 A 
ATOM      4  C   UNL     1      -7.933   5.022  -1.186  1.00  0.00     0.005 A 
ATOM      5  C   UNL     1      -7.261   2.928  -0.024  1.00  0.00     0.161 A 
ATOM      6  C   UNL     1      -7.747   4.295   0.027  1.00  0.00     0.050 A 
ENDROOT
BRANCH   1   7
ATOM      7  C   UNL     1      -6.344   2.659  -3.716  1.00  0.00     0.339 C 
ATOM      8  O   UNL     1      -5.560   1.292  -3.304  1.00  0.00    -0.246 OA
BRANCH   7   9
ATOM      9  O   UNL     1      -6.255   2.891  -4.740  1.00  0.00    -0.478 OA
ATOM     10  H   UNL     1      -6.170   3.108  -5.702  1.00  0.00     0.297 HD
ENDBRANCH   7   9
ENDBRANCH   1   7
BRANCH   2  11
ATOM     11  O   UNL     1      -7.299   0.953  -1.455  1.00  0.00    -0.504 OA
ATOM     12  H   UNL     1      -7.347  -0.034  -1.521  1.00  0.00     0.293 HD
ENDBRANCH   2  11
BRANCH   5  13
ATOM     13  O   UNL     1      -7.177   2.023   1.027  1.00  0.00    -0.493 OA
ATOM     14  C   UNL     1      -7.472   1.431   2.137  1.00  0.00     0.278 C 
ENDBRANCH   5  13
TORSDOF 4
ENDMDL
MODEL 2
REMARK VINA RESULT:    -4.881      1.790      4.677
REMARK INTER + INTRA:          -6.179
REMARK INTER:                  -5.697
REMARK INTRA:                  -0.482
REMARK UNBOUND:                -0.442
REMARK SMILES COc1cccc(C(=O)O)c1O
REMARK SMILES IDX 7 1 11 2 6 3 5 4 3 5 4 6 8 7 9 8 10 9 12 11 2 13 1 14
REMARK H PARENT 10 10 12 12
ROOT
ATOM      1  C   UNL     1      -8.096   1.828   0.766  1.00  0.00     0.105 A 
ATOM      2  C   UNL     1      -7.496   2.487  -0.271  1.00  0.00     0.172 A 
ATOM      3  C   UNL     1      -9.430   1.247   0.526  1.00  0.00     0.020 A 
ATOM      4  C   UNL     1      -9.820   1.073  -0.763  1.00  0.00     0.005 A 
ATOM      5  C   UNL     1      -7.750   2.122  -1.658  1.00  0.00     0.161 A 
ATOM      6  C   UNL     1      -9.035   1.485  -1.880  1.00  0.00     0.050 A 
ENDROOT
BRANCH   1   7
ATOM      7  C   UNL     1      -7.367   1.607   2.103  1.00  0.00     0.339 C 
ATOM      8  O   UNL     1      -5.794   1.958   1.864  1.00  0.00    -0.246 OA
BRANCH   7   9
ATOM      9  O   UNL     1      -7.593   1.400   3.110  1.00  0.00    -0.478 OA
ATOM     10  H   UNL     1      -7.806   1.205   4.057  1.00  0.00     0.297 HD
ENDBRANCH   7   9
ENDBRANCH   1   7
BRANCH   2  11
ATOM     11  O   UNL     1      -6.587   3.535  -0.045  1.00  0.00    -0.504 OA
ATOM     12  H   UNL     1      -5.947   4.274   0.115  1.00  0.00     0.293 HD
ENDBRANCH   2  11
BRANCH   5  13
ATOM     13  O   UNL     1      -6.934   2.729  -2.604  1.00  0.00    -0.493 OA
ATOM     14  C   UNL     1      -6.322   2.921  -3.725  1.00  0.00     0.278 C 
ENDBRANCH   5  13
TORSDOF 4
ENDMDL
MODEL 3
REMARK VINA RESULT:    -4.729      2.932      4.410
REMARK INTER + INTRA:          -6.001
REMARK INTER:                  -5.731
REMARK INTRA:                  -0.270
REMARK UNBOUND:                -0.442
REMARK SMILES COc1cccc(C(=O)O)c1O
REMARK SMILES IDX 7 1 11 2 6 3 5 4 3 5 4 6 8 7 9 8 10 9 12 11 2 13 1 14
REMARK H PARENT 10 10 12 12
ROOT
ATOM      1  C   UNL     1      -7.831   1.923   0.533  1.00  0.00     0.105 A 
ATOM      2  C   UNL     1      -9.163   2.006   0.232  1.00  0.00     0.172 A 
ATOM      3  C   UNL     1      -6.873   2.441  -0.461  1.00  0.00     0.020 A 
ATOM      4  C   UNL     1      -7.347   3.282  -1.416  1.00  0.00     0.005 A 
ATOM      5  C   UNL     1      -9.690   3.068  -0.612  1.00  0.00     0.161 A 
ATOM      6  C   UNL     1      -8.725   3.626  -1.540  1.00  0.00     0.050 A 
ENDROOT
BRANCH   1   7
ATOM      7  C   UNL     1      -7.350   1.405   1.899  1.00  0.00     0.339 C 
ATOM      8  O   UNL     1      -5.822   1.930   2.108  1.00  0.00    -0.246 OA
BRANCH   7   9
ATOM      9  O   UNL     1      -7.736   0.916   2.748  1.00  0.00    -0.478 OA
ATOM     10  H   UNL     1      -8.099   0.455   3.546  1.00  0.00     0.297 HD
ENDBRANCH   7   9
ENDBRANCH   1   7
BRANCH   2  11
ATOM     11  O   UNL     1     -10.088   1.080   0.744  1.00  0.00    -0.504 OA
ATOM     12  H   UNL     1     -10.739   0.427   1.105  1.00  0.00     0.293 HD
ENDBRANCH   2  11
BRANCH   5  13
ATOM     13  O   UNL     1     -11.075   3.158  -0.679  1.00  0.00    -0.493 OA
ATOM     14  C   UNL     1     -12.254   3.686  -0.642  1.00  0.00     0.278 C 
ENDBRANCH   5  13
TORSDOF 4
ENDMDL
MODEL 4
REMARK VINA RESULT:    -4.684      2.185      3.181
REMARK INTER + INTRA:          -5.948
REMARK INTER:                  -5.678
REMARK INTRA:                  -0.270
REMARK UNBOUND:                -0.442
REMARK SMILES COc1cccc(C(=O)O)c1O
REMARK SMILES IDX 7 1 11 2 6 3 5 4 3 5 4 6 8 7 9 8 10 9 12 11 2 13 1 14
REMARK H PARENT 10 10 12 12
ROOT
ATOM      1  C   UNL     1      -7.111   2.883  -2.241  1.00  0.00     0.105 A 
ATOM      2  C   UNL     1      -8.087   3.836  -2.141  1.00  0.00     0.172 A 
ATOM      3  C   UNL     1      -6.954   1.944  -1.114  1.00  0.00     0.020 A 
ATOM      4  C   UNL     1      -7.985   1.834  -0.237  1.00  0.00     0.005 A 
ATOM      5  C   UNL     1      -9.307   3.603  -1.380  1.00  0.00     0.161 A 
ATOM      6  C   UNL     1      -9.168   2.625  -0.317  1.00  0.00     0.050 A 
ENDROOT
BRANCH   1   7
ATOM      7  C   UNL     1      -6.275   2.724  -3.522  1.00  0.00     0.339 C 
ATOM      8  O   UNL     1      -5.564   1.260  -3.462  1.00  0.00    -0.246 OA
BRANCH   7   9
ATOM      9  O   UNL     1      -6.113   3.222  -4.436  1.00  0.00    -0.478 OA
ATOM     10  H   UNL     1      -5.961   3.690  -5.295  1.00  0.00     0.297 HD
ENDBRANCH   7   9
ENDBRANCH   1   7
BRANCH   2  11
ATOM     11  O   UNL     1      -7.966   5.077  -2.788  1.00  0.00    -0.504 OA
ATOM     12  H   UNL     1      -7.881   5.952  -3.244  1.00  0.00     0.293 HD
ENDBRANCH   2  11
BRANCH   5  13
ATOM     13  O   UNL     1     -10.300   4.564  -1.520  1.00  0.00    -0.493 OA
ATOM     14  C   UNL     1     -11.465   5.071  -1.756  1.00  0.00     0.278 C 
ENDBRANCH   5  13
TORSDOF 4
ENDMDL
MODEL 5
REMARK VINA RESULT:    -4.094      2.707      4.270
REMARK INTER + INTRA:          -5.255
REMARK INTER:                  -4.790
REMARK INTRA:                  -0.465
REMARK UNBOUND:                -0.442
REMARK SMILES COc1cccc(C(=O)O)c1O
REMARK SMILES IDX 7 1 11 2 6 3 5 4 3 5 4 6 8 7 9 8 10 9 12 11 2 13 1 14
REMARK H PARENT 10 10 12 12
ROOT
ATOM      1  C   UNL     1      -7.247   1.900   0.035  1.00  0.00     0.105 A 
ATOM      2  C   UNL     1      -8.559   2.164  -0.246  1.00  0.00     0.172 A 
ATOM      3  C   UNL     1      -6.296   1.882  -1.091  1.00  0.00     0.020 A 
ATOM      4  C   UNL     1      -6.680   2.475  -2.251  1.00  0.00     0.005 A 
ATOM      5  C   UNL     1      -8.944   3.008  -1.369  1.00  0.00     0.161 A 
ATOM      6  C   UNL     1      -7.972   3.046  -2.446  1.00  0.00     0.050 A 
ENDROOT
BRANCH   1   7
ATOM      7  C   UNL     1      -6.758   1.730   1.484  1.00  0.00     0.339 C 
ATOM      8  O   UNL     1      -7.837   0.783   2.255  1.00  0.00    -0.246 OA
BRANCH   7   9
ATOM      9  O   UNL     1      -5.915   1.955   2.073  1.00  0.00    -0.478 OA
ATOM     10  H   UNL     1      -5.121   2.166   2.627  1.00  0.00     0.297 HD
ENDBRANCH   7   9
ENDBRANCH   1   7
BRANCH   2  11
ATOM     11  O   UNL     1      -9.597   1.650   0.550  1.00  0.00    -0.504 OA
ATOM     12  H   UNL     1     -10.328   1.288   1.111  1.00  0.00     0.293 HD
ENDBRANCH   2  11
BRANCH   5  13
ATOM     13  O   UNL     1     -10.286   3.360  -1.429  1.00  0.00    -0.493 OA
ATOM     14  C   UNL     1     -11.344   4.040  -1.729  1.00  0.00     0.278 C 
ENDBRANCH   5  13
TORSDOF 4
ENDMDL
MODEL 6
REMARK VINA RESULT:    -4.067      2.371      4.640
REMARK INTER + INTRA:          -5.223
REMARK INTER:                  -5.019
REMARK INTRA:                  -0.204
REMARK UNBOUND:                -0.442
REMARK SMILES COc1cccc(C(=O)O)c1O
REMARK SMILES IDX 7 1 11 2 6 3 5 4 3 5 4 6 8 7 9 8 10 9 12 11 2 13 1 14
REMARK H PARENT 10 10 12 12
ROOT
ATOM      1  C   UNL     1      -9.025   1.423   0.273  1.00  0.00     0.105 A 
ATOM      2  C   UNL     1      -8.473   1.453  -0.978  1.00  0.00     0.172 A 
ATOM      3  C   UNL     1      -8.113   1.535   1.426  1.00  0.00     0.020 A 
ATOM      4  C   UNL     1      -6.865   2.020   1.199  1.00  0.00     0.005 A 
ATOM      5  C   UNL     1      -7.245   2.186  -1.253  1.00  0.00     0.161 A 
ATOM      6  C   UNL     1      -6.382   2.357  -0.100  1.00  0.00     0.050 A 
ENDROOT
BRANCH   1   7
ATOM      7  C   UNL     1     -10.550   1.381   0.474  1.00  0.00     0.339 C 
ATOM      8  O   UNL     1     -11.175   2.693  -0.263  1.00  0.00    -0.246 OA
BRANCH   7   9
ATOM      9  O   UNL     1     -11.288   0.729   0.846  1.00  0.00    -0.478 OA
ATOM     10  H   UNL     1     -11.983   0.116   1.196  1.00  0.00     0.297 HD
ENDBRANCH   7   9
ENDBRANCH   1   7
BRANCH   2  11
ATOM     11  O   UNL     1      -9.078   0.793  -2.061  1.00  0.00    -0.504 OA
ATOM     12  H   UNL     1      -9.505   0.328  -2.824  1.00  0.00     0.293 HD
ENDBRANCH   2  11
BRANCH   5  13
ATOM     13  O   UNL     1      -6.898   2.303  -2.593  1.00  0.00    -0.493 OA
ATOM     14  C   UNL     1      -6.427   2.826  -3.677  1.00  0.00     0.278 C 
ENDBRANCH   5  13
TORSDOF 4
ENDMDL
MODEL 7
REMARK VINA RESULT:    -4.041      2.173      3.092
REMARK INTER + INTRA:          -5.193
REMARK INTER:                  -4.892
REMARK INTRA:                  -0.300
REMARK UNBOUND:                -0.442
REMARK SMILES COc1cccc(C(=O)O)c1O
REMARK SMILES IDX 7 1 11 2 6 3 5 4 3 5 4 6 8 7 9 8 10 9 12 11 2 13 1 14
REMARK H PARENT 10 10 12 12
ROOT
ATOM      1  C   UNL     1      -7.588   4.144  -2.186  1.00  0.00     0.105 A 
ATOM      2  C   UNL     1      -7.465   3.803  -0.867  1.00  0.00     0.172 A 
ATOM      3  C   UNL     1      -6.865   3.322  -3.174  1.00  0.00     0.020 A 
ATOM      4  C   UNL     1      -6.437   2.094  -2.782  1.00  0.00     0.005 A 
ATOM      5  C   UNL     1      -7.240   2.425  -0.452  1.00  0.00     0.161 A 
ATOM      6  C   UNL     1      -6.593   1.599  -1.454  1.00  0.00     0.050 A 
ENDROOT
BRANCH   1   7
ATOM      7  C   UNL     1      -8.527   5.276  -2.636  1.00  0.00     0.339 C 
ATOM      8  O   UNL     1      -9.928   5.098  -1.824  1.00  0.00    -0.246 OA
BRANCH   7   9
ATOM      9  O   UNL     1      -8.498   6.153  -3.217  1.00  0.00    -0.478 OA
ATOM     10  H   UNL     1      -8.470   6.978  -3.764  1.00  0.00     0.297 HD
ENDBRANCH   7   9
ENDBRANCH   1   7
BRANCH   2  11
ATOM     11  O   UNL     1      -7.573   4.766   0.151  1.00  0.00    -0.504 OA
ATOM     12  H   UNL     1      -7.649   5.445   0.868  1.00  0.00     0.293 HD
ENDBRANCH   2  11
BRANCH   5  13
ATOM     13  O   UNL     1      -7.332   2.182   0.913  1.00  0.00    -0.493 OA
ATOM     14  C   UNL     1      -7.533   1.534   2.012  1.00  0.00     0.278 C 
ENDBRANCH   5  13
TORSDOF 4
ENDMDL
MODEL 8
REMARK VINA RESULT:    -3.910      2.129      2.911
REMARK INTER + INTRA:          -5.039
REMARK INTER:                  -4.610
REMARK INTRA:                  -0.429
REMARK UNBOUND:                -0.442
REMARK SMILES COc1cccc(C(=O)O)c1O
REMARK SMILES IDX 7 1 11 2 6 3 5 4 3 5 4 6 8 7 9 8 10 9 12 11 2 13 1 14
REMARK H PARENT 10 10 12 12
ROOT
ATOM      1  C   UNL     1      -7.202   2.152  -1.142  1.00  0.00     0.105 A 
ATOM      2  C   UNL     1      -8.544   2.056  -0.893  1.00  0.00     0.172 A 
ATOM      3  C   UNL     1      -6.299   2.270   0.017  1.00  0.00     0.020 A 
ATOM      4  C   UNL     1      -6.785   1.914   1.235  1.00  0.00     0.005 A 
ATOM      5  C   UNL     1      -9.053   1.448   0.328  1.00  0.00     0.161 A 
ATOM      6  C   UNL     1      -8.133   1.502   1.449  1.00  0.00     0.050 A 
ENDROOT
BRANCH   1   7
ATOM      7  C   UNL     1      -6.642   2.034  -2.570  1.00  0.00     0.339 C 
ATOM      8  O   UNL     1      -7.311   3.228  -3.455  1.00  0.00    -0.246 OA
BRANCH   7   9
ATOM      9  O   UNL     1      -5.909   1.493  -3.098  1.00  0.00    -0.478 OA
ATOM     10  H   UNL     1      -5.220   0.984  -3.594  1.00  0.00     0.297 HD
ENDBRANCH   7   9
ENDBRANCH   1   7
BRANCH   2  11
ATOM     11  O   UNL     1      -9.494   2.522  -1.818  1.00  0.00    -0.504 OA
ATOM     12  H   UNL     1     -10.164   2.851  -2.469  1.00  0.00     0.293 HD
ENDBRANCH   2  11
BRANCH   5  13
ATOM     13  O   UNL     1     -10.424   1.233   0.371  1.00  0.00    -0.493 OA
ATOM     14  C   UNL     1     -11.653   1.349   0.754  1.00  0.00     0.278 C 
ENDBRANCH   5  13
TORSDOF 4
ENDMDL
MODEL 9
REMARK VINA RESULT:    -3.249      3.310      3.730
REMARK INTER + INTRA:          -4.261
REMARK INTER:                  -3.819
REMARK INTRA:                  -0.443
REMARK UNBOUND:                -0.442
REMARK SMILES COc1cccc(C(=O)O)c1O
REMARK SMILES IDX 7 1 11 2 6 3 5 4 3 5 4 6 8 7 9 8 10 9 12 11 2 13 1 14
REMARK H PARENT 10 10 12 12
ROOT
ATOM      1  C   UNL     1     -10.065   4.975  -2.283  1.00  0.00     0.105 A 
ATOM      2  C   UNL     1      -9.707   3.781  -1.722  1.00  0.00     0.172 A 
ATOM      3  C   UNL     1     -11.488   5.356  -2.230  1.00  0.00     0.020 A 
ATOM      4  C   UNL     1     -12.281   4.711  -1.336  1.00  0.00     0.005 A 
ATOM      5  C   UNL     1     -10.437   3.216  -0.596  1.00  0.00     0.161 A 
ATOM      6  C   UNL     1     -11.819   3.648  -0.505  1.00  0.00     0.050 A 
ENDROOT
BRANCH   1   7
ATOM      7  C   UNL     1      -9.011   5.939  -2.854  1.00  0.00     0.339 C 
ATOM      8  O   UNL     1      -7.592   5.595  -2.130  1.00  0.00    -0.246 OA
BRANCH   7   9
ATOM      9  O   UNL     1      -8.918   6.660  -3.616  1.00  0.00    -0.478 OA
ATOM     10  H   UNL     1      -8.831   7.338  -4.333  1.00  0.00     0.297 HD
ENDBRANCH   7   9
ENDBRANCH   1   7
BRANCH   2  11
ATOM     11  O   UNL     1      -8.602   3.052  -2.194  1.00  0.00    -0.504 OA
ATOM     12  H   UNL     1      -7.823   2.540  -2.527  1.00  0.00     0.293 HD
ENDBRANCH   2  11
BRANCH   5  13
ATOM     13  O   UNL     1      -9.859   2.106   0.006  1.00  0.00    -0.493 OA
ATOM     14  C   UNL     1      -9.056   1.415   0.747  1.00  0.00     0.278 C 
ENDBRANCH   5  13
TORSDOF 4
ENDMDL
