MODEL 1
REMARK VINA RESULT:    -4.888      0.000      0.000
REMARK INTER + INTRA:          -6.208
REMARK INTER:                  -5.746
REMARK INTRA:                  -0.462
REMARK UNBOUND:                -0.462
REMARK SMILES COc1cccc(C(=O)O)c1O
REMARK SMILES IDX 7 1 11 2 6 3 5 4 3 5 4 6 8 7 9 8 10 9 12 11 2 13 1 14
REMARK H PARENT 10 10 12 12
ROOT
ATOM      1  C   UNL     1      -3.080   0.765  -6.286  1.00  0.00     0.105 A 
ATOM      2  C   UNL     1      -3.595   1.270  -5.124  1.00  0.00     0.172 A 
ATOM      3  C   UNL     1      -2.873   1.702  -7.406  1.00  0.00     0.020 A 
ATOM      4  C   UNL     1      -2.849   3.029  -7.122  1.00  0.00     0.005 A 
ATOM      5  C   UNL     1      -3.355   2.647  -4.717  1.00  0.00     0.161 A 
ATOM      6  C   UNL     1      -3.081   3.554  -5.817  1.00  0.00     0.050 A 
ENDROOT
BRANCH   1   7
ATOM      7  C   UNL     1      -2.633  -0.703  -6.392  1.00  0.00     0.339 C 
ATOM      8  O   UNL     1      -2.622  -1.319  -4.884  1.00  0.00    -0.246 OA
BRANCH   7   9
ATOM      9  O   UNL     1      -2.435  -1.426  -7.132  1.00  0.00    -0.478 OA
ATOM     10  H   UNL     1      -2.249  -2.105  -7.828  1.00  0.00     0.297 HD
ENDBRANCH   7   9
ENDBRANCH   1   7
BRANCH   2  11
ATOM     11  O   UNL     1      -4.363   0.474  -4.258  1.00  0.00    -0.504 OA
ATOM     12  H   UNL     1      -4.905  -0.087  -3.647  1.00  0.00     0.293 HD
ENDBRANCH   2  11
BRANCH   5  13
ATOM     13  O   UNL     1      -3.761   2.978  -3.431  1.00  0.00    -0.493 OA
ATOM     14  C   UNL     1      -4.355   3.623  -2.481  1.00  0.00     0.278 C 
ENDBRANCH   5  13
TORSDOF 4
ENDMDL
MODEL 2
REMARK VINA RESULT:    -4.844      1.753      4.687
REMARK INTER + INTRA:          -6.155
REMARK INTER:                  -5.675
REMARK INTRA:                  -0.480
REMARK UNBOUND:                -0.462
REMARK SMILES COc1cccc(C(=O)O)c1O
REMARK SMILES IDX 7 1 11 2 6 3 5 4 3 5 4 6 8 7 9 8 10 9 12 11 2 13 1 14
REMARK H PARENT 10 10 12 12
ROOT
ATOM      1  C   UNL     1      -4.591   2.930  -3.858  1.00  0.00     0.105 A 
ATOM      2  C   UNL     1      -3.739   2.163  -4.603  1.00  0.00     0.172 A 
ATOM      3  C   UNL     1      -6.034   2.819  -4.140  1.00  0.00     0.020 A 
ATOM      4  C   UNL     1      -6.460   1.732  -4.834  1.00  0.00     0.005 A 
ATOM      5  C   UNL     1      -4.146   0.874  -5.144  1.00  0.00     0.161 A 
ATOM      6  C   UNL     1      -5.576   0.741  -5.355  1.00  0.00     0.050 A 
ENDROOT
BRANCH   1   7
ATOM      7  C   UNL     1      -4.079   3.799  -2.696  1.00  0.00     0.339 C 
ATOM      8  O   UNL     1      -2.637   3.196  -2.237  1.00  0.00    -0.246 OA
BRANCH   7   9
ATOM      9  O   UNL     1      -4.328   4.691  -2.197  1.00  0.00    -0.478 OA
ATOM     10  H   UNL     1      -4.564   5.531  -1.727  1.00  0.00     0.297 HD
ENDBRANCH   7   9
ENDBRANCH   1   7
BRANCH   2  11
ATOM     11  O   UNL     1      -2.420   2.575  -4.862  1.00  0.00    -0.504 OA
ATOM     12  H   UNL     1      -1.491   2.865  -5.044  1.00  0.00     0.293 HD
ENDBRANCH   2  11
BRANCH   5  13
ATOM     13  O   UNL     1      -3.135   0.107  -5.710  1.00  0.00    -0.493 OA
ATOM     14  C   UNL     1      -2.542  -0.686  -6.540  1.00  0.00     0.278 C 
ENDBRANCH   5  13
TORSDOF 4
ENDMDL
MODEL 3
REMARK VINA RESULT:    -4.655      3.001      4.466
REMARK INTER + INTRA:          -5.934
REMARK INTER:                  -5.665
REMARK INTRA:                  -0.268
REMARK UNBOUND:                -0.462
REMARK SMILES COc1cccc(C(=O)O)c1O
REMARK SMILES IDX 7 1 11 2 6 3 5 4 3 5 4 6 8 7 9 8 10 9 12 11 2 13 1 14
REMARK H PARENT 10 10 12 12
ROOT
ATOM      1  C   UNL     1      -4.433   2.816  -3.889  1.00  0.00     0.105 A 
ATOM      2  C   UNL     1      -5.560   3.013  -4.640  1.00  0.00     0.172 A 
ATOM      3  C   UNL     1      -3.324   2.065  -4.505  1.00  0.00     0.020 A 
ATOM      4  C   UNL     1      -3.323   1.935  -5.857  1.00  0.00     0.005 A 
ATOM      5  C   UNL     1      -5.503   3.109  -6.091  1.00  0.00     0.161 A 
ATOM      6  C   UNL     1      -4.370   2.428  -6.690  1.00  0.00     0.050 A 
ENDROOT
BRANCH   1   7
ATOM      7  C   UNL     1      -4.282   3.445  -2.493  1.00  0.00     0.339 C 
ATOM      8  O   UNL     1      -2.694   3.443  -2.128  1.00  0.00    -0.246 OA
BRANCH   7   9
ATOM      9  O   UNL     1      -4.868   3.945  -1.776  1.00  0.00    -0.478 OA
ATOM     10  H   UNL     1      -5.419   4.417  -1.101  1.00  0.00     0.297 HD
ENDBRANCH   7   9
ENDBRANCH   1   7
BRANCH   2  11
ATOM     11  O   UNL     1      -6.823   3.152  -4.040  1.00  0.00    -0.504 OA
ATOM     12  H   UNL     1      -7.713   3.251  -3.617  1.00  0.00     0.293 HD
ENDBRANCH   2  11
BRANCH   5  13
ATOM     13  O   UNL     1      -6.678   3.505  -6.718  1.00  0.00    -0.493 OA
ATOM     14  C   UNL     1      -7.467   3.915  -7.656  1.00  0.00     0.278 C 
ENDBRANCH   5  13
TORSDOF 4
ENDMDL
MODEL 4
REMARK VINA RESULT:    -4.640      2.215      3.220
REMARK INTER + INTRA:          -5.917
REMARK INTER:                  -5.651
REMARK INTRA:                  -0.266
REMARK UNBOUND:                -0.462
REMARK SMILES COc1cccc(C(=O)O)c1O
REMARK SMILES IDX 7 1 11 2 6 3 5 4 3 5 4 6 8 7 9 8 10 9 12 11 2 13 1 14
REMARK H PARENT 10 10 12 12
ROOT
ATOM      1  C   UNL     1      -3.247   0.798  -5.996  1.00  0.00     0.105 A 
ATOM      2  C   UNL     1      -3.603   1.656  -7.000  1.00  0.00     0.172 A 
ATOM      3  C   UNL     1      -3.642   1.154  -4.621  1.00  0.00     0.020 A 
ATOM      4  C   UNL     1      -4.621   2.081  -4.466  1.00  0.00     0.005 A 
ATOM      5  C   UNL     1      -4.802   2.477  -6.914  1.00  0.00     0.161 A 
ATOM      6  C   UNL     1      -5.229   2.767  -5.558  1.00  0.00     0.050 A 
ENDROOT
BRANCH   1   7
ATOM      7  C   UNL     1      -2.554  -0.542  -6.297  1.00  0.00     0.339 C 
ATOM      8  O   UNL     1      -2.686  -1.469  -4.964  1.00  0.00    -0.246 OA
BRANCH   7   9
ATOM      9  O   UNL     1      -2.123  -1.053  -7.111  1.00  0.00    -0.478 OA
ATOM     10  H   UNL     1      -1.719  -1.534  -7.877  1.00  0.00     0.297 HD
ENDBRANCH   7   9
ENDBRANCH   1   7
BRANCH   2  11
ATOM     11  O   UNL     1      -2.836   1.768  -8.173  1.00  0.00    -0.504 OA
ATOM     12  H   UNL     1      -2.296   1.847  -8.999  1.00  0.00     0.293 HD
ENDBRANCH   2  11
BRANCH   5  13
ATOM     13  O   UNL     1      -5.157   3.154  -8.074  1.00  0.00    -0.493 OA
ATOM     14  C   UNL     1      -5.898   3.584  -9.042  1.00  0.00     0.278 C 
ENDBRANCH   5  13
TORSDOF 4
ENDMDL
MODEL 5
REMARK VINA RESULT:    -4.046      2.087      3.064
REMARK INTER + INTRA:          -5.218
REMARK INTER:                  -4.762
REMARK INTRA:                  -0.456
REMARK UNBOUND:                -0.462
REMARK SMILES COc1cccc(C(=O)O)c1O
REMARK SMILES IDX 7 1 11 2 6 3 5 4 3 5 4 6 8 7 9 8 10 9 12 11 2 13 1 14
REMARK H PARENT 10 10 12 12
ROOT
ATOM      1  C   UNL     1      -3.195   1.011  -5.336  1.00  0.00     0.105 A 
ATOM      2  C   UNL     1      -3.677   1.811  -6.335  1.00  0.00     0.172 A 
ATOM      3  C   UNL     1      -3.214   1.547  -3.962  1.00  0.00     0.020 A 
ATOM      4  C   UNL     1      -4.019   2.612  -3.711  1.00  0.00     0.005 A 
ATOM      5  C   UNL     1      -4.722   2.795  -6.090  1.00  0.00     0.161 A 
ATOM      6  C   UNL     1      -4.784   3.268  -4.720  1.00  0.00     0.050 A 
ENDROOT
BRANCH   1   7
ATOM      7  C   UNL     1      -2.748  -0.435  -5.613  1.00  0.00     0.339 C 
ATOM      8  O   UNL     1      -1.872  -0.418  -6.986  1.00  0.00    -0.246 OA
BRANCH   7   9
ATOM      9  O   UNL     1      -2.758  -1.377  -5.143  1.00  0.00    -0.478 OA
ATOM     10  H   UNL     1      -2.766  -2.263  -4.700  1.00  0.00     0.297 HD
ENDBRANCH   7   9
ENDBRANCH   1   7
BRANCH   2  11
ATOM     11  O   UNL     1      -3.199   1.704  -7.653  1.00  0.00    -0.504 OA
ATOM     12  H   UNL     1      -2.862   1.629  -8.580  1.00  0.00     0.293 HD
ENDBRANCH   2  11
BRANCH   5  13
ATOM     13  O   UNL     1      -5.261   3.401  -7.218  1.00  0.00    -0.493 OA
ATOM     14  C   UNL     1      -6.123   3.697  -8.134  1.00  0.00     0.278 C 
ENDBRANCH   5  13
TORSDOF 4
ENDMDL
MODEL 6
REMARK VINA RESULT:    -4.010      2.159      3.102
REMARK INTER + INTRA:          -5.176
REMARK INTER:                  -4.911
REMARK INTRA:                  -0.265
REMARK UNBOUND:                -0.462
REMARK SMILES COc1cccc(C(=O)O)c1O
REMARK SMILES IDX 7 1 11 2 6 3 5 4 3 5 4 6 8 7 9 8 10 9 12 11 2 13 1 14
REMARK H PARENT 10 10 12 12
ROOT
ATOM      1  C   UNL     1      -3.015   1.697  -6.935  1.00  0.00     0.105 A 
ATOM      2  C   UNL     1      -3.073   2.483  -5.818  1.00  0.00     0.172 A 
ATOM      3  C   UNL     1      -2.774   0.255  -6.745  1.00  0.00     0.020 A 
ATOM      4  C   UNL     1      -2.988  -0.263  -5.507  1.00  0.00     0.005 A 
ATOM      5  C   UNL     1      -3.537   1.962  -4.540  1.00  0.00     0.161 A 
ATOM      6  C   UNL     1      -3.364   0.530  -4.383  1.00  0.00     0.050 A 
ENDROOT
BRANCH   1   7
ATOM      7  C   UNL     1      -3.296   2.272  -8.334  1.00  0.00     0.339 C 
ATOM      8  O   UNL     1      -4.650   3.172  -8.228  1.00  0.00    -0.246 OA
BRANCH   7   9
ATOM      9  O   UNL     1      -2.835   2.334  -9.279  1.00  0.00    -0.478 OA
ATOM     10  H   UNL     1      -2.401   2.392 -10.167  1.00  0.00     0.297 HD
ENDBRANCH   7   9
ENDBRANCH   1   7
BRANCH   2  11
ATOM     11  O   UNL     1      -2.707   3.840  -5.858  1.00  0.00    -0.504 OA
ATOM     12  H   UNL     1      -2.449   4.795  -5.886  1.00  0.00     0.293 HD
ENDBRANCH   2  11
BRANCH   5  13
ATOM     13  O   UNL     1      -3.736   2.903  -3.538  1.00  0.00    -0.493 OA
ATOM     14  C   UNL     1      -4.363   3.641  -2.682  1.00  0.00     0.278 C 
ENDBRANCH   5  13
TORSDOF 4
ENDMDL
MODEL 7
REMARK VINA RESULT:    -3.994      2.383      4.635
REMARK INTER + INTRA:          -5.157
REMARK INTER:                  -4.907
REMARK INTRA:                  -0.250
REMARK UNBOUND:                -0.462
REMARK SMILES COc1cccc(C(=O)O)c1O
REMARK SMILES IDX 7 1 11 2 6 3 5 4 3 5 4 6 8 7 9 8 10 9 12 11 2 13 1 14
REMARK H PARENT 10 10 12 12
ROOT
ATOM      1  C   UNL     1      -5.663   2.588  -4.258  1.00  0.00     0.105 A 
ATOM      2  C   UNL     1      -5.137   1.450  -4.804  1.00  0.00     0.172 A 
ATOM      3  C   UNL     1      -4.863   3.290  -3.238  1.00  0.00     0.020 A 
ATOM      4  C   UNL     1      -3.538   2.999  -3.164  1.00  0.00     0.005 A 
ATOM      5  C   UNL     1      -3.700   1.259  -4.934  1.00  0.00     0.161 A 
ATOM      6  C   UNL     1      -2.910   2.007  -3.973  1.00  0.00     0.050 A 
ENDROOT
BRANCH   1   7
ATOM      7  C   UNL     1      -6.992   3.177  -4.762  1.00  0.00     0.339 C 
ATOM      8  O   UNL     1      -6.925   3.210  -6.389  1.00  0.00    -0.246 OA
BRANCH   7   9
ATOM      9  O   UNL     1      -7.933   3.462  -4.384  1.00  0.00    -0.478 OA
ATOM     10  H   UNL     1      -8.818   3.730  -4.029  1.00  0.00     0.297 HD
ENDBRANCH   7   9
ENDBRANCH   1   7
BRANCH   2  11
ATOM     11  O   UNL     1      -5.963   0.420  -5.285  1.00  0.00    -0.504 OA
ATOM     12  H   UNL     1      -6.545  -0.306  -5.624  1.00  0.00     0.293 HD
ENDBRANCH   2  11
BRANCH   5  13
ATOM     13  O   UNL     1      -3.300   0.157  -5.679  1.00  0.00    -0.493 OA
ATOM     14  C   UNL     1      -2.612  -0.552  -6.512  1.00  0.00     0.278 C 
ENDBRANCH   5  13
TORSDOF 4
ENDMDL
MODEL 8
REMARK VINA RESULT:    -3.966      7.160      8.536
REMARK INTER + INTRA:          -5.124
REMARK INTER:                  -4.900
REMARK INTRA:                  -0.224
REMARK UNBOUND:                -0.462
REMARK SMILES COc1cccc(C(=O)O)c1O
REMARK SMILES IDX 7 1 11 2 6 3 5 4 3 5 4 6 8 7 9 8 10 9 12 11 2 13 1 14
REMARK H PARENT 10 10 12 12
ROOT
ATOM      1  C   UNL     1      -3.829  -3.315   0.890  1.00  0.00     0.105 A 
ATOM      2  C   UNL     1      -2.730  -2.617   0.472  1.00  0.00     0.172 A 
ATOM      3  C   UNL     1      -3.932  -4.731   0.493  1.00  0.00     0.020 A 
ATOM      4  C   UNL     1      -2.801  -5.352   0.069  1.00  0.00     0.005 A 
ATOM      5  C   UNL     1      -1.449  -3.272   0.249  1.00  0.00     0.161 A 
ATOM      6  C   UNL     1      -1.549  -4.684  -0.072  1.00  0.00     0.050 A 
ENDROOT
BRANCH   1   7
ATOM      7  C   UNL     1      -4.870  -2.681   1.830  1.00  0.00     0.339 C 
ATOM      8  O   UNL     1      -4.072  -1.672   2.830  1.00  0.00    -0.246 OA
BRANCH   7   9
ATOM      9  O   UNL     1      -5.915  -2.634   1.946  1.00  0.00    -0.478 OA
ATOM     10  H   UNL     1      -6.898  -2.589   2.056  1.00  0.00     0.297 HD
ENDBRANCH   7   9
ENDBRANCH   1   7
BRANCH   2  11
ATOM     11  O   UNL     1      -2.782  -1.229   0.258  1.00  0.00    -0.504 OA
ATOM     12  H   UNL     1      -2.819  -0.252   0.107  1.00  0.00     0.293 HD
ENDBRANCH   2  11
BRANCH   5  13
ATOM     13  O   UNL     1      -0.369  -2.429   0.019  1.00  0.00    -0.493 OA
ATOM     14  C   UNL     1       0.322  -1.338  -0.028  1.00  0.00     0.278 C 
ENDBRANCH   5  13
TORSDOF 4
ENDMDL
MODEL 9
REMARK VINA RESULT:    -3.895      2.312      4.418
REMARK INTER + INTRA:          -5.041
REMARK INTER:                  -4.611
REMARK INTRA:                  -0.429
REMARK UNBOUND:                -0.462
REMARK SMILES COc1cccc(C(=O)O)c1O
REMARK SMILES IDX 7 1 11 2 6 3 5 4 3 5 4 6 8 7 9 8 10 9 12 11 2 13 1 14
REMARK H PARENT 10 10 12 12
ROOT
ATOM      1  C   UNL     1      -3.574   1.970  -4.569  1.00  0.00     0.105 A 
ATOM      2  C   UNL     1      -3.800   2.396  -5.849  1.00  0.00     0.172 A 
ATOM      3  C   UNL     1      -3.304   0.535  -4.364  1.00  0.00     0.020 A 
ATOM      4  C   UNL     1      -2.934  -0.198  -5.445  1.00  0.00     0.005 A 
ATOM      5  C   UNL     1      -3.194   1.730  -6.993  1.00  0.00     0.161 A 
ATOM      6  C   UNL     1      -2.863   0.336  -6.765  1.00  0.00     0.050 A 
ENDROOT
BRANCH   1   7
ATOM      7  C   UNL     1      -3.499   2.963  -3.396  1.00  0.00     0.339 C 
ATOM      8  O   UNL     1      -4.926   3.746  -3.329  1.00  0.00    -0.246 OA
BRANCH   7   9
ATOM      9  O   UNL     1      -2.860   3.205  -2.596  1.00  0.00    -0.478 OA
ATOM     10  H   UNL     1      -2.258   3.434  -1.843  1.00  0.00     0.297 HD
ENDBRANCH   7   9
ENDBRANCH   1   7
BRANCH   2  11
ATOM     11  O   UNL     1      -4.611   3.512  -6.116  1.00  0.00    -0.504 OA
ATOM     12  H   UNL     1      -5.183   4.298  -6.305  1.00  0.00     0.293 HD
ENDBRANCH   2  11
BRANCH   5  13
ATOM     13  O   UNL     1      -3.339   2.375  -8.215  1.00  0.00    -0.493 OA
ATOM     14  C   UNL     1      -3.361   2.542  -9.496  1.00  0.00     0.278 C 
ENDBRANCH   5  13
TORSDOF 4
ENDMDL
