MODEL 1
REMARK VINA RESULT:    -4.835      0.000      0.000
REMARK INTER + INTRA:          -6.165
REMARK INTER:                  -5.683
REMARK INTRA:                  -0.482
REMARK UNBOUND:                -0.482
REMARK SMILES COc1cccc(C(=O)O)c1O
REMARK SMILES IDX 7 1 11 2 6 3 5 4 3 5 4 6 8 7 9 8 10 9 12 11 2 13 1 14
REMARK H PARENT 10 10 12 12
ROOT
ATOM      1  C   UNL     1      -3.963  -1.246   2.357  1.00  0.00     0.105 A 
ATOM      2  C   UNL     1      -3.807  -2.431   1.692  1.00  0.00     0.172 A 
ATOM      3  C   UNL     1      -4.525  -1.295   3.719  1.00  0.00     0.020 A 
ATOM      4  C   UNL     1      -4.509  -2.489   4.365  1.00  0.00     0.005 A 
ATOM      5  C   UNL     1      -3.551  -3.676   2.402  1.00  0.00     0.161 A 
ATOM      6  C   UNL     1      -4.042  -3.696   3.767  1.00  0.00     0.050 A 
ENDROOT
BRANCH   1   7
ATOM      7  C   UNL     1      -3.474   0.082   1.751  1.00  0.00     0.339 C 
ATOM      8  O   UNL     1      -2.515  -0.284   0.486  1.00  0.00    -0.246 OA
BRANCH   7   9
ATOM      9  O   UNL     1      -3.649   1.116   1.849  1.00  0.00    -0.478 OA
ATOM     10  H   UNL     1      -3.813   2.088   1.941  1.00  0.00     0.297 HD
ENDBRANCH   7   9
ENDBRANCH   1   7
BRANCH   2  11
ATOM     11  O   UNL     1      -3.864  -2.496   0.289  1.00  0.00    -0.504 OA
ATOM     12  H   UNL     1      -3.905  -2.542  -0.699  1.00  0.00     0.293 HD
ENDBRANCH   2  11
BRANCH   5  13
ATOM     13  O   UNL     1      -3.216  -4.767   1.609  1.00  0.00    -0.493 OA
ATOM     14  C   UNL     1      -2.789  -5.946   1.296  1.00  0.00     0.278 C 
ENDBRANCH   5  13
TORSDOF 4
ENDMDL
MODEL 2
REMARK VINA RESULT:    -4.723      2.237      3.241
REMARK INTER + INTRA:          -6.034
REMARK INTER:                  -5.764
REMARK INTRA:                  -0.269
REMARK UNBOUND:                -0.482
REMARK SMILES COc1cccc(C(=O)O)c1O
REMARK SMILES IDX 7 1 11 2 6 3 5 4 3 5 4 6 8 7 9 8 10 9 12 11 2 13 1 14
REMARK H PARENT 10 10 12 12
ROOT
ATOM      1  C   UNL     1      -3.921  -1.515   2.141  1.00  0.00     0.105 A 
ATOM      2  C   UNL     1      -4.888  -1.761   3.077  1.00  0.00     0.172 A 
ATOM      3  C   UNL     1      -3.514  -2.631   1.268  1.00  0.00     0.020 A 
ATOM      4  C   UNL     1      -4.347  -3.701   1.182  1.00  0.00     0.005 A 
ATOM      5  C   UNL     1      -5.924  -2.760   2.859  1.00  0.00     0.161 A 
ATOM      6  C   UNL     1      -5.547  -3.821   1.943  1.00  0.00     0.050 A 
ENDROOT
BRANCH   1   7
ATOM      7  C   UNL     1      -3.351  -0.101   1.932  1.00  0.00     0.339 C 
ATOM      8  O   UNL     1      -2.620  -0.081   0.476  1.00  0.00    -0.246 OA
BRANCH   7   9
ATOM      9  O   UNL     1      -3.379   0.846   2.390  1.00  0.00    -0.478 OA
ATOM     10  H   UNL     1      -3.406   1.738   2.821  1.00  0.00     0.297 HD
ENDBRANCH   7   9
ENDBRANCH   1   7
BRANCH   2  11
ATOM     11  O   UNL     1      -4.937  -1.044   4.284  1.00  0.00    -0.504 OA
ATOM     12  H   UNL     1      -4.972  -0.539   5.135  1.00  0.00     0.293 HD
ENDBRANCH   2  11
BRANCH   5  13
ATOM     13  O   UNL     1      -6.955  -2.776   3.790  1.00  0.00    -0.493 OA
ATOM     14  C   UNL     1      -8.158  -2.845   4.258  1.00  0.00     0.278 C 
ENDBRANCH   5  13
TORSDOF 4
ENDMDL
MODEL 3
REMARK VINA RESULT:    -4.722      3.017      4.432
REMARK INTER + INTRA:          -6.032
REMARK INTER:                  -5.768
REMARK INTRA:                  -0.264
REMARK UNBOUND:                -0.482
REMARK SMILES COc1cccc(C(=O)O)c1O
REMARK SMILES IDX 7 1 11 2 6 3 5 4 3 5 4 6 8 7 9 8 10 9 12 11 2 13 1 14
REMARK H PARENT 10 10 12 12
ROOT
ATOM      1  C   UNL     1      -3.727  -4.605   1.580  1.00  0.00     0.105 A 
ATOM      2  C   UNL     1      -5.091  -4.698   1.524  1.00  0.00     0.172 A 
ATOM      3  C   UNL     1      -3.149  -3.349   2.091  1.00  0.00     0.020 A 
ATOM      4  C   UNL     1      -3.959  -2.525   2.805  1.00  0.00     0.005 A 
ATOM      5  C   UNL     1      -5.944  -3.983   2.463  1.00  0.00     0.161 A 
ATOM      6  C   UNL     1      -5.345  -2.785   3.019  1.00  0.00     0.050 A 
ENDROOT
BRANCH   1   7
ATOM      7  C   UNL     1      -2.828  -5.801   1.223  1.00  0.00     0.339 C 
ATOM      8  O   UNL     1      -1.343  -5.488   1.817  1.00  0.00    -0.246 OA
BRANCH   7   9
ATOM      9  O   UNL     1      -2.910  -6.766   0.812  1.00  0.00    -0.478 OA
ATOM     10  H   UNL     1      -2.988  -7.674   0.424  1.00  0.00     0.297 HD
ENDBRANCH   7   9
ENDBRANCH   1   7
BRANCH   2  11
ATOM     11  O   UNL     1      -5.730  -5.508   0.570  1.00  0.00    -0.504 OA
ATOM     12  H   UNL     1      -6.181  -6.079  -0.102  1.00  0.00     0.293 HD
ENDBRANCH   2  11
BRANCH   5  13
ATOM     13  O   UNL     1      -7.293  -4.315   2.428  1.00  0.00    -0.493 OA
ATOM     14  C   UNL     1      -8.504  -4.491   2.844  1.00  0.00     0.278 C 
ENDBRANCH   5  13
TORSDOF 4
ENDMDL
MODEL 4
REMARK VINA RESULT:    -4.442      1.765      4.414
REMARK INTER + INTRA:          -5.703
REMARK INTER:                  -5.285
REMARK INTRA:                  -0.419
REMARK UNBOUND:                -0.482
REMARK SMILES COc1cccc(C(=O)O)c1O
REMARK SMILES IDX 7 1 11 2 6 3 5 4 3 5 4 6 8 7 9 8 10 9 12 11 2 13 1 14
REMARK H PARENT 10 10 12 12
ROOT
ATOM      1  C   UNL     1      -3.698  -4.559   1.652  1.00  0.00     0.105 A 
ATOM      2  C   UNL     1      -3.387  -3.229   1.737  1.00  0.00     0.172 A 
ATOM      3  C   UNL     1      -5.077  -4.961   1.986  1.00  0.00     0.020 A 
ATOM      4  C   UNL     1      -6.031  -3.995   1.995  1.00  0.00     0.005 A 
ATOM      5  C   UNL     1      -4.386  -2.195   1.506  1.00  0.00     0.161 A 
ATOM      6  C   UNL     1      -5.750  -2.616   1.766  1.00  0.00     0.050 A 
ENDROOT
BRANCH   1   7
ATOM      7  C   UNL     1      -2.681  -5.587   1.128  1.00  0.00     0.339 C 
ATOM      8  O   UNL     1      -1.263  -5.294   1.874  1.00  0.00    -0.246 OA
BRANCH   7   9
ATOM      9  O   UNL     1      -2.658  -6.451   0.527  1.00  0.00    -0.478 OA
ATOM     10  H   UNL     1      -2.635  -7.264  -0.038  1.00  0.00     0.297 HD
ENDBRANCH   7   9
ENDBRANCH   1   7
BRANCH   2  11
ATOM     11  O   UNL     1      -2.081  -2.801   2.030  1.00  0.00    -0.504 OA
ATOM     12  H   UNL     1      -1.161  -2.499   2.237  1.00  0.00     0.293 HD
ENDBRANCH   2  11
BRANCH   5  13
ATOM     13  O   UNL     1      -3.904  -0.895   1.425  1.00  0.00    -0.493 OA
ATOM     14  C   UNL     1      -3.457   0.253   1.815  1.00  0.00     0.278 C 
ENDBRANCH   5  13
TORSDOF 4
ENDMDL
MODEL 5
REMARK VINA RESULT:    -4.103      2.061      3.157
REMARK INTER + INTRA:          -5.304
REMARK INTER:                  -4.842
REMARK INTRA:                  -0.462
REMARK UNBOUND:                -0.482
REMARK SMILES COc1cccc(C(=O)O)c1O
REMARK SMILES IDX 7 1 11 2 6 3 5 4 3 5 4 6 8 7 9 8 10 9 12 11 2 13 1 14
REMARK H PARENT 10 10 12 12
ROOT
ATOM      1  C   UNL     1      -3.494  -1.991   1.911  1.00  0.00     0.105 A 
ATOM      2  C   UNL     1      -4.532  -2.069   2.799  1.00  0.00     0.172 A 
ATOM      3  C   UNL     1      -2.904  -3.257   1.437  1.00  0.00     0.020 A 
ATOM      4  C   UNL     1      -3.630  -4.393   1.602  1.00  0.00     0.005 A 
ATOM      5  C   UNL     1      -5.452  -3.197   2.801  1.00  0.00     0.161 A 
ATOM      6  C   UNL     1      -4.891  -4.425   2.267  1.00  0.00     0.050 A 
ENDROOT
BRANCH   1   7
ATOM      7  C   UNL     1      -3.024  -0.640   1.345  1.00  0.00     0.339 C 
ATOM      8  O   UNL     1      -2.955   0.411   2.587  1.00  0.00    -0.246 OA
BRANCH   7   9
ATOM      9  O   UNL     1      -2.655  -0.238   0.445  1.00  0.00    -0.478 OA
ATOM     10  H   UNL     1      -2.307   0.141  -0.402  1.00  0.00     0.297 HD
ENDBRANCH   7   9
ENDBRANCH   1   7
BRANCH   2  11
ATOM     11  O   UNL     1      -4.770  -1.050   3.737  1.00  0.00    -0.504 OA
ATOM     12  H   UNL     1      -4.938  -0.332   4.397  1.00  0.00     0.293 HD
ENDBRANCH   2  11
BRANCH   5  13
ATOM     13  O   UNL     1      -6.572  -3.064   3.611  1.00  0.00    -0.493 OA
ATOM     14  C   UNL     1      -7.799  -2.834   3.947  1.00  0.00     0.278 C 
ENDBRANCH   5  13
TORSDOF 4
ENDMDL
MODEL 6
REMARK VINA RESULT:    -4.033      2.253      4.631
REMARK INTER + INTRA:          -5.223
REMARK INTER:                  -4.973
REMARK INTRA:                  -0.250
REMARK UNBOUND:                -0.482
REMARK SMILES COc1cccc(C(=O)O)c1O
REMARK SMILES IDX 7 1 11 2 6 3 5 4 3 5 4 6 8 7 9 8 10 9 12 11 2 13 1 14
REMARK H PARENT 10 10 12 12
ROOT
ATOM      1  C   UNL     1      -4.862  -4.625   0.995  1.00  0.00     0.105 A 
ATOM      2  C   UNL     1      -4.687  -3.273   0.881  1.00  0.00     0.172 A 
ATOM      3  C   UNL     1      -3.668  -5.449   1.257  1.00  0.00     0.020 A 
ATOM      4  C   UNL     1      -2.560  -4.822   1.728  1.00  0.00     0.005 A 
ATOM      5  C   UNL     1      -3.624  -2.578   1.592  1.00  0.00     0.161 A 
ATOM      6  C   UNL     1      -2.479  -3.410   1.913  1.00  0.00     0.050 A 
ENDROOT
BRANCH   1   7
ATOM      7  C   UNL     1      -6.265  -5.257   0.956  1.00  0.00     0.339 C 
ATOM      8  O   UNL     1      -7.215  -4.394   1.960  1.00  0.00    -0.246 OA
BRANCH   7   9
ATOM      9  O   UNL     1      -6.795  -5.991   0.419  1.00  0.00    -0.478 OA
ATOM     10  H   UNL     1      -7.293  -6.681  -0.087  1.00  0.00     0.297 HD
ENDBRANCH   7   9
ENDBRANCH   1   7
BRANCH   2  11
ATOM     11  O   UNL     1      -5.542  -2.489   0.088  1.00  0.00    -0.504 OA
ATOM     12  H   UNL     1      -6.144  -1.936  -0.471  1.00  0.00     0.293 HD
ENDBRANCH   2  11
BRANCH   5  13
ATOM     13  O   UNL     1      -3.674  -1.191   1.552  1.00  0.00    -0.493 OA
ATOM     14  C   UNL     1      -3.510   0.035   1.928  1.00  0.00     0.278 C 
ENDBRANCH   5  13
TORSDOF 4
ENDMDL
MODEL 7
REMARK VINA RESULT:    -3.977      2.070      2.851
REMARK INTER + INTRA:          -5.156
REMARK INTER:                  -4.726
REMARK INTRA:                  -0.430
REMARK UNBOUND:                -0.482
REMARK SMILES COc1cccc(C(=O)O)c1O
REMARK SMILES IDX 7 1 11 2 6 3 5 4 3 5 4 6 8 7 9 8 10 9 12 11 2 13 1 14
REMARK H PARENT 10 10 12 12
ROOT
ATOM      1  C   UNL     1      -3.543  -2.638   1.604  1.00  0.00     0.105 A 
ATOM      2  C   UNL     1      -4.766  -3.249   1.558  1.00  0.00     0.172 A 
ATOM      3  C   UNL     1      -2.363  -3.488   1.847  1.00  0.00     0.020 A 
ATOM      4  C   UNL     1      -2.495  -4.824   1.647  1.00  0.00     0.005 A 
ATOM      5  C   UNL     1      -4.915  -4.626   1.107  1.00  0.00     0.161 A 
ATOM      6  C   UNL     1      -3.728  -5.442   1.282  1.00  0.00     0.050 A 
ENDROOT
BRANCH   1   7
ATOM      7  C   UNL     1      -3.388  -1.136   1.309  1.00  0.00     0.339 C 
ATOM      8  O   UNL     1      -4.298  -0.330   2.393  1.00  0.00    -0.246 OA
BRANCH   7   9
ATOM      9  O   UNL     1      -2.812  -0.498   0.701  1.00  0.00    -0.478 OA
ATOM     10  H   UNL     1      -2.271   0.102   0.129  1.00  0.00     0.297 HD
ENDBRANCH   7   9
ENDBRANCH   1   7
BRANCH   2  11
ATOM     11  O   UNL     1      -5.939  -2.567   1.923  1.00  0.00    -0.504 OA
ATOM     12  H   UNL     1      -6.766  -2.087   2.180  1.00  0.00     0.293 HD
ENDBRANCH   2  11
BRANCH   5  13
ATOM     13  O   UNL     1      -6.220  -5.063   0.918  1.00  0.00    -0.493 OA
ATOM     14  C   UNL     1      -7.227  -5.872   0.868  1.00  0.00     0.278 C 
ENDBRANCH   5  13
TORSDOF 4
ENDMDL
MODEL 8
REMARK VINA RESULT:    -3.971      2.194      3.122
REMARK INTER + INTRA:          -5.149
REMARK INTER:                  -4.944
REMARK INTRA:                  -0.205
REMARK UNBOUND:                -0.482
REMARK SMILES COc1cccc(C(=O)O)c1O
REMARK SMILES IDX 7 1 11 2 6 3 5 4 3 5 4 6 8 7 9 8 10 9 12 11 2 13 1 14
REMARK H PARENT 10 10 12 12
ROOT
ATOM      1  C   UNL     1      -4.438  -1.654   3.417  1.00  0.00     0.105 A 
ATOM      2  C   UNL     1      -3.978  -2.926   3.213  1.00  0.00     0.172 A 
ATOM      3  C   UNL     1      -3.952  -0.598   2.510  1.00  0.00     0.020 A 
ATOM      4  C   UNL     1      -3.392  -0.984   1.334  1.00  0.00     0.005 A 
ATOM      5  C   UNL     1      -3.603  -3.399   1.888  1.00  0.00     0.161 A 
ATOM      6  C   UNL     1      -3.193  -2.349   0.974  1.00  0.00     0.050 A 
ENDROOT
BRANCH   1   7
ATOM      7  C   UNL     1      -5.503  -1.350   4.484  1.00  0.00     0.339 C 
ATOM      8  O   UNL     1      -6.802  -2.276   4.154  1.00  0.00    -0.246 OA
BRANCH   7   9
ATOM      9  O   UNL     1      -5.600  -0.814   5.386  1.00  0.00    -0.478 OA
ATOM     10  H   UNL     1      -5.690  -0.310   6.233  1.00  0.00     0.297 HD
ENDBRANCH   7   9
ENDBRANCH   1   7
BRANCH   2  11
ATOM     11  O   UNL     1      -3.867  -3.842   4.273  1.00  0.00    -0.504 OA
ATOM     12  H   UNL     1      -3.788  -4.488   5.020  1.00  0.00     0.293 HD
ENDBRANCH   2  11
BRANCH   5  13
ATOM     13  O   UNL     1      -3.342  -4.760   1.783  1.00  0.00    -0.493 OA
ATOM     14  C   UNL     1      -2.784  -5.855   1.383  1.00  0.00     0.278 C 
ENDBRANCH   5  13
TORSDOF 4
ENDMDL
MODEL 9
REMARK VINA RESULT:    -3.429     12.688     14.563
REMARK INTER + INTRA:          -4.512
REMARK INTER:                  -4.314
REMARK INTRA:                  -0.198
REMARK UNBOUND:                -0.482
REMARK SMILES COc1cccc(C(=O)O)c1O
REMARK SMILES IDX 7 1 11 2 6 3 5 4 3 5 4 6 8 7 9 8 10 9 12 11 2 13 1 14
REMARK H PARENT 10 10 12 12
ROOT
ATOM      1  C   UNL     1     -10.940 -10.600  11.654  1.00  0.00     0.105 A 
ATOM      2  C   UNL     1     -11.106  -9.582  10.755  1.00  0.00     0.172 A 
ATOM      3  C   UNL     1     -11.996 -10.801  12.663  1.00  0.00     0.020 A 
ATOM      4  C   UNL     1     -13.208 -10.234  12.430  1.00  0.00     0.005 A 
ATOM      5  C   UNL     1     -12.430  -9.144  10.334  1.00  0.00     0.161 A 
ATOM      6  C   UNL     1     -13.480  -9.408  11.300  1.00  0.00     0.050 A 
ENDROOT
BRANCH   1   7
ATOM      7  C   UNL     1      -9.749 -11.569  11.553  1.00  0.00     0.339 C 
ATOM      8  O   UNL     1     -10.096 -12.648  10.383  1.00  0.00    -0.246 OA
BRANCH   7   9
ATOM      9  O   UNL     1      -8.773 -11.676  11.934  1.00  0.00    -0.478 OA
ATOM     10  H   UNL     1      -7.856 -11.777  12.292  1.00  0.00     0.297 HD
ENDBRANCH   7   9
ENDBRANCH   1   7
BRANCH   2  11
ATOM     11  O   UNL     1     -10.004  -8.926  10.181  1.00  0.00    -0.504 OA
ATOM     12  H   UNL     1      -9.228  -8.464   9.776  1.00  0.00     0.293 HD
ENDBRANCH   2  11
BRANCH   5  13
ATOM     13  O   UNL     1     -12.461  -8.244   9.277  1.00  0.00    -0.493 OA
ATOM     14  C   UNL     1     -12.777  -7.192   8.596  1.00  0.00     0.278 C 
ENDBRANCH   5  13
TORSDOF 4
ENDMDL
