MODEL 1
REMARK VINA RESULT:    -4.923      0.000      0.000
REMARK INTER + INTRA:          -6.057
REMARK INTER:                  -5.787
REMARK INTRA:                  -0.270
REMARK UNBOUND:                -0.270
REMARK SMILES COc1cccc(C(=O)O)c1O
REMARK SMILES IDX 7 1 11 2 6 3 5 4 3 5 4 6 8 7 9 8 10 9 12 11 2 13 1 14
REMARK H PARENT 10 10 12 12
ROOT
ATOM      1  C   UNL     1       0.414   0.467   6.175  1.00  0.00     0.105 A 
ATOM      2  C   UNL     1       0.807   0.144   7.445  1.00  0.00     0.172 A 
ATOM      3  C   UNL     1      -0.466  -0.483   5.469  1.00  0.00     0.020 A 
ATOM      4  C   UNL     1      -1.121  -1.409   6.215  1.00  0.00     0.005 A 
ATOM      5  C   UNL     1      -0.030  -0.663   8.321  1.00  0.00     0.161 A 
ATOM      6  C   UNL     1      -0.946  -1.546   7.623  1.00  0.00     0.050 A 
ENDROOT
BRANCH   1   7
ATOM      7  C   UNL     1       0.786   1.819   5.542  1.00  0.00     0.339 C 
ATOM      8  O   UNL     1      -0.257   2.088   4.320  1.00  0.00    -0.246 OA
BRANCH   7   9
ATOM      9  O   UNL     1       1.428   2.634   5.721  1.00  0.00    -0.478 OA
ATOM     10  H   UNL     1       2.032   3.401   5.889  1.00  0.00     0.297 HD
ENDBRANCH   7   9
ENDBRANCH   1   7
BRANCH   2  11
ATOM     11  O   UNL     1       2.030   0.595   7.969  1.00  0.00    -0.504 OA
ATOM     12  H   UNL     1       2.892   0.914   8.339  1.00  0.00     0.293 HD
ENDBRANCH   2  11
BRANCH   5  13
ATOM     13  O   UNL     1       0.388  -0.754   9.643  1.00  0.00    -0.493 OA
ATOM     14  C   UNL     1       0.324  -0.735  10.933  1.00  0.00     0.278 C 
ENDBRANCH   5  13
TORSDOF 4
ENDMDL
MODEL 2
REMARK VINA RESULT:    -4.906      2.975      4.434
REMARK INTER + INTRA:          -6.037
REMARK INTER:                  -5.551
REMARK INTRA:                  -0.486
REMARK UNBOUND:                -0.270
REMARK SMILES COc1cccc(C(=O)O)c1O
REMARK SMILES IDX 7 1 11 2 6 3 5 4 3 5 4 6 8 7 9 8 10 9 12 11 2 13 1 14
REMARK H PARENT 10 10 12 12
ROOT
ATOM      1  C   UNL     1      -1.064  -2.563   5.810  1.00  0.00     0.105 A 
ATOM      2  C   UNL     1      -0.249  -1.471   5.689  1.00  0.00     0.172 A 
ATOM      3  C   UNL     1      -2.178  -2.482   6.773  1.00  0.00     0.020 A 
ATOM      4  C   UNL     1      -2.553  -1.249   7.201  1.00  0.00     0.005 A 
ATOM      5  C   UNL     1      -0.741  -0.121   5.925  1.00  0.00     0.161 A 
ATOM      6  C   UNL     1      -1.883  -0.050   6.818  1.00  0.00     0.050 A 
ENDROOT
BRANCH   1   7
ATOM      7  C   UNL     1      -0.895  -3.792   4.901  1.00  0.00     0.339 C 
ATOM      8  O   UNL     1       0.083  -3.359   3.672  1.00  0.00    -0.246 OA
BRANCH   7   9
ATOM      9  O   UNL     1      -1.135  -4.818   4.892  1.00  0.00    -0.478 OA
ATOM     10  H   UNL     1      -1.361  -5.782   4.884  1.00  0.00     0.297 HD
ENDBRANCH   7   9
ENDBRANCH   1   7
BRANCH   2  11
ATOM     11  O   UNL     1       1.098  -1.602   5.310  1.00  0.00    -0.504 OA
ATOM     12  H   UNL     1       2.047  -1.694   5.043  1.00  0.00     0.293 HD
ENDBRANCH   2  11
BRANCH   5  13
ATOM     13  O   UNL     1       0.125   0.908   5.579  1.00  0.00    -0.493 OA
ATOM     14  C   UNL     1       0.743   2.041   5.649  1.00  0.00     0.278 C 
ENDBRANCH   5  13
TORSDOF 4
ENDMDL
MODEL 3
REMARK VINA RESULT:    -4.902      3.200      4.148
REMARK INTER + INTRA:          -6.032
REMARK INTER:                  -5.763
REMARK INTRA:                  -0.269
REMARK UNBOUND:                -0.270
REMARK SMILES COc1cccc(C(=O)O)c1O
REMARK SMILES IDX 7 1 11 2 6 3 5 4 3 5 4 6 8 7 9 8 10 9 12 11 2 13 1 14
REMARK H PARENT 10 10 12 12
ROOT
ATOM      1  C   UNL     1      -0.896  -2.454   5.790  1.00  0.00     0.105 A 
ATOM      2  C   UNL     1      -1.492  -2.414   7.021  1.00  0.00     0.172 A 
ATOM      3  C   UNL     1       0.096  -1.409   5.476  1.00  0.00     0.020 A 
ATOM      4  C   UNL     1       0.625  -0.709   6.512  1.00  0.00     0.005 A 
ATOM      5  C   UNL     1      -0.806  -1.868   8.184  1.00  0.00     0.161 A 
ATOM      6  C   UNL     1       0.219  -0.892   7.867  1.00  0.00     0.050 A 
ENDROOT
BRANCH   1   7
ATOM      7  C   UNL     1      -1.167  -3.606   4.807  1.00  0.00     0.339 C 
ATOM      8  O   UNL     1       0.061  -3.633   3.737  1.00  0.00    -0.246 OA
BRANCH   7   9
ATOM      9  O   UNL     1      -1.834  -4.412   4.687  1.00  0.00    -0.478 OA
ATOM     10  H   UNL     1      -2.462  -5.170   4.574  1.00  0.00     0.297 HD
ENDBRANCH   7   9
ENDBRANCH   1   7
BRANCH   2  11
ATOM     11  O   UNL     1      -2.788  -2.917   7.223  1.00  0.00    -0.504 OA
ATOM     12  H   UNL     1      -3.702  -3.272   7.365  1.00  0.00     0.293 HD
ENDBRANCH   2  11
BRANCH   5  13
ATOM     13  O   UNL     1      -1.437  -2.064   9.406  1.00  0.00    -0.493 OA
ATOM     14  C   UNL     1      -1.579  -2.208  10.682  1.00  0.00     0.278 C 
ENDBRANCH   5  13
TORSDOF 4
ENDMDL
MODEL 4
REMARK VINA RESULT:    -4.721      1.982      3.171
REMARK INTER + INTRA:          -5.819
REMARK INTER:                  -5.407
REMARK INTRA:                  -0.412
REMARK UNBOUND:                -0.270
REMARK SMILES COc1cccc(C(=O)O)c1O
REMARK SMILES IDX 7 1 11 2 6 3 5 4 3 5 4 6 8 7 9 8 10 9 12 11 2 13 1 14
REMARK H PARENT 10 10 12 12
ROOT
ATOM      1  C   UNL     1      -0.208   0.688   6.108  1.00  0.00     0.105 A 
ATOM      2  C   UNL     1      -0.418  -0.490   5.446  1.00  0.00     0.172 A 
ATOM      3  C   UNL     1      -0.683   0.785   7.500  1.00  0.00     0.020 A 
ATOM      4  C   UNL     1      -0.957  -0.373   8.155  1.00  0.00     0.005 A 
ATOM      5  C   UNL     1      -0.472  -1.763   6.151  1.00  0.00     0.161 A 
ATOM      6  C   UNL     1      -0.872  -1.657   7.542  1.00  0.00     0.050 A 
ENDROOT
BRANCH   1   7
ATOM      7  C   UNL     1       0.589   1.836   5.464  1.00  0.00     0.339 C 
ATOM      8  O   UNL     1      -0.216   2.297   4.125  1.00  0.00    -0.246 OA
BRANCH   7   9
ATOM      9  O   UNL     1       1.415   2.453   5.680  1.00  0.00    -0.478 OA
ATOM     10  H   UNL     1       2.191   3.033   5.883  1.00  0.00     0.297 HD
ENDBRANCH   7   9
ENDBRANCH   1   7
BRANCH   2  11
ATOM     11  O   UNL     1      -0.572  -0.527   4.049  1.00  0.00    -0.504 OA
ATOM     12  H   UNL     1      -0.679  -0.554   3.065  1.00  0.00     0.293 HD
ENDBRANCH   2  11
BRANCH   5  13
ATOM     13  O   UNL     1      -0.492  -2.898   5.350  1.00  0.00    -0.493 OA
ATOM     14  C   UNL     1      -0.958  -3.940   4.744  1.00  0.00     0.278 C 
ENDBRANCH   5  13
TORSDOF 4
ENDMDL
MODEL 5
REMARK VINA RESULT:    -4.330      0.656      1.119
REMARK INTER + INTRA:          -5.359
REMARK INTER:                  -4.892
REMARK INTRA:                  -0.467
REMARK UNBOUND:                -0.270
REMARK SMILES COc1cccc(C(=O)O)c1O
REMARK SMILES IDX 7 1 11 2 6 3 5 4 3 5 4 6 8 7 9 8 10 9 12 11 2 13 1 14
REMARK H PARENT 10 10 12 12
ROOT
ATOM      1  C   UNL     1       0.148   0.030   5.743  1.00  0.00     0.105 A 
ATOM      2  C   UNL     1       0.520  -0.118   7.051  1.00  0.00     0.172 A 
ATOM      3  C   UNL     1      -0.404  -1.149   5.052  1.00  0.00     0.020 A 
ATOM      4  C   UNL     1      -0.850  -2.178   5.818  1.00  0.00     0.005 A 
ATOM      5  C   UNL     1      -0.140  -1.073   7.930  1.00  0.00     0.161 A 
ATOM      6  C   UNL     1      -0.745  -2.197   7.240  1.00  0.00     0.050 A 
ENDROOT
BRANCH   1   7
ATOM      7  C   UNL     1       0.203   1.400   5.046  1.00  0.00     0.339 C 
ATOM      8  O   UNL     1       1.624   2.092   5.442  1.00  0.00    -0.246 OA
BRANCH   7   9
ATOM      9  O   UNL     1      -0.341   1.957   4.337  1.00  0.00    -0.478 OA
ATOM     10  H   UNL     1      -0.853   2.481   3.670  1.00  0.00     0.297 HD
ENDBRANCH   7   9
ENDBRANCH   1   7
BRANCH   2  11
ATOM     11  O   UNL     1       1.545   0.663   7.613  1.00  0.00    -0.504 OA
ATOM     12  H   UNL     1       2.267   1.213   8.009  1.00  0.00     0.293 HD
ENDBRANCH   2  11
BRANCH   5  13
ATOM     13  O   UNL     1       0.193  -0.987   9.276  1.00  0.00    -0.493 OA
ATOM     14  C   UNL     1       0.045  -0.808  10.547  1.00  0.00     0.278 C 
ENDBRANCH   5  13
TORSDOF 4
ENDMDL
MODEL 6
REMARK VINA RESULT:    -4.184      8.296      9.437
REMARK INTER + INTRA:          -5.187
REMARK INTER:                  -4.913
REMARK INTRA:                  -0.275
REMARK UNBOUND:                -0.270
REMARK SMILES COc1cccc(C(=O)O)c1O
REMARK SMILES IDX 7 1 11 2 6 3 5 4 3 5 4 6 8 7 9 8 10 9 12 11 2 13 1 14
REMARK H PARENT 10 10 12 12
ROOT
ATOM      1  C   UNL     1      -4.267   0.839  -0.472  1.00  0.00     0.105 A 
ATOM      2  C   UNL     1      -2.932   0.548  -0.403  1.00  0.00     0.172 A 
ATOM      3  C   UNL     1      -4.652   2.259  -0.575  1.00  0.00     0.020 A 
ATOM      4  C   UNL     1      -3.699   3.145  -0.960  1.00  0.00     0.005 A 
ATOM      5  C   UNL     1      -1.932   1.397  -1.034  1.00  0.00     0.161 A 
ATOM      6  C   UNL     1      -2.341   2.779  -1.199  1.00  0.00     0.050 A 
ENDROOT
BRANCH   1   7
ATOM      7  C   UNL     1      -5.326  -0.274  -0.547  1.00  0.00     0.339 C 
ATOM      8  O   UNL     1      -4.665  -1.520  -1.363  1.00  0.00    -0.246 OA
BRANCH   7   9
ATOM      9  O   UNL     1      -6.278  -0.497  -0.157  1.00  0.00    -0.478 OA
ATOM     10  H   UNL     1      -7.173  -0.707   0.210  1.00  0.00     0.297 HD
ENDBRANCH   7   9
ENDBRANCH   1   7
BRANCH   2  11
ATOM     11  O   UNL     1      -2.467  -0.598   0.264  1.00  0.00    -0.504 OA
ATOM     12  H   UNL     1      -2.139  -1.406   0.733  1.00  0.00     0.293 HD
ENDBRANCH   2  11
BRANCH   5  13
ATOM     13  O   UNL     1      -0.638   0.891  -1.062  1.00  0.00    -0.493 OA
ATOM     14  C   UNL     1       0.318   0.023  -1.119  1.00  0.00     0.278 C 
ENDBRANCH   5  13
TORSDOF 4
ENDMDL
MODEL 7
REMARK VINA RESULT:    -4.151      7.912      9.003
REMARK INTER + INTRA:          -5.149
REMARK INTER:                  -4.850
REMARK INTRA:                  -0.298
REMARK UNBOUND:                -0.270
REMARK SMILES COc1cccc(C(=O)O)c1O
REMARK SMILES IDX 7 1 11 2 6 3 5 4 3 5 4 6 8 7 9 8 10 9 12 11 2 13 1 14
REMARK H PARENT 10 10 12 12
ROOT
ATOM      1  C   UNL     1      -3.770   2.054  -1.151  1.00  0.00     0.105 A 
ATOM      2  C   UNL     1      -2.593   1.357  -1.147  1.00  0.00     0.172 A 
ATOM      3  C   UNL     1      -5.023   1.278  -1.111  1.00  0.00     0.020 A 
ATOM      4  C   UNL     1      -4.951  -0.017  -0.709  1.00  0.00     0.005 A 
ATOM      5  C   UNL     1      -2.475   0.060  -0.497  1.00  0.00     0.161 A 
ATOM      6  C   UNL     1      -3.724  -0.671  -0.395  1.00  0.00     0.050 A 
ENDROOT
BRANCH   1   7
ATOM      7  C   UNL     1      -3.791   3.591  -1.091  1.00  0.00     0.339 C 
ATOM      8  O   UNL     1      -2.453   4.065  -0.291  1.00  0.00    -0.246 OA
BRANCH   7   9
ATOM      9  O   UNL     1      -4.341   4.397  -1.484  1.00  0.00    -0.478 OA
ATOM     10  H   UNL     1      -4.859   5.156  -1.854  1.00  0.00     0.297 HD
ENDBRANCH   7   9
ENDBRANCH   1   7
BRANCH   2  11
ATOM     11  O   UNL     1      -1.436   1.874  -1.755  1.00  0.00    -0.504 OA
ATOM     12  H   UNL     1      -0.620   2.237  -2.183  1.00  0.00     0.293 HD
ENDBRANCH   2  11
BRANCH   5  13
ATOM     13  O   UNL     1      -1.187  -0.450  -0.392  1.00  0.00    -0.493 OA
ATOM     14  C   UNL     1       0.099  -0.465  -0.267  1.00  0.00     0.278 C 
ENDBRANCH   5  13
TORSDOF 4
ENDMDL
MODEL 8
REMARK VINA RESULT:    -4.124      2.291      3.845
REMARK INTER + INTRA:          -5.117
REMARK INTER:                  -4.914
REMARK INTRA:                  -0.203
REMARK UNBOUND:                -0.270
REMARK SMILES COc1cccc(C(=O)O)c1O
REMARK SMILES IDX 7 1 11 2 6 3 5 4 3 5 4 6 8 7 9 8 10 9 12 11 2 13 1 14
REMARK H PARENT 10 10 12 12
ROOT
ATOM      1  C   UNL     1       1.208   0.071   7.097  1.00  0.00     0.105 A 
ATOM      2  C   UNL     1       0.958  -1.170   6.578  1.00  0.00     0.172 A 
ATOM      3  C   UNL     1       0.836   1.241   6.280  1.00  0.00     0.020 A 
ATOM      4  C   UNL     1      -0.043   1.046   5.263  1.00  0.00     0.005 A 
ATOM      5  C   UNL     1      -0.150  -1.406   5.663  1.00  0.00     0.161 A 
ATOM      6  C   UNL     1      -0.562  -0.235   4.912  1.00  0.00     0.050 A 
ENDROOT
BRANCH   1   7
ATOM      7  C   UNL     1       1.760   0.246   8.522  1.00  0.00     0.339 C 
ATOM      8  O   UNL     1       0.701  -0.452   9.544  1.00  0.00    -0.246 OA
BRANCH   7   9
ATOM      9  O   UNL     1       2.634   0.583   9.003  1.00  0.00    -0.478 OA
ATOM     10  H   UNL     1       3.455   0.901   9.456  1.00  0.00     0.297 HD
ENDBRANCH   7   9
ENDBRANCH   1   7
BRANCH   2  11
ATOM     11  O   UNL     1       1.747  -2.280   6.924  1.00  0.00    -0.504 OA
ATOM     12  H   UNL     1       2.303  -3.063   7.167  1.00  0.00     0.293 HD
ENDBRANCH   2  11
BRANCH   5  13
ATOM     13  O   UNL     1      -0.417  -2.736   5.366  1.00  0.00    -0.493 OA
ATOM     14  C   UNL     1      -1.049  -3.769   4.915  1.00  0.00     0.278 C 
ENDBRANCH   5  13
TORSDOF 4
ENDMDL
MODEL 9
REMARK VINA RESULT:    -4.109      2.371      4.742
REMARK INTER + INTRA:          -5.100
REMARK INTER:                  -4.816
REMARK INTRA:                  -0.284
REMARK UNBOUND:                -0.270
REMARK SMILES COc1cccc(C(=O)O)c1O
REMARK SMILES IDX 7 1 11 2 6 3 5 4 3 5 4 6 8 7 9 8 10 9 12 11 2 13 1 14
REMARK H PARENT 10 10 12 12
ROOT
ATOM      1  C   UNL     1      -1.861  -2.320   6.556  1.00  0.00     0.105 A 
ATOM      2  C   UNL     1      -1.555  -1.001   6.358  1.00  0.00     0.172 A 
ATOM      3  C   UNL     1      -1.370  -3.292   5.563  1.00  0.00     0.020 A 
ATOM      4  C   UNL     1      -0.363  -2.900   4.740  1.00  0.00     0.005 A 
ATOM      5  C   UNL     1      -0.336  -0.595   5.673  1.00  0.00     0.161 A 
ATOM      6  C   UNL     1       0.186  -1.584   4.748  1.00  0.00     0.050 A 
ENDROOT
BRANCH   1   7
ATOM      7  C   UNL     1      -2.600  -2.788   7.821  1.00  0.00     0.339 C 
ATOM      8  O   UNL     1      -1.903  -2.048   9.094  1.00  0.00    -0.246 OA
BRANCH   7   9
ATOM      9  O   UNL     1      -3.452  -3.347   8.087  1.00  0.00    -0.478 OA
ATOM     10  H   UNL     1      -4.254  -3.872   8.337  1.00  0.00     0.297 HD
ENDBRANCH   7   9
ENDBRANCH   1   7
BRANCH   2  11
ATOM     11  O   UNL     1      -2.395   0.023   6.827  1.00  0.00    -0.504 OA
ATOM     12  H   UNL     1      -2.987   0.745   7.158  1.00  0.00     0.293 HD
ENDBRANCH   2  11
BRANCH   5  13
ATOM     13  O   UNL     1      -0.044   0.763   5.711  1.00  0.00    -0.493 OA
ATOM     14  C   UNL     1       0.659   1.845   5.768  1.00  0.00     0.278 C 
ENDBRANCH   5  13
TORSDOF 4
ENDMDL
