MODEL 1
REMARK VINA RESULT:    -4.962      0.000      0.000
REMARK INTER + INTRA:          -6.287
REMARK INTER:                  -5.832
REMARK INTRA:                  -0.455
REMARK UNBOUND:                -0.455
REMARK SMILES COc1cccc(C(=O)O)c1O
REMARK SMILES IDX 7 1 11 2 6 3 5 4 3 5 4 6 8 7 9 8 10 9 12 11 2 13 1 14
REMARK H PARENT 10 10 12 12
ROOT
ATOM      1  C   UNL     1      -1.903   2.899   5.879  1.00  0.00     0.105 A 
ATOM      2  C   UNL     1      -2.902   2.478   5.044  1.00  0.00     0.172 A 
ATOM      3  C   UNL     1      -1.948   2.445   7.281  1.00  0.00     0.020 A 
ATOM      4  C   UNL     1      -2.731   1.375   7.573  1.00  0.00     0.005 A 
ATOM      5  C   UNL     1      -3.574   1.202   5.239  1.00  0.00     0.161 A 
ATOM      6  C   UNL     1      -3.555   0.722   6.609  1.00  0.00     0.050 A 
ENDROOT
BRANCH   1   7
ATOM      7  C   UNL     1      -0.718   3.728   5.355  1.00  0.00     0.339 C 
ATOM      8  O   UNL     1      -0.740   3.636   3.728  1.00  0.00    -0.246 OA
BRANCH   7   9
ATOM      9  O   UNL     1       0.015   4.391   5.719  1.00  0.00    -0.478 OA
ATOM     10  H   UNL     1       0.704   5.015   6.060  1.00  0.00     0.297 HD
ENDBRANCH   7   9
ENDBRANCH   1   7
BRANCH   2  11
ATOM     11  O   UNL     1      -3.310   3.252   3.944  1.00  0.00    -0.504 OA
ATOM     12  H   UNL     1      -3.598   3.797   3.169  1.00  0.00     0.293 HD
ENDBRANCH   2  11
BRANCH   5  13
ATOM     13  O   UNL     1      -4.425   0.803   4.217  1.00  0.00    -0.493 OA
ATOM     14  C   UNL     1      -5.511   0.688   3.525  1.00  0.00     0.278 C 
ENDBRANCH   5  13
TORSDOF 4
ENDMDL
MODEL 2
REMARK VINA RESULT:    -4.942      1.786      4.616
REMARK INTER + INTRA:          -6.264
REMARK INTER:                  -5.838
REMARK INTRA:                  -0.426
REMARK UNBOUND:                -0.455
REMARK SMILES COc1cccc(C(=O)O)c1O
REMARK SMILES IDX 7 1 11 2 6 3 5 4 3 5 4 6 8 7 9 8 10 9 12 11 2 13 1 14
REMARK H PARENT 10 10 12 12
ROOT
ATOM      1  C   UNL     1      -4.852   1.875   4.492  1.00  0.00     0.105 A 
ATOM      2  C   UNL     1      -3.545   2.137   4.798  1.00  0.00     0.172 A 
ATOM      3  C   UNL     1      -5.854   2.899   4.839  1.00  0.00     0.020 A 
ATOM      4  C   UNL     1      -5.409   4.158   5.091  1.00  0.00     0.005 A 
ATOM      5  C   UNL     1      -3.026   3.497   4.829  1.00  0.00     0.161 A 
ATOM      6  C   UNL     1      -4.028   4.511   5.100  1.00  0.00     0.050 A 
ENDROOT
BRANCH   1   7
ATOM      7  C   UNL     1      -5.255   0.607   3.720  1.00  0.00     0.339 C 
ATOM      8  O   UNL     1      -3.895  -0.035   3.095  1.00  0.00    -0.246 OA
BRANCH   7   9
ATOM      9  O   UNL     1      -6.103   0.002   3.565  1.00  0.00    -0.478 OA
ATOM     10  H   UNL     1      -6.900  -0.567   3.420  1.00  0.00     0.297 HD
ENDBRANCH   7   9
ENDBRANCH   1   7
BRANCH   2  11
ATOM     11  O   UNL     1      -2.637   1.101   5.075  1.00  0.00    -0.504 OA
ATOM     12  H   UNL     1      -1.997   0.371   5.270  1.00  0.00     0.293 HD
ENDBRANCH   2  11
BRANCH   5  13
ATOM     13  O   UNL     1      -1.648   3.616   4.955  1.00  0.00    -0.493 OA
ATOM     14  C   UNL     1      -0.480   3.597   5.509  1.00  0.00     0.278 C 
ENDBRANCH   5  13
TORSDOF 4
ENDMDL
MODEL 3
REMARK VINA RESULT:    -4.724      2.342      3.365
REMARK INTER + INTRA:          -6.008
REMARK INTER:                  -5.747
REMARK INTRA:                  -0.261
REMARK UNBOUND:                -0.455
REMARK SMILES COc1cccc(C(=O)O)c1O
REMARK SMILES IDX 7 1 11 2 6 3 5 4 3 5 4 6 8 7 9 8 10 9 12 11 2 13 1 14
REMARK H PARENT 10 10 12 12
ROOT
ATOM      1  C   UNL     1      -2.147   2.975   5.699  1.00  0.00     0.105 A 
ATOM      2  C   UNL     1      -2.633   2.794   6.965  1.00  0.00     0.172 A 
ATOM      3  C   UNL     1      -3.106   2.902   4.582  1.00  0.00     0.020 A 
ATOM      4  C   UNL     1      -4.426   3.029   4.874  1.00  0.00     0.005 A 
ATOM      5  C   UNL     1      -3.996   3.162   7.320  1.00  0.00     0.161 A 
ATOM      6  C   UNL     1      -4.924   3.158   6.204  1.00  0.00     0.050 A 
ENDROOT
BRANCH   1   7
ATOM      7  C   UNL     1      -0.675   3.347   5.453  1.00  0.00     0.339 C 
ATOM      8  O   UNL     1      -0.543   3.808   3.895  1.00  0.00    -0.246 OA
BRANCH   7   9
ATOM      9  O   UNL     1       0.216   3.481   5.997  1.00  0.00    -0.478 OA
ATOM     10  H   UNL     1       1.055   3.607   6.510  1.00  0.00     0.297 HD
ENDBRANCH   7   9
ENDBRANCH   1   7
BRANCH   2  11
ATOM     11  O   UNL     1      -1.829   2.262   7.988  1.00  0.00    -0.504 OA
ATOM     12  H   UNL     1      -1.263   1.887   8.708  1.00  0.00     0.293 HD
ENDBRANCH   2  11
BRANCH   5  13
ATOM     13  O   UNL     1      -4.303   3.113   8.673  1.00  0.00    -0.493 OA
ATOM     14  C   UNL     1      -4.782   3.479   9.817  1.00  0.00     0.278 C 
ENDBRANCH   5  13
TORSDOF 4
ENDMDL
MODEL 4
REMARK VINA RESULT:    -4.719      2.825      4.313
REMARK INTER + INTRA:          -6.001
REMARK INTER:                  -5.735
REMARK INTRA:                  -0.266
REMARK UNBOUND:                -0.455
REMARK SMILES COc1cccc(C(=O)O)c1O
REMARK SMILES IDX 7 1 11 2 6 3 5 4 3 5 4 6 8 7 9 8 10 9 12 11 2 13 1 14
REMARK H PARENT 10 10 12 12
ROOT
ATOM      1  C   UNL     1      -4.585   1.833   4.596  1.00  0.00     0.105 A 
ATOM      2  C   UNL     1      -5.304   2.676   5.398  1.00  0.00     0.172 A 
ATOM      3  C   UNL     1      -3.139   1.707   4.858  1.00  0.00     0.020 A 
ATOM      4  C   UNL     1      -2.678   2.123   6.066  1.00  0.00     0.005 A 
ATOM      5  C   UNL     1      -4.921   2.925   6.781  1.00  0.00     0.161 A 
ATOM      6  C   UNL     1      -3.509   2.731   7.053  1.00  0.00     0.050 A 
ENDROOT
BRANCH   1   7
ATOM      7  C   UNL     1      -5.271   0.966   3.526  1.00  0.00     0.339 C 
ATOM      8  O   UNL     1      -4.206  -0.179   3.070  1.00  0.00    -0.246 OA
BRANCH   7   9
ATOM      9  O   UNL     1      -6.222   0.839   3.092  1.00  0.00    -0.478 OA
ATOM     10  H   UNL     1      -7.116   0.719   2.683  1.00  0.00     0.297 HD
ENDBRANCH   7   9
ENDBRANCH   1   7
BRANCH   2  11
ATOM     11  O   UNL     1      -6.460   3.323   4.930  1.00  0.00    -0.504 OA
ATOM     12  H   UNL     1      -7.274   3.779   4.599  1.00  0.00     0.293 HD
ENDBRANCH   2  11
BRANCH   5  13
ATOM     13  O   UNL     1      -5.838   3.638   7.544  1.00  0.00    -0.493 OA
ATOM     14  C   UNL     1      -6.698   3.888   8.475  1.00  0.00     0.278 C 
ENDBRANCH   5  13
TORSDOF 4
ENDMDL
MODEL 5
REMARK VINA RESULT:    -4.141      1.604      4.287
REMARK INTER + INTRA:          -5.323
REMARK INTER:                  -4.872
REMARK INTRA:                  -0.450
REMARK UNBOUND:                -0.455
REMARK SMILES COc1cccc(C(=O)O)c1O
REMARK SMILES IDX 7 1 11 2 6 3 5 4 3 5 4 6 8 7 9 8 10 9 12 11 2 13 1 14
REMARK H PARENT 10 10 12 12
ROOT
ATOM      1  C   UNL     1      -4.608   1.416   4.842  1.00  0.00     0.105 A 
ATOM      2  C   UNL     1      -3.320   1.876   4.812  1.00  0.00     0.172 A 
ATOM      3  C   UNL     1      -5.362   1.578   6.098  1.00  0.00     0.020 A 
ATOM      4  C   UNL     1      -4.893   2.475   7.005  1.00  0.00     0.005 A 
ATOM      5  C   UNL     1      -2.893   3.005   5.626  1.00  0.00     0.161 A 
ATOM      6  C   UNL     1      -3.682   3.206   6.827  1.00  0.00     0.050 A 
ENDROOT
BRANCH   1   7
ATOM      7  C   UNL     1      -5.284   0.846   3.583  1.00  0.00     0.339 C 
ATOM      8  O   UNL     1      -4.278  -0.270   2.953  1.00  0.00    -0.246 OA
BRANCH   7   9
ATOM      9  O   UNL     1      -6.210   0.892   3.085  1.00  0.00    -0.478 OA
ATOM     10  H   UNL     1      -7.081   0.934   2.616  1.00  0.00     0.297 HD
ENDBRANCH   7   9
ENDBRANCH   1   7
BRANCH   2  11
ATOM     11  O   UNL     1      -2.354   1.292   3.975  1.00  0.00    -0.504 OA
ATOM     12  H   UNL     1      -1.673   0.880   3.385  1.00  0.00     0.293 HD
ENDBRANCH   2  11
BRANCH   5  13
ATOM     13  O   UNL     1      -1.622   3.498   5.359  1.00  0.00    -0.493 OA
ATOM     14  C   UNL     1      -0.350   3.690   5.486  1.00  0.00     0.278 C 
ENDBRANCH   5  13
TORSDOF 4
ENDMDL
MODEL 6
REMARK VINA RESULT:    -3.961      2.160      3.097
REMARK INTER + INTRA:          -5.110
REMARK INTER:                  -4.846
REMARK INTRA:                  -0.264
REMARK UNBOUND:                -0.455
REMARK SMILES COc1cccc(C(=O)O)c1O
REMARK SMILES IDX 7 1 11 2 6 3 5 4 3 5 4 6 8 7 9 8 10 9 12 11 2 13 1 14
REMARK H PARENT 10 10 12 12
ROOT
ATOM      1  C   UNL     1      -2.073   2.341   6.850  1.00  0.00     0.105 A 
ATOM      2  C   UNL     1      -2.940   1.563   6.134  1.00  0.00     0.172 A 
ATOM      3  C   UNL     1      -1.078   3.127   6.097  1.00  0.00     0.020 A 
ATOM      4  C   UNL     1      -1.304   3.328   4.773  1.00  0.00     0.005 A 
ATOM      5  C   UNL     1      -3.358   1.927   4.787  1.00  0.00     0.161 A 
ATOM      6  C   UNL     1      -2.409   2.761   4.074  1.00  0.00     0.050 A 
ENDROOT
BRANCH   1   7
ATOM      7  C   UNL     1      -2.193   2.475   8.378  1.00  0.00     0.339 C 
ATOM      8  O   UNL     1      -3.763   2.745   8.721  1.00  0.00    -0.246 OA
BRANCH   7   9
ATOM      9  O   UNL     1      -1.601   2.351   9.239  1.00  0.00    -0.478 OA
ATOM     10  H   UNL     1      -1.043   2.235  10.050  1.00  0.00     0.297 HD
ENDBRANCH   7   9
ENDBRANCH   1   7
BRANCH   2  11
ATOM     11  O   UNL     1      -3.486   0.386   6.675  1.00  0.00    -0.504 OA
ATOM     12  H   UNL     1      -3.870  -0.443   7.056  1.00  0.00     0.293 HD
ENDBRANCH   2  11
BRANCH   5  13
ATOM     13  O   UNL     1      -4.388   1.167   4.247  1.00  0.00    -0.493 OA
ATOM     14  C   UNL     1      -5.491   0.891   3.633  1.00  0.00     0.278 C 
ENDBRANCH   5  13
TORSDOF 4
ENDMDL
MODEL 7
REMARK VINA RESULT:    -3.933      2.361      4.564
REMARK INTER + INTRA:          -5.077
REMARK INTER:                  -4.808
REMARK INTRA:                  -0.269
REMARK UNBOUND:                -0.455
REMARK SMILES COc1cccc(C(=O)O)c1O
REMARK SMILES IDX 7 1 11 2 6 3 5 4 3 5 4 6 8 7 9 8 10 9 12 11 2 13 1 14
REMARK H PARENT 10 10 12 12
ROOT
ATOM      1  C   UNL     1      -5.354   2.796   4.705  1.00  0.00     0.105 A 
ATOM      2  C   UNL     1      -4.102   3.344   4.766  1.00  0.00     0.172 A 
ATOM      3  C   UNL     1      -5.506   1.519   3.984  1.00  0.00     0.020 A 
ATOM      4  C   UNL     1      -4.385   0.788   3.750  1.00  0.00     0.005 A 
ATOM      5  C   UNL     1      -2.904   2.516   4.753  1.00  0.00     0.161 A 
ATOM      6  C   UNL     1      -3.076   1.229   4.105  1.00  0.00     0.050 A 
ENDROOT
BRANCH   1   7
ATOM      7  C   UNL     1      -6.542   3.429   5.449  1.00  0.00     0.339 C 
ATOM      8  O   UNL     1      -6.042   3.777   6.959  1.00  0.00    -0.246 OA
BRANCH   7   9
ATOM      9  O   UNL     1      -7.514   3.780   5.247  1.00  0.00    -0.478 OA
ATOM     10  H   UNL     1      -8.428   4.111   5.057  1.00  0.00     0.297 HD
ENDBRANCH   7   9
ENDBRANCH   1   7
BRANCH   2  11
ATOM     11  O   UNL     1      -3.916   4.733   4.866  1.00  0.00    -0.504 OA
ATOM     12  H   UNL     1      -3.785   5.712   4.937  1.00  0.00     0.293 HD
ENDBRANCH   2  11
BRANCH   5  13
ATOM     13  O   UNL     1      -1.710   3.175   5.019  1.00  0.00    -0.493 OA
ATOM     14  C   UNL     1      -0.639   3.524   5.652  1.00  0.00     0.278 C 
ENDBRANCH   5  13
TORSDOF 4
ENDMDL
MODEL 8
REMARK VINA RESULT:    -3.604      2.197      2.782
REMARK INTER + INTRA:          -4.691
REMARK INTER:                  -4.445
REMARK INTRA:                  -0.246
REMARK UNBOUND:                -0.455
REMARK SMILES COc1cccc(C(=O)O)c1O
REMARK SMILES IDX 7 1 11 2 6 3 5 4 3 5 4 6 8 7 9 8 10 9 12 11 2 13 1 14
REMARK H PARENT 10 10 12 12
ROOT
ATOM      1  C   UNL     1      -2.930   2.751   5.063  1.00  0.00     0.105 A 
ATOM      2  C   UNL     1      -4.100   3.197   5.613  1.00  0.00     0.172 A 
ATOM      3  C   UNL     1      -2.972   1.494   4.294  1.00  0.00     0.020 A 
ATOM      4  C   UNL     1      -4.184   1.055   3.868  1.00  0.00     0.005 A 
ATOM      5  C   UNL     1      -5.389   2.912   5.001  1.00  0.00     0.161 A 
ATOM      6  C   UNL     1      -5.409   1.712   4.186  1.00  0.00     0.050 A 
ENDROOT
BRANCH   1   7
ATOM      7  C   UNL     1      -1.637   3.581   5.150  1.00  0.00     0.339 C 
ATOM      8  O   UNL     1      -0.921   3.522   3.687  1.00  0.00    -0.246 OA
BRANCH   7   9
ATOM      9  O   UNL     1      -1.149   4.230   5.820  1.00  0.00    -0.478 OA
ATOM     10  H   UNL     1      -0.689   4.840   6.450  1.00  0.00     0.297 HD
ENDBRANCH   7   9
ENDBRANCH   1   7
BRANCH   2  11
ATOM     11  O   UNL     1      -4.108   3.972   6.786  1.00  0.00    -0.504 OA
ATOM     12  H   UNL     1      -4.114   4.517   7.612  1.00  0.00     0.293 HD
ENDBRANCH   2  11
BRANCH   5  13
ATOM     13  O   UNL     1      -6.478   3.584   5.542  1.00  0.00    -0.493 OA
ATOM     14  C   UNL     1      -7.704   3.828   5.872  1.00  0.00     0.278 C 
ENDBRANCH   5  13
TORSDOF 4
ENDMDL
MODEL 9
REMARK VINA RESULT:    -3.602      7.485      8.498
REMARK INTER + INTRA:          -4.688
REMARK INTER:                  -4.507
REMARK INTRA:                  -0.181
REMARK UNBOUND:                -0.455
REMARK SMILES COc1cccc(C(=O)O)c1O
REMARK SMILES IDX 7 1 11 2 6 3 5 4 3 5 4 6 8 7 9 8 10 9 12 11 2 13 1 14
REMARK H PARENT 10 10 12 12
ROOT
ATOM      1  C   UNL     1       0.888  -3.987   1.114  1.00  0.00     0.105 A 
ATOM      2  C   UNL     1       0.450  -2.868   0.461  1.00  0.00     0.172 A 
ATOM      3  C   UNL     1       2.094  -3.862   1.953  1.00  0.00     0.020 A 
ATOM      4  C   UNL     1       2.478  -2.613   2.323  1.00  0.00     0.005 A 
ATOM      5  C   UNL     1       0.668  -1.534   1.002  1.00  0.00     0.161 A 
ATOM      6  C   UNL     1       1.815  -1.429   1.885  1.00  0.00     0.050 A 
ENDROOT
BRANCH   1   7
ATOM      7  C   UNL     1       0.094  -5.304   1.064  1.00  0.00     0.339 C 
ATOM      8  O   UNL     1      -0.497  -5.574   2.558  1.00  0.00    -0.246 OA
BRANCH   7   9
ATOM      9  O   UNL     1      -0.248  -6.003   0.355  1.00  0.00    -0.478 OA
ATOM     10  H   UNL     1      -0.570  -6.660  -0.313  1.00  0.00     0.297 HD
ENDBRANCH   7   9
ENDBRANCH   1   7
BRANCH   2  11
ATOM     11  O   UNL     1      -0.250  -2.956  -0.754  1.00  0.00    -0.504 OA
ATOM     12  H   UNL     1      -0.744  -3.019  -1.610  1.00  0.00     0.293 HD
ENDBRANCH   2  11
BRANCH   5  13
ATOM     13  O   UNL     1       0.007  -0.500   0.350  1.00  0.00    -0.493 OA
ATOM     14  C   UNL     1      -0.162   0.575  -0.346  1.00  0.00     0.278 C 
ENDBRANCH   5  13
TORSDOF 4
ENDMDL
