MODEL 1
REMARK VINA RESULT:    -4.969      0.000      0.000
REMARK INTER + INTRA:          -6.246
REMARK INTER:                  -5.840
REMARK INTRA:                  -0.406
REMARK UNBOUND:                -0.406
REMARK SMILES COc1cccc(C(=O)O)c1O
REMARK SMILES IDX 7 1 11 2 6 3 5 4 3 5 4 6 8 7 9 8 10 9 12 11 2 13 1 14
REMARK H PARENT 10 10 12 12
ROOT
ATOM      1  C   UNL     1       5.692  -1.062   5.021  1.00  0.00     0.105 A 
ATOM      2  C   UNL     1       4.680  -1.953   4.789  1.00  0.00     0.172 A 
ATOM      3  C   UNL     1       6.999  -1.606   5.433  1.00  0.00     0.020 A 
ATOM      4  C   UNL     1       7.234  -2.924   5.207  1.00  0.00     0.005 A 
ATOM      5  C   UNL     1       4.945  -3.303   4.314  1.00  0.00     0.161 A 
ATOM      6  C   UNL     1       6.260  -3.809   4.659  1.00  0.00     0.050 A 
ENDROOT
BRANCH   1   7
ATOM      7  C   UNL     1       5.509   0.443   4.761  1.00  0.00     0.339 C 
ATOM      8  O   UNL     1       4.069   0.639   4.026  1.00  0.00    -0.246 OA
BRANCH   7   9
ATOM      9  O   UNL     1       5.977   1.356   4.998  1.00  0.00    -0.478 OA
ATOM     10  H   UNL     1       6.417   2.215   5.220  1.00  0.00     0.297 HD
ENDBRANCH   7   9
ENDBRANCH   1   7
BRANCH   2  11
ATOM     11  O   UNL     1       3.334  -1.596   4.980  1.00  0.00    -0.504 OA
ATOM     12  H   UNL     1       2.386  -1.345   5.114  1.00  0.00     0.293 HD
ENDBRANCH   2  11
BRANCH   5  13
ATOM     13  O   UNL     1       3.831  -4.039   3.930  1.00  0.00    -0.493 OA
ATOM     14  C   UNL     1       2.851  -4.878   4.012  1.00  0.00     0.278 C 
ENDBRANCH   5  13
TORSDOF 4
ENDMDL
MODEL 2
REMARK VINA RESULT:    -4.904      1.816      4.631
REMARK INTER + INTRA:          -6.170
REMARK INTER:                  -5.685
REMARK INTRA:                  -0.485
REMARK UNBOUND:                -0.406
REMARK SMILES COc1cccc(C(=O)O)c1O
REMARK SMILES IDX 7 1 11 2 6 3 5 4 3 5 4 6 8 7 9 8 10 9 12 11 2 13 1 14
REMARK H PARENT 10 10 12 12
ROOT
ATOM      1  C   UNL     1       3.591  -3.927   5.001  1.00  0.00     0.105 A 
ATOM      2  C   UNL     1       4.514  -2.938   4.800  1.00  0.00     0.172 A 
ATOM      3  C   UNL     1       3.045  -4.086   6.362  1.00  0.00     0.020 A 
ATOM      4  C   UNL     1       3.193  -3.049   7.226  1.00  0.00     0.005 A 
ATOM      5  C   UNL     1       4.507  -1.715   5.590  1.00  0.00     0.161 A 
ATOM      6  C   UNL     1       3.904  -1.857   6.902  1.00  0.00     0.050 A 
ENDROOT
BRANCH   1   7
ATOM      7  C   UNL     1       3.060  -4.776   3.833  1.00  0.00     0.339 C 
ATOM      8  O   UNL     1       3.515  -4.043   2.452  1.00  0.00    -0.246 OA
BRANCH   7   9
ATOM      9  O   UNL     1       2.594  -5.706   3.670  1.00  0.00    -0.478 OA
ATOM     10  H   UNL     1       2.155  -6.581   3.518  1.00  0.00     0.297 HD
ENDBRANCH   7   9
ENDBRANCH   1   7
BRANCH   2  11
ATOM     11  O   UNL     1       5.499  -3.048   3.804  1.00  0.00    -0.504 OA
ATOM     12  H   UNL     1       6.194  -3.126   3.103  1.00  0.00     0.293 HD
ENDBRANCH   2  11
BRANCH   5  13
ATOM     13  O   UNL     1       5.364  -0.711   5.158  1.00  0.00    -0.493 OA
ATOM     14  C   UNL     1       5.746   0.424   4.672  1.00  0.00     0.278 C 
ENDBRANCH   5  13
TORSDOF 4
ENDMDL
MODEL 3
REMARK VINA RESULT:    -4.773      2.269      3.265
REMARK INTER + INTRA:          -6.016
REMARK INTER:                  -5.745
REMARK INTRA:                  -0.270
REMARK UNBOUND:                -0.406
REMARK SMILES COc1cccc(C(=O)O)c1O
REMARK SMILES IDX 7 1 11 2 6 3 5 4 3 5 4 6 8 7 9 8 10 9 12 11 2 13 1 14
REMARK H PARENT 10 10 12 12
ROOT
ATOM      1  C   UNL     1       5.378  -1.201   5.045  1.00  0.00     0.105 A 
ATOM      2  C   UNL     1       6.285  -1.872   5.819  1.00  0.00     0.172 A 
ATOM      3  C   UNL     1       4.111  -1.885   4.729  1.00  0.00     0.020 A 
ATOM      4  C   UNL     1       3.759  -2.949   5.497  1.00  0.00     0.005 A 
ATOM      5  C   UNL     1       5.865  -2.847   6.815  1.00  0.00     0.161 A 
ATOM      6  C   UNL     1       4.583  -3.468   6.538  1.00  0.00     0.050 A 
ENDROOT
BRANCH   1   7
ATOM      7  C   UNL     1       5.621   0.254   4.607  1.00  0.00     0.339 C 
ATOM      8  O   UNL     1       4.183   0.873   4.155  1.00  0.00    -0.246 OA
BRANCH   7   9
ATOM      9  O   UNL     1       6.394   0.968   4.607  1.00  0.00    -0.478 OA
ATOM     10  H   UNL     1       7.121   1.641   4.606  1.00  0.00     0.297 HD
ENDBRANCH   7   9
ENDBRANCH   1   7
BRANCH   2  11
ATOM     11  O   UNL     1       7.665  -1.633   5.702  1.00  0.00    -0.504 OA
ATOM     12  H   UNL     1       8.637  -1.465   5.620  1.00  0.00     0.293 HD
ENDBRANCH   2  11
BRANCH   5  13
ATOM     13  O   UNL     1       6.860  -3.310   7.667  1.00  0.00    -0.493 OA
ATOM     14  C   UNL     1       7.474  -3.580   8.771  1.00  0.00     0.278 C 
ENDBRANCH   5  13
TORSDOF 4
ENDMDL
MODEL 4
REMARK VINA RESULT:    -4.771      2.875      4.332
REMARK INTER + INTRA:          -6.013
REMARK INTER:                  -5.744
REMARK INTRA:                  -0.269
REMARK UNBOUND:                -0.406
REMARK SMILES COc1cccc(C(=O)O)c1O
REMARK SMILES IDX 7 1 11 2 6 3 5 4 3 5 4 6 8 7 9 8 10 9 12 11 2 13 1 14
REMARK H PARENT 10 10 12 12
ROOT
ATOM      1  C   UNL     1       3.788  -3.650   4.806  1.00  0.00     0.105 A 
ATOM      2  C   UNL     1       3.908  -3.842   6.155  1.00  0.00     0.172 A 
ATOM      3  C   UNL     1       4.601  -2.584   4.192  1.00  0.00     0.020 A 
ATOM      4  C   UNL     1       5.663  -2.114   4.897  1.00  0.00     0.005 A 
ATOM      5  C   UNL     1       5.149  -3.552   6.860  1.00  0.00     0.161 A 
ATOM      6  C   UNL     1       5.981  -2.553   6.216  1.00  0.00     0.050 A 
ENDROOT
BRANCH   1   7
ATOM      7  C   UNL     1       2.919  -4.578   3.940  1.00  0.00     0.339 C 
ATOM      8  O   UNL     1       3.379  -4.370   2.391  1.00  0.00    -0.246 OA
BRANCH   7   9
ATOM      9  O   UNL     1       2.212  -5.349   4.059  1.00  0.00    -0.478 OA
ATOM     10  H   UNL     1       1.547  -6.074   4.170  1.00  0.00     0.297 HD
ENDBRANCH   7   9
ENDBRANCH   1   7
BRANCH   2  11
ATOM     11  O   UNL     1       2.843  -4.349   6.920  1.00  0.00    -0.504 OA
ATOM     12  H   UNL     1       2.093  -4.706   7.459  1.00  0.00     0.293 HD
ENDBRANCH   2  11
BRANCH   5  13
ATOM     13  O   UNL     1       5.206  -3.973   8.183  1.00  0.00    -0.493 OA
ATOM     14  C   UNL     1       5.533  -4.687   9.210  1.00  0.00     0.278 C 
ENDBRANCH   5  13
TORSDOF 4
ENDMDL
MODEL 5
REMARK VINA RESULT:    -4.374      1.417      1.493
REMARK INTER + INTRA:          -5.547
REMARK INTER:                  -5.130
REMARK INTRA:                  -0.417
REMARK UNBOUND:                -0.406
REMARK SMILES COc1cccc(C(=O)O)c1O
REMARK SMILES IDX 7 1 11 2 6 3 5 4 3 5 4 6 8 7 9 8 10 9 12 11 2 13 1 14
REMARK H PARENT 10 10 12 12
ROOT
ATOM      1  C   UNL     1       4.841  -0.902   5.364  1.00  0.00     0.105 A 
ATOM      2  C   UNL     1       4.153  -1.867   4.681  1.00  0.00     0.172 A 
ATOM      3  C   UNL     1       5.105  -1.134   6.796  1.00  0.00     0.020 A 
ATOM      4  C   UNL     1       4.989  -2.404   7.261  1.00  0.00     0.005 A 
ATOM      5  C   UNL     1       4.233  -3.271   5.056  1.00  0.00     0.161 A 
ATOM      6  C   UNL     1       4.563  -3.498   6.451  1.00  0.00     0.050 A 
ENDROOT
BRANCH   1   7
ATOM      7  C   UNL     1       5.413   0.332   4.645  1.00  0.00     0.339 C 
ATOM      8  O   UNL     1       4.157   1.154   4.013  1.00  0.00    -0.246 OA
BRANCH   7   9
ATOM      9  O   UNL     1       6.332   0.835   4.531  1.00  0.00    -0.478 OA
ATOM     10  H   UNL     1       7.195   1.307   4.424  1.00  0.00     0.297 HD
ENDBRANCH   7   9
ENDBRANCH   1   7
BRANCH   2  11
ATOM     11  O   UNL     1       3.353  -1.548   3.571  1.00  0.00    -0.504 OA
ATOM     12  H   UNL     1       2.789  -1.323   2.788  1.00  0.00     0.293 HD
ENDBRANCH   2  11
BRANCH   5  13
ATOM     13  O   UNL     1       3.650  -4.169   4.170  1.00  0.00    -0.493 OA
ATOM     14  C   UNL     1       2.843  -5.075   3.725  1.00  0.00     0.278 C 
ENDBRANCH   5  13
TORSDOF 4
ENDMDL
MODEL 6
REMARK VINA RESULT:    -3.925      2.380      4.681
REMARK INTER + INTRA:          -5.019
REMARK INTER:                  -4.736
REMARK INTRA:                  -0.284
REMARK UNBOUND:                -0.406
REMARK SMILES COc1cccc(C(=O)O)c1O
REMARK SMILES IDX 7 1 11 2 6 3 5 4 3 5 4 6 8 7 9 8 10 9 12 11 2 13 1 14
REMARK H PARENT 10 10 12 12
ROOT
ATOM      1  C   UNL     1       3.238  -3.800   6.005  1.00  0.00     0.105 A 
ATOM      2  C   UNL     1       3.662  -2.501   5.975  1.00  0.00     0.172 A 
ATOM      3  C   UNL     1       3.034  -4.483   4.714  1.00  0.00     0.020 A 
ATOM      4  C   UNL     1       3.613  -3.938   3.614  1.00  0.00     0.005 A 
ATOM      5  C   UNL     1       4.492  -1.993   4.891  1.00  0.00     0.161 A 
ATOM      6  C   UNL     1       4.342  -2.713   3.640  1.00  0.00     0.050 A 
ENDROOT
BRANCH   1   7
ATOM      7  C   UNL     1       3.078  -4.559   7.334  1.00  0.00     0.339 C 
ATOM      8  O   UNL     1       4.400  -4.249   8.234  1.00  0.00    -0.246 OA
BRANCH   7   9
ATOM      9  O   UNL     1       2.351  -5.118   7.852  1.00  0.00    -0.478 OA
ATOM     10  H   UNL     1       1.667  -5.643   8.338  1.00  0.00     0.297 HD
ENDBRANCH   7   9
ENDBRANCH   1   7
BRANCH   2  11
ATOM     11  O   UNL     1       3.335  -1.600   7.002  1.00  0.00    -0.504 OA
ATOM     12  H   UNL     1       3.104  -0.965   7.726  1.00  0.00     0.293 HD
ENDBRANCH   2  11
BRANCH   5  13
ATOM     13  O   UNL     1       5.018  -0.721   5.076  1.00  0.00    -0.493 OA
ATOM     14  C   UNL     1       5.675   0.362   4.821  1.00  0.00     0.278 C 
ENDBRANCH   5  13
TORSDOF 4
ENDMDL
MODEL 7
REMARK VINA RESULT:    -3.919      2.160      3.075
REMARK INTER + INTRA:          -5.012
REMARK INTER:                  -4.737
REMARK INTRA:                  -0.275
REMARK UNBOUND:                -0.406
REMARK SMILES COc1cccc(C(=O)O)c1O
REMARK SMILES IDX 7 1 11 2 6 3 5 4 3 5 4 6 8 7 9 8 10 9 12 11 2 13 1 14
REMARK H PARENT 10 10 12 12
ROOT
ATOM      1  C   UNL     1       6.594  -1.638   5.243  1.00  0.00     0.105 A 
ATOM      2  C   UNL     1       5.928  -2.719   4.736  1.00  0.00     0.172 A 
ATOM      3  C   UNL     1       6.035  -0.301   4.970  1.00  0.00     0.020 A 
ATOM      4  C   UNL     1       4.740  -0.229   4.567  1.00  0.00     0.005 A 
ATOM      5  C   UNL     1       4.486  -2.702   4.533  1.00  0.00     0.161 A 
ATOM      6  C   UNL     1       3.928  -1.378   4.335  1.00  0.00     0.050 A 
ENDROOT
BRANCH   1   7
ATOM      7  C   UNL     1       7.821  -1.809   6.155  1.00  0.00     0.339 C 
ATOM      8  O   UNL     1       7.456  -2.955   7.253  1.00  0.00    -0.246 OA
BRANCH   7   9
ATOM      9  O   UNL     1       8.822  -1.488   6.213  1.00  0.00    -0.478 OA
ATOM     10  H   UNL     1       9.763  -1.186   6.269  1.00  0.00     0.297 HD
ENDBRANCH   7   9
ENDBRANCH   1   7
BRANCH   2  11
ATOM     11  O   UNL     1       6.604  -3.907   4.407  1.00  0.00    -0.504 OA
ATOM     12  H   UNL     1       7.080  -4.743   4.175  1.00  0.00     0.293 HD
ENDBRANCH   2  11
BRANCH   5  13
ATOM     13  O   UNL     1       3.907  -3.921   4.202  1.00  0.00    -0.493 OA
ATOM     14  C   UNL     1       2.988  -4.812   4.025  1.00  0.00     0.278 C 
ENDBRANCH   5  13
TORSDOF 4
ENDMDL
MODEL 8
REMARK VINA RESULT:    -3.591      2.091      2.906
REMARK INTER + INTRA:          -4.626
REMARK INTER:                  -4.223
REMARK INTRA:                  -0.403
REMARK UNBOUND:                -0.406
REMARK SMILES COc1cccc(C(=O)O)c1O
REMARK SMILES IDX 7 1 11 2 6 3 5 4 3 5 4 6 8 7 9 8 10 9 12 11 2 13 1 14
REMARK H PARENT 10 10 12 12
ROOT
ATOM      1  C   UNL     1       4.357  -1.990   4.693  1.00  0.00     0.105 A 
ATOM      2  C   UNL     1       4.181  -2.654   5.876  1.00  0.00     0.172 A 
ATOM      3  C   UNL     1       4.206  -2.763   3.446  1.00  0.00     0.020 A 
ATOM      4  C   UNL     1       3.559  -3.955   3.517  1.00  0.00     0.005 A 
ATOM      5  C   UNL     1       3.287  -3.798   5.984  1.00  0.00     0.161 A 
ATOM      6  C   UNL     1       3.084  -4.516   4.739  1.00  0.00     0.050 A 
ENDROOT
BRANCH   1   7
ATOM      7  C   UNL     1       4.598  -0.471   4.655  1.00  0.00     0.339 C 
ATOM      8  O   UNL     1       6.015  -0.184   5.405  1.00  0.00    -0.246 OA
BRANCH   7   9
ATOM      9  O   UNL     1       4.182   0.392   4.219  1.00  0.00    -0.478 OA
ATOM     10  H   UNL     1       3.791   1.204   3.809  1.00  0.00     0.297 HD
ENDBRANCH   7   9
ENDBRANCH   1   7
BRANCH   2  11
ATOM     11  O   UNL     1       4.840  -2.247   7.048  1.00  0.00    -0.504 OA
ATOM     12  H   UNL     1       5.305  -1.960   7.874  1.00  0.00     0.293 HD
ENDBRANCH   2  11
BRANCH   5  13
ATOM     13  O   UNL     1       3.044  -4.257   7.272  1.00  0.00    -0.493 OA
ATOM     14  C   UNL     1       2.965  -5.080   8.266  1.00  0.00     0.278 C 
ENDBRANCH   5  13
TORSDOF 4
ENDMDL
MODEL 9
REMARK VINA RESULT:    -3.482      2.280      4.443
REMARK INTER + INTRA:          -4.499
REMARK INTER:                  -4.271
REMARK INTRA:                  -0.228
REMARK UNBOUND:                -0.406
REMARK SMILES COc1cccc(C(=O)O)c1O
REMARK SMILES IDX 7 1 11 2 6 3 5 4 3 5 4 6 8 7 9 8 10 9 12 11 2 13 1 14
REMARK H PARENT 10 10 12 12
ROOT
ATOM      1  C   UNL     1       4.145  -3.049   4.540  1.00  0.00     0.105 A 
ATOM      2  C   UNL     1       5.220  -3.034   5.385  1.00  0.00     0.172 A 
ATOM      3  C   UNL     1       3.610  -1.751   4.090  1.00  0.00     0.020 A 
ATOM      4  C   UNL     1       4.407  -0.659   4.226  1.00  0.00     0.005 A 
ATOM      5  C   UNL     1       6.203  -1.960   5.350  1.00  0.00     0.161 A 
ATOM      6  C   UNL     1       5.693  -0.701   4.840  1.00  0.00     0.050 A 
ENDROOT
BRANCH   1   7
ATOM      7  C   UNL     1       3.576  -4.369   3.993  1.00  0.00     0.339 C 
ATOM      8  O   UNL     1       3.432  -4.205   2.378  1.00  0.00    -0.246 OA
BRANCH   7   9
ATOM      9  O   UNL     1       3.355  -5.343   4.328  1.00  0.00    -0.478 OA
ATOM     10  H   UNL     1       3.147  -6.258   4.643  1.00  0.00     0.297 HD
ENDBRANCH   7   9
ENDBRANCH   1   7
BRANCH   2  11
ATOM     11  O   UNL     1       5.437  -4.067   6.312  1.00  0.00    -0.504 OA
ATOM     12  H   UNL     1       5.590  -4.795   6.965  1.00  0.00     0.293 HD
ENDBRANCH   2  11
BRANCH   5  13
ATOM     13  O   UNL     1       7.346  -2.160   6.114  1.00  0.00    -0.493 OA
ATOM     14  C   UNL     1       8.532  -1.961   6.588  1.00  0.00     0.278 C 
ENDBRANCH   5  13
TORSDOF 4
ENDMDL
