MODEL 1
REMARK VINA RESULT:    -4.899      0.000      0.000
REMARK INTER + INTRA:          -6.180
REMARK INTER:                  -5.758
REMARK INTRA:                  -0.422
REMARK UNBOUND:                -0.422
REMARK SMILES COc1cccc(C(=O)O)c1O
REMARK SMILES IDX 7 1 11 2 6 3 5 4 3 5 4 6 8 7 9 8 10 9 12 11 2 13 1 14
REMARK H PARENT 10 10 12 12
ROOT
ATOM      1  C   UNL     1       4.896  -3.404   3.127  1.00  0.00     0.105 A 
ATOM      2  C   UNL     1       5.021  -3.205   1.779  1.00  0.00     0.172 A 
ATOM      3  C   UNL     1       6.113  -3.282   3.951  1.00  0.00     0.020 A 
ATOM      4  C   UNL     1       7.178  -2.636   3.412  1.00  0.00     0.005 A 
ATOM      5  C   UNL     1       6.031  -2.311   1.230  1.00  0.00     0.161 A 
ATOM      6  C   UNL     1       7.197  -2.137   2.077  1.00  0.00     0.050 A 
ENDROOT
BRANCH   1   7
ATOM      7  C   UNL     1       3.522  -3.642   3.777  1.00  0.00     0.339 C 
ATOM      8  O   UNL     1       2.392  -3.404   2.628  1.00  0.00    -0.246 OA
BRANCH   7   9
ATOM      9  O   UNL     1       3.119  -3.996   4.682  1.00  0.00    -0.478 OA
ATOM     10  H   UNL     1       2.740  -4.329   5.535  1.00  0.00     0.297 HD
ENDBRANCH   7   9
ENDBRANCH   1   7
BRANCH   2  11
ATOM     11  O   UNL     1       4.164  -3.838   0.863  1.00  0.00    -0.504 OA
ATOM     12  H   UNL     1       3.560  -4.284   0.218  1.00  0.00     0.293 HD
ENDBRANCH   2  11
BRANCH   5  13
ATOM     13  O   UNL     1       5.927  -2.043  -0.129  1.00  0.00    -0.493 OA
ATOM     14  C   UNL     1       6.260  -1.980  -1.376  1.00  0.00     0.278 C 
ENDBRANCH   5  13
TORSDOF 4
ENDMDL
MODEL 2
REMARK VINA RESULT:    -4.862      1.792      4.634
REMARK INTER + INTRA:          -6.137
REMARK INTER:                  -5.789
REMARK INTRA:                  -0.348
REMARK UNBOUND:                -0.422
REMARK SMILES COc1cccc(C(=O)O)c1O
REMARK SMILES IDX 7 1 11 2 6 3 5 4 3 5 4 6 8 7 9 8 10 9 12 11 2 13 1 14
REMARK H PARENT 10 10 12 12
ROOT
ATOM      1  C   UNL     1       6.108  -3.061  -0.173  1.00  0.00     0.105 A 
ATOM      2  C   UNL     1       5.415  -2.962   1.003  1.00  0.00     0.172 A 
ATOM      3  C   UNL     1       6.697  -4.369  -0.511  1.00  0.00     0.020 A 
ATOM      4  C   UNL     1       6.226  -5.462   0.144  1.00  0.00     0.005 A 
ATOM      5  C   UNL     1       4.710  -4.102   1.572  1.00  0.00     0.161 A 
ATOM      6  C   UNL     1       5.249  -5.391   1.180  1.00  0.00     0.050 A 
ENDROOT
BRANCH   1   7
ATOM      7  C   UNL     1       6.182  -1.882  -1.159  1.00  0.00     0.339 C 
ATOM      8  O   UNL     1       5.236  -0.694  -0.570  1.00  0.00    -0.246 OA
BRANCH   7   9
ATOM      9  O   UNL     1       6.720  -1.592  -2.016  1.00  0.00    -0.478 OA
ATOM     10  H   UNL     1       7.227  -1.320  -2.823  1.00  0.00     0.297 HD
ENDBRANCH   7   9
ENDBRANCH   1   7
BRANCH   2  11
ATOM     11  O   UNL     1       5.334  -1.747   1.704  1.00  0.00    -0.504 OA
ATOM     12  H   UNL     1       5.277  -0.891   2.199  1.00  0.00     0.293 HD
ENDBRANCH   2  11
BRANCH   5  13
ATOM     13  O   UNL     1       3.887  -3.825   2.656  1.00  0.00    -0.493 OA
ATOM     14  C   UNL     1       3.533  -3.615   3.881  1.00  0.00     0.278 C 
ENDBRANCH   5  13
TORSDOF 4
ENDMDL
MODEL 3
REMARK VINA RESULT:    -4.808      2.274      3.262
REMARK INTER + INTRA:          -6.074
REMARK INTER:                  -5.805
REMARK INTRA:                  -0.269
REMARK UNBOUND:                -0.422
REMARK SMILES COc1cccc(C(=O)O)c1O
REMARK SMILES IDX 7 1 11 2 6 3 5 4 3 5 4 6 8 7 9 8 10 9 12 11 2 13 1 14
REMARK H PARENT 10 10 12 12
ROOT
ATOM      1  C   UNL     1       4.908  -3.453   2.795  1.00  0.00     0.105 A 
ATOM      2  C   UNL     1       6.159  -3.748   3.264  1.00  0.00     0.172 A 
ATOM      3  C   UNL     1       4.751  -3.266   1.341  1.00  0.00     0.020 A 
ATOM      4  C   UNL     1       5.732  -3.744   0.533  1.00  0.00     0.005 A 
ATOM      5  C   UNL     1       7.125  -4.479   2.457  1.00  0.00     0.161 A 
ATOM      6  C   UNL     1       6.924  -4.351   1.026  1.00  0.00     0.050 A 
ENDROOT
BRANCH   1   7
ATOM      7  C   UNL     1       3.688  -3.422   3.731  1.00  0.00     0.339 C 
ATOM      8  O   UNL     1       2.357  -3.549   2.801  1.00  0.00    -0.246 OA
BRANCH   7   9
ATOM      9  O   UNL     1       3.473  -3.442   4.762  1.00  0.00    -0.478 OA
ATOM     10  H   UNL     1       3.270  -3.461   5.731  1.00  0.00     0.297 HD
ENDBRANCH   7   9
ENDBRANCH   1   7
BRANCH   2  11
ATOM     11  O   UNL     1       6.560  -3.375   4.558  1.00  0.00    -0.504 OA
ATOM     12  H   UNL     1       6.844  -3.113   5.470  1.00  0.00     0.293 HD
ENDBRANCH   2  11
BRANCH   5  13
ATOM     13  O   UNL     1       8.279  -4.886   3.115  1.00  0.00    -0.493 OA
ATOM     14  C   UNL     1       9.281  -5.632   3.445  1.00  0.00     0.278 C 
ENDBRANCH   5  13
TORSDOF 4
ENDMDL
MODEL 4
REMARK VINA RESULT:    -4.799      2.883      4.366
REMARK INTER + INTRA:          -6.062
REMARK INTER:                  -5.791
REMARK INTRA:                  -0.271
REMARK UNBOUND:                -0.422
REMARK SMILES COc1cccc(C(=O)O)c1O
REMARK SMILES IDX 7 1 11 2 6 3 5 4 3 5 4 6 8 7 9 8 10 9 12 11 2 13 1 14
REMARK H PARENT 10 10 12 12
ROOT
ATOM      1  C   UNL     1       5.942  -2.942   0.114  1.00  0.00     0.105 A 
ATOM      2  C   UNL     1       6.728  -4.055   0.237  1.00  0.00     0.172 A 
ATOM      3  C   UNL     1       5.128  -2.549   1.279  1.00  0.00     0.020 A 
ATOM      4  C   UNL     1       5.466  -3.065   2.488  1.00  0.00     0.005 A 
ATOM      5  C   UNL     1       7.282  -4.461   1.520  1.00  0.00     0.161 A 
ATOM      6  C   UNL     1       6.517  -4.012   2.668  1.00  0.00     0.050 A 
ENDROOT
BRANCH   1   7
ATOM      7  C   UNL     1       5.983  -2.069  -1.152  1.00  0.00     0.339 C 
ATOM      8  O   UNL     1       5.433  -0.591  -0.742  1.00  0.00    -0.246 OA
BRANCH   7   9
ATOM      9  O   UNL     1       6.340  -2.115  -2.142  1.00  0.00    -0.478 OA
ATOM     10  H   UNL     1       6.676  -2.158  -3.072  1.00  0.00     0.297 HD
ENDBRANCH   7   9
ENDBRANCH   1   7
BRANCH   2  11
ATOM     11  O   UNL     1       7.055  -4.846  -0.878  1.00  0.00    -0.504 OA
ATOM     12  H   UNL     1       7.285  -5.404  -1.663  1.00  0.00     0.293 HD
ENDBRANCH   2  11
BRANCH   5  13
ATOM     13  O   UNL     1       8.218  -5.486   1.479  1.00  0.00    -0.493 OA
ATOM     14  C   UNL     1       9.359  -6.084   1.583  1.00  0.00     0.278 C 
ENDBRANCH   5  13
TORSDOF 4
ENDMDL
MODEL 5
REMARK VINA RESULT:    -4.075      2.007      3.027
REMARK INTER + INTRA:          -5.211
REMARK INTER:                  -4.863
REMARK INTRA:                  -0.348
REMARK UNBOUND:                -0.422
REMARK SMILES COc1cccc(C(=O)O)c1O
REMARK SMILES IDX 7 1 11 2 6 3 5 4 3 5 4 6 8 7 9 8 10 9 12 11 2 13 1 14
REMARK H PARENT 10 10 12 12
ROOT
ATOM      1  C   UNL     1       4.686  -3.015   2.182  1.00  0.00     0.105 A 
ATOM      2  C   UNL     1       5.922  -3.478   2.541  1.00  0.00     0.172 A 
ATOM      3  C   UNL     1       4.579  -2.255   0.924  1.00  0.00     0.020 A 
ATOM      4  C   UNL     1       5.596  -2.367   0.030  1.00  0.00     0.005 A 
ATOM      5  C   UNL     1       6.927  -3.822   1.545  1.00  0.00     0.161 A 
ATOM      6  C   UNL     1       6.778  -3.125   0.282  1.00  0.00     0.050 A 
ENDROOT
BRANCH   1   7
ATOM      7  C   UNL     1       3.432  -3.363   3.003  1.00  0.00     0.339 C 
ATOM      8  O   UNL     1       3.813  -3.179   4.576  1.00  0.00    -0.246 OA
BRANCH   7   9
ATOM      9  O   UNL     1       2.413  -3.581   2.850  1.00  0.00    -0.478 OA
ATOM     10  H   UNL     1       1.455  -3.786   2.706  1.00  0.00     0.297 HD
ENDBRANCH   7   9
ENDBRANCH   1   7
BRANCH   2  11
ATOM     11  O   UNL     1       6.271  -3.663   3.890  1.00  0.00    -0.504 OA
ATOM     12  H   UNL     1       6.517  -3.793   4.840  1.00  0.00     0.293 HD
ENDBRANCH   2  11
BRANCH   5  13
ATOM     13  O   UNL     1       8.061  -4.464   2.026  1.00  0.00    -0.493 OA
ATOM     14  C   UNL     1       8.782  -5.303   2.695  1.00  0.00     0.278 C 
ENDBRANCH   5  13
TORSDOF 4
ENDMDL
MODEL 6
REMARK VINA RESULT:    -4.073      2.377      4.651
REMARK INTER + INTRA:          -5.209
REMARK INTER:                  -4.904
REMARK INTRA:                  -0.305
REMARK UNBOUND:                -0.422
REMARK SMILES COc1cccc(C(=O)O)c1O
REMARK SMILES IDX 7 1 11 2 6 3 5 4 3 5 4 6 8 7 9 8 10 9 12 11 2 13 1 14
REMARK H PARENT 10 10 12 12
ROOT
ATOM      1  C   UNL     1       6.363  -4.097  -0.275  1.00  0.00     0.105 A 
ATOM      2  C   UNL     1       5.452  -4.319   0.721  1.00  0.00     0.172 A 
ATOM      3  C   UNL     1       6.349  -2.777  -0.933  1.00  0.00     0.020 A 
ATOM      4  C   UNL     1       5.717  -1.760  -0.293  1.00  0.00     0.005 A 
ATOM      5  C   UNL     1       4.961  -3.236   1.561  1.00  0.00     0.161 A 
ATOM      6  C   UNL     1       5.015  -1.927   0.937  1.00  0.00     0.050 A 
ENDROOT
BRANCH   1   7
ATOM      7  C   UNL     1       7.433  -5.145  -0.629  1.00  0.00     0.339 C 
ATOM      8  O   UNL     1       8.043  -5.710   0.771  1.00  0.00    -0.246 OA
BRANCH   7   9
ATOM      9  O   UNL     1       7.802  -5.655  -1.473  1.00  0.00    -0.478 OA
ATOM     10  H   UNL     1       8.148  -6.134  -2.267  1.00  0.00     0.297 HD
ENDBRANCH   7   9
ENDBRANCH   1   7
BRANCH   2  11
ATOM     11  O   UNL     1       4.966  -5.609   0.994  1.00  0.00    -0.504 OA
ATOM     12  H   UNL     1       4.623  -6.517   1.186  1.00  0.00     0.293 HD
ENDBRANCH   2  11
BRANCH   5  13
ATOM     13  O   UNL     1       4.198  -3.618   2.657  1.00  0.00    -0.493 OA
ATOM     14  C   UNL     1       3.748  -3.634   3.868  1.00  0.00     0.278 C 
ENDBRANCH   5  13
TORSDOF 4
ENDMDL
MODEL 7
REMARK VINA RESULT:    -4.037      2.166      3.103
REMARK INTER + INTRA:          -5.167
REMARK INTER:                  -4.907
REMARK INTRA:                  -0.261
REMARK UNBOUND:                -0.422
REMARK SMILES COc1cccc(C(=O)O)c1O
REMARK SMILES IDX 7 1 11 2 6 3 5 4 3 5 4 6 8 7 9 8 10 9 12 11 2 13 1 14
REMARK H PARENT 10 10 12 12
ROOT
ATOM      1  C   UNL     1       5.934  -3.189   3.536  1.00  0.00     0.105 A 
ATOM      2  C   UNL     1       6.194  -2.537   2.363  1.00  0.00     0.172 A 
ATOM      3  C   UNL     1       4.528  -3.511   3.843  1.00  0.00     0.020 A 
ATOM      4  C   UNL     1       3.636  -3.483   2.819  1.00  0.00     0.005 A 
ATOM      5  C   UNL     1       5.348  -2.709   1.190  1.00  0.00     0.161 A 
ATOM      6  C   UNL     1       3.983  -3.095   1.491  1.00  0.00     0.050 A 
ENDROOT
BRANCH   1   7
ATOM      7  C   UNL     1       7.071  -3.667   4.456  1.00  0.00     0.339 C 
ATOM      8  O   UNL     1       8.175  -4.413   3.518  1.00  0.00    -0.246 OA
BRANCH   7   9
ATOM      9  O   UNL     1       7.381  -3.570   5.457  1.00  0.00    -0.478 OA
ATOM     10  H   UNL     1       7.673  -3.480   6.399  1.00  0.00     0.297 HD
ENDBRANCH   7   9
ENDBRANCH   1   7
BRANCH   2  11
ATOM     11  O   UNL     1       7.304  -1.685   2.230  1.00  0.00    -0.504 OA
ATOM     12  H   UNL     1       8.085  -1.085   2.136  1.00  0.00     0.293 HD
ENDBRANCH   2  11
BRANCH   5  13
ATOM     13  O   UNL     1       5.828  -2.152   0.011  1.00  0.00    -0.493 OA
ATOM     14  C   UNL     1       6.261  -2.087  -1.205  1.00  0.00     0.278 C 
ENDBRANCH   5  13
TORSDOF 4
ENDMDL
MODEL 8
REMARK VINA RESULT:    -3.511      1.451      1.519
REMARK INTER + INTRA:          -4.548
REMARK INTER:                  -4.375
REMARK INTRA:                  -0.173
REMARK UNBOUND:                -0.422
REMARK SMILES COc1cccc(C(=O)O)c1O
REMARK SMILES IDX 7 1 11 2 6 3 5 4 3 5 4 6 8 7 9 8 10 9 12 11 2 13 1 14
REMARK H PARENT 10 10 12 12
ROOT
ATOM      1  C   UNL     1       4.477  -3.836   2.464  1.00  0.00     0.105 A 
ATOM      2  C   UNL     1       4.642  -2.979   1.411  1.00  0.00     0.172 A 
ATOM      3  C   UNL     1       5.331  -5.037   2.509  1.00  0.00     0.020 A 
ATOM      4  C   UNL     1       6.451  -5.044   1.741  1.00  0.00     0.005 A 
ATOM      5  C   UNL     1       5.929  -2.825   0.747  1.00  0.00     0.161 A 
ATOM      6  C   UNL     1       6.797  -3.983   0.853  1.00  0.00     0.050 A 
ENDROOT
BRANCH   1   7
ATOM      7  C   UNL     1       3.512  -3.510   3.617  1.00  0.00     0.339 C 
ATOM      8  O   UNL     1       2.001  -3.526   3.007  1.00  0.00    -0.246 OA
BRANCH   7   9
ATOM      9  O   UNL     1       3.531  -3.384   4.662  1.00  0.00    -0.478 OA
ATOM     10  H   UNL     1       3.549  -3.264   5.645  1.00  0.00     0.297 HD
ENDBRANCH   7   9
ENDBRANCH   1   7
BRANCH   2  11
ATOM     11  O   UNL     1       3.581  -2.191   0.936  1.00  0.00    -0.504 OA
ATOM     12  H   UNL     1       2.833  -1.635   0.601  1.00  0.00     0.293 HD
ENDBRANCH   2  11
BRANCH   5  13
ATOM     13  O   UNL     1       6.015  -1.787  -0.172  1.00  0.00    -0.493 OA
ATOM     14  C   UNL     1       5.649  -0.779  -0.893  1.00  0.00     0.278 C 
ENDBRANCH   5  13
TORSDOF 4
ENDMDL
MODEL 9
REMARK VINA RESULT:    -3.362      2.299      4.516
REMARK INTER + INTRA:          -4.374
REMARK INTER:                  -4.241
REMARK INTRA:                  -0.133
REMARK UNBOUND:                -0.422
REMARK SMILES COc1cccc(C(=O)O)c1O
REMARK SMILES IDX 7 1 11 2 6 3 5 4 3 5 4 6 8 7 9 8 10 9 12 11 2 13 1 14
REMARK H PARENT 10 10 12 12
ROOT
ATOM      1  C   UNL     1       5.813  -3.292   1.246  1.00  0.00     0.105 A 
ATOM      2  C   UNL     1       6.606  -3.561   2.328  1.00  0.00     0.172 A 
ATOM      3  C   UNL     1       4.355  -3.428   1.417  1.00  0.00     0.020 A 
ATOM      4  C   UNL     1       3.867  -3.445   2.684  1.00  0.00     0.005 A 
ATOM      5  C   UNL     1       6.139  -3.344   3.689  1.00  0.00     0.161 A 
ATOM      6  C   UNL     1       4.698  -3.407   3.842  1.00  0.00     0.050 A 
ENDROOT
BRANCH   1   7
ATOM      7  C   UNL     1       6.409  -2.766  -0.072  1.00  0.00     0.339 C 
ATOM      8  O   UNL     1       6.738  -4.058  -1.008  1.00  0.00    -0.246 OA
BRANCH   7   9
ATOM      9  O   UNL     1       6.567  -1.850  -0.565  1.00  0.00    -0.478 OA
ATOM     10  H   UNL     1       6.716  -0.988  -1.030  1.00  0.00     0.297 HD
ENDBRANCH   7   9
ENDBRANCH   1   7
BRANCH   2  11
ATOM     11  O   UNL     1       7.918  -4.040   2.172  1.00  0.00    -0.504 OA
ATOM     12  H   UNL     1       8.843  -4.377   2.063  1.00  0.00     0.293 HD
ENDBRANCH   2  11
BRANCH   5  13
ATOM     13  O   UNL     1       7.100  -3.465   4.686  1.00  0.00    -0.493 OA
ATOM     14  C   UNL     1       7.890  -4.028   5.539  1.00  0.00     0.278 C 
ENDBRANCH   5  13
TORSDOF 4
ENDMDL
