MODEL 1
REMARK VINA RESULT:    -4.976      0.000      0.000
REMARK INTER + INTRA:          -6.191
REMARK INTER:                  -5.849
REMARK INTRA:                  -0.343
REMARK UNBOUND:                -0.343
REMARK SMILES COc1cccc(C(=O)O)c1O
REMARK SMILES IDX 7 1 11 2 6 3 5 4 3 5 4 6 8 7 9 8 10 9 12 11 2 13 1 14
REMARK H PARENT 10 10 12 12
ROOT
ATOM      1  C   UNL     1       6.696   1.140   3.134  1.00  0.00     0.105 A 
ATOM      2  C   UNL     1       5.547   1.867   3.278  1.00  0.00     0.172 A 
ATOM      3  C   UNL     1       7.479   0.851   4.350  1.00  0.00     0.020 A 
ATOM      4  C   UNL     1       6.857   0.989   5.549  1.00  0.00     0.005 A 
ATOM      5  C   UNL     1       4.759   1.815   4.501  1.00  0.00     0.161 A 
ATOM      6  C   UNL     1       5.518   1.461   5.685  1.00  0.00     0.050 A 
ENDROOT
BRANCH   1   7
ATOM      7  C   UNL     1       7.106   0.552   1.773  1.00  0.00     0.339 C 
ATOM      8  O   UNL     1       5.901   0.866   0.724  1.00  0.00    -0.246 OA
BRANCH   7   9
ATOM      9  O   UNL     1       7.946   0.111   1.314  1.00  0.00    -0.478 OA
ATOM     10  H   UNL     1       8.735  -0.303   0.883  1.00  0.00     0.297 HD
ENDBRANCH   7   9
ENDBRANCH   1   7
BRANCH   2  11
ATOM     11  O   UNL     1       5.063   2.683   2.241  1.00  0.00    -0.504 OA
ATOM     12  H   UNL     1       4.722   3.258   1.511  1.00  0.00     0.293 HD
ENDBRANCH   2  11
BRANCH   5  13
ATOM     13  O   UNL     1       3.519   2.439   4.449  1.00  0.00    -0.493 OA
ATOM     14  C   UNL     1       2.643   3.389   4.476  1.00  0.00     0.278 C 
ENDBRANCH   5  13
TORSDOF 4
ENDMDL
MODEL 2
REMARK VINA RESULT:    -4.936      1.819      4.618
REMARK INTER + INTRA:          -6.144
REMARK INTER:                  -5.711
REMARK INTRA:                  -0.433
REMARK UNBOUND:                -0.343
REMARK SMILES COc1cccc(C(=O)O)c1O
REMARK SMILES IDX 7 1 11 2 6 3 5 4 3 5 4 6 8 7 9 8 10 9 12 11 2 13 1 14
REMARK H PARENT 10 10 12 12
ROOT
ATOM      1  C   UNL     1       4.282   3.402   4.124  1.00  0.00     0.105 A 
ATOM      2  C   UNL     1       4.995   2.375   3.568  1.00  0.00     0.172 A 
ATOM      3  C   UNL     1       4.938   4.720   4.211  1.00  0.00     0.020 A 
ATOM      4  C   UNL     1       6.027   4.936   3.429  1.00  0.00     0.005 A 
ATOM      5  C   UNL     1       6.005   2.612   2.546  1.00  0.00     0.161 A 
ATOM      6  C   UNL     1       6.598   3.935   2.590  1.00  0.00     0.050 A 
ENDROOT
BRANCH   1   7
ATOM      7  C   UNL     1       2.814   3.221   4.546  1.00  0.00     0.339 C 
ATOM      8  O   UNL     1       2.293   1.817   3.906  1.00  0.00    -0.246 OA
BRANCH   7   9
ATOM      9  O   UNL     1       2.106   3.670   5.184  1.00  0.00    -0.478 OA
ATOM     10  H   UNL     1       1.440   4.091   5.783  1.00  0.00     0.297 HD
ENDBRANCH   7   9
ENDBRANCH   1   7
BRANCH   2  11
ATOM     11  O   UNL     1       4.768   1.040   3.944  1.00  0.00    -0.504 OA
ATOM     12  H   UNL     1       4.609   0.100   4.209  1.00  0.00     0.293 HD
ENDBRANCH   2  11
BRANCH   5  13
ATOM     13  O   UNL     1       6.513   1.479   1.924  1.00  0.00    -0.493 OA
ATOM     14  C   UNL     1       7.229   0.418   1.746  1.00  0.00     0.278 C 
ENDBRANCH   5  13
TORSDOF 4
ENDMDL
MODEL 3
REMARK VINA RESULT:    -4.798      2.841      4.342
REMARK INTER + INTRA:          -5.983
REMARK INTER:                  -5.712
REMARK INTRA:                  -0.270
REMARK UNBOUND:                -0.343
REMARK SMILES COc1cccc(C(=O)O)c1O
REMARK SMILES IDX 7 1 11 2 6 3 5 4 3 5 4 6 8 7 9 8 10 9 12 11 2 13 1 14
REMARK H PARENT 10 10 12 12
ROOT
ATOM      1  C   UNL     1       4.364   3.074   4.046  1.00  0.00     0.105 A 
ATOM      2  C   UNL     1       5.303   3.991   4.431  1.00  0.00     0.172 A 
ATOM      3  C   UNL     1       4.845   1.771   3.552  1.00  0.00     0.020 A 
ATOM      4  C   UNL     1       6.123   1.417   3.844  1.00  0.00     0.005 A 
ATOM      5  C   UNL     1       6.593   3.584   4.971  1.00  0.00     0.161 A 
ATOM      6  C   UNL     1       7.031   2.270   4.539  1.00  0.00     0.050 A 
ENDROOT
BRANCH   1   7
ATOM      7  C   UNL     1       2.860   3.347   4.219  1.00  0.00     0.339 C 
ATOM      8  O   UNL     1       2.098   1.908   4.189  1.00  0.00    -0.246 OA
BRANCH   7   9
ATOM      9  O   UNL     1       2.215   4.149   4.442  1.00  0.00    -0.478 OA
ATOM     10  H   UNL     1       1.609   4.903   4.651  1.00  0.00     0.297 HD
ENDBRANCH   7   9
ENDBRANCH   1   7
BRANCH   2  11
ATOM     11  O   UNL     1       5.056   5.372   4.344  1.00  0.00    -0.504 OA
ATOM     12  H   UNL     1       4.881   6.345   4.282  1.00  0.00     0.293 HD
ENDBRANCH   2  11
BRANCH   5  13
ATOM     13  O   UNL     1       7.373   4.600   5.506  1.00  0.00    -0.493 OA
ATOM     14  C   UNL     1       8.096   5.244   6.363  1.00  0.00     0.278 C 
ENDBRANCH   5  13
TORSDOF 4
ENDMDL
MODEL 4
REMARK VINA RESULT:    -4.792      2.237      3.232
REMARK INTER + INTRA:          -5.975
REMARK INTER:                  -5.704
REMARK INTRA:                  -0.271
REMARK UNBOUND:                -0.343
REMARK SMILES COc1cccc(C(=O)O)c1O
REMARK SMILES IDX 7 1 11 2 6 3 5 4 3 5 4 6 8 7 9 8 10 9 12 11 2 13 1 14
REMARK H PARENT 10 10 12 12
ROOT
ATOM      1  C   UNL     1       6.404   1.383   3.051  1.00  0.00     0.105 A 
ATOM      2  C   UNL     1       7.108   1.613   4.201  1.00  0.00     0.172 A 
ATOM      3  C   UNL     1       5.164   2.153   2.843  1.00  0.00     0.020 A 
ATOM      4  C   UNL     1       4.985   3.274   3.588  1.00  0.00     0.005 A 
ATOM      5  C   UNL     1       7.090   2.911   4.860  1.00  0.00     0.161 A 
ATOM      6  C   UNL     1       5.899   3.697   4.597  1.00  0.00     0.050 A 
ENDROOT
BRANCH   1   7
ATOM      7  C   UNL     1       6.937   0.436   1.962  1.00  0.00     0.339 C 
ATOM      8  O   UNL     1       6.181   0.819   0.571  1.00  0.00    -0.246 OA
BRANCH   7   9
ATOM      9  O   UNL     1       7.688  -0.291   1.834  1.00  0.00    -0.478 OA
ATOM     10  H   UNL     1       8.395  -0.974   1.714  1.00  0.00     0.297 HD
ENDBRANCH   7   9
ENDBRANCH   1   7
BRANCH   2  11
ATOM     11  O   UNL     1       7.900   0.611   4.787  1.00  0.00    -0.504 OA
ATOM     12  H   UNL     1       8.458  -0.095   5.199  1.00  0.00     0.293 HD
ENDBRANCH   2  11
BRANCH   5  13
ATOM     13  O   UNL     1       7.996   3.074   5.901  1.00  0.00    -0.493 OA
ATOM     14  C   UNL     1       9.001   3.544   6.564  1.00  0.00     0.278 C 
ENDBRANCH   5  13
TORSDOF 4
ENDMDL
MODEL 5
REMARK VINA RESULT:    -4.196      2.429      4.645
REMARK INTER + INTRA:          -5.275
REMARK INTER:                  -4.978
REMARK INTRA:                  -0.297
REMARK UNBOUND:                -0.343
REMARK SMILES COc1cccc(C(=O)O)c1O
REMARK SMILES IDX 7 1 11 2 6 3 5 4 3 5 4 6 8 7 9 8 10 9 12 11 2 13 1 14
REMARK H PARENT 10 10 12 12
ROOT
ATOM      1  C   UNL     1       4.861   4.294   4.002  1.00  0.00     0.105 A 
ATOM      2  C   UNL     1       5.593   3.533   3.133  1.00  0.00     0.172 A 
ATOM      3  C   UNL     1       3.510   3.820   4.355  1.00  0.00     0.020 A 
ATOM      4  C   UNL     1       3.214   2.518   4.108  1.00  0.00     0.005 A 
ATOM      5  C   UNL     1       5.424   2.089   3.054  1.00  0.00     0.161 A 
ATOM      6  C   UNL     1       4.116   1.618   3.469  1.00  0.00     0.050 A 
ENDROOT
BRANCH   1   7
ATOM      7  C   UNL     1       5.459   5.543   4.672  1.00  0.00     0.339 C 
ATOM      8  O   UNL     1       6.960   5.155   5.173  1.00  0.00    -0.246 OA
BRANCH   7   9
ATOM      9  O   UNL     1       5.232   6.562   4.808  1.00  0.00    -0.478 OA
ATOM     10  H   UNL     1       5.018   7.520   4.936  1.00  0.00     0.297 HD
ENDBRANCH   7   9
ENDBRANCH   1   7
BRANCH   2  11
ATOM     11  O   UNL     1       6.559   4.109   2.290  1.00  0.00    -0.504 OA
ATOM     12  H   UNL     1       7.240   4.515   1.697  1.00  0.00     0.293 HD
ENDBRANCH   2  11
BRANCH   5  13
ATOM     13  O   UNL     1       6.359   1.412   2.281  1.00  0.00    -0.493 OA
ATOM     14  C   UNL     1       7.219   0.508   1.943  1.00  0.00     0.278 C 
ENDBRANCH   5  13
TORSDOF 4
ENDMDL
MODEL 6
REMARK VINA RESULT:    -4.183      2.143      3.091
REMARK INTER + INTRA:          -5.259
REMARK INTER:                  -5.053
REMARK INTRA:                  -0.206
REMARK UNBOUND:                -0.343
REMARK SMILES COc1cccc(C(=O)O)c1O
REMARK SMILES IDX 7 1 11 2 6 3 5 4 3 5 4 6 8 7 9 8 10 9 12 11 2 13 1 14
REMARK H PARENT 10 10 12 12
ROOT
ATOM      1  C   UNL     1       7.000   0.983   4.153  1.00  0.00     0.105 A 
ATOM      2  C   UNL     1       5.738   1.368   4.512  1.00  0.00     0.172 A 
ATOM      3  C   UNL     1       7.238   0.659   2.735  1.00  0.00     0.020 A 
ATOM      4  C   UNL     1       6.332   1.100   1.825  1.00  0.00     0.005 A 
ATOM      5  C   UNL     1       4.857   2.061   3.582  1.00  0.00     0.161 A 
ATOM      6  C   UNL     1       5.140   1.796   2.184  1.00  0.00     0.050 A 
ENDROOT
BRANCH   1   7
ATOM      7  C   UNL     1       8.157   0.989   5.167  1.00  0.00     0.339 C 
ATOM      8  O   UNL     1       8.257   2.493   5.784  1.00  0.00    -0.246 OA
BRANCH   7   9
ATOM      9  O   UNL     1       8.813   0.310   5.633  1.00  0.00    -0.478 OA
ATOM     10  H   UNL     1       9.430  -0.329   6.072  1.00  0.00     0.297 HD
ENDBRANCH   7   9
ENDBRANCH   1   7
BRANCH   2  11
ATOM     11  O   UNL     1       5.240   1.131   5.805  1.00  0.00    -0.504 OA
ATOM     12  H   UNL     1       4.890   0.964   6.716  1.00  0.00     0.293 HD
ENDBRANCH   2  11
BRANCH   5  13
ATOM     13  O   UNL     1       3.685   2.572   4.125  1.00  0.00    -0.493 OA
ATOM     14  C   UNL     1       2.813   3.443   4.512  1.00  0.00     0.278 C 
ENDBRANCH   5  13
TORSDOF 4
ENDMDL
MODEL 7
REMARK VINA RESULT:    -4.171      2.355      4.642
REMARK INTER + INTRA:          -5.245
REMARK INTER:                  -4.832
REMARK INTRA:                  -0.413
REMARK UNBOUND:                -0.343
REMARK SMILES COc1cccc(C(=O)O)c1O
REMARK SMILES IDX 7 1 11 2 6 3 5 4 3 5 4 6 8 7 9 8 10 9 12 11 2 13 1 14
REMARK H PARENT 10 10 12 12
ROOT
ATOM      1  C   UNL     1       4.186   3.489   4.571  1.00  0.00     0.105 A 
ATOM      2  C   UNL     1       5.032   2.494   4.975  1.00  0.00     0.172 A 
ATOM      3  C   UNL     1       4.788   4.762   4.133  1.00  0.00     0.020 A 
ATOM      4  C   UNL     1       6.106   4.757   3.807  1.00  0.00     0.005 A 
ATOM      5  C   UNL     1       6.375   2.365   4.430  1.00  0.00     0.161 A 
ATOM      6  C   UNL     1       6.938   3.607   3.934  1.00  0.00     0.050 A 
ENDROOT
BRANCH   1   7
ATOM      7  C   UNL     1       2.667   3.260   4.474  1.00  0.00     0.339 C 
ATOM      8  O   UNL     1       2.437   1.716   4.008  1.00  0.00    -0.246 OA
BRANCH   7   9
ATOM      9  O   UNL     1       1.769   3.757   4.707  1.00  0.00    -0.478 OA
ATOM     10  H   UNL     1       0.924   4.224   4.925  1.00  0.00     0.297 HD
ENDBRANCH   7   9
ENDBRANCH   1   7
BRANCH   2  11
ATOM     11  O   UNL     1       4.633   1.534   5.922  1.00  0.00    -0.504 OA
ATOM     12  H   UNL     1       4.353   0.859   6.589  1.00  0.00     0.293 HD
ENDBRANCH   2  11
BRANCH   5  13
ATOM     13  O   UNL     1       7.059   1.205   4.771  1.00  0.00    -0.493 OA
ATOM     14  C   UNL     1       8.029   0.446   5.161  1.00  0.00     0.278 C 
ENDBRANCH   5  13
TORSDOF 4
ENDMDL
MODEL 8
REMARK VINA RESULT:    -3.935      2.235      4.396
REMARK INTER + INTRA:          -4.968
REMARK INTER:                  -4.725
REMARK INTRA:                  -0.243
REMARK UNBOUND:                -0.343
REMARK SMILES COc1cccc(C(=O)O)c1O
REMARK SMILES IDX 7 1 11 2 6 3 5 4 3 5 4 6 8 7 9 8 10 9 12 11 2 13 1 14
REMARK H PARENT 10 10 12 12
ROOT
ATOM      1  C   UNL     1       4.874   2.293   3.899  1.00  0.00     0.105 A 
ATOM      2  C   UNL     1       5.993   2.155   4.674  1.00  0.00     0.172 A 
ATOM      3  C   UNL     1       4.995   1.981   2.463  1.00  0.00     0.020 A 
ATOM      4  C   UNL     1       6.063   1.242   2.065  1.00  0.00     0.005 A 
ATOM      5  C   UNL     1       7.025   1.178   4.357  1.00  0.00     0.161 A 
ATOM      6  C   UNL     1       7.095   0.819   2.953  1.00  0.00     0.050 A 
ENDROOT
BRANCH   1   7
ATOM      7  C   UNL     1       3.513   2.658   4.516  1.00  0.00     0.339 C 
ATOM      8  O   UNL     1       2.396   1.683   3.842  1.00  0.00    -0.246 OA
BRANCH   7   9
ATOM      9  O   UNL     1       3.122   3.260   5.286  1.00  0.00    -0.478 OA
ATOM     10  H   UNL     1       2.754   3.826   6.010  1.00  0.00     0.297 HD
ENDBRANCH   7   9
ENDBRANCH   1   7
BRANCH   2  11
ATOM     11  O   UNL     1       6.186   2.936   5.826  1.00  0.00    -0.504 OA
ATOM     12  H   UNL     1       6.321   3.486   6.638  1.00  0.00     0.293 HD
ENDBRANCH   2  11
BRANCH   5  13
ATOM     13  O   UNL     1       8.006   0.999   5.325  1.00  0.00    -0.493 OA
ATOM     14  C   UNL     1       9.184   0.856   5.838  1.00  0.00     0.278 C 
ENDBRANCH   5  13
TORSDOF 4
ENDMDL
MODEL 9
REMARK VINA RESULT:    -3.755      2.276      2.947
REMARK INTER + INTRA:          -4.756
REMARK INTER:                  -4.272
REMARK INTRA:                  -0.484
REMARK UNBOUND:                -0.343
REMARK SMILES COc1cccc(C(=O)O)c1O
REMARK SMILES IDX 7 1 11 2 6 3 5 4 3 5 4 6 8 7 9 8 10 9 12 11 2 13 1 14
REMARK H PARENT 10 10 12 12
ROOT
ATOM      1  C   UNL     1       5.469   1.955   3.247  1.00  0.00     0.105 A 
ATOM      2  C   UNL     1       5.939   3.080   3.866  1.00  0.00     0.172 A 
ATOM      3  C   UNL     1       4.065   1.576   3.493  1.00  0.00     0.020 A 
ATOM      4  C   UNL     1       3.234   2.524   3.998  1.00  0.00     0.005 A 
ATOM      5  C   UNL     1       5.064   4.198   4.187  1.00  0.00     0.161 A 
ATOM      6  C   UNL     1       3.670   3.833   4.359  1.00  0.00     0.050 A 
ENDROOT
BRANCH   1   7
ATOM      7  C   UNL     1       6.335   1.170   2.247  1.00  0.00     0.339 C 
ATOM      8  O   UNL     1       7.606   2.112   1.859  1.00  0.00    -0.246 OA
BRANCH   7   9
ATOM      9  O   UNL     1       6.398   0.205   1.832  1.00  0.00    -0.478 OA
ATOM     10  H   UNL     1       6.457  -0.704   1.442  1.00  0.00     0.297 HD
ENDBRANCH   7   9
ENDBRANCH   1   7
BRANCH   2  11
ATOM     11  O   UNL     1       7.297   3.217   4.201  1.00  0.00    -0.504 OA
ATOM     12  H   UNL     1       8.254   3.314   4.437  1.00  0.00     0.293 HD
ENDBRANCH   2  11
BRANCH   5  13
ATOM     13  O   UNL     1       5.695   5.354   4.631  1.00  0.00    -0.493 OA
ATOM     14  C   UNL     1       5.832   6.548   5.104  1.00  0.00     0.278 C 
ENDBRANCH   5  13
TORSDOF 4
ENDMDL
