MODEL 1
REMARK VINA RESULT:    -4.897      0.000      0.000
REMARK INTER + INTRA:          -6.074
REMARK INTER:                  -5.756
REMARK INTRA:                  -0.318
REMARK UNBOUND:                -0.318
REMARK SMILES COc1cccc(C(=O)O)c1O
REMARK SMILES IDX 7 1 11 2 6 3 5 4 3 5 4 6 8 7 9 8 10 9 12 11 2 13 1 14
REMARK H PARENT 10 10 12 12
ROOT
ATOM      1  C   UNL     1      -1.189   6.287  -4.217  1.00  0.00     0.105 A 
ATOM      2  C   UNL     1      -1.910   6.359  -3.057  1.00  0.00     0.172 A 
ATOM      3  C   UNL     1      -0.310   7.424  -4.548  1.00  0.00     0.020 A 
ATOM      4  C   UNL     1       0.016   8.281  -3.546  1.00  0.00     0.005 A 
ATOM      5  C   UNL     1      -1.423   7.097  -1.900  1.00  0.00     0.161 A 
ATOM      6  C   UNL     1      -0.502   8.171  -2.223  1.00  0.00     0.050 A 
ENDROOT
BRANCH   1   7
ATOM      7  C   UNL     1      -1.209   5.024  -5.095  1.00  0.00     0.339 C 
ATOM      8  O   UNL     1      -2.128   3.916  -4.333  1.00  0.00    -0.246 OA
BRANCH   7   9
ATOM      9  O   UNL     1      -0.897   4.711  -6.051  1.00  0.00    -0.478 OA
ATOM     10  H   UNL     1      -0.605   4.417  -6.950  1.00  0.00     0.297 HD
ENDBRANCH   7   9
ENDBRANCH   1   7
BRANCH   2  11
ATOM     11  O   UNL     1      -3.146   5.705  -2.923  1.00  0.00    -0.504 OA
ATOM     12  H   UNL     1      -4.017   5.243  -2.828  1.00  0.00     0.293 HD
ENDBRANCH   2  11
BRANCH   5  13
ATOM     13  O   UNL     1      -2.148   6.930  -0.727  1.00  0.00    -0.493 OA
ATOM     14  C   UNL     1      -3.104   7.069   0.132  1.00  0.00     0.278 C 
ENDBRANCH   5  13
TORSDOF 4
ENDMDL
MODEL 2
REMARK VINA RESULT:    -4.889      2.926      4.412
REMARK INTER + INTRA:          -6.064
REMARK INTER:                  -5.794
REMARK INTRA:                  -0.270
REMARK UNBOUND:                -0.318
REMARK SMILES COc1cccc(C(=O)O)c1O
REMARK SMILES IDX 7 1 11 2 6 3 5 4 3 5 4 6 8 7 9 8 10 9 12 11 2 13 1 14
REMARK H PARENT 10 10 12 12
ROOT
ATOM      1  C   UNL     1      -2.877   7.247  -1.539  1.00  0.00     0.105 A 
ATOM      2  C   UNL     1      -3.384   8.325  -2.212  1.00  0.00     0.172 A 
ATOM      3  C   UNL     1      -1.906   6.394  -2.249  1.00  0.00     0.020 A 
ATOM      4  C   UNL     1      -1.302   6.908  -3.351  1.00  0.00     0.005 A 
ATOM      5  C   UNL     1      -2.616   9.016  -3.237  1.00  0.00     0.161 A 
ATOM      6  C   UNL     1      -1.612   8.193  -3.885  1.00  0.00     0.050 A 
ENDROOT
BRANCH   1   7
ATOM      7  C   UNL     1      -3.222   6.990  -0.062  1.00  0.00     0.339 C 
ATOM      8  O   UNL     1      -2.078   5.999   0.540  1.00  0.00    -0.246 OA
BRANCH   7   9
ATOM      9  O   UNL     1      -3.897   7.331   0.670  1.00  0.00    -0.478 OA
ATOM     10  H   UNL     1      -4.532   7.652   1.359  1.00  0.00     0.297 HD
ENDBRANCH   7   9
ENDBRANCH   1   7
BRANCH   2  11
ATOM     11  O   UNL     1      -4.665   8.828  -1.927  1.00  0.00    -0.504 OA
ATOM     12  H   UNL     1      -5.568   9.183  -1.726  1.00  0.00     0.293 HD
ENDBRANCH   2  11
BRANCH   5  13
ATOM     13  O   UNL     1      -3.160  10.207  -3.702  1.00  0.00    -0.493 OA
ATOM     14  C   UNL     1      -3.240  11.461  -4.003  1.00  0.00     0.278 C 
ENDBRANCH   5  13
TORSDOF 4
ENDMDL
MODEL 3
REMARK VINA RESULT:    -4.889      2.247      3.302
REMARK INTER + INTRA:          -6.064
REMARK INTER:                  -5.794
REMARK INTRA:                  -0.270
REMARK UNBOUND:                -0.318
REMARK SMILES COc1cccc(C(=O)O)c1O
REMARK SMILES IDX 7 1 11 2 6 3 5 4 3 5 4 6 8 7 9 8 10 9 12 11 2 13 1 14
REMARK H PARENT 10 10 12 12
ROOT
ATOM      1  C   UNL     1      -1.425   6.253  -4.088  1.00  0.00     0.105 A 
ATOM      2  C   UNL     1      -0.971   7.511  -4.370  1.00  0.00     0.172 A 
ATOM      3  C   UNL     1      -2.392   6.107  -2.985  1.00  0.00     0.020 A 
ATOM      4  C   UNL     1      -3.046   7.221  -2.566  1.00  0.00     0.005 A 
ATOM      5  C   UNL     1      -1.791   8.691  -4.132  1.00  0.00     0.161 A 
ATOM      6  C   UNL     1      -2.791   8.521  -3.094  1.00  0.00     0.050 A 
ENDROOT
BRANCH   1   7
ATOM      7  C   UNL     1      -1.027   5.045  -4.953  1.00  0.00     0.339 C 
ATOM      8  O   UNL     1      -2.121   3.869  -4.682  1.00  0.00    -0.246 OA
BRANCH   7   9
ATOM      9  O   UNL     1      -0.340   4.799  -5.713  1.00  0.00    -0.478 OA
ATOM     10  H   UNL     1       0.305   4.569  -6.428  1.00  0.00     0.297 HD
ENDBRANCH   7   9
ENDBRANCH   1   7
BRANCH   2  11
ATOM     11  O   UNL     1       0.303   7.722  -4.926  1.00  0.00    -0.504 OA
ATOM     12  H   UNL     1       1.200   7.870  -5.317  1.00  0.00     0.293 HD
ENDBRANCH   2  11
BRANCH   5  13
ATOM     13  O   UNL     1      -1.297   9.885  -4.642  1.00  0.00    -0.493 OA
ATOM     14  C   UNL     1      -1.292  11.038  -5.225  1.00  0.00     0.278 C 
ENDBRANCH   5  13
TORSDOF 4
ENDMDL
MODEL 4
REMARK VINA RESULT:    -4.886      1.839      4.619
REMARK INTER + INTRA:          -6.061
REMARK INTER:                  -5.579
REMARK INTRA:                  -0.482
REMARK UNBOUND:                -0.318
REMARK SMILES COc1cccc(C(=O)O)c1O
REMARK SMILES IDX 7 1 11 2 6 3 5 4 3 5 4 6 8 7 9 8 10 9 12 11 2 13 1 14
REMARK H PARENT 10 10 12 12
ROOT
ATOM      1  C   UNL     1      -3.034   7.495  -1.444  1.00  0.00     0.105 A 
ATOM      2  C   UNL     1      -2.122   6.983  -2.325  1.00  0.00     0.172 A 
ATOM      3  C   UNL     1      -4.158   8.271  -1.999  1.00  0.00     0.020 A 
ATOM      4  C   UNL     1      -4.433   8.128  -3.321  1.00  0.00     0.005 A 
ATOM      5  C   UNL     1      -2.497   6.609  -3.682  1.00  0.00     0.161 A 
ATOM      6  C   UNL     1      -3.649   7.324  -4.199  1.00  0.00     0.050 A 
ENDROOT
BRANCH   1   7
ATOM      7  C   UNL     1      -2.953   7.188   0.061  1.00  0.00     0.339 C 
ATOM      8  O   UNL     1      -2.034   5.855   0.237  1.00  0.00    -0.246 OA
BRANCH   7   9
ATOM      9  O   UNL     1      -3.223   7.625   0.980  1.00  0.00    -0.478 OA
ATOM     10  H   UNL     1      -3.477   8.035   1.845  1.00  0.00     0.297 HD
ENDBRANCH   7   9
ENDBRANCH   1   7
BRANCH   2  11
ATOM     11  O   UNL     1      -0.783   6.773  -1.953  1.00  0.00    -0.504 OA
ATOM     12  H   UNL     1       0.160   6.624  -1.690  1.00  0.00     0.293 HD
ENDBRANCH   2  11
BRANCH   5  13
ATOM     13  O   UNL     1      -1.534   5.921  -4.408  1.00  0.00    -0.493 OA
ATOM     14  C   UNL     1      -1.011   5.006  -5.156  1.00  0.00     0.278 C 
ENDBRANCH   5  13
TORSDOF 4
ENDMDL
MODEL 5
REMARK VINA RESULT:    -4.245      2.676      4.250
REMARK INTER + INTRA:          -5.307
REMARK INTER:                  -4.841
REMARK INTRA:                  -0.466
REMARK UNBOUND:                -0.318
REMARK SMILES COc1cccc(C(=O)O)c1O
REMARK SMILES IDX 7 1 11 2 6 3 5 4 3 5 4 6 8 7 9 8 10 9 12 11 2 13 1 14
REMARK H PARENT 10 10 12 12
ROOT
ATOM      1  C   UNL     1      -2.568   6.559  -1.830  1.00  0.00     0.105 A 
ATOM      2  C   UNL     1      -2.885   7.706  -2.505  1.00  0.00     0.172 A 
ATOM      3  C   UNL     1      -2.084   5.412  -2.619  1.00  0.00     0.020 A 
ATOM      4  C   UNL     1      -1.635   5.657  -3.878  1.00  0.00     0.005 A 
ATOM      5  C   UNL     1      -2.214   8.071  -3.745  1.00  0.00     0.161 A 
ATOM      6  C   UNL     1      -1.675   6.946  -4.485  1.00  0.00     0.050 A 
ENDROOT
BRANCH   1   7
ATOM      7  C   UNL     1      -2.613   6.497  -0.293  1.00  0.00     0.339 C 
ATOM      8  O   UNL     1      -3.992   7.223   0.183  1.00  0.00    -0.246 OA
BRANCH   7   9
ATOM      9  O   UNL     1      -2.086   6.055   0.503  1.00  0.00    -0.478 OA
ATOM     10  H   UNL     1      -1.590   5.639   1.253  1.00  0.00     0.297 HD
ENDBRANCH   7   9
ENDBRANCH   1   7
BRANCH   2  11
ATOM     11  O   UNL     1      -3.859   8.595  -2.021  1.00  0.00    -0.504 OA
ATOM     12  H   UNL     1      -4.545   9.222  -1.679  1.00  0.00     0.293 HD
ENDBRANCH   2  11
BRANCH   5  13
ATOM     13  O   UNL     1      -2.482   9.347  -4.225  1.00  0.00    -0.493 OA
ATOM     14  C   UNL     1      -2.271  10.508  -4.751  1.00  0.00     0.278 C 
ENDBRANCH   5  13
TORSDOF 4
ENDMDL
MODEL 6
REMARK VINA RESULT:    -4.203      2.495      4.636
REMARK INTER + INTRA:          -5.259
REMARK INTER:                  -5.008
REMARK INTRA:                  -0.251
REMARK UNBOUND:                -0.318
REMARK SMILES COc1cccc(C(=O)O)c1O
REMARK SMILES IDX 7 1 11 2 6 3 5 4 3 5 4 6 8 7 9 8 10 9 12 11 2 13 1 14
REMARK H PARENT 10 10 12 12
ROOT
ATOM      1  C   UNL     1      -3.761   7.961  -2.185  1.00  0.00     0.105 A 
ATOM      2  C   UNL     1      -3.397   7.107  -3.190  1.00  0.00     0.172 A 
ATOM      3  C   UNL     1      -3.413   7.580  -0.804  1.00  0.00     0.020 A 
ATOM      4  C   UNL     1      -2.459   6.629  -0.634  1.00  0.00     0.005 A 
ATOM      5  C   UNL     1      -2.219   6.259  -3.081  1.00  0.00     0.161 A 
ATOM      6  C   UNL     1      -1.836   5.943  -1.717  1.00  0.00     0.050 A 
ENDROOT
BRANCH   1   7
ATOM      7  C   UNL     1      -4.416   9.320  -2.488  1.00  0.00     0.339 C 
ATOM      8  O   UNL     1      -3.539  10.033  -3.661  1.00  0.00    -0.246 OA
BRANCH   7   9
ATOM      9  O   UNL     1      -5.286   9.859  -2.241  1.00  0.00    -0.478 OA
ATOM     10  H   UNL     1      -6.104  10.366  -2.008  1.00  0.00     0.297 HD
ENDBRANCH   7   9
ENDBRANCH   1   7
BRANCH   2  11
ATOM     11  O   UNL     1      -4.133   7.027  -4.385  1.00  0.00    -0.504 OA
ATOM     12  H   UNL     1      -4.651   6.969  -5.226  1.00  0.00     0.293 HD
ENDBRANCH   2  11
BRANCH   5  13
ATOM     13  O   UNL     1      -1.846   5.589  -4.239  1.00  0.00    -0.493 OA
ATOM     14  C   UNL     1      -1.083   5.126  -5.174  1.00  0.00     0.278 C 
ENDBRANCH   5  13
TORSDOF 4
ENDMDL
MODEL 7
REMARK VINA RESULT:    -4.195      2.190      3.109
REMARK INTER + INTRA:          -5.248
REMARK INTER:                  -4.936
REMARK INTRA:                  -0.313
REMARK UNBOUND:                -0.318
REMARK SMILES COc1cccc(C(=O)O)c1O
REMARK SMILES IDX 7 1 11 2 6 3 5 4 3 5 4 6 8 7 9 8 10 9 12 11 2 13 1 14
REMARK H PARENT 10 10 12 12
ROOT
ATOM      1  C   UNL     1      -0.563   7.268  -4.195  1.00  0.00     0.105 A 
ATOM      2  C   UNL     1      -0.953   7.438  -2.895  1.00  0.00     0.172 A 
ATOM      3  C   UNL     1      -0.881   5.981  -4.841  1.00  0.00     0.020 A 
ATOM      4  C   UNL     1      -1.834   5.204  -4.265  1.00  0.00     0.005 A 
ATOM      5  C   UNL     1      -2.131   6.773  -2.358  1.00  0.00     0.161 A 
ATOM      6  C   UNL     1      -2.484   5.542  -3.041  1.00  0.00     0.050 A 
ENDROOT
BRANCH   1   7
ATOM      7  C   UNL     1       0.089   8.411  -4.992  1.00  0.00     0.339 C 
ATOM      8  O   UNL     1      -0.751   9.769  -4.670  1.00  0.00    -0.246 OA
BRANCH   7   9
ATOM      9  O   UNL     1       0.943   8.586  -5.582  1.00  0.00    -0.478 OA
ATOM     10  H   UNL     1       1.747   8.752  -6.136  1.00  0.00     0.297 HD
ENDBRANCH   7   9
ENDBRANCH   1   7
BRANCH   2  11
ATOM     11  O   UNL     1      -0.245   8.284  -2.024  1.00  0.00    -0.504 OA
ATOM     12  H   UNL     1       0.254   8.879  -1.410  1.00  0.00     0.293 HD
ENDBRANCH   2  11
BRANCH   5  13
ATOM     13  O   UNL     1      -2.533   7.180  -1.092  1.00  0.00    -0.493 OA
ATOM     14  C   UNL     1      -3.163   7.170   0.036  1.00  0.00     0.278 C 
ENDBRANCH   5  13
TORSDOF 4
ENDMDL
MODEL 8
REMARK VINA RESULT:    -3.948      2.305      2.854
REMARK INTER + INTRA:          -4.958
REMARK INTER:                  -4.701
REMARK INTRA:                  -0.257
REMARK UNBOUND:                -0.318
REMARK SMILES COc1cccc(C(=O)O)c1O
REMARK SMILES IDX 7 1 11 2 6 3 5 4 3 5 4 6 8 7 9 8 10 9 12 11 2 13 1 14
REMARK H PARENT 10 10 12 12
ROOT
ATOM      1  C   UNL     1      -2.081   6.498  -3.323  1.00  0.00     0.105 A 
ATOM      2  C   UNL     1      -2.668   7.731  -3.396  1.00  0.00     0.172 A 
ATOM      3  C   UNL     1      -1.822   5.943  -1.982  1.00  0.00     0.020 A 
ATOM      4  C   UNL     1      -2.490   6.488  -0.933  1.00  0.00     0.005 A 
ATOM      5  C   UNL     1      -3.580   8.205  -2.364  1.00  0.00     0.161 A 
ATOM      6  C   UNL     1      -3.368   7.604  -1.060  1.00  0.00     0.050 A 
ENDROOT
BRANCH   1   7
ATOM      7  C   UNL     1      -1.797   5.671  -4.589  1.00  0.00     0.339 C 
ATOM      8  O   UNL     1      -2.126   4.115  -4.238  1.00  0.00    -0.246 OA
BRANCH   7   9
ATOM      9  O   UNL     1      -1.556   5.822  -5.603  1.00  0.00    -0.478 OA
ATOM     10  H   UNL     1      -1.330   5.964  -6.556  1.00  0.00     0.297 HD
ENDBRANCH   7   9
ENDBRANCH   1   7
BRANCH   2  11
ATOM     11  O   UNL     1      -2.435   8.590  -4.484  1.00  0.00    -0.504 OA
ATOM     12  H   UNL     1      -2.270   9.194  -5.250  1.00  0.00     0.293 HD
ENDBRANCH   2  11
BRANCH   5  13
ATOM     13  O   UNL     1      -4.259   9.383  -2.650  1.00  0.00    -0.493 OA
ATOM     14  C   UNL     1      -5.090  10.362  -2.508  1.00  0.00     0.278 C 
ENDBRANCH   5  13
TORSDOF 4
ENDMDL
MODEL 9
REMARK VINA RESULT:    -3.939      7.347      8.403
REMARK INTER + INTRA:          -4.947
REMARK INTER:                  -4.698
REMARK INTRA:                  -0.249
REMARK UNBOUND:                -0.318
REMARK SMILES COc1cccc(C(=O)O)c1O
REMARK SMILES IDX 7 1 11 2 6 3 5 4 3 5 4 6 8 7 9 8 10 9 12 11 2 13 1 14
REMARK H PARENT 10 10 12 12
ROOT
ATOM      1  C   UNL     1       1.940   1.136   2.167  1.00  0.00     0.105 A 
ATOM      2  C   UNL     1       0.805   0.837   1.466  1.00  0.00     0.172 A 
ATOM      3  C   UNL     1       3.221   1.115   1.437  1.00  0.00     0.020 A 
ATOM      4  C   UNL     1       3.175   1.167   0.081  1.00  0.00     0.005 A 
ATOM      5  C   UNL     1       0.689   1.123   0.043  1.00  0.00     0.161 A 
ATOM      6  C   UNL     1       1.957   1.172  -0.661  1.00  0.00     0.050 A 
ENDROOT
BRANCH   1   7
ATOM      7  C   UNL     1       1.878   1.583   3.638  1.00  0.00     0.339 C 
ATOM      8  O   UNL     1       0.503   2.436   3.830  1.00  0.00    -0.246 OA
BRANCH   7   9
ATOM      9  O   UNL     1       2.391   1.423   4.543  1.00  0.00    -0.478 OA
ATOM     10  H   UNL     1       2.874   1.272   5.395  1.00  0.00     0.297 HD
ENDBRANCH   7   9
ENDBRANCH   1   7
BRANCH   2  11
ATOM     11  O   UNL     1      -0.311   0.258   2.093  1.00  0.00    -0.504 OA
ATOM     12  H   UNL     1      -1.098  -0.150   2.535  1.00  0.00     0.293 HD
ENDBRANCH   2  11
BRANCH   5  13
ATOM     13  O   UNL     1      -0.575   0.957  -0.507  1.00  0.00    -0.493 OA
ATOM     14  C   UNL     1      -1.864   0.876  -0.570  1.00  0.00     0.278 C 
ENDBRANCH   5  13
TORSDOF 4
ENDMDL
