MODEL 1
REMARK VINA RESULT:    -4.993      0.000      0.000
REMARK INTER + INTRA:          -6.139
REMARK INTER:                  -5.868
REMARK INTRA:                  -0.271
REMARK UNBOUND:                -0.271
REMARK SMILES COc1cccc(C(=O)O)c1O
REMARK SMILES IDX 7 1 11 2 6 3 5 4 3 5 4 6 8 7 9 8 10 9 12 11 2 13 1 14
REMARK H PARENT 10 10 12 12
ROOT
ATOM      1  C   UNL     1      -6.562   0.698  -3.529  1.00  0.00     0.105 A 
ATOM      2  C   UNL     1      -7.371   0.875  -4.618  1.00  0.00     0.172 A 
ATOM      3  C   UNL     1      -5.776   1.856  -3.065  1.00  0.00     0.020 A 
ATOM      4  C   UNL     1      -6.159   3.088  -3.487  1.00  0.00     0.005 A 
ATOM      5  C   UNL     1      -7.970   2.167  -4.921  1.00  0.00     0.161 A 
ATOM      6  C   UNL     1      -7.232   3.303  -4.402  1.00  0.00     0.050 A 
ENDROOT
BRANCH   1   7
ATOM      7  C   UNL     1      -6.549  -0.629  -2.749  1.00  0.00     0.339 C 
ATOM      8  O   UNL     1      -6.157  -0.283  -1.206  1.00  0.00    -0.246 OA
BRANCH   7   9
ATOM      9  O   UNL     1      -6.806  -1.640  -2.891  1.00  0.00    -0.478 OA
ATOM     10  H   UNL     1      -7.047  -2.591  -3.024  1.00  0.00     0.297 HD
ENDBRANCH   7   9
ENDBRANCH   1   7
BRANCH   2  11
ATOM     11  O   UNL     1      -7.678  -0.189  -5.482  1.00  0.00    -0.504 OA
ATOM     12  H   UNL     1      -7.894  -0.939  -6.091  1.00  0.00     0.293 HD
ENDBRANCH   2  11
BRANCH   5  13
ATOM     13  O   UNL     1      -8.923   2.170  -5.932  1.00  0.00    -0.493 OA
ATOM     14  C   UNL     1     -10.066   2.327  -6.513  1.00  0.00     0.278 C 
ENDBRANCH   5  13
TORSDOF 4
ENDMDL
MODEL 2
REMARK VINA RESULT:    -4.990      2.671      3.831
REMARK INTER + INTRA:          -6.136
REMARK INTER:                  -5.865
REMARK INTRA:                  -0.270
REMARK UNBOUND:                -0.271
REMARK SMILES COc1cccc(C(=O)O)c1O
REMARK SMILES IDX 7 1 11 2 6 3 5 4 3 5 4 6 8 7 9 8 10 9 12 11 2 13 1 14
REMARK H PARENT 10 10 12 12
ROOT
ATOM      1  C   UNL     1      -6.093   3.482  -3.578  1.00  0.00     0.105 A 
ATOM      2  C   UNL     1      -7.393   3.667  -3.962  1.00  0.00     0.172 A 
ATOM      3  C   UNL     1      -5.675   2.115  -3.216  1.00  0.00     0.020 A 
ATOM      4  C   UNL     1      -6.461   1.086  -3.625  1.00  0.00     0.005 A 
ATOM      5  C   UNL     1      -8.151   2.614  -4.622  1.00  0.00     0.161 A 
ATOM      6  C   UNL     1      -7.692   1.271  -4.320  1.00  0.00     0.050 A 
ENDROOT
BRANCH   1   7
ATOM      7  C   UNL     1      -5.074   4.634  -3.621  1.00  0.00     0.339 C 
ATOM      8  O   UNL     1      -3.603   3.974  -3.857  1.00  0.00    -0.246 OA
BRANCH   7   9
ATOM      9  O   UNL     1      -5.060   5.686  -3.641  1.00  0.00    -0.478 OA
ATOM     10  H   UNL     1      -5.047   6.676  -3.661  1.00  0.00     0.297 HD
ENDBRANCH   7   9
ENDBRANCH   1   7
BRANCH   2  11
ATOM     11  O   UNL     1      -8.049   4.893  -3.756  1.00  0.00    -0.504 OA
ATOM     12  H   UNL     1      -8.512   5.756  -3.611  1.00  0.00     0.293 HD
ENDBRANCH   2  11
BRANCH   5  13
ATOM     13  O   UNL     1      -9.386   2.989  -5.137  1.00  0.00    -0.493 OA
ATOM     14  C   UNL     1     -10.360   3.096  -5.979  1.00  0.00     0.278 C 
ENDBRANCH   5  13
TORSDOF 4
ENDMDL
MODEL 3
REMARK VINA RESULT:    -4.876      2.816      4.325
REMARK INTER + INTRA:          -6.002
REMARK INTER:                  -5.524
REMARK INTRA:                  -0.478
REMARK UNBOUND:                -0.271
REMARK SMILES COc1cccc(C(=O)O)c1O
REMARK SMILES IDX 7 1 11 2 6 3 5 4 3 5 4 6 8 7 9 8 10 9 12 11 2 13 1 14
REMARK H PARENT 10 10 12 12
ROOT
ATOM      1  C   UNL     1      -6.215   3.861  -3.786  1.00  0.00     0.105 A 
ATOM      2  C   UNL     1      -6.163   2.496  -3.847  1.00  0.00     0.172 A 
ATOM      3  C   UNL     1      -7.523   4.484  -3.512  1.00  0.00     0.020 A 
ATOM      4  C   UNL     1      -8.497   3.700  -2.982  1.00  0.00     0.005 A 
ATOM      5  C   UNL     1      -7.075   1.662  -3.077  1.00  0.00     0.161 A 
ATOM      6  C   UNL     1      -8.334   2.303  -2.747  1.00  0.00     0.050 A 
ENDROOT
BRANCH   1   7
ATOM      7  C   UNL     1      -4.940   4.716  -3.894  1.00  0.00     0.339 C 
ATOM      8  O   UNL     1      -3.666   3.713  -3.736  1.00  0.00    -0.246 OA
BRANCH   7   9
ATOM      9  O   UNL     1      -4.659   5.703  -4.129  1.00  0.00    -0.478 OA
ATOM     10  H   UNL     1      -4.394   6.632  -4.350  1.00  0.00     0.297 HD
ENDBRANCH   7   9
ENDBRANCH   1   7
BRANCH   2  11
ATOM     11  O   UNL     1      -5.211   1.835  -4.642  1.00  0.00    -0.504 OA
ATOM     12  H   UNL     1      -4.540   1.369  -5.202  1.00  0.00     0.293 HD
ENDBRANCH   2  11
BRANCH   5  13
ATOM     13  O   UNL     1      -6.793   0.302  -3.071  1.00  0.00    -0.493 OA
ATOM     14  C   UNL     1      -6.819  -0.935  -2.698  1.00  0.00     0.278 C 
ENDBRANCH   5  13
TORSDOF 4
ENDMDL
MODEL 4
REMARK VINA RESULT:    -4.782      2.170      3.071
REMARK INTER + INTRA:          -5.892
REMARK INTER:                  -5.416
REMARK INTRA:                  -0.476
REMARK UNBOUND:                -0.271
REMARK SMILES COc1cccc(C(=O)O)c1O
REMARK SMILES IDX 7 1 11 2 6 3 5 4 3 5 4 6 8 7 9 8 10 9 12 11 2 13 1 14
REMARK H PARENT 10 10 12 12
ROOT
ATOM      1  C   UNL     1      -6.874   0.475  -3.568  1.00  0.00     0.105 A 
ATOM      2  C   UNL     1      -6.432   1.754  -3.372  1.00  0.00     0.172 A 
ATOM      3  C   UNL     1      -7.266   0.089  -4.936  1.00  0.00     0.020 A 
ATOM      4  C   UNL     1      -6.833   0.868  -5.960  1.00  0.00     0.005 A 
ATOM      5  C   UNL     1      -5.750   2.495  -4.423  1.00  0.00     0.161 A 
ATOM      6  C   UNL     1      -6.083   2.065  -5.768  1.00  0.00     0.050 A 
ENDROOT
BRANCH   1   7
ATOM      7  C   UNL     1      -6.865  -0.559  -2.428  1.00  0.00     0.339 C 
ATOM      8  O   UNL     1      -5.907   0.027  -1.248  1.00  0.00    -0.246 OA
BRANCH   7   9
ATOM      9  O   UNL     1      -7.354  -1.450  -2.155  1.00  0.00    -0.478 OA
ATOM     10  H   UNL     1      -7.814  -2.289  -1.898  1.00  0.00     0.297 HD
ENDBRANCH   7   9
ENDBRANCH   1   7
BRANCH   2  11
ATOM     11  O   UNL     1      -6.598   2.405  -2.137  1.00  0.00    -0.504 OA
ATOM     12  H   UNL     1      -6.715   2.863  -1.267  1.00  0.00     0.293 HD
ENDBRANCH   2  11
BRANCH   5  13
ATOM     13  O   UNL     1      -5.178   3.702  -4.039  1.00  0.00    -0.493 OA
ATOM     14  C   UNL     1      -5.039   4.977  -3.886  1.00  0.00     0.278 C 
ENDBRANCH   5  13
TORSDOF 4
ENDMDL
MODEL 5
REMARK VINA RESULT:    -4.326      1.855      2.505
REMARK INTER + INTRA:          -5.356
REMARK INTER:                  -4.918
REMARK INTRA:                  -0.438
REMARK UNBOUND:                -0.271
REMARK SMILES COc1cccc(C(=O)O)c1O
REMARK SMILES IDX 7 1 11 2 6 3 5 4 3 5 4 6 8 7 9 8 10 9 12 11 2 13 1 14
REMARK H PARENT 10 10 12 12
ROOT
ATOM      1  C   UNL     1      -7.288   0.278  -3.568  1.00  0.00     0.105 A 
ATOM      2  C   UNL     1      -7.701   1.535  -3.221  1.00  0.00     0.172 A 
ATOM      3  C   UNL     1      -7.265  -0.061  -5.003  1.00  0.00     0.020 A 
ATOM      4  C   UNL     1      -7.291   0.963  -5.894  1.00  0.00     0.005 A 
ATOM      5  C   UNL     1      -7.502   2.675  -4.103  1.00  0.00     0.161 A 
ATOM      6  C   UNL     1      -7.407   2.331  -5.510  1.00  0.00     0.050 A 
ENDROOT
BRANCH   1   7
ATOM      7  C   UNL     1      -6.766  -0.713  -2.513  1.00  0.00     0.339 C 
ATOM      8  O   UNL     1      -6.051   0.159  -1.338  1.00  0.00    -0.246 OA
BRANCH   7   9
ATOM      9  O   UNL     1      -6.820  -1.740  -2.288  1.00  0.00    -0.478 OA
ATOM     10  H   UNL     1      -6.871  -2.706  -2.076  1.00  0.00     0.297 HD
ENDBRANCH   7   9
ENDBRANCH   1   7
BRANCH   2  11
ATOM     11  O   UNL     1      -8.318   1.787  -1.983  1.00  0.00    -0.504 OA
ATOM     12  H   UNL     1      -8.752   1.964  -1.111  1.00  0.00     0.293 HD
ENDBRANCH   2  11
BRANCH   5  13
ATOM     13  O   UNL     1      -7.782   3.921  -3.556  1.00  0.00    -0.493 OA
ATOM     14  C   UNL     1      -8.315   5.091  -3.429  1.00  0.00     0.278 C 
ENDBRANCH   5  13
TORSDOF 4
ENDMDL
MODEL 6
REMARK VINA RESULT:    -4.171      2.278      3.654
REMARK INTER + INTRA:          -5.174
REMARK INTER:                  -4.970
REMARK INTRA:                  -0.204
REMARK UNBOUND:                -0.271
REMARK SMILES COc1cccc(C(=O)O)c1O
REMARK SMILES IDX 7 1 11 2 6 3 5 4 3 5 4 6 8 7 9 8 10 9 12 11 2 13 1 14
REMARK H PARENT 10 10 12 12
ROOT
ATOM      1  C   UNL     1      -7.053   0.347  -4.765  1.00  0.00     0.105 A 
ATOM      2  C   UNL     1      -6.296   1.481  -4.872  1.00  0.00     0.172 A 
ATOM      3  C   UNL     1      -7.004  -0.390  -3.489  1.00  0.00     0.020 A 
ATOM      4  C   UNL     1      -6.527   0.265  -2.400  1.00  0.00     0.005 A 
ATOM      5  C   UNL     1      -5.992   2.308  -3.713  1.00  0.00     0.161 A 
ATOM      6  C   UNL     1      -6.014   1.595  -2.449  1.00  0.00     0.050 A 
ENDROOT
BRANCH   1   7
ATOM      7  C   UNL     1      -8.004  -0.089  -5.893  1.00  0.00     0.339 C 
ATOM      8  O   UNL     1      -9.030   1.146  -6.170  1.00  0.00    -0.246 OA
BRANCH   7   9
ATOM      9  O   UNL     1      -8.119  -0.880  -6.578  1.00  0.00    -0.478 OA
ATOM     10  H   UNL     1      -8.228  -1.624  -7.223  1.00  0.00     0.297 HD
ENDBRANCH   7   9
ENDBRANCH   1   7
BRANCH   2  11
ATOM     11  O   UNL     1      -5.794   1.912  -6.112  1.00  0.00    -0.504 OA
ATOM     12  H   UNL     1      -5.440   2.215  -6.986  1.00  0.00     0.293 HD
ENDBRANCH   2  11
BRANCH   5  13
ATOM     13  O   UNL     1      -5.387   3.529  -3.982  1.00  0.00    -0.493 OA
ATOM     14  C   UNL     1      -5.115   4.789  -3.888  1.00  0.00     0.278 C 
ENDBRANCH   5  13
TORSDOF 4
ENDMDL
MODEL 7
REMARK VINA RESULT:    -4.150      2.114      4.576
REMARK INTER + INTRA:          -5.149
REMARK INTER:                  -4.944
REMARK INTRA:                  -0.205
REMARK UNBOUND:                -0.271
REMARK SMILES COc1cccc(C(=O)O)c1O
REMARK SMILES IDX 7 1 11 2 6 3 5 4 3 5 4 6 8 7 9 8 10 9 12 11 2 13 1 14
REMARK H PARENT 10 10 12 12
ROOT
ATOM      1  C   UNL     1      -7.238   4.112  -3.506  1.00  0.00     0.105 A 
ATOM      2  C   UNL     1      -7.340   2.869  -2.944  1.00  0.00     0.172 A 
ATOM      3  C   UNL     1      -5.886   4.622  -3.797  1.00  0.00     0.020 A 
ATOM      4  C   UNL     1      -4.868   3.724  -3.841  1.00  0.00     0.005 A 
ATOM      5  C   UNL     1      -6.349   1.832  -3.199  1.00  0.00     0.161 A 
ATOM      6  C   UNL     1      -5.037   2.337  -3.555  1.00  0.00     0.050 A 
ENDROOT
BRANCH   1   7
ATOM      7  C   UNL     1      -8.489   4.907  -3.919  1.00  0.00     0.339 C 
ATOM      8  O   UNL     1      -9.323   3.989  -4.975  1.00  0.00    -0.246 OA
BRANCH   7   9
ATOM      9  O   UNL     1      -8.994   5.793  -3.656  1.00  0.00    -0.478 OA
ATOM     10  H   UNL     1      -9.469   6.626  -3.408  1.00  0.00     0.297 HD
ENDBRANCH   7   9
ENDBRANCH   1   7
BRANCH   2  11
ATOM     11  O   UNL     1      -8.418   2.529  -2.110  1.00  0.00    -0.504 OA
ATOM     12  H   UNL     1      -9.179   2.289  -1.522  1.00  0.00     0.293 HD
ENDBRANCH   2  11
BRANCH   5  13
ATOM     13  O   UNL     1      -6.668   0.563  -2.733  1.00  0.00    -0.493 OA
ATOM     14  C   UNL     1      -6.857  -0.715  -2.746  1.00  0.00     0.278 C 
ENDBRANCH   5  13
TORSDOF 4
ENDMDL
MODEL 8
REMARK VINA RESULT:    -4.039      2.302      3.522
REMARK INTER + INTRA:          -5.019
REMARK INTER:                  -4.624
REMARK INTRA:                  -0.394
REMARK UNBOUND:                -0.271
REMARK SMILES COc1cccc(C(=O)O)c1O
REMARK SMILES IDX 7 1 11 2 6 3 5 4 3 5 4 6 8 7 9 8 10 9 12 11 2 13 1 14
REMARK H PARENT 10 10 12 12
ROOT
ATOM      1  C   UNL     1      -5.989   2.310  -3.635  1.00  0.00     0.105 A 
ATOM      2  C   UNL     1      -6.831   1.855  -4.613  1.00  0.00     0.172 A 
ATOM      3  C   UNL     1      -5.927   1.546  -2.376  1.00  0.00     0.020 A 
ATOM      4  C   UNL     1      -6.401   0.274  -2.386  1.00  0.00     0.005 A 
ATOM      5  C   UNL     1      -7.141   0.439  -4.754  1.00  0.00     0.161 A 
ATOM      6  C   UNL     1      -7.010  -0.325  -3.528  1.00  0.00     0.050 A 
ENDROOT
BRANCH   1   7
ATOM      7  C   UNL     1      -5.061   3.514  -3.875  1.00  0.00     0.339 C 
ATOM      8  O   UNL     1      -6.007   4.821  -4.101  1.00  0.00    -0.246 OA
BRANCH   7   9
ATOM      9  O   UNL     1      -4.035   3.750  -3.839  1.00  0.00    -0.478 OA
ATOM     10  H   UNL     1      -3.071   3.972  -3.806  1.00  0.00     0.297 HD
ENDBRANCH   7   9
ENDBRANCH   1   7
BRANCH   2  11
ATOM     11  O   UNL     1      -7.418   2.732  -5.540  1.00  0.00    -0.504 OA
ATOM     12  H   UNL     1      -7.831   3.351  -6.194  1.00  0.00     0.293 HD
ENDBRANCH   2  11
BRANCH   5  13
ATOM     13  O   UNL     1      -7.844   0.085  -5.899  1.00  0.00    -0.493 OA
ATOM     14  C   UNL     1      -8.663  -0.562  -6.661  1.00  0.00     0.278 C 
ENDBRANCH   5  13
TORSDOF 4
ENDMDL
MODEL 9
REMARK VINA RESULT:    -4.001      1.838      2.434
REMARK INTER + INTRA:          -4.974
REMARK INTER:                  -4.562
REMARK INTRA:                  -0.412
REMARK UNBOUND:                -0.271
REMARK SMILES COc1cccc(C(=O)O)c1O
REMARK SMILES IDX 7 1 11 2 6 3 5 4 3 5 4 6 8 7 9 8 10 9 12 11 2 13 1 14
REMARK H PARENT 10 10 12 12
ROOT
ATOM      1  C   UNL     1      -6.340   1.868  -3.214  1.00  0.00     0.105 A 
ATOM      2  C   UNL     1      -7.393   2.687  -3.513  1.00  0.00     0.172 A 
ATOM      3  C   UNL     1      -4.988   2.335  -3.571  1.00  0.00     0.020 A 
ATOM      4  C   UNL     1      -4.824   3.660  -3.824  1.00  0.00     0.005 A 
ATOM      5  C   UNL     1      -7.249   4.136  -3.546  1.00  0.00     0.161 A 
ATOM      6  C   UNL     1      -5.901   4.594  -3.827  1.00  0.00     0.050 A 
ENDROOT
BRANCH   1   7
ATOM      7  C   UNL     1      -6.542   0.554  -2.440  1.00  0.00     0.339 C 
ATOM      8  O   UNL     1      -7.500  -0.403  -3.346  1.00  0.00    -0.246 OA
BRANCH   7   9
ATOM      9  O   UNL     1      -6.178   0.073  -1.577  1.00  0.00    -0.478 OA
ATOM     10  H   UNL     1      -5.836  -0.380  -0.766  1.00  0.00     0.297 HD
ENDBRANCH   7   9
ENDBRANCH   1   7
BRANCH   2  11
ATOM     11  O   UNL     1      -8.671   2.168  -3.782  1.00  0.00    -0.504 OA
ATOM     12  H   UNL     1      -9.571   1.801  -3.971  1.00  0.00     0.293 HD
ENDBRANCH   2  11
BRANCH   5  13
ATOM     13  O   UNL     1      -8.429   4.859  -3.666  1.00  0.00    -0.493 OA
ATOM     14  C   UNL     1      -9.333   5.615  -4.196  1.00  0.00     0.278 C 
ENDBRANCH   5  13
TORSDOF 4
ENDMDL
