MODEL 1
REMARK VINA RESULT:    -4.971      0.000      0.000
REMARK INTER + INTRA:          -6.113
REMARK INTER:                  -5.843
REMARK INTRA:                  -0.270
REMARK UNBOUND:                -0.270
REMARK SMILES COc1cccc(C(=O)O)c1O
REMARK SMILES IDX 7 1 11 2 6 3 5 4 3 5 4 6 8 7 9 8 10 9 12 11 2 13 1 14
REMARK H PARENT 10 10 12 12
ROOT
ATOM      1  C   UNL     1      -1.993   5.106   5.391  1.00  0.00     0.105 A 
ATOM      2  C   UNL     1      -1.876   6.261   6.115  1.00  0.00     0.172 A 
ATOM      3  C   UNL     1      -0.751   4.404   5.019  1.00  0.00     0.020 A 
ATOM      4  C   UNL     1       0.379   4.716   5.703  1.00  0.00     0.005 A 
ATOM      5  C   UNL     1      -0.767   6.477   7.033  1.00  0.00     0.161 A 
ATOM      6  C   UNL     1       0.432   5.729   6.705  1.00  0.00     0.050 A 
ENDROOT
BRANCH   1   7
ATOM      7  C   UNL     1      -3.370   4.503   5.064  1.00  0.00     0.339 C 
ATOM      8  O   UNL     1      -3.174   2.892   4.919  1.00  0.00    -0.246 OA
BRANCH   7   9
ATOM      9  O   UNL     1      -4.379   4.800   5.008  1.00  0.00    -0.478 OA
ATOM     10  H   UNL     1      -5.327   5.079   4.954  1.00  0.00     0.297 HD
ENDBRANCH   7   9
ENDBRANCH   1   7
BRANCH   2  11
ATOM     11  O   UNL     1      -2.835   7.284   6.021  1.00  0.00    -0.504 OA
ATOM     12  H   UNL     1      -3.511   8.004   5.956  1.00  0.00     0.293 HD
ENDBRANCH   2  11
BRANCH   5  13
ATOM     13  O   UNL     1      -0.867   7.595   7.851  1.00  0.00    -0.493 OA
ATOM     14  C   UNL     1      -0.866   8.305   8.930  1.00  0.00     0.278 C 
ENDBRANCH   5  13
TORSDOF 4
ENDMDL
MODEL 2
REMARK VINA RESULT:    -4.962      2.585      3.770
REMARK INTER + INTRA:          -6.103
REMARK INTER:                  -5.833
REMARK INTRA:                  -0.270
REMARK UNBOUND:                -0.270
REMARK SMILES COc1cccc(C(=O)O)c1O
REMARK SMILES IDX 7 1 11 2 6 3 5 4 3 5 4 6 8 7 9 8 10 9 12 11 2 13 1 14
REMARK H PARENT 10 10 12 12
ROOT
ATOM      1  C   UNL     1       0.706   4.761   5.873  1.00  0.00     0.105 A 
ATOM      2  C   UNL     1       0.536   5.369   7.086  1.00  0.00     0.172 A 
ATOM      3  C   UNL     1      -0.501   4.472   5.078  1.00  0.00     0.020 A 
ATOM      4  C   UNL     1      -1.643   5.133   5.400  1.00  0.00     0.005 A 
ATOM      5  C   UNL     1      -0.578   6.272   7.338  1.00  0.00     0.161 A 
ATOM      6  C   UNL     1      -1.741   6.031   6.504  1.00  0.00     0.050 A 
ENDROOT
BRANCH   1   7
ATOM      7  C   UNL     1       2.110   4.482   5.307  1.00  0.00     0.339 C 
ATOM      8  O   UNL     1       1.986   4.470   3.683  1.00  0.00    -0.246 OA
BRANCH   7   9
ATOM      9  O   UNL     1       3.104   4.399   5.644  1.00  0.00    -0.478 OA
ATOM     10  H   UNL     1       4.039   4.321   5.961  1.00  0.00     0.297 HD
ENDBRANCH   7   9
ENDBRANCH   1   7
BRANCH   2  11
ATOM     11  O   UNL     1       1.443   5.166   8.140  1.00  0.00    -0.504 OA
ATOM     12  H   UNL     1       2.083   5.024   8.882  1.00  0.00     0.293 HD
ENDBRANCH   2  11
BRANCH   5  13
ATOM     13  O   UNL     1      -0.529   6.975   8.535  1.00  0.00    -0.493 OA
ATOM     14  C   UNL     1      -0.654   7.959   9.363  1.00  0.00     0.278 C 
ENDBRANCH   5  13
TORSDOF 4
ENDMDL
MODEL 3
REMARK VINA RESULT:    -4.891      2.761      4.348
REMARK INTER + INTRA:          -6.020
REMARK INTER:                  -5.595
REMARK INTRA:                  -0.424
REMARK UNBOUND:                -0.270
REMARK SMILES COc1cccc(C(=O)O)c1O
REMARK SMILES IDX 7 1 11 2 6 3 5 4 3 5 4 6 8 7 9 8 10 9 12 11 2 13 1 14
REMARK H PARENT 10 10 12 12
ROOT
ATOM      1  C   UNL     1       1.045   4.885   6.049  1.00  0.00     0.105 A 
ATOM      2  C   UNL     1      -0.246   4.874   5.597  1.00  0.00     0.172 A 
ATOM      3  C   UNL     1       1.258   4.907   7.508  1.00  0.00     0.020 A 
ATOM      4  C   UNL     1       0.217   4.550   8.304  1.00  0.00     0.005 A 
ATOM      5  C   UNL     1      -1.321   4.266   6.369  1.00  0.00     0.161 A 
ATOM      6  C   UNL     1      -1.077   4.225   7.799  1.00  0.00     0.050 A 
ENDROOT
BRANCH   1   7
ATOM      7  C   UNL     1       2.234   4.771   5.080  1.00  0.00     0.339 C 
ATOM      8  O   UNL     1       1.635   4.362   3.621  1.00  0.00    -0.246 OA
BRANCH   7   9
ATOM      9  O   UNL     1       3.268   4.969   5.058  1.00  0.00    -0.478 OA
ATOM     10  H   UNL     1       4.240   5.155   5.038  1.00  0.00     0.297 HD
ENDBRANCH   7   9
ENDBRANCH   1   7
BRANCH   2  11
ATOM     11  O   UNL     1      -0.590   5.430   4.353  1.00  0.00    -0.504 OA
ATOM     12  H   UNL     1      -0.833   5.822   3.477  1.00  0.00     0.293 HD
ENDBRANCH   2  11
BRANCH   5  13
ATOM     13  O   UNL     1      -2.541   4.144   5.717  1.00  0.00    -0.493 OA
ATOM     14  C   UNL     1      -3.705   4.473   5.262  1.00  0.00     0.278 C 
ENDBRANCH   5  13
TORSDOF 4
ENDMDL
MODEL 4
REMARK VINA RESULT:    -4.795      2.015      2.919
REMARK INTER + INTRA:          -5.906
REMARK INTER:                  -5.420
REMARK INTRA:                  -0.486
REMARK UNBOUND:                -0.270
REMARK SMILES COc1cccc(C(=O)O)c1O
REMARK SMILES IDX 7 1 11 2 6 3 5 4 3 5 4 6 8 7 9 8 10 9 12 11 2 13 1 14
REMARK H PARENT 10 10 12 12
ROOT
ATOM      1  C   UNL     1      -2.426   5.315   5.690  1.00  0.00     0.105 A 
ATOM      2  C   UNL     1      -1.151   4.887   5.938  1.00  0.00     0.172 A 
ATOM      3  C   UNL     1      -2.677   6.768   5.716  1.00  0.00     0.020 A 
ATOM      4  C   UNL     1      -1.604   7.595   5.616  1.00  0.00     0.005 A 
ATOM      5  C   UNL     1       0.008   5.702   5.601  1.00  0.00     0.161 A 
ATOM      6  C   UNL     1      -0.259   7.128   5.557  1.00  0.00     0.050 A 
ENDROOT
BRANCH   1   7
ATOM      7  C   UNL     1      -3.538   4.329   5.292  1.00  0.00     0.339 C 
ATOM      8  O   UNL     1      -2.821   2.920   4.898  1.00  0.00    -0.246 OA
BRANCH   7   9
ATOM      9  O   UNL     1      -4.589   4.268   5.295  1.00  0.00    -0.478 OA
ATOM     10  H   UNL     1      -5.578   4.212   5.298  1.00  0.00     0.297 HD
ENDBRANCH   7   9
ENDBRANCH   1   7
BRANCH   2  11
ATOM     11  O   UNL     1      -0.900   3.629   6.513  1.00  0.00    -0.504 OA
ATOM     12  H   UNL     1      -0.723   2.743   6.917  1.00  0.00     0.293 HD
ENDBRANCH   2  11
BRANCH   5  13
ATOM     13  O   UNL     1       1.243   5.077   5.719  1.00  0.00    -0.493 OA
ATOM     14  C   UNL     1       2.379   4.572   5.367  1.00  0.00     0.278 C 
ENDBRANCH   5  13
TORSDOF 4
ENDMDL
MODEL 5
REMARK VINA RESULT:    -4.147      2.277      3.580
REMARK INTER + INTRA:          -5.145
REMARK INTER:                  -4.841
REMARK INTRA:                  -0.304
REMARK UNBOUND:                -0.270
REMARK SMILES COc1cccc(C(=O)O)c1O
REMARK SMILES IDX 7 1 11 2 6 3 5 4 3 5 4 6 8 7 9 8 10 9 12 11 2 13 1 14
REMARK H PARENT 10 10 12 12
ROOT
ATOM      1  C   UNL     1      -2.359   6.445   5.667  1.00  0.00     0.105 A 
ATOM      2  C   UNL     1      -1.023   6.323   5.400  1.00  0.00     0.172 A 
ATOM      3  C   UNL     1      -3.213   5.264   5.437  1.00  0.00     0.020 A 
ATOM      4  C   UNL     1      -2.603   4.055   5.336  1.00  0.00     0.005 A 
ATOM      5  C   UNL     1      -0.332   5.048   5.530  1.00  0.00     0.161 A 
ATOM      6  C   UNL     1      -1.188   3.887   5.374  1.00  0.00     0.050 A 
ENDROOT
BRANCH   1   7
ATOM      7  C   UNL     1      -2.938   7.729   6.285  1.00  0.00     0.339 C 
ATOM      8  O   UNL     1      -1.934   8.189   7.482  1.00  0.00    -0.246 OA
BRANCH   7   9
ATOM      9  O   UNL     1      -3.708   8.425   6.104  1.00  0.00    -0.478 OA
ATOM     10  H   UNL     1      -4.432   9.079   5.935  1.00  0.00     0.297 HD
ENDBRANCH   7   9
ENDBRANCH   1   7
BRANCH   2  11
ATOM     11  O   UNL     1      -0.252   7.430   5.008  1.00  0.00    -0.504 OA
ATOM     12  H   UNL     1       0.292   8.210   4.732  1.00  0.00     0.293 HD
ENDBRANCH   2  11
BRANCH   5  13
ATOM     13  O   UNL     1       1.053   5.097   5.424  1.00  0.00    -0.493 OA
ATOM     14  C   UNL     1       2.279   4.689   5.428  1.00  0.00     0.278 C 
ENDBRANCH   5  13
TORSDOF 4
ENDMDL
MODEL 6
REMARK VINA RESULT:    -4.027      2.051      4.465
REMARK INTER + INTRA:          -5.003
REMARK INTER:                  -4.689
REMARK INTRA:                  -0.314
REMARK UNBOUND:                -0.270
REMARK SMILES COc1cccc(C(=O)O)c1O
REMARK SMILES IDX 7 1 11 2 6 3 5 4 3 5 4 6 8 7 9 8 10 9 12 11 2 13 1 14
REMARK H PARENT 10 10 12 12
ROOT
ATOM      1  C   UNL     1       0.918   4.882   7.197  1.00  0.00     0.105 A 
ATOM      2  C   UNL     1      -0.409   4.731   6.903  1.00  0.00     0.172 A 
ATOM      3  C   UNL     1       1.888   4.678   6.106  1.00  0.00     0.020 A 
ATOM      4  C   UNL     1       1.421   4.718   4.831  1.00  0.00     0.005 A 
ATOM      5  C   UNL     1      -0.934   5.013   5.575  1.00  0.00     0.161 A 
ATOM      6  C   UNL     1       0.041   4.880   4.508  1.00  0.00     0.050 A 
ENDROOT
BRANCH   1   7
ATOM      7  C   UNL     1       1.381   5.352   8.587  1.00  0.00     0.339 C 
ATOM      8  O   UNL     1       0.354   6.519   9.075  1.00  0.00    -0.246 OA
BRANCH   7   9
ATOM      9  O   UNL     1       2.079   5.084   9.328  1.00  0.00    -0.478 OA
ATOM     10  H   UNL     1       2.735   4.831  10.026  1.00  0.00     0.297 HD
ENDBRANCH   7   9
ENDBRANCH   1   7
BRANCH   2  11
ATOM     11  O   UNL     1      -1.332   4.317   7.879  1.00  0.00    -0.504 OA
ATOM     12  H   UNL     1      -1.983   4.025   8.566  1.00  0.00     0.293 HD
ENDBRANCH   2  11
BRANCH   5  13
ATOM     13  O   UNL     1      -2.318   5.012   5.457  1.00  0.00    -0.493 OA
ATOM     14  C   UNL     1      -3.518   4.553   5.315  1.00  0.00     0.278 C 
ENDBRANCH   5  13
TORSDOF 4
ENDMDL
MODEL 7
REMARK VINA RESULT:    -3.967     10.175     12.280
REMARK INTER + INTRA:          -4.933
REMARK INTER:                  -4.488
REMARK INTRA:                  -0.445
REMARK UNBOUND:                -0.270
REMARK SMILES COc1cccc(C(=O)O)c1O
REMARK SMILES IDX 7 1 11 2 6 3 5 4 3 5 4 6 8 7 9 8 10 9 12 11 2 13 1 14
REMARK H PARENT 10 10 12 12
ROOT
ATOM      1  C   UNL     1      -1.392  13.485  14.546  1.00  0.00     0.105 A 
ATOM      2  C   UNL     1      -0.160  14.025  14.791  1.00  0.00     0.172 A 
ATOM      3  C   UNL     1      -2.570  14.344  14.762  1.00  0.00     0.020 A 
ATOM      4  C   UNL     1      -2.369  15.686  14.828  1.00  0.00     0.005 A 
ATOM      5  C   UNL     1       0.098  15.448  14.624  1.00  0.00     0.161 A 
ATOM      6  C   UNL     1      -1.078  16.287  14.766  1.00  0.00     0.050 A 
ENDROOT
BRANCH   1   7
ATOM      7  C   UNL     1      -1.544  12.068  13.964  1.00  0.00     0.339 C 
ATOM      8  O   UNL     1      -0.233  11.777  13.042  1.00  0.00    -0.246 OA
BRANCH   7   9
ATOM      9  O   UNL     1      -2.172  11.229  14.063  1.00  0.00    -0.478 OA
ATOM     10  H   UNL     1      -2.762  10.439  14.155  1.00  0.00     0.297 HD
ENDBRANCH   7   9
ENDBRANCH   1   7
BRANCH   2  11
ATOM     11  O   UNL     1       0.922  13.224  15.196  1.00  0.00    -0.504 OA
ATOM     12  H   UNL     1       1.684  12.661  15.481  1.00  0.00     0.293 HD
ENDBRANCH   2  11
BRANCH   5  13
ATOM     13  O   UNL     1       1.428  15.837  14.711  1.00  0.00    -0.493 OA
ATOM     14  C   UNL     1       2.452  16.600  14.907  1.00  0.00     0.278 C 
ENDBRANCH   5  13
TORSDOF 4
ENDMDL
MODEL 8
REMARK VINA RESULT:    -3.827      1.713      2.198
REMARK INTER + INTRA:          -4.769
REMARK INTER:                  -4.337
REMARK INTRA:                  -0.432
REMARK UNBOUND:                -0.270
REMARK SMILES COc1cccc(C(=O)O)c1O
REMARK SMILES IDX 7 1 11 2 6 3 5 4 3 5 4 6 8 7 9 8 10 9 12 11 2 13 1 14
REMARK H PARENT 10 10 12 12
ROOT
ATOM      1  C   UNL     1      -1.006   4.642   5.502  1.00  0.00     0.105 A 
ATOM      2  C   UNL     1      -0.540   5.172   6.673  1.00  0.00     0.172 A 
ATOM      3  C   UNL     1      -0.058   4.530   4.378  1.00  0.00     0.020 A 
ATOM      4  C   UNL     1       1.268   4.604   4.661  1.00  0.00     0.005 A 
ATOM      5  C   UNL     1       0.852   5.032   7.075  1.00  0.00     0.161 A 
ATOM      6  C   UNL     1       1.775   4.850   5.970  1.00  0.00     0.050 A 
ENDROOT
BRANCH   1   7
ATOM      7  C   UNL     1      -2.435   4.084   5.388  1.00  0.00     0.339 C 
ATOM      8  O   UNL     1      -3.461   5.295   5.752  1.00  0.00    -0.246 OA
BRANCH   7   9
ATOM      9  O   UNL     1      -2.928   3.213   5.060  1.00  0.00    -0.478 OA
ATOM     10  H   UNL     1      -3.391   2.393   4.753  1.00  0.00     0.297 HD
ENDBRANCH   7   9
ENDBRANCH   1   7
BRANCH   2  11
ATOM     11  O   UNL     1      -1.392   5.859   7.555  1.00  0.00    -0.504 OA
ATOM     12  H   UNL     1      -1.992   6.343   8.176  1.00  0.00     0.293 HD
ENDBRANCH   2  11
BRANCH   5  13
ATOM     13  O   UNL     1       1.153   5.438   8.369  1.00  0.00    -0.493 OA
ATOM     14  C   UNL     1       1.798   5.536   9.484  1.00  0.00     0.278 C 
ENDBRANCH   5  13
TORSDOF 4
ENDMDL
MODEL 9
REMARK VINA RESULT:    -3.680     10.266     12.386
REMARK INTER + INTRA:          -4.595
REMARK INTER:                  -4.121
REMARK INTRA:                  -0.474
REMARK UNBOUND:                -0.270
REMARK SMILES COc1cccc(C(=O)O)c1O
REMARK SMILES IDX 7 1 11 2 6 3 5 4 3 5 4 6 8 7 9 8 10 9 12 11 2 13 1 14
REMARK H PARENT 10 10 12 12
ROOT
ATOM      1  C   UNL     1      -0.598  13.113  14.955  1.00  0.00     0.105 A 
ATOM      2  C   UNL     1      -1.757  13.688  15.398  1.00  0.00     0.172 A 
ATOM      3  C   UNL     1       0.424  12.772  15.962  1.00  0.00     0.020 A 
ATOM      4  C   UNL     1       0.032  12.701  17.260  1.00  0.00     0.005 A 
ATOM      5  C   UNL     1      -2.291  13.408  16.723  1.00  0.00     0.161 A 
ATOM      6  C   UNL     1      -1.292  13.004  17.694  1.00  0.00     0.050 A 
ENDROOT
BRANCH   1   7
ATOM      7  C   UNL     1      -0.406  12.736  13.476  1.00  0.00     0.339 C 
ATOM      8  O   UNL     1      -1.887  12.539  12.827  1.00  0.00    -0.246 OA
BRANCH   7   9
ATOM      9  O   UNL     1       0.367  12.668  12.764  1.00  0.00    -0.478 OA
ATOM     10  H   UNL     1       1.094  12.604  12.094  1.00  0.00     0.297 HD
ENDBRANCH   7   9
ENDBRANCH   1   7
BRANCH   2  11
ATOM     11  O   UNL     1      -2.499  14.560  14.583  1.00  0.00    -0.504 OA
ATOM     12  H   UNL     1      -3.021  15.175  14.009  1.00  0.00     0.293 HD
ENDBRANCH   2  11
BRANCH   5  13
ATOM     13  O   UNL     1      -3.567  13.894  16.977  1.00  0.00    -0.493 OA
ATOM     14  C   UNL     1      -4.514  14.557  17.555  1.00  0.00     0.278 C 
ENDBRANCH   5  13
TORSDOF 4
ENDMDL
