MODEL 1
REMARK VINA RESULT:    -4.856      0.000      0.000
REMARK INTER + INTRA:          -6.170
REMARK INTER:                  -5.708
REMARK INTRA:                  -0.462
REMARK UNBOUND:                -0.462
REMARK SMILES COc1cccc(C(=O)O)c1O
REMARK SMILES IDX 7 1 11 2 6 3 5 4 3 5 4 6 8 7 9 8 10 9 12 11 2 13 1 14
REMARK H PARENT 10 10 12 12
ROOT
ATOM      1  C   UNL     1      -7.685   1.191  -0.628  1.00  0.00     0.105 A 
ATOM      2  C   UNL     1      -7.004   1.078   0.553  1.00  0.00     0.172 A 
ATOM      3  C   UNL     1      -8.686   2.267  -0.739  1.00  0.00     0.020 A 
ATOM      4  C   UNL     1      -8.621   3.285   0.157  1.00  0.00     0.005 A 
ATOM      5  C   UNL     1      -6.735   2.237   1.393  1.00  0.00     0.161 A 
ATOM      6  C   UNL     1      -7.682   3.324   1.229  1.00  0.00     0.050 A 
ENDROOT
BRANCH   1   7
ATOM      7  C   UNL     1      -7.348   0.298  -1.835  1.00  0.00     0.339 C 
ATOM      8  O   UNL     1      -5.953  -0.473  -1.495  1.00  0.00    -0.246 OA
BRANCH   7   9
ATOM      9  O   UNL     1      -7.786  -0.024  -2.736  1.00  0.00    -0.478 OA
ATOM     10  H   UNL     1      -8.199  -0.327  -3.584  1.00  0.00     0.297 HD
ENDBRANCH   7   9
ENDBRANCH   1   7
BRANCH   2  11
ATOM     11  O   UNL     1      -6.513  -0.161   0.999  1.00  0.00    -0.504 OA
ATOM     12  H   UNL     1      -6.167  -1.034   1.313  1.00  0.00     0.293 HD
ENDBRANCH   2  11
BRANCH   5  13
ATOM     13  O   UNL     1      -5.870   2.024   2.458  1.00  0.00    -0.493 OA
ATOM     14  C   UNL     1      -5.427   2.022   3.673  1.00  0.00     0.278 C 
ENDBRANCH   5  13
TORSDOF 4
ENDMDL
MODEL 2
REMARK VINA RESULT:    -4.843      1.748      4.683
REMARK INTER + INTRA:          -6.155
REMARK INTER:                  -5.672
REMARK INTRA:                  -0.483
REMARK UNBOUND:                -0.462
REMARK SMILES COc1cccc(C(=O)O)c1O
REMARK SMILES IDX 7 1 11 2 6 3 5 4 3 5 4 6 8 7 9 8 10 9 12 11 2 13 1 14
REMARK H PARENT 10 10 12 12
ROOT
ATOM      1  C   UNL     1      -6.607   1.603   2.786  1.00  0.00     0.105 A 
ATOM      2  C   UNL     1      -6.714   1.614   1.423  1.00  0.00     0.172 A 
ATOM      3  C   UNL     1      -7.560   0.768   3.540  1.00  0.00     0.020 A 
ATOM      4  C   UNL     1      -8.226  -0.200   2.859  1.00  0.00     0.005 A 
ATOM      5  C   UNL     1      -7.214   0.463   0.686  1.00  0.00     0.161 A 
ATOM      6  C   UNL     1      -8.097  -0.397   1.453  1.00  0.00     0.050 A 
ENDROOT
BRANCH   1   7
ATOM      7  C   UNL     1      -5.469   2.348   3.506  1.00  0.00     0.339 C 
ATOM      8  O   UNL     1      -4.289   2.607   2.414  1.00  0.00    -0.246 OA
BRANCH   7   9
ATOM      9  O   UNL     1      -5.278   2.808   4.434  1.00  0.00    -0.478 OA
ATOM     10  H   UNL     1      -5.099   3.241   5.306  1.00  0.00     0.297 HD
ENDBRANCH   7   9
ENDBRANCH   1   7
BRANCH   2  11
ATOM     11  O   UNL     1      -6.324   2.734   0.668  1.00  0.00    -0.504 OA
ATOM     12  H   UNL     1      -6.049   3.523   0.136  1.00  0.00     0.293 HD
ENDBRANCH   2  11
BRANCH   5  13
ATOM     13  O   UNL     1      -7.088   0.526  -0.696  1.00  0.00    -0.493 OA
ATOM     14  C   UNL     1      -7.413   0.432  -1.943  1.00  0.00     0.278 C 
ENDBRANCH   5  13
TORSDOF 4
ENDMDL
MODEL 3
REMARK VINA RESULT:    -4.734      2.240      3.269
REMARK INTER + INTRA:          -6.026
REMARK INTER:                  -5.756
REMARK INTRA:                  -0.270
REMARK UNBOUND:                -0.462
REMARK SMILES COc1cccc(C(=O)O)c1O
REMARK SMILES IDX 7 1 11 2 6 3 5 4 3 5 4 6 8 7 9 8 10 9 12 11 2 13 1 14
REMARK H PARENT 10 10 12 12
ROOT
ATOM      1  C   UNL     1      -7.546   1.132  -0.398  1.00  0.00     0.105 A 
ATOM      2  C   UNL     1      -8.701   1.821  -0.153  1.00  0.00     0.172 A 
ATOM      3  C   UNL     1      -6.654   0.863   0.745  1.00  0.00     0.020 A 
ATOM      4  C   UNL     1      -7.177   0.975   1.993  1.00  0.00     0.005 A 
ATOM      5  C   UNL     1      -9.382   1.738   1.132  1.00  0.00     0.161 A 
ATOM      6  C   UNL     1      -8.514   1.403   2.245  1.00  0.00     0.050 A 
ENDROOT
BRANCH   1   7
ATOM      7  C   UNL     1      -7.234   0.564  -1.794  1.00  0.00     0.339 C 
ATOM      8  O   UNL     1      -6.060  -0.552  -1.614  1.00  0.00    -0.246 OA
BRANCH   7   9
ATOM      9  O   UNL     1      -7.609   0.610  -2.776  1.00  0.00    -0.478 OA
ATOM     10  H   UNL     1      -7.963   0.654  -3.700  1.00  0.00     0.297 HD
ENDBRANCH   7   9
ENDBRANCH   1   7
BRANCH   2  11
ATOM     11  O   UNL     1      -9.298   2.625  -1.139  1.00  0.00    -0.504 OA
ATOM     12  H   UNL     1      -9.718   3.192  -1.834  1.00  0.00     0.293 HD
ENDBRANCH   2  11
BRANCH   5  13
ATOM     13  O   UNL     1     -10.641   2.322   1.189  1.00  0.00    -0.493 OA
ATOM     14  C   UNL     1     -11.909   2.437   1.407  1.00  0.00     0.278 C 
ENDBRANCH   5  13
TORSDOF 4
ENDMDL
MODEL 4
REMARK VINA RESULT:    -4.648      2.927      4.421
REMARK INTER + INTRA:          -5.925
REMARK INTER:                  -5.656
REMARK INTRA:                  -0.270
REMARK UNBOUND:                -0.462
REMARK SMILES COc1cccc(C(=O)O)c1O
REMARK SMILES IDX 7 1 11 2 6 3 5 4 3 5 4 6 8 7 9 8 10 9 12 11 2 13 1 14
REMARK H PARENT 10 10 12 12
ROOT
ATOM      1  C   UNL     1      -6.510   1.523   2.482  1.00  0.00     0.105 A 
ATOM      2  C   UNL     1      -7.760   1.244   2.961  1.00  0.00     0.172 A 
ATOM      3  C   UNL     1      -6.310   1.471   1.022  1.00  0.00     0.020 A 
ATOM      4  C   UNL     1      -7.414   1.517   0.232  1.00  0.00     0.005 A 
ATOM      5  C   UNL     1      -8.957   1.525   2.181  1.00  0.00     0.161 A 
ATOM      6  C   UNL     1      -8.743   1.544   0.746  1.00  0.00     0.050 A 
ENDROOT
BRANCH   1   7
ATOM      7  C   UNL     1      -5.377   1.978   3.418  1.00  0.00     0.339 C 
ATOM      8  O   UNL     1      -4.251   2.714   2.498  1.00  0.00    -0.246 OA
BRANCH   7   9
ATOM      9  O   UNL     1      -5.170   2.040   4.448  1.00  0.00    -0.478 OA
ATOM     10  H   UNL     1      -4.975   2.098   5.417  1.00  0.00     0.297 HD
ENDBRANCH   7   9
ENDBRANCH   1   7
BRANCH   2  11
ATOM     11  O   UNL     1      -7.947   0.691   4.239  1.00  0.00    -0.504 OA
ATOM     12  H   UNL     1      -8.078   0.301   5.140  1.00  0.00     0.293 HD
ENDBRANCH   2  11
BRANCH   5  13
ATOM     13  O   UNL     1     -10.165   1.382   2.853  1.00  0.00    -0.493 OA
ATOM     14  C   UNL     1     -11.258   1.716   3.456  1.00  0.00     0.278 C 
ENDBRANCH   5  13
TORSDOF 4
ENDMDL
MODEL 5
REMARK VINA RESULT:    -4.474      1.513      4.282
REMARK INTER + INTRA:          -5.721
REMARK INTER:                  -5.350
REMARK INTRA:                  -0.370
REMARK UNBOUND:                -0.462
REMARK SMILES COc1cccc(C(=O)O)c1O
REMARK SMILES IDX 7 1 11 2 6 3 5 4 3 5 4 6 8 7 9 8 10 9 12 11 2 13 1 14
REMARK H PARENT 10 10 12 12
ROOT
ATOM      1  C   UNL     1      -6.407   2.111   2.274  1.00  0.00     0.105 A 
ATOM      2  C   UNL     1      -6.397   1.610   1.001  1.00  0.00     0.172 A 
ATOM      3  C   UNL     1      -7.651   2.740   2.752  1.00  0.00     0.020 A 
ATOM      4  C   UNL     1      -8.796   2.470   2.073  1.00  0.00     0.005 A 
ATOM      5  C   UNL     1      -7.607   1.100   0.372  1.00  0.00     0.161 A 
ATOM      6  C   UNL     1      -8.836   1.669   0.894  1.00  0.00     0.050 A 
ENDROOT
BRANCH   1   7
ATOM      7  C   UNL     1      -5.201   1.932   3.213  1.00  0.00     0.339 C 
ATOM      8  O   UNL     1      -3.962   2.780   2.581  1.00  0.00    -0.246 OA
BRANCH   7   9
ATOM      9  O   UNL     1      -4.979   1.522   4.157  1.00  0.00    -0.478 OA
ATOM     10  H   UNL     1      -4.771   1.135   5.044  1.00  0.00     0.297 HD
ENDBRANCH   7   9
ENDBRANCH   1   7
BRANCH   2  11
ATOM     11  O   UNL     1      -5.212   1.547   0.249  1.00  0.00    -0.504 OA
ATOM     12  H   UNL     1      -4.377   1.501  -0.281  1.00  0.00     0.293 HD
ENDBRANCH   2  11
BRANCH   5  13
ATOM     13  O   UNL     1      -7.429   0.441  -0.838  1.00  0.00    -0.493 OA
ATOM     14  C   UNL     1      -7.376   0.257  -2.116  1.00  0.00     0.278 C 
ENDBRANCH   5  13
TORSDOF 4
ENDMDL
MODEL 6
REMARK VINA RESULT:    -4.463      1.350      1.399
REMARK INTER + INTRA:          -5.708
REMARK INTER:                  -5.367
REMARK INTRA:                  -0.341
REMARK UNBOUND:                -0.462
REMARK SMILES COc1cccc(C(=O)O)c1O
REMARK SMILES IDX 7 1 11 2 6 3 5 4 3 5 4 6 8 7 9 8 10 9 12 11 2 13 1 14
REMARK H PARENT 10 10 12 12
ROOT
ATOM      1  C   UNL     1      -7.419   0.582  -0.149  1.00  0.00     0.105 A 
ATOM      2  C   UNL     1      -6.589   0.961   0.870  1.00  0.00     0.172 A 
ATOM      3  C   UNL     1      -8.836   0.343   0.177  1.00  0.00     0.020 A 
ATOM      4  C   UNL     1      -9.310   0.852   1.343  1.00  0.00     0.005 A 
ATOM      5  C   UNL     1      -7.078   1.722   2.010  1.00  0.00     0.161 A 
ATOM      6  C   UNL     1      -8.491   1.539   2.286  1.00  0.00     0.050 A 
ENDROOT
BRANCH   1   7
ATOM      7  C   UNL     1      -6.920   0.510  -1.603  1.00  0.00     0.339 C 
ATOM      8  O   UNL     1      -5.807  -0.677  -1.677  1.00  0.00    -0.246 OA
BRANCH   7   9
ATOM      9  O   UNL     1      -7.149   0.918  -2.546  1.00  0.00    -0.478 OA
ATOM     10  H   UNL     1      -7.363   1.302  -3.434  1.00  0.00     0.297 HD
ENDBRANCH   7   9
ENDBRANCH   1   7
BRANCH   2  11
ATOM     11  O   UNL     1      -5.218   0.650   0.851  1.00  0.00    -0.504 OA
ATOM     12  H   UNL     1      -4.252   0.432   0.837  1.00  0.00     0.293 HD
ENDBRANCH   2  11
BRANCH   5  13
ATOM     13  O   UNL     1      -6.106   2.213   2.873  1.00  0.00    -0.493 OA
ATOM     14  C   UNL     1      -5.223   2.223   3.817  1.00  0.00     0.278 C 
ENDBRANCH   5  13
TORSDOF 4
ENDMDL
MODEL 7
REMARK VINA RESULT:    -4.068      2.144      3.206
REMARK INTER + INTRA:          -5.243
REMARK INTER:                  -4.781
REMARK INTRA:                  -0.462
REMARK UNBOUND:                -0.462
REMARK SMILES COc1cccc(C(=O)O)c1O
REMARK SMILES IDX 7 1 11 2 6 3 5 4 3 5 4 6 8 7 9 8 10 9 12 11 2 13 1 14
REMARK H PARENT 10 10 12 12
ROOT
ATOM      1  C   UNL     1      -7.002   1.149   0.088  1.00  0.00     0.105 A 
ATOM      2  C   UNL     1      -8.248   1.703   0.198  1.00  0.00     0.172 A 
ATOM      3  C   UNL     1      -6.086   1.294   1.234  1.00  0.00     0.020 A 
ATOM      4  C   UNL     1      -6.625   1.627   2.435  1.00  0.00     0.005 A 
ATOM      5  C   UNL     1      -8.914   1.834   1.486  1.00  0.00     0.161 A 
ATOM      6  C   UNL     1      -8.011   1.905   2.619  1.00  0.00     0.050 A 
ENDROOT
BRANCH   1   7
ATOM      7  C   UNL     1      -6.604   0.313  -1.141  1.00  0.00     0.339 C 
ATOM      8  O   UNL     1      -7.134   1.105  -2.462  1.00  0.00    -0.246 OA
BRANCH   7   9
ATOM      9  O   UNL     1      -6.026  -0.536  -1.375  1.00  0.00    -0.478 OA
ATOM     10  H   UNL     1      -5.483  -1.334  -1.596  1.00  0.00     0.297 HD
ENDBRANCH   7   9
ENDBRANCH   1   7
BRANCH   2  11
ATOM     11  O   UNL     1      -8.952   2.152  -0.933  1.00  0.00    -0.504 OA
ATOM     12  H   UNL     1      -9.447   2.468  -1.729  1.00  0.00     0.293 HD
ENDBRANCH   2  11
BRANCH   5  13
ATOM     13  O   UNL     1     -10.246   2.226   1.442  1.00  0.00    -0.493 OA
ATOM     14  C   UNL     1     -11.525   2.178   1.616  1.00  0.00     0.278 C 
ENDBRANCH   5  13
TORSDOF 4
ENDMDL
MODEL 8
REMARK VINA RESULT:    -4.026      2.356      4.638
REMARK INTER + INTRA:          -5.195
REMARK INTER:                  -4.990
REMARK INTRA:                  -0.205
REMARK UNBOUND:                -0.462
REMARK SMILES COc1cccc(C(=O)O)c1O
REMARK SMILES IDX 7 1 11 2 6 3 5 4 3 5 4 6 8 7 9 8 10 9 12 11 2 13 1 14
REMARK H PARENT 10 10 12 12
ROOT
ATOM      1  C   UNL     1      -7.422   0.836   3.110  1.00  0.00     0.105 A 
ATOM      2  C   UNL     1      -7.473   0.321   1.844  1.00  0.00     0.172 A 
ATOM      3  C   UNL     1      -6.256   1.666   3.464  1.00  0.00     0.020 A 
ATOM      4  C   UNL     1      -5.509   2.171   2.449  1.00  0.00     0.005 A 
ATOM      5  C   UNL     1      -6.861   1.008   0.715  1.00  0.00     0.161 A 
ATOM      6  C   UNL     1      -5.759   1.881   1.075  1.00  0.00     0.050 A 
ENDROOT
BRANCH   1   7
ATOM      7  C   UNL     1      -8.586   0.646   4.099  1.00  0.00     0.339 C 
ATOM      8  O   UNL     1      -9.922   1.263   3.401  1.00  0.00    -0.246 OA
BRANCH   7   9
ATOM      9  O   UNL     1      -8.785   0.166   5.014  1.00  0.00    -0.478 OA
ATOM     10  H   UNL     1      -8.971  -0.286   5.875  1.00  0.00     0.297 HD
ENDBRANCH   7   9
ENDBRANCH   1   7
BRANCH   2  11
ATOM     11  O   UNL     1      -8.139  -0.886   1.571  1.00  0.00    -0.504 OA
ATOM     12  H   UNL     1      -8.608  -1.737   1.379  1.00  0.00     0.293 HD
ENDBRANCH   2  11
BRANCH   5  13
ATOM     13  O   UNL     1      -7.152   0.488  -0.540  1.00  0.00    -0.493 OA
ATOM     14  C   UNL     1      -7.456   0.464  -1.795  1.00  0.00     0.278 C 
ENDBRANCH   5  13
TORSDOF 4
ENDMDL
MODEL 9
REMARK VINA RESULT:    -3.983      2.151      3.097
REMARK INTER + INTRA:          -5.144
REMARK INTER:                  -4.879
REMARK INTRA:                  -0.265
REMARK UNBOUND:                -0.462
REMARK SMILES COc1cccc(C(=O)O)c1O
REMARK SMILES IDX 7 1 11 2 6 3 5 4 3 5 4 6 8 7 9 8 10 9 12 11 2 13 1 14
REMARK H PARENT 10 10 12 12
ROOT
ATOM      1  C   UNL     1      -8.313   2.105  -0.421  1.00  0.00     0.105 A 
ATOM      2  C   UNL     1      -7.491   2.480   0.605  1.00  0.00     0.172 A 
ATOM      3  C   UNL     1      -7.823   1.065  -1.344  1.00  0.00     0.020 A 
ATOM      4  C   UNL     1      -6.784   0.294  -0.932  1.00  0.00     0.005 A 
ATOM      5  C   UNL     1      -6.538   1.553   1.198  1.00  0.00     0.161 A 
ATOM      6  C   UNL     1      -6.111   0.488   0.310  1.00  0.00     0.050 A 
ENDROOT
BRANCH   1   7
ATOM      7  C   UNL     1      -9.739   2.667  -0.551  1.00  0.00     0.339 C 
ATOM      8  O   UNL     1     -10.432   2.581   0.921  1.00  0.00    -0.246 OA
BRANCH   7   9
ATOM      9  O   UNL     1     -10.340   3.162  -1.260  1.00  0.00    -0.478 OA
ATOM     10  H   UNL     1     -10.906   3.627  -1.926  1.00  0.00     0.297 HD
ENDBRANCH   7   9
ENDBRANCH   1   7
BRANCH   2  11
ATOM     11  O   UNL     1      -7.544   3.774   1.150  1.00  0.00    -0.504 OA
ATOM     12  H   UNL     1      -7.582   4.686   1.533  1.00  0.00     0.293 HD
ENDBRANCH   2  11
BRANCH   5  13
ATOM     13  O   UNL     1      -5.906   1.991   2.355  1.00  0.00    -0.493 OA
ATOM     14  C   UNL     1      -5.591   2.060   3.607  1.00  0.00     0.278 C 
ENDBRANCH   5  13
TORSDOF 4
ENDMDL
