MODEL 1
REMARK VINA RESULT:    -4.992      0.000      0.000
REMARK INTER + INTRA:          -6.138
REMARK INTER:                  -5.868
REMARK INTRA:                  -0.270
REMARK UNBOUND:                -0.270
REMARK SMILES COc1cccc(C(=O)O)c1O
REMARK SMILES IDX 7 1 11 2 6 3 5 4 3 5 4 6 8 7 9 8 10 9 12 11 2 13 1 14
REMARK H PARENT 10 10 12 12
ROOT
ATOM      1  C   UNL     1      -0.987   2.337   6.219  1.00  0.00     0.105 A 
ATOM      2  C   UNL     1      -1.453   2.993   7.326  1.00  0.00     0.172 A 
ATOM      3  C   UNL     1      -0.728   3.139   5.009  1.00  0.00     0.020 A 
ATOM      4  C   UNL     1      -0.608   4.484   5.156  1.00  0.00     0.005 A 
ATOM      5  C   UNL     1      -1.112   4.384   7.589  1.00  0.00     0.161 A 
ATOM      6  C   UNL     1      -0.788   5.153   6.402  1.00  0.00     0.050 A 
ENDROOT
BRANCH   1   7
ATOM      7  C   UNL     1      -0.645   0.838   6.262  1.00  0.00     0.339 C 
ATOM      8  O   UNL     1       0.310   0.520   4.980  1.00  0.00    -0.246 OA
BRANCH   7   9
ATOM      9  O   UNL     1      -0.759   0.012   6.904  1.00  0.00    -0.478 OA
ATOM     10  H   UNL     1      -0.866  -0.766   7.507  1.00  0.00     0.297 HD
ENDBRANCH   7   9
ENDBRANCH   1   7
BRANCH   2  11
ATOM     11  O   UNL     1      -2.265   2.345   8.272  1.00  0.00    -0.504 OA
ATOM     12  H   UNL     1      -2.837   1.888   8.938  1.00  0.00     0.293 HD
ENDBRANCH   2  11
BRANCH   5  13
ATOM     13  O   UNL     1      -1.481   4.871   8.837  1.00  0.00    -0.493 OA
ATOM     14  C   UNL     1      -1.367   5.432   9.995  1.00  0.00     0.278 C 
ENDBRANCH   5  13
TORSDOF 4
ENDMDL
MODEL 2
REMARK VINA RESULT:    -4.985      3.074      4.067
REMARK INTER + INTRA:          -6.129
REMARK INTER:                  -5.859
REMARK INTRA:                  -0.270
REMARK UNBOUND:                -0.270
REMARK SMILES COc1cccc(C(=O)O)c1O
REMARK SMILES IDX 7 1 11 2 6 3 5 4 3 5 4 6 8 7 9 8 10 9 12 11 2 13 1 14
REMARK H PARENT 10 10 12 12
ROOT
ATOM      1  C   UNL     1      -1.244   4.903   4.483  1.00  0.00     0.105 A 
ATOM      2  C   UNL     1      -0.672   5.663   5.465  1.00  0.00     0.172 A 
ATOM      3  C   UNL     1      -1.530   3.490   4.791  1.00  0.00     0.020 A 
ATOM      4  C   UNL     1      -1.559   3.122   6.098  1.00  0.00     0.005 A 
ATOM      5  C   UNL     1      -0.911   5.393   6.876  1.00  0.00     0.161 A 
ATOM      6  C   UNL     1      -1.262   4.016   7.168  1.00  0.00     0.050 A 
ENDROOT
BRANCH   1   7
ATOM      7  C   UNL     1      -1.673   5.521   3.141  1.00  0.00     0.339 C 
ATOM      8  O   UNL     1      -2.743   4.501   2.455  1.00  0.00    -0.246 OA
BRANCH   7   9
ATOM      9  O   UNL     1      -1.560   6.419   2.603  1.00  0.00    -0.478 OA
ATOM     10  H   UNL     1      -1.452   7.264   2.097  1.00  0.00     0.297 HD
ENDBRANCH   7   9
ENDBRANCH   1   7
BRANCH   2  11
ATOM     11  O   UNL     1       0.157   6.755   5.156  1.00  0.00    -0.504 OA
ATOM     12  H   UNL     1       0.741   7.525   4.939  1.00  0.00     0.293 HD
ENDBRANCH   2  11
BRANCH   5  13
ATOM     13  O   UNL     1      -0.437   6.350   7.764  1.00  0.00    -0.493 OA
ATOM     14  C   UNL     1      -0.438   7.197   8.741  1.00  0.00     0.278 C 
ENDBRANCH   5  13
TORSDOF 4
ENDMDL
MODEL 3
REMARK VINA RESULT:    -4.844      2.188      3.220
REMARK INTER + INTRA:          -5.964
REMARK INTER:                  -5.481
REMARK INTRA:                  -0.483
REMARK UNBOUND:                -0.270
REMARK SMILES COc1cccc(C(=O)O)c1O
REMARK SMILES IDX 7 1 11 2 6 3 5 4 3 5 4 6 8 7 9 8 10 9 12 11 2 13 1 14
REMARK H PARENT 10 10 12 12
ROOT
ATOM      1  C   UNL     1      -1.024   2.163   6.476  1.00  0.00     0.105 A 
ATOM      2  C   UNL     1      -0.806   3.151   5.555  1.00  0.00     0.172 A 
ATOM      3  C   UNL     1      -1.979   2.441   7.564  1.00  0.00     0.020 A 
ATOM      4  C   UNL     1      -2.842   3.475   7.398  1.00  0.00     0.005 A 
ATOM      5  C   UNL     1      -1.840   4.117   5.214  1.00  0.00     0.161 A 
ATOM      6  C   UNL     1      -2.820   4.336   6.261  1.00  0.00     0.050 A 
ENDROOT
BRANCH   1   7
ATOM      7  C   UNL     1      -0.380   0.773   6.326  1.00  0.00     0.339 C 
ATOM      8  O   UNL     1       0.210   0.671   4.811  1.00  0.00    -0.246 OA
BRANCH   7   9
ATOM      9  O   UNL     1      -0.130  -0.059   6.921  1.00  0.00    -0.478 OA
ATOM     10  H   UNL     1       0.105  -0.842   7.480  1.00  0.00     0.297 HD
ENDBRANCH   7   9
ENDBRANCH   1   7
BRANCH   2  11
ATOM     11  O   UNL     1       0.421   3.264   4.880  1.00  0.00    -0.504 OA
ATOM     12  H   UNL     1       1.286   3.344   4.405  1.00  0.00     0.293 HD
ENDBRANCH   2  11
BRANCH   5  13
ATOM     13  O   UNL     1      -1.565   4.941   4.129  1.00  0.00    -0.493 OA
ATOM     14  C   UNL     1      -1.777   5.690   3.098  1.00  0.00     0.278 C 
ENDBRANCH   5  13
TORSDOF 4
ENDMDL
MODEL 4
REMARK VINA RESULT:    -4.796      2.902      4.386
REMARK INTER + INTRA:          -5.907
REMARK INTER:                  -5.421
REMARK INTRA:                  -0.486
REMARK UNBOUND:                -0.270
REMARK SMILES COc1cccc(C(=O)O)c1O
REMARK SMILES IDX 7 1 11 2 6 3 5 4 3 5 4 6 8 7 9 8 10 9 12 11 2 13 1 14
REMARK H PARENT 10 10 12 12
ROOT
ATOM      1  C   UNL     1      -1.243   5.120   4.464  1.00  0.00     0.105 A 
ATOM      2  C   UNL     1      -1.347   3.845   4.946  1.00  0.00     0.172 A 
ATOM      3  C   UNL     1      -0.234   6.003   5.079  1.00  0.00     0.020 A 
ATOM      4  C   UNL     1       0.755   5.421   5.804  1.00  0.00     0.005 A 
ATOM      5  C   UNL     1      -0.201   3.145   5.510  1.00  0.00     0.161 A 
ATOM      6  C   UNL     1       0.823   4.019   6.051  1.00  0.00     0.050 A 
ENDROOT
BRANCH   1   7
ATOM      7  C   UNL     1      -2.070   5.589   3.254  1.00  0.00     0.339 C 
ATOM      8  O   UNL     1      -2.616   4.256   2.493  1.00  0.00    -0.246 OA
BRANCH   7   9
ATOM      9  O   UNL     1      -2.454   6.481   2.847  1.00  0.00    -0.478 OA
ATOM     10  H   UNL     1      -2.814   7.320   2.465  1.00  0.00     0.297 HD
ENDBRANCH   7   9
ENDBRANCH   1   7
BRANCH   2  11
ATOM     11  O   UNL     1      -2.563   3.142   4.899  1.00  0.00    -0.504 OA
ATOM     12  H   UNL     1      -3.420   2.647   4.867  1.00  0.00     0.293 HD
ENDBRANCH   2  11
BRANCH   5  13
ATOM     13  O   UNL     1      -0.389   1.795   5.780  1.00  0.00    -0.493 OA
ATOM     14  C   UNL     1      -0.483   0.703   6.464  1.00  0.00     0.278 C 
ENDBRANCH   5  13
TORSDOF 4
ENDMDL
MODEL 5
REMARK VINA RESULT:    -4.377      0.882      0.981
REMARK INTER + INTRA:          -5.415
REMARK INTER:                  -5.312
REMARK INTRA:                  -0.103
REMARK UNBOUND:                -0.270
REMARK SMILES COc1cccc(C(=O)O)c1O
REMARK SMILES IDX 7 1 11 2 6 3 5 4 3 5 4 6 8 7 9 8 10 9 12 11 2 13 1 14
REMARK H PARENT 10 10 12 12
ROOT
ATOM      1  C   UNL     1      -1.001   2.411   5.845  1.00  0.00     0.105 A 
ATOM      2  C   UNL     1      -1.163   3.372   6.804  1.00  0.00     0.172 A 
ATOM      3  C   UNL     1      -1.233   2.800   4.441  1.00  0.00     0.020 A 
ATOM      4  C   UNL     1      -1.228   4.125   4.144  1.00  0.00     0.005 A 
ATOM      5  C   UNL     1      -0.919   4.780   6.523  1.00  0.00     0.161 A 
ATOM      6  C   UNL     1      -1.078   5.146   5.128  1.00  0.00     0.050 A 
ENDROOT
BRANCH   1   7
ATOM      7  C   UNL     1      -0.493   1.003   6.200  1.00  0.00     0.339 C 
ATOM      8  O   UNL     1       0.329   0.442   4.911  1.00  0.00    -0.246 OA
BRANCH   7   9
ATOM      9  O   UNL     1      -0.438   0.361   7.033  1.00  0.00    -0.478 OA
ATOM     10  H   UNL     1      -0.386  -0.242   7.816  1.00  0.00     0.297 HD
ENDBRANCH   7   9
ENDBRANCH   1   7
BRANCH   2  11
ATOM     11  O   UNL     1      -1.553   3.041   8.113  1.00  0.00    -0.504 OA
ATOM     12  H   UNL     1      -1.827   2.808   9.035  1.00  0.00     0.293 HD
ENDBRANCH   2  11
BRANCH   5  13
ATOM     13  O   UNL     1      -0.925   5.627   7.625  1.00  0.00    -0.493 OA
ATOM     14  C   UNL     1      -1.262   6.108   8.776  1.00  0.00     0.278 C 
ENDBRANCH   5  13
TORSDOF 4
ENDMDL
MODEL 6
REMARK VINA RESULT:    -4.140      2.272      3.880
REMARK INTER + INTRA:          -5.136
REMARK INTER:                  -4.889
REMARK INTRA:                  -0.247
REMARK UNBOUND:                -0.270
REMARK SMILES COc1cccc(C(=O)O)c1O
REMARK SMILES IDX 7 1 11 2 6 3 5 4 3 5 4 6 8 7 9 8 10 9 12 11 2 13 1 14
REMARK H PARENT 10 10 12 12
ROOT
ATOM      1  C   UNL     1      -1.838   2.681   7.097  1.00  0.00     0.105 A 
ATOM      2  C   UNL     1      -2.234   3.483   6.062  1.00  0.00     0.172 A 
ATOM      3  C   UNL     1      -0.989   1.520   6.775  1.00  0.00     0.020 A 
ATOM      4  C   UNL     1      -0.356   1.514   5.574  1.00  0.00     0.005 A 
ATOM      5  C   UNL     1      -1.416   3.651   4.870  1.00  0.00     0.161 A 
ATOM      6  C   UNL     1      -0.529   2.536   4.595  1.00  0.00     0.050 A 
ENDROOT
BRANCH   1   7
ATOM      7  C   UNL     1      -2.175   3.033   8.557  1.00  0.00     0.339 C 
ATOM      8  O   UNL     1      -1.803   4.603   8.778  1.00  0.00    -0.246 OA
BRANCH   7   9
ATOM      9  O   UNL     1      -2.649   2.602   9.392  1.00  0.00    -0.478 OA
ATOM     10  H   UNL     1      -3.095   2.196  10.178  1.00  0.00     0.297 HD
ENDBRANCH   7   9
ENDBRANCH   1   7
BRANCH   2  11
ATOM     11  O   UNL     1      -3.442   4.201   6.114  1.00  0.00    -0.504 OA
ATOM     12  H   UNL     1      -4.292   4.707   6.150  1.00  0.00     0.293 HD
ENDBRANCH   2  11
BRANCH   5  13
ATOM     13  O   UNL     1      -1.830   4.638   3.985  1.00  0.00    -0.493 OA
ATOM     14  C   UNL     1      -1.774   5.694   3.241  1.00  0.00     0.278 C 
ENDBRANCH   5  13
TORSDOF 4
ENDMDL
MODEL 7
REMARK VINA RESULT:    -4.136      2.250      4.665
REMARK INTER + INTRA:          -5.131
REMARK INTER:                  -4.875
REMARK INTRA:                  -0.256
REMARK UNBOUND:                -0.270
REMARK SMILES COc1cccc(C(=O)O)c1O
REMARK SMILES IDX 7 1 11 2 6 3 5 4 3 5 4 6 8 7 9 8 10 9 12 11 2 13 1 14
REMARK H PARENT 10 10 12 12
ROOT
ATOM      1  C   UNL     1      -0.339   5.548   5.054  1.00  0.00     0.105 A 
ATOM      2  C   UNL     1       0.010   4.266   5.379  1.00  0.00     0.172 A 
ATOM      3  C   UNL     1      -1.265   5.738   3.923  1.00  0.00     0.020 A 
ATOM      4  C   UNL     1      -1.993   4.666   3.516  1.00  0.00     0.005 A 
ATOM      5  C   UNL     1      -0.892   3.147   5.149  1.00  0.00     0.161 A 
ATOM      6  C   UNL     1      -1.851   3.365   4.081  1.00  0.00     0.050 A 
ENDROOT
BRANCH   1   7
ATOM      7  C   UNL     1       0.131   6.745   5.899  1.00  0.00     0.339 C 
ATOM      8  O   UNL     1      -0.134   6.370   7.462  1.00  0.00    -0.246 OA
BRANCH   7   9
ATOM      9  O   UNL     1       0.644   7.656   5.777  1.00  0.00    -0.478 OA
ATOM     10  H   UNL     1       1.126   8.513   5.661  1.00  0.00     0.297 HD
ENDBRANCH   7   9
ENDBRANCH   1   7
BRANCH   2  11
ATOM     11  O   UNL     1       1.251   3.974   5.971  1.00  0.00    -0.504 OA
ATOM     12  H   UNL     1       2.124   3.767   6.389  1.00  0.00     0.293 HD
ENDBRANCH   2  11
BRANCH   5  13
ATOM     13  O   UNL     1      -0.504   1.933   5.700  1.00  0.00    -0.493 OA
ATOM     14  C   UNL     1      -0.532   0.889   6.461  1.00  0.00     0.278 C 
ENDBRANCH   5  13
TORSDOF 4
ENDMDL
MODEL 8
REMARK VINA RESULT:    -3.956      2.408      3.484
REMARK INTER + INTRA:          -4.920
REMARK INTER:                  -4.668
REMARK INTRA:                  -0.252
REMARK UNBOUND:                -0.270
REMARK SMILES COc1cccc(C(=O)O)c1O
REMARK SMILES IDX 7 1 11 2 6 3 5 4 3 5 4 6 8 7 9 8 10 9 12 11 2 13 1 14
REMARK H PARENT 10 10 12 12
ROOT
ATOM      1  C   UNL     1      -1.318   4.018   5.065  1.00  0.00     0.105 A 
ATOM      2  C   UNL     1      -1.625   4.123   6.394  1.00  0.00     0.172 A 
ATOM      3  C   UNL     1      -0.526   2.851   4.636  1.00  0.00     0.020 A 
ATOM      4  C   UNL     1      -0.463   1.787   5.478  1.00  0.00     0.005 A 
ATOM      5  C   UNL     1      -1.789   2.946   7.235  1.00  0.00     0.161 A 
ATOM      6  C   UNL     1      -1.065   1.777   6.771  1.00  0.00     0.050 A 
ENDROOT
BRANCH   1   7
ATOM      7  C   UNL     1      -1.866   5.022   4.036  1.00  0.00     0.339 C 
ATOM      8  O   UNL     1      -2.339   4.171   2.730  1.00  0.00    -0.246 OA
BRANCH   7   9
ATOM      9  O   UNL     1      -2.106   6.045   3.969  1.00  0.00    -0.478 OA
ATOM     10  H   UNL     1      -2.333   7.007   3.906  1.00  0.00     0.297 HD
ENDBRANCH   7   9
ENDBRANCH   1   7
BRANCH   2  11
ATOM     11  O   UNL     1      -1.818   5.374   7.004  1.00  0.00    -0.504 OA
ATOM     12  H   UNL     1      -1.953   6.256   7.434  1.00  0.00     0.293 HD
ENDBRANCH   2  11
BRANCH   5  13
ATOM     13  O   UNL     1      -2.291   3.177   8.509  1.00  0.00    -0.493 OA
ATOM     14  C   UNL     1      -2.396   3.113   9.795  1.00  0.00     0.278 C 
ENDBRANCH   5  13
TORSDOF 4
ENDMDL
MODEL 9
REMARK VINA RESULT:    -3.854      7.930      8.950
REMARK INTER + INTRA:          -4.800
REMARK INTER:                  -4.579
REMARK INTRA:                  -0.220
REMARK UNBOUND:                -0.270
REMARK SMILES COc1cccc(C(=O)O)c1O
REMARK SMILES IDX 7 1 11 2 6 3 5 4 3 5 4 6 8 7 9 8 10 9 12 11 2 13 1 14
REMARK H PARENT 10 10 12 12
ROOT
ATOM      1  C   UNL     1      -5.823  -0.788   1.019  1.00  0.00     0.105 A 
ATOM      2  C   UNL     1      -4.518  -0.496   0.731  1.00  0.00     0.172 A 
ATOM      3  C   UNL     1      -6.867  -0.059   0.275  1.00  0.00     0.020 A 
ATOM      4  C   UNL     1      -6.502   0.566  -0.874  1.00  0.00     0.005 A 
ATOM      5  C   UNL     1      -4.110  -0.049  -0.593  1.00  0.00     0.161 A 
ATOM      6  C   UNL     1      -5.159   0.605  -1.351  1.00  0.00     0.050 A 
ENDROOT
BRANCH   1   7
ATOM      7  C   UNL     1      -6.194  -1.910   2.004  1.00  0.00     0.339 C 
ATOM      8  O   UNL     1      -5.093  -3.098   1.826  1.00  0.00    -0.246 OA
BRANCH   7   9
ATOM      9  O   UNL     1      -6.864  -2.087   2.796  1.00  0.00    -0.478 OA
ATOM     10  H   UNL     1      -7.495  -2.253   3.542  1.00  0.00     0.297 HD
ENDBRANCH   7   9
ENDBRANCH   1   7
BRANCH   2  11
ATOM     11  O   UNL     1      -3.507  -0.636   1.697  1.00  0.00    -0.504 OA
ATOM     12  H   UNL     1      -2.795  -0.734   2.378  1.00  0.00     0.293 HD
ENDBRANCH   2  11
BRANCH   5  13
ATOM     13  O   UNL     1      -2.740   0.023  -0.812  1.00  0.00    -0.493 OA
ATOM     14  C   UNL     1      -1.476  -0.183  -0.634  1.00  0.00     0.278 C 
ENDBRANCH   5  13
TORSDOF 4
ENDMDL
