MODEL 1
REMARK VINA RESULT:    -4.968      0.000      0.000
REMARK INTER + INTRA:          -6.110
REMARK INTER:                  -5.839
REMARK INTRA:                  -0.271
REMARK UNBOUND:                -0.271
REMARK SMILES COc1cccc(C(=O)O)c1O
REMARK SMILES IDX 7 1 11 2 6 3 5 4 3 5 4 6 8 7 9 8 10 9 12 11 2 13 1 14
REMARK H PARENT 10 10 12 12
ROOT
ATOM      1  C   UNL     1      -6.912   3.509  -0.004  1.00  0.00     0.105 A 
ATOM      2  C   UNL     1      -7.973   4.073  -0.656  1.00  0.00     0.172 A 
ATOM      3  C   UNL     1      -5.558   3.932  -0.408  1.00  0.00     0.020 A 
ATOM      4  C   UNL     1      -5.442   5.087  -1.113  1.00  0.00     0.005 A 
ATOM      5  C   UNL     1      -7.905   5.421  -1.203  1.00  0.00     0.161 A 
ATOM      6  C   UNL     1      -6.563   5.862  -1.533  1.00  0.00     0.050 A 
ENDROOT
BRANCH   1   7
ATOM      7  C   UNL     1      -7.118   2.547   1.179  1.00  0.00     0.339 C 
ATOM      8  O   UNL     1      -5.727   2.513   2.027  1.00  0.00    -0.246 OA
BRANCH   7   9
ATOM      9  O   UNL     1      -7.893   2.003   1.640  1.00  0.00    -0.478 OA
ATOM     10  H   UNL     1      -8.623   1.492   2.072  1.00  0.00     0.297 HD
ENDBRANCH   7   9
ENDBRANCH   1   7
BRANCH   2  11
ATOM     11  O   UNL     1      -9.189   3.384  -0.808  1.00  0.00    -0.504 OA
ATOM     12  H   UNL     1     -10.045   2.899  -0.915  1.00  0.00     0.293 HD
ENDBRANCH   2  11
BRANCH   5  13
ATOM     13  O   UNL     1      -9.105   5.949  -1.662  1.00  0.00    -0.493 OA
ATOM     14  C   UNL     1     -10.137   6.723  -1.725  1.00  0.00     0.278 C 
ENDBRANCH   5  13
TORSDOF 4
ENDMDL
MODEL 2
REMARK VINA RESULT:    -4.957      3.065      4.043
REMARK INTER + INTRA:          -6.097
REMARK INTER:                  -5.827
REMARK INTRA:                  -0.270
REMARK UNBOUND:                -0.271
REMARK SMILES COc1cccc(C(=O)O)c1O
REMARK SMILES IDX 7 1 11 2 6 3 5 4 3 5 4 6 8 7 9 8 10 9 12 11 2 13 1 14
REMARK H PARENT 10 10 12 12
ROOT
ATOM      1  C   UNL     1      -4.965   4.945  -1.868  1.00  0.00     0.105 A 
ATOM      2  C   UNL     1      -5.641   6.128  -1.745  1.00  0.00     0.172 A 
ATOM      3  C   UNL     1      -5.573   3.745  -1.264  1.00  0.00     0.020 A 
ATOM      4  C   UNL     1      -6.895   3.794  -0.956  1.00  0.00     0.005 A 
ATOM      5  C   UNL     1      -7.094   6.172  -1.655  1.00  0.00     0.161 A 
ATOM      6  C   UNL     1      -7.694   4.962  -1.126  1.00  0.00     0.050 A 
ENDROOT
BRANCH   1   7
ATOM      7  C   UNL     1      -3.673   4.844  -2.696  1.00  0.00     0.339 C 
ATOM      8  O   UNL     1      -3.446   3.271  -3.055  1.00  0.00    -0.246 OA
BRANCH   7   9
ATOM      9  O   UNL     1      -2.973   5.477  -3.163  1.00  0.00    -0.478 OA
ATOM     10  H   UNL     1      -2.316   6.073  -3.603  1.00  0.00     0.297 HD
ENDBRANCH   7   9
ENDBRANCH   1   7
BRANCH   2  11
ATOM     11  O   UNL     1      -4.963   7.359  -1.723  1.00  0.00    -0.504 OA
ATOM     12  H   UNL     1      -4.486   8.226  -1.707  1.00  0.00     0.293 HD
ENDBRANCH   2  11
BRANCH   5  13
ATOM     13  O   UNL     1      -7.667   7.435  -1.733  1.00  0.00    -0.493 OA
ATOM     14  C   UNL     1      -8.437   8.388  -2.145  1.00  0.00     0.278 C 
ENDBRANCH   5  13
TORSDOF 4
ENDMDL
MODEL 3
REMARK VINA RESULT:    -4.858      2.236      3.275
REMARK INTER + INTRA:          -5.980
REMARK INTER:                  -5.514
REMARK INTRA:                  -0.466
REMARK UNBOUND:                -0.271
REMARK SMILES COc1cccc(C(=O)O)c1O
REMARK SMILES IDX 7 1 11 2 6 3 5 4 3 5 4 6 8 7 9 8 10 9 12 11 2 13 1 14
REMARK H PARENT 10 10 12 12
ROOT
ATOM      1  C   UNL     1      -7.131   3.502   0.104  1.00  0.00     0.105 A 
ATOM      2  C   UNL     1      -6.004   3.957  -0.523  1.00  0.00     0.172 A 
ATOM      3  C   UNL     1      -8.403   3.573  -0.639  1.00  0.00     0.020 A 
ATOM      4  C   UNL     1      -8.338   3.729  -1.987  1.00  0.00     0.005 A 
ATOM      5  C   UNL     1      -5.857   3.895  -1.970  1.00  0.00     0.161 A 
ATOM      6  C   UNL     1      -7.113   3.893  -2.697  1.00  0.00     0.050 A 
ENDROOT
BRANCH   1   7
ATOM      7  C   UNL     1      -7.064   2.842   1.492  1.00  0.00     0.339 C 
ATOM      8  O   UNL     1      -5.502   2.480   1.784  1.00  0.00    -0.246 OA
BRANCH   7   9
ATOM      9  O   UNL     1      -7.690   2.652   2.317  1.00  0.00    -0.478 OA
ATOM     10  H   UNL     1      -8.279   2.474   3.093  1.00  0.00     0.297 HD
ENDBRANCH   7   9
ENDBRANCH   1   7
BRANCH   2  11
ATOM     11  O   UNL     1      -4.925   4.487   0.205  1.00  0.00    -0.504 OA
ATOM     12  H   UNL     1      -4.165   4.861   0.718  1.00  0.00     0.293 HD
ENDBRANCH   2  11
BRANCH   5  13
ATOM     13  O   UNL     1      -4.596   4.203  -2.465  1.00  0.00    -0.493 OA
ATOM     14  C   UNL     1      -3.631   4.908  -2.956  1.00  0.00     0.278 C 
ENDBRANCH   5  13
TORSDOF 4
ENDMDL
MODEL 4
REMARK VINA RESULT:    -4.362      2.811      4.296
REMARK INTER + INTRA:          -5.398
REMARK INTER:                  -5.297
REMARK INTRA:                  -0.101
REMARK UNBOUND:                -0.271
REMARK SMILES COc1cccc(C(=O)O)c1O
REMARK SMILES IDX 7 1 11 2 6 3 5 4 3 5 4 6 8 7 9 8 10 9 12 11 2 13 1 14
REMARK H PARENT 10 10 12 12
ROOT
ATOM      1  C   UNL     1      -5.238   4.376  -2.277  1.00  0.00     0.105 A 
ATOM      2  C   UNL     1      -5.718   3.672  -1.207  1.00  0.00     0.172 A 
ATOM      3  C   UNL     1      -6.211   5.116  -3.101  1.00  0.00     0.020 A 
ATOM      4  C   UNL     1      -7.435   5.361  -2.566  1.00  0.00     0.005 A 
ATOM      5  C   UNL     1      -6.914   4.092  -0.491  1.00  0.00     0.161 A 
ATOM      6  C   UNL     1      -7.837   4.881  -1.285  1.00  0.00     0.050 A 
ENDROOT
BRANCH   1   7
ATOM      7  C   UNL     1      -3.728   4.483  -2.552  1.00  0.00     0.339 C 
ATOM      8  O   UNL     1      -3.230   3.035  -3.109  1.00  0.00    -0.246 OA
BRANCH   7   9
ATOM      9  O   UNL     1      -2.971   5.215  -2.579  1.00  0.00    -0.478 OA
ATOM     10  H   UNL     1      -2.260   5.903  -2.605  1.00  0.00     0.297 HD
ENDBRANCH   7   9
ENDBRANCH   1   7
BRANCH   2  11
ATOM     11  O   UNL     1      -5.065   2.519  -0.737  1.00  0.00    -0.504 OA
ATOM     12  H   UNL     1      -4.605   1.708  -0.406  1.00  0.00     0.293 HD
ENDBRANCH   2  11
BRANCH   5  13
ATOM     13  O   UNL     1      -7.183   3.411   0.690  1.00  0.00    -0.493 OA
ATOM     14  C   UNL     1      -7.070   2.529   1.627  1.00  0.00     0.278 C 
ENDBRANCH   5  13
TORSDOF 4
ENDMDL
MODEL 5
REMARK VINA RESULT:    -4.332      0.712      1.154
REMARK INTER + INTRA:          -5.362
REMARK INTER:                  -4.896
REMARK INTRA:                  -0.467
REMARK UNBOUND:                -0.271
REMARK SMILES COc1cccc(C(=O)O)c1O
REMARK SMILES IDX 7 1 11 2 6 3 5 4 3 5 4 6 8 7 9 8 10 9 12 11 2 13 1 14
REMARK H PARENT 10 10 12 12
ROOT
ATOM      1  C   UNL     1      -6.246   3.530  -0.222  1.00  0.00     0.105 A 
ATOM      2  C   UNL     1      -7.370   4.129  -0.721  1.00  0.00     0.172 A 
ATOM      3  C   UNL     1      -4.984   3.724  -0.959  1.00  0.00     0.020 A 
ATOM      4  C   UNL     1      -4.922   4.750  -1.846  1.00  0.00     0.005 A 
ATOM      5  C   UNL     1      -7.301   5.372  -1.476  1.00  0.00     0.161 A 
ATOM      6  C   UNL     1      -6.031   5.595  -2.143  1.00  0.00     0.050 A 
ENDROOT
BRANCH   1   7
ATOM      7  C   UNL     1      -6.271   2.768   1.114  1.00  0.00     0.339 C 
ATOM      8  O   UNL     1      -7.608   1.837   1.119  1.00  0.00    -0.246 OA
BRANCH   7   9
ATOM      9  O   UNL     1      -5.653   2.604   1.951  1.00  0.00    -0.478 OA
ATOM     10  H   UNL     1      -5.072   2.448   2.737  1.00  0.00     0.297 HD
ENDBRANCH   7   9
ENDBRANCH   1   7
BRANCH   2  11
ATOM     11  O   UNL     1      -8.647   3.582  -0.508  1.00  0.00    -0.504 OA
ATOM     12  H   UNL     1      -9.546   3.197  -0.358  1.00  0.00     0.293 HD
ENDBRANCH   2  11
BRANCH   5  13
ATOM     13  O   UNL     1      -8.519   5.979  -1.755  1.00  0.00    -0.493 OA
ATOM     14  C   UNL     1      -9.439   6.887  -1.775  1.00  0.00     0.278 C 
ENDBRANCH   5  13
TORSDOF 4
ENDMDL
MODEL 6
REMARK VINA RESULT:    -4.250      2.270      4.663
REMARK INTER + INTRA:          -5.266
REMARK INTER:                  -4.965
REMARK INTRA:                  -0.300
REMARK UNBOUND:                -0.271
REMARK SMILES COc1cccc(C(=O)O)c1O
REMARK SMILES IDX 7 1 11 2 6 3 5 4 3 5 4 6 8 7 9 8 10 9 12 11 2 13 1 14
REMARK H PARENT 10 10 12 12
ROOT
ATOM      1  C   UNL     1      -5.163   6.158  -1.500  1.00  0.00     0.105 A 
ATOM      2  C   UNL     1      -5.633   5.466  -0.418  1.00  0.00     0.172 A 
ATOM      3  C   UNL     1      -4.287   5.438  -2.444  1.00  0.00     0.020 A 
ATOM      4  C   UNL     1      -4.293   4.081  -2.400  1.00  0.00     0.005 A 
ATOM      5  C   UNL     1      -5.859   4.029  -0.469  1.00  0.00     0.161 A 
ATOM      6  C   UNL     1      -5.046   3.332  -1.449  1.00  0.00     0.050 A 
ENDROOT
BRANCH   1   7
ATOM      7  C   UNL     1      -5.614   7.601  -1.786  1.00  0.00     0.339 C 
ATOM      8  O   UNL     1      -7.226   7.661  -1.558  1.00  0.00    -0.246 OA
BRANCH   7   9
ATOM      9  O   UNL     1      -5.191   8.545  -1.980  1.00  0.00    -0.478 OA
ATOM     10  H   UNL     1      -4.793   9.433  -2.163  1.00  0.00     0.297 HD
ENDBRANCH   7   9
ENDBRANCH   1   7
BRANCH   2  11
ATOM     11  O   UNL     1      -5.939   6.117   0.789  1.00  0.00    -0.504 OA
ATOM     12  H   UNL     1      -6.155   6.576   1.640  1.00  0.00     0.293 HD
ENDBRANCH   2  11
BRANCH   5  13
ATOM     13  O   UNL     1      -6.520   3.481   0.623  1.00  0.00    -0.493 OA
ATOM     14  C   UNL     1      -7.267   2.673   1.301  1.00  0.00     0.278 C 
ENDBRANCH   5  13
TORSDOF 4
ENDMDL
MODEL 7
REMARK VINA RESULT:    -4.219      2.231      3.804
REMARK INTER + INTRA:          -5.229
REMARK INTER:                  -4.896
REMARK INTRA:                  -0.334
REMARK UNBOUND:                -0.271
REMARK SMILES COc1cccc(C(=O)O)c1O
REMARK SMILES IDX 7 1 11 2 6 3 5 4 3 5 4 6 8 7 9 8 10 9 12 11 2 13 1 14
REMARK H PARENT 10 10 12 12
ROOT
ATOM      1  C   UNL     1      -8.010   3.636  -0.757  1.00  0.00     0.105 A 
ATOM      2  C   UNL     1      -7.016   3.922  -1.653  1.00  0.00     0.172 A 
ATOM      3  C   UNL     1      -7.616   3.047   0.536  1.00  0.00     0.020 A 
ATOM      4  C   UNL     1      -6.316   3.159   0.910  1.00  0.00     0.005 A 
ATOM      5  C   UNL     1      -5.673   4.276  -1.217  1.00  0.00     0.161 A 
ATOM      6  C   UNL     1      -5.314   3.754   0.088  1.00  0.00     0.050 A 
ENDROOT
BRANCH   1   7
ATOM      7  C   UNL     1      -9.475   4.012  -1.040  1.00  0.00     0.339 C 
ATOM      8  O   UNL     1      -9.477   5.503  -1.696  1.00  0.00    -0.246 OA
BRANCH   7   9
ATOM      9  O   UNL     1     -10.429   3.568  -1.027  1.00  0.00    -0.478 OA
ATOM     10  H   UNL     1     -11.327   3.150  -1.015  1.00  0.00     0.297 HD
ENDBRANCH   7   9
ENDBRANCH   1   7
BRANCH   2  11
ATOM     11  O   UNL     1      -7.254   3.906  -3.038  1.00  0.00    -0.504 OA
ATOM     12  H   UNL     1      -7.421   3.896  -4.014  1.00  0.00     0.293 HD
ENDBRANCH   2  11
BRANCH   5  13
ATOM     13  O   UNL     1      -4.816   4.734  -2.209  1.00  0.00    -0.493 OA
ATOM     14  C   UNL     1      -3.732   4.870  -2.899  1.00  0.00     0.278 C 
ENDBRANCH   5  13
TORSDOF 4
ENDMDL
MODEL 8
REMARK VINA RESULT:    -4.193      2.407      3.480
REMARK INTER + INTRA:          -5.199
REMARK INTER:                  -4.794
REMARK INTRA:                  -0.405
REMARK UNBOUND:                -0.271
REMARK SMILES COc1cccc(C(=O)O)c1O
REMARK SMILES IDX 7 1 11 2 6 3 5 4 3 5 4 6 8 7 9 8 10 9 12 11 2 13 1 14
REMARK H PARENT 10 10 12 12
ROOT
ATOM      1  C   UNL     1      -5.607   4.006  -1.197  1.00  0.00     0.105 A 
ATOM      2  C   UNL     1      -6.919   4.309  -1.440  1.00  0.00     0.172 A 
ATOM      3  C   UNL     1      -5.257   3.516   0.149  1.00  0.00     0.020 A 
ATOM      4  C   UNL     1      -6.263   3.051   0.933  1.00  0.00     0.005 A 
ATOM      5  C   UNL     1      -8.002   3.622  -0.752  1.00  0.00     0.161 A 
ATOM      6  C   UNL     1      -7.635   3.079   0.543  1.00  0.00     0.050 A 
ENDROOT
BRANCH   1   7
ATOM      7  C   UNL     1      -4.551   4.070  -2.314  1.00  0.00     0.339 C 
ATOM      8  O   UNL     1      -4.462   5.618  -2.812  1.00  0.00    -0.246 OA
BRANCH   7   9
ATOM      9  O   UNL     1      -3.827   3.452  -2.764  1.00  0.00    -0.478 OA
ATOM     10  H   UNL     1      -3.146   2.870  -3.186  1.00  0.00     0.297 HD
ENDBRANCH   7   9
ENDBRANCH   1   7
BRANCH   2  11
ATOM     11  O   UNL     1      -7.281   5.285  -2.384  1.00  0.00    -0.504 OA
ATOM     12  H   UNL     1      -7.536   5.973  -3.049  1.00  0.00     0.293 HD
ENDBRANCH   2  11
BRANCH   5  13
ATOM     13  O   UNL     1      -9.281   3.879  -1.227  1.00  0.00    -0.493 OA
ATOM     14  C   UNL     1     -10.479   4.361  -1.270  1.00  0.00     0.278 C 
ENDBRANCH   5  13
TORSDOF 4
ENDMDL
MODEL 9
REMARK VINA RESULT:    -3.547      2.286      3.533
REMARK INTER + INTRA:          -4.440
REMARK INTER:                  -4.010
REMARK INTRA:                  -0.430
REMARK UNBOUND:                -0.271
REMARK SMILES COc1cccc(C(=O)O)c1O
REMARK SMILES IDX 7 1 11 2 6 3 5 4 3 5 4 6 8 7 9 8 10 9 12 11 2 13 1 14
REMARK H PARENT 10 10 12 12
ROOT
ATOM      1  C   UNL     1      -8.495   4.148  -0.801  1.00  0.00     0.105 A 
ATOM      2  C   UNL     1      -7.649   5.065  -1.361  1.00  0.00     0.172 A 
ATOM      3  C   UNL     1      -7.917   3.167   0.135  1.00  0.00     0.020 A 
ATOM      4  C   UNL     1      -6.698   3.442   0.666  1.00  0.00     0.005 A 
ATOM      5  C   UNL     1      -6.458   5.530  -0.663  1.00  0.00     0.161 A 
ATOM      6  C   UNL     1      -5.932   4.591   0.309  1.00  0.00     0.050 A 
ENDROOT
BRANCH   1   7
ATOM      7  C   UNL     1     -10.012   4.201  -1.054  1.00  0.00     0.339 C 
ATOM      8  O   UNL     1     -10.354   5.673  -1.661  1.00  0.00    -0.246 OA
BRANCH   7   9
ATOM      9  O   UNL     1     -10.845   3.557  -1.043  1.00  0.00    -0.478 OA
ATOM     10  H   UNL     1     -11.629   2.952  -1.033  1.00  0.00     0.297 HD
ENDBRANCH   7   9
ENDBRANCH   1   7
BRANCH   2  11
ATOM     11  O   UNL     1      -7.902   5.618  -2.628  1.00  0.00    -0.504 OA
ATOM     12  H   UNL     1      -8.081   6.007  -3.520  1.00  0.00     0.293 HD
ENDBRANCH   2  11
BRANCH   5  13
ATOM     13  O   UNL     1      -5.794   6.601  -1.248  1.00  0.00    -0.493 OA
ATOM     14  C   UNL     1      -5.574   7.806  -1.661  1.00  0.00     0.278 C 
ENDBRANCH   5  13
TORSDOF 4
ENDMDL
