MODEL 1
REMARK VINA RESULT:    -5.124      0.000      0.000
REMARK INTER + INTRA:          -6.292
REMARK INTER:                  -6.022
REMARK INTRA:                  -0.270
REMARK UNBOUND:                -0.270
REMARK SMILES COc1cccc(C(=O)O)c1O
REMARK SMILES IDX 7 1 11 2 6 3 5 4 3 5 4 6 8 7 9 8 10 9 12 11 2 13 1 14
REMARK H PARENT 10 10 12 12
ROOT
ATOM      1  C   UNL     1      -2.509  -1.593   3.723  1.00  0.00     0.105 A 
ATOM      2  C   UNL     1      -3.149  -2.280   4.717  1.00  0.00     0.172 A 
ATOM      3  C   UNL     1      -3.041  -1.718   2.354  1.00  0.00     0.020 A 
ATOM      4  C   UNL     1      -4.308  -2.185   2.209  1.00  0.00     0.005 A 
ATOM      5  C   UNL     1      -4.575  -2.565   4.652  1.00  0.00     0.161 A 
ATOM      6  C   UNL     1      -5.112  -2.618   3.305  1.00  0.00     0.050 A 
ENDROOT
BRANCH   1   7
ATOM      7  C   UNL     1      -1.341  -0.640   4.032  1.00  0.00     0.339 C 
ATOM      8  O   UNL     1      -1.257   0.438   2.814  1.00  0.00    -0.246 OA
BRANCH   7   9
ATOM      9  O   UNL     1      -0.671  -0.427   4.816  1.00  0.00    -0.478 OA
ATOM     10  H   UNL     1      -0.041  -0.228   5.553  1.00  0.00     0.297 HD
ENDBRANCH   7   9
ENDBRANCH   1   7
BRANCH   2  11
ATOM     11  O   UNL     1      -2.462  -2.723   5.860  1.00  0.00    -0.504 OA
ATOM     12  H   UNL     1      -1.977  -3.036   6.665  1.00  0.00     0.293 HD
ENDBRANCH   2  11
BRANCH   5  13
ATOM     13  O   UNL     1      -5.141  -3.091   5.807  1.00  0.00    -0.493 OA
ATOM     14  C   UNL     1      -6.005  -3.282   6.749  1.00  0.00     0.278 C 
ENDBRANCH   5  13
TORSDOF 4
ENDMDL
MODEL 2
REMARK VINA RESULT:    -5.114      2.962      3.909
REMARK INTER + INTRA:          -6.280
REMARK INTER:                  -6.010
REMARK INTRA:                  -0.270
REMARK UNBOUND:                -0.270
REMARK SMILES COc1cccc(C(=O)O)c1O
REMARK SMILES IDX 7 1 11 2 6 3 5 4 3 5 4 6 8 7 9 8 10 9 12 11 2 13 1 14
REMARK H PARENT 10 10 12 12
ROOT
ATOM      1  C   UNL     1      -4.012  -3.011   1.738  1.00  0.00     0.105 A 
ATOM      2  C   UNL     1      -5.143  -2.844   2.489  1.00  0.00     0.172 A 
ATOM      3  C   UNL     1      -2.724  -2.636   2.350  1.00  0.00     0.020 A 
ATOM      4  C   UNL     1      -2.682  -2.504   3.701  1.00  0.00     0.005 A 
ATOM      5  C   UNL     1      -5.118  -2.944   3.941  1.00  0.00     0.161 A 
ATOM      6  C   UNL     1      -3.829  -2.643   4.537  1.00  0.00     0.050 A 
ENDROOT
BRANCH   1   7
ATOM      7  C   UNL     1      -4.064  -3.664   0.347  1.00  0.00     0.339 C 
ATOM      8  O   UNL     1      -2.595  -4.304   0.054  1.00  0.00    -0.246 OA
BRANCH   7   9
ATOM      9  O   UNL     1      -4.769  -3.897  -0.400  1.00  0.00    -0.478 OA
ATOM     10  H   UNL     1      -5.433  -4.116  -1.102  1.00  0.00     0.297 HD
ENDBRANCH   7   9
ENDBRANCH   1   7
BRANCH   2  11
ATOM     11  O   UNL     1      -6.388  -2.589   1.889  1.00  0.00    -0.504 OA
ATOM     12  H   UNL     1      -7.265  -2.410   1.466  1.00  0.00     0.293 HD
ENDBRANCH   2  11
BRANCH   5  13
ATOM     13  O   UNL     1      -6.356  -2.952   4.570  1.00  0.00    -0.493 OA
ATOM     14  C   UNL     1      -7.302  -3.321   5.370  1.00  0.00     0.278 C 
ENDBRANCH   5  13
TORSDOF 4
ENDMDL
MODEL 3
REMARK VINA RESULT:    -4.705      2.861      3.826
REMARK INTER + INTRA:          -5.800
REMARK INTER:                  -5.728
REMARK INTRA:                  -0.072
REMARK UNBOUND:                -0.270
REMARK SMILES COc1cccc(C(=O)O)c1O
REMARK SMILES IDX 7 1 11 2 6 3 5 4 3 5 4 6 8 7 9 8 10 9 12 11 2 13 1 14
REMARK H PARENT 10 10 12 12
ROOT
ATOM      1  C   UNL     1      -3.855  -2.860   1.633  1.00  0.00     0.105 A 
ATOM      2  C   UNL     1      -4.835  -2.872   2.587  1.00  0.00     0.172 A 
ATOM      3  C   UNL     1      -2.590  -2.178   1.961  1.00  0.00     0.020 A 
ATOM      4  C   UNL     1      -2.326  -1.932   3.270  1.00  0.00     0.005 A 
ATOM      5  C   UNL     1      -4.518  -2.848   4.008  1.00  0.00     0.161 A 
ATOM      6  C   UNL     1      -3.238  -2.240   4.322  1.00  0.00     0.050 A 
ENDROOT
BRANCH   1   7
ATOM      7  C   UNL     1      -4.022  -3.619   0.305  1.00  0.00     0.339 C 
ATOM      8  O   UNL     1      -2.594  -4.326  -0.034  1.00  0.00    -0.246 OA
BRANCH   7   9
ATOM      9  O   UNL     1      -4.784  -3.887  -0.371  1.00  0.00    -0.478 OA
ATOM     10  H   UNL     1      -5.500  -4.139  -1.006  1.00  0.00     0.297 HD
ENDBRANCH   7   9
ENDBRANCH   1   7
BRANCH   2  11
ATOM     11  O   UNL     1      -6.195  -2.930   2.239  1.00  0.00    -0.504 OA
ATOM     12  H   UNL     1      -7.154  -2.971   1.993  1.00  0.00     0.293 HD
ENDBRANCH   2  11
BRANCH   5  13
ATOM     13  O   UNL     1      -5.585  -3.063   4.871  1.00  0.00    -0.493 OA
ATOM     14  C   UNL     1      -6.802  -3.079   5.305  1.00  0.00     0.278 C 
ENDBRANCH   5  13
TORSDOF 4
ENDMDL
MODEL 4
REMARK VINA RESULT:    -4.697      2.889      4.381
REMARK INTER + INTRA:          -5.791
REMARK INTER:                  -5.365
REMARK INTRA:                  -0.426
REMARK UNBOUND:                -0.270
REMARK SMILES COc1cccc(C(=O)O)c1O
REMARK SMILES IDX 7 1 11 2 6 3 5 4 3 5 4 6 8 7 9 8 10 9 12 11 2 13 1 14
REMARK H PARENT 10 10 12 12
ROOT
ATOM      1  C   UNL     1      -4.198  -3.215   1.714  1.00  0.00     0.105 A 
ATOM      2  C   UNL     1      -3.169  -2.494   2.255  1.00  0.00     0.172 A 
ATOM      3  C   UNL     1      -5.406  -3.407   2.539  1.00  0.00     0.020 A 
ATOM      4  C   UNL     1      -5.583  -2.579   3.601  1.00  0.00     0.005 A 
ATOM      5  C   UNL     1      -3.405  -1.437   3.227  1.00  0.00     0.161 A 
ATOM      6  C   UNL     1      -4.631  -1.590   3.988  1.00  0.00     0.050 A 
ENDROOT
BRANCH   1   7
ATOM      7  C   UNL     1      -4.146  -3.719   0.261  1.00  0.00     0.339 C 
ATOM      8  O   UNL     1      -2.662  -4.343   0.015  1.00  0.00    -0.246 OA
BRANCH   7   9
ATOM      9  O   UNL     1      -4.793  -3.863  -0.557  1.00  0.00    -0.478 OA
ATOM     10  H   UNL     1      -5.402  -3.999  -1.326  1.00  0.00     0.297 HD
ENDBRANCH   7   9
ENDBRANCH   1   7
BRANCH   2  11
ATOM     11  O   UNL     1      -1.835  -2.729   1.879  1.00  0.00    -0.504 OA
ATOM     12  H   UNL     1      -0.896  -2.894   1.614  1.00  0.00     0.293 HD
ENDBRANCH   2  11
BRANCH   5  13
ATOM     13  O   UNL     1      -2.305  -0.652   3.548  1.00  0.00    -0.493 OA
ATOM     14  C   UNL     1      -1.208  -0.291   4.128  1.00  0.00     0.278 C 
ENDBRANCH   5  13
TORSDOF 4
ENDMDL
MODEL 5
REMARK VINA RESULT:    -4.693      1.994      3.203
REMARK INTER + INTRA:          -5.785
REMARK INTER:                  -5.390
REMARK INTRA:                  -0.395
REMARK UNBOUND:                -0.270
REMARK SMILES COc1cccc(C(=O)O)c1O
REMARK SMILES IDX 7 1 11 2 6 3 5 4 3 5 4 6 8 7 9 8 10 9 12 11 2 13 1 14
REMARK H PARENT 10 10 12 12
ROOT
ATOM      1  C   UNL     1      -2.477  -1.548   3.927  1.00  0.00     0.105 A 
ATOM      2  C   UNL     1      -2.802  -2.090   2.715  1.00  0.00     0.172 A 
ATOM      3  C   UNL     1      -3.274  -1.961   5.097  1.00  0.00     0.020 A 
ATOM      4  C   UNL     1      -4.015  -3.094   4.987  1.00  0.00     0.005 A 
ATOM      5  C   UNL     1      -3.384  -3.420   2.604  1.00  0.00     0.161 A 
ATOM      6  C   UNL     1      -4.108  -3.854   3.785  1.00  0.00     0.050 A 
ENDROOT
BRANCH   1   7
ATOM      7  C   UNL     1      -1.258  -0.622   4.089  1.00  0.00     0.339 C 
ATOM      8  O   UNL     1      -1.275   0.428   2.844  1.00  0.00    -0.246 OA
BRANCH   7   9
ATOM      9  O   UNL     1      -0.504  -0.412   4.793  1.00  0.00    -0.478 OA
ATOM     10  H   UNL     1       0.206  -0.216   5.455  1.00  0.00     0.297 HD
ENDBRANCH   7   9
ENDBRANCH   1   7
BRANCH   2  11
ATOM     11  O   UNL     1      -2.569  -1.394   1.516  1.00  0.00    -0.504 OA
ATOM     12  H   UNL     1      -2.405  -0.905   0.671  1.00  0.00     0.293 HD
ENDBRANCH   2  11
BRANCH   5  13
ATOM     13  O   UNL     1      -3.483  -3.933   1.317  1.00  0.00    -0.493 OA
ATOM     14  C   UNL     1      -3.900  -4.071   0.101  1.00  0.00     0.278 C 
ENDBRANCH   5  13
TORSDOF 4
ENDMDL
MODEL 6
REMARK VINA RESULT:    -4.332      2.240      4.696
REMARK INTER + INTRA:          -5.361
REMARK INTER:                  -5.073
REMARK INTRA:                  -0.288
REMARK UNBOUND:                -0.270
REMARK SMILES COc1cccc(C(=O)O)c1O
REMARK SMILES IDX 7 1 11 2 6 3 5 4 3 5 4 6 8 7 9 8 10 9 12 11 2 13 1 14
REMARK H PARENT 10 10 12 12
ROOT
ATOM      1  C   UNL     1      -5.249  -2.578   1.861  1.00  0.00     0.105 A 
ATOM      2  C   UNL     1      -4.417  -1.644   2.415  1.00  0.00     0.172 A 
ATOM      3  C   UNL     1      -4.681  -3.481   0.843  1.00  0.00     0.020 A 
ATOM      4  C   UNL     1      -3.329  -3.590   0.779  1.00  0.00     0.005 A 
ATOM      5  C   UNL     1      -2.987  -1.882   2.555  1.00  0.00     0.161 A 
ATOM      6  C   UNL     1      -2.444  -2.827   1.596  1.00  0.00     0.050 A 
ENDROOT
BRANCH   1   7
ATOM      7  C   UNL     1      -6.695  -2.754   2.355  1.00  0.00     0.339 C 
ATOM      8  O   UNL     1      -6.659  -2.744   3.983  1.00  0.00    -0.246 OA
BRANCH   7   9
ATOM      9  O   UNL     1      -7.674  -2.778   1.966  1.00  0.00    -0.478 OA
ATOM     10  H   UNL     1      -8.594  -2.801   1.600  1.00  0.00     0.297 HD
ENDBRANCH   7   9
ENDBRANCH   1   7
BRANCH   2  11
ATOM     11  O   UNL     1      -4.909  -0.419   2.895  1.00  0.00    -0.504 OA
ATOM     12  H   UNL     1      -5.256   0.445   3.234  1.00  0.00     0.293 HD
ENDBRANCH   2  11
BRANCH   5  13
ATOM     13  O   UNL     1      -2.288  -0.947   3.307  1.00  0.00    -0.493 OA
ATOM     14  C   UNL     1      -1.378  -0.459   4.084  1.00  0.00     0.278 C 
ENDBRANCH   5  13
TORSDOF 4
ENDMDL
MODEL 7
REMARK VINA RESULT:    -4.278      2.265      3.811
REMARK INTER + INTRA:          -5.297
REMARK INTER:                  -4.943
REMARK INTRA:                  -0.354
REMARK UNBOUND:                -0.270
REMARK SMILES COc1cccc(C(=O)O)c1O
REMARK SMILES IDX 7 1 11 2 6 3 5 4 3 5 4 6 8 7 9 8 10 9 12 11 2 13 1 14
REMARK H PARENT 10 10 12 12
ROOT
ATOM      1  C   UNL     1      -2.529  -2.394   4.763  1.00  0.00     0.105 A 
ATOM      2  C   UNL     1      -2.967  -3.080   3.664  1.00  0.00     0.172 A 
ATOM      3  C   UNL     1      -1.712  -1.188   4.534  1.00  0.00     0.020 A 
ATOM      4  C   UNL     1      -1.747  -0.626   3.298  1.00  0.00     0.005 A 
ATOM      5  C   UNL     1      -3.229  -2.410   2.398  1.00  0.00     0.161 A 
ATOM      6  C   UNL     1      -2.476  -1.184   2.207  1.00  0.00     0.050 A 
ENDROOT
BRANCH   1   7
ATOM      7  C   UNL     1      -2.958  -2.799   6.183  1.00  0.00     0.339 C 
ATOM      8  O   UNL     1      -4.531  -3.218   6.116  1.00  0.00    -0.246 OA
BRANCH   7   9
ATOM      9  O   UNL     1      -2.527  -2.973   7.128  1.00  0.00    -0.478 OA
ATOM     10  H   UNL     1      -2.122  -3.136   8.017  1.00  0.00     0.297 HD
ENDBRANCH   7   9
ENDBRANCH   1   7
BRANCH   2  11
ATOM     11  O   UNL     1      -3.205  -4.464   3.713  1.00  0.00    -0.504 OA
ATOM     12  H   UNL     1      -3.373  -5.440   3.748  1.00  0.00     0.293 HD
ENDBRANCH   2  11
BRANCH   5  13
ATOM     13  O   UNL     1      -3.854  -3.177   1.424  1.00  0.00    -0.493 OA
ATOM     14  C   UNL     1      -4.004  -3.864   0.340  1.00  0.00     0.278 C 
ENDBRANCH   5  13
TORSDOF 4
ENDMDL
MODEL 8
REMARK VINA RESULT:    -3.612      1.770      2.283
REMARK INTER + INTRA:          -4.516
REMARK INTER:                  -4.031
REMARK INTRA:                  -0.485
REMARK UNBOUND:                -0.270
REMARK SMILES COc1cccc(C(=O)O)c1O
REMARK SMILES IDX 7 1 11 2 6 3 5 4 3 5 4 6 8 7 9 8 10 9 12 11 2 13 1 14
REMARK H PARENT 10 10 12 12
ROOT
ATOM      1  C   UNL     1      -2.628  -2.517   1.587  1.00  0.00     0.105 A 
ATOM      2  C   UNL     1      -3.208  -2.500   2.825  1.00  0.00     0.172 A 
ATOM      3  C   UNL     1      -3.286  -3.314   0.535  1.00  0.00     0.020 A 
ATOM      4  C   UNL     1      -4.581  -3.672   0.732  1.00  0.00     0.005 A 
ATOM      5  C   UNL     1      -4.646  -2.650   2.998  1.00  0.00     0.161 A 
ATOM      6  C   UNL     1      -5.302  -3.373   1.925  1.00  0.00     0.050 A 
ENDROOT
BRANCH   1   7
ATOM      7  C   UNL     1      -1.395  -1.654   1.268  1.00  0.00     0.339 C 
ATOM      8  O   UNL     1      -1.241  -0.563   2.469  1.00  0.00    -0.246 OA
BRANCH   7   9
ATOM      9  O   UNL     1      -0.597  -1.625   0.582  1.00  0.00    -0.478 OA
ATOM     10  H   UNL     1       0.154  -1.599  -0.063  1.00  0.00     0.297 HD
ENDBRANCH   7   9
ENDBRANCH   1   7
BRANCH   2  11
ATOM     11  O   UNL     1      -2.442  -2.314   3.989  1.00  0.00    -0.504 OA
ATOM     12  H   UNL     1      -1.903  -2.183   4.809  1.00  0.00     0.293 HD
ENDBRANCH   2  11
BRANCH   5  13
ATOM     13  O   UNL     1      -5.130  -2.417   4.279  1.00  0.00    -0.493 OA
ATOM     14  C   UNL     1      -5.658  -2.661   5.433  1.00  0.00     0.278 C 
ENDBRANCH   5  13
TORSDOF 4
ENDMDL
MODEL 9
REMARK VINA RESULT:    -3.509      1.959      2.574
REMARK INTER + INTRA:          -4.394
REMARK INTER:                  -3.916
REMARK INTRA:                  -0.477
REMARK UNBOUND:                -0.270
REMARK SMILES COc1cccc(C(=O)O)c1O
REMARK SMILES IDX 7 1 11 2 6 3 5 4 3 5 4 6 8 7 9 8 10 9 12 11 2 13 1 14
REMARK H PARENT 10 10 12 12
ROOT
ATOM      1  C   UNL     1      -2.927  -2.035   2.676  1.00  0.00     0.105 A 
ATOM      2  C   UNL     1      -4.214  -2.380   2.986  1.00  0.00     0.172 A 
ATOM      3  C   UNL     1      -2.282  -2.740   1.554  1.00  0.00     0.020 A 
ATOM      4  C   UNL     1      -3.083  -3.401   0.679  1.00  0.00     0.005 A 
ATOM      5  C   UNL     1      -5.139  -2.868   1.972  1.00  0.00     0.161 A 
ATOM      6  C   UNL     1      -4.497  -3.499   0.834  1.00  0.00     0.050 A 
ENDROOT
BRANCH   1   7
ATOM      7  C   UNL     1      -2.212  -0.880   3.399  1.00  0.00     0.339 C 
ATOM      8  O   UNL     1      -3.358   0.034   4.110  1.00  0.00    -0.246 OA
BRANCH   7   9
ATOM      9  O   UNL     1      -1.234  -0.576   3.643  1.00  0.00    -0.478 OA
ATOM     10  H   UNL     1      -0.314  -0.289   3.872  1.00  0.00     0.297 HD
ENDBRANCH   7   9
ENDBRANCH   1   7
BRANCH   2  11
ATOM     11  O   UNL     1      -4.709  -2.258   4.295  1.00  0.00    -0.504 OA
ATOM     12  H   UNL     1      -5.058  -2.172   5.218  1.00  0.00     0.293 HD
ENDBRANCH   2  11
BRANCH   5  13
ATOM     13  O   UNL     1      -6.463  -2.994   2.372  1.00  0.00    -0.493 OA
ATOM     14  C   UNL     1      -7.708  -2.690   2.537  1.00  0.00     0.278 C 
ENDBRANCH   5  13
TORSDOF 4
ENDMDL
