MODEL 1
REMARK VINA RESULT:    -4.885      0.000      0.000
REMARK INTER + INTRA:          -6.221
REMARK INTER:                  -5.741
REMARK INTRA:                  -0.479
REMARK UNBOUND:                -0.479
REMARK SMILES COc1cccc(C(=O)O)c1O
REMARK SMILES IDX 7 1 11 2 6 3 5 4 3 5 4 6 8 7 9 8 10 9 12 11 2 13 1 14
REMARK H PARENT 10 10 12 12
ROOT
ATOM      1  C   UNL     1      -7.069   0.649   3.269  1.00  0.00     0.105 A 
ATOM      2  C   UNL     1      -6.437   1.858   3.170  1.00  0.00     0.172 A 
ATOM      3  C   UNL     1      -8.512   0.605   2.972  1.00  0.00     0.020 A 
ATOM      4  C   UNL     1      -9.046   1.645   2.280  1.00  0.00     0.005 A 
ATOM      5  C   UNL     1      -6.889   2.882   2.238  1.00  0.00     0.161 A 
ATOM      6  C   UNL     1      -8.295   2.793   1.892  1.00  0.00     0.050 A 
ENDROOT
BRANCH   1   7
ATOM      7  C   UNL     1      -6.286  -0.641   3.574  1.00  0.00     0.339 C 
ATOM      8  O   UNL     1      -4.703  -0.303   3.396  1.00  0.00    -0.246 OA
BRANCH   7   9
ATOM      9  O   UNL     1      -6.460  -1.610   3.945  1.00  0.00    -0.478 OA
ATOM     10  H   UNL     1      -6.624  -2.522   4.294  1.00  0.00     0.297 HD
ENDBRANCH   7   9
ENDBRANCH   1   7
BRANCH   2  11
ATOM     11  O   UNL     1      -5.307   2.159   3.950  1.00  0.00    -0.504 OA
ATOM     12  H   UNL     1      -4.511   2.371   4.499  1.00  0.00     0.293 HD
ENDBRANCH   2  11
BRANCH   5  13
ATOM     13  O   UNL     1      -6.050   3.979   2.092  1.00  0.00    -0.493 OA
ATOM     14  C   UNL     1      -5.676   5.183   1.807  1.00  0.00     0.278 C 
ENDBRANCH   5  13
TORSDOF 4
ENDMDL
MODEL 2
REMARK VINA RESULT:    -4.796      1.758      4.664
REMARK INTER + INTRA:          -6.117
REMARK INTER:                  -5.637
REMARK INTRA:                  -0.479
REMARK UNBOUND:                -0.479
REMARK SMILES COc1cccc(C(=O)O)c1O
REMARK SMILES IDX 7 1 11 2 6 3 5 4 3 5 4 6 8 7 9 8 10 9 12 11 2 13 1 14
REMARK H PARENT 10 10 12 12
ROOT
ATOM      1  C   UNL     1      -6.328   4.108   2.852  1.00  0.00     0.105 A 
ATOM      2  C   UNL     1      -6.410   2.748   2.723  1.00  0.00     0.172 A 
ATOM      3  C   UNL     1      -6.633   4.688   4.173  1.00  0.00     0.020 A 
ATOM      4  C   UNL     1      -6.612   3.858   5.247  1.00  0.00     0.005 A 
ATOM      5  C   UNL     1      -6.147   1.858   3.844  1.00  0.00     0.161 A 
ATOM      6  C   UNL     1      -6.379   2.455   5.147  1.00  0.00     0.050 A 
ENDROOT
BRANCH   1   7
ATOM      7  C   UNL     1      -5.836   4.994   1.695  1.00  0.00     0.339 C 
ATOM      8  O   UNL     1      -5.158   4.012   0.585  1.00  0.00    -0.246 OA
BRANCH   7   9
ATOM      9  O   UNL     1      -5.894   5.995   1.377  1.00  0.00    -0.478 OA
ATOM     10  H   UNL     1      -5.948   6.938   1.076  1.00  0.00     0.297 HD
ENDBRANCH   7   9
ENDBRANCH   1   7
BRANCH   2  11
ATOM     11  O   UNL     1      -6.730   2.148   1.493  1.00  0.00    -0.504 OA
ATOM     12  H   UNL     1      -6.956   1.725   0.627  1.00  0.00     0.293 HD
ENDBRANCH   2  11
BRANCH   5  13
ATOM     13  O   UNL     1      -6.068   0.505   3.538  1.00  0.00    -0.493 OA
ATOM     14  C   UNL     1      -6.413  -0.738   3.463  1.00  0.00     0.278 C 
ENDBRANCH   5  13
TORSDOF 4
ENDMDL
MODEL 3
REMARK VINA RESULT:    -4.727      2.225      3.217
REMARK INTER + INTRA:          -6.035
REMARK INTER:                  -5.765
REMARK INTRA:                  -0.270
REMARK UNBOUND:                -0.479
REMARK SMILES COc1cccc(C(=O)O)c1O
REMARK SMILES IDX 7 1 11 2 6 3 5 4 3 5 4 6 8 7 9 8 10 9 12 11 2 13 1 14
REMARK H PARENT 10 10 12 12
ROOT
ATOM      1  C   UNL     1      -6.875   0.929   3.249  1.00  0.00     0.105 A 
ATOM      2  C   UNL     1      -8.192   1.223   3.471  1.00  0.00     0.172 A 
ATOM      3  C   UNL     1      -5.948   2.058   3.043  1.00  0.00     0.020 A 
ATOM      4  C   UNL     1      -6.357   3.290   3.442  1.00  0.00     0.005 A 
ATOM      5  C   UNL     1      -8.599   2.459   4.124  1.00  0.00     0.161 A 
ATOM      6  C   UNL     1      -7.651   3.548   3.981  1.00  0.00     0.050 A 
ENDROOT
BRANCH   1   7
ATOM      7  C   UNL     1      -6.355  -0.517   3.314  1.00  0.00     0.339 C 
ATOM      8  O   UNL     1      -4.745  -0.446   3.553  1.00  0.00    -0.246 OA
BRANCH   7   9
ATOM      9  O   UNL     1      -6.732  -1.500   3.348  1.00  0.00    -0.478 OA
ATOM     10  H   UNL     1      -7.087  -2.424   3.379  1.00  0.00     0.297 HD
ENDBRANCH   7   9
ENDBRANCH   1   7
BRANCH   2  11
ATOM     11  O   UNL     1      -9.213   0.332   3.099  1.00  0.00    -0.504 OA
ATOM     12  H   UNL     1      -9.933  -0.296   2.837  1.00  0.00     0.293 HD
ENDBRANCH   2  11
BRANCH   5  13
ATOM     13  O   UNL     1      -9.942   2.548   4.469  1.00  0.00    -0.493 OA
ATOM     14  C   UNL     1     -10.991   2.732   5.201  1.00  0.00     0.278 C 
ENDBRANCH   5  13
TORSDOF 4
ENDMDL
MODEL 4
REMARK VINA RESULT:    -4.724      2.917      4.384
REMARK INTER + INTRA:          -6.031
REMARK INTER:                  -5.761
REMARK INTRA:                  -0.271
REMARK UNBOUND:                -0.479
REMARK SMILES COc1cccc(C(=O)O)c1O
REMARK SMILES IDX 7 1 11 2 6 3 5 4 3 5 4 6 8 7 9 8 10 9 12 11 2 13 1 14
REMARK H PARENT 10 10 12 12
ROOT
ATOM      1  C   UNL     1      -6.285   3.816   2.734  1.00  0.00     0.105 A 
ATOM      2  C   UNL     1      -7.068   4.150   3.805  1.00  0.00     0.172 A 
ATOM      3  C   UNL     1      -6.218   2.393   2.353  1.00  0.00     0.020 A 
ATOM      4  C   UNL     1      -7.188   1.567   2.825  1.00  0.00     0.005 A 
ATOM      5  C   UNL     1      -8.253   3.379   4.154  1.00  0.00     0.161 A 
ATOM      6  C   UNL     1      -8.216   1.997   3.715  1.00  0.00     0.050 A 
ENDROOT
BRANCH   1   7
ATOM      7  C   UNL     1      -5.583   4.893   1.890  1.00  0.00     0.339 C 
ATOM      8  O   UNL     1      -5.236   4.229   0.443  1.00  0.00    -0.246 OA
BRANCH   7   9
ATOM      9  O   UNL     1      -5.358   5.921   1.934  1.00  0.00    -0.478 OA
ATOM     10  H   UNL     1      -5.147   6.888   1.976  1.00  0.00     0.297 HD
ENDBRANCH   7   9
ENDBRANCH   1   7
BRANCH   2  11
ATOM     11  O   UNL     1      -6.776   5.267   4.605  1.00  0.00    -0.504 OA
ATOM     12  H   UNL     1      -6.570   6.055   5.169  1.00  0.00     0.293 HD
ENDBRANCH   2  11
BRANCH   5  13
ATOM     13  O   UNL     1      -9.068   3.932   5.134  1.00  0.00    -0.493 OA
ATOM     14  C   UNL     1     -10.117   4.456   5.677  1.00  0.00     0.278 C 
ENDBRANCH   5  13
TORSDOF 4
ENDMDL
MODEL 5
REMARK VINA RESULT:    -4.258      1.449      4.313
REMARK INTER + INTRA:          -5.483
REMARK INTER:                  -5.071
REMARK INTRA:                  -0.412
REMARK UNBOUND:                -0.479
REMARK SMILES COc1cccc(C(=O)O)c1O
REMARK SMILES IDX 7 1 11 2 6 3 5 4 3 5 4 6 8 7 9 8 10 9 12 11 2 13 1 14
REMARK H PARENT 10 10 12 12
ROOT
ATOM      1  C   UNL     1      -6.642   3.746   2.015  1.00  0.00     0.105 A 
ATOM      2  C   UNL     1      -6.288   2.433   2.153  1.00  0.00     0.172 A 
ATOM      3  C   UNL     1      -8.041   4.112   2.306  1.00  0.00     0.020 A 
ATOM      4  C   UNL     1      -8.784   3.235   3.030  1.00  0.00     0.005 A 
ATOM      5  C   UNL     1      -6.947   1.561   3.116  1.00  0.00     0.161 A 
ATOM      6  C   UNL     1      -8.299   1.964   3.455  1.00  0.00     0.050 A 
ENDROOT
BRANCH   1   7
ATOM      7  C   UNL     1      -5.600   4.825   1.671  1.00  0.00     0.339 C 
ATOM      8  O   UNL     1      -4.984   4.458   0.208  1.00  0.00    -0.246 OA
BRANCH   7   9
ATOM      9  O   UNL     1      -5.253   5.747   2.043  1.00  0.00    -0.478 OA
ATOM     10  H   UNL     1      -4.927   6.614   2.393  1.00  0.00     0.297 HD
ENDBRANCH   7   9
ENDBRANCH   1   7
BRANCH   2  11
ATOM     11  O   UNL     1      -5.254   1.869   1.386  1.00  0.00    -0.504 OA
ATOM     12  H   UNL     1      -4.526   1.472   0.846  1.00  0.00     0.293 HD
ENDBRANCH   2  11
BRANCH   5  13
ATOM     13  O   UNL     1      -6.367   0.313   3.299  1.00  0.00    -0.493 OA
ATOM     14  C   UNL     1      -6.239  -0.915   3.682  1.00  0.00     0.278 C 
ENDBRANCH   5  13
TORSDOF 4
ENDMDL
MODEL 6
REMARK VINA RESULT:    -4.040      2.339      4.644
REMARK INTER + INTRA:          -5.228
REMARK INTER:                  -5.024
REMARK INTRA:                  -0.203
REMARK UNBOUND:                -0.479
REMARK SMILES COc1cccc(C(=O)O)c1O
REMARK SMILES IDX 7 1 11 2 6 3 5 4 3 5 4 6 8 7 9 8 10 9 12 11 2 13 1 14
REMARK H PARENT 10 10 12 12
ROOT
ATOM      1  C   UNL     1      -6.536   4.297   3.973  1.00  0.00     0.105 A 
ATOM      2  C   UNL     1      -6.331   2.971   4.235  1.00  0.00     0.172 A 
ATOM      3  C   UNL     1      -6.116   4.807   2.655  1.00  0.00     0.020 A 
ATOM      4  C   UNL     1      -5.901   3.900   1.667  1.00  0.00     0.005 A 
ATOM      5  C   UNL     1      -6.341   1.972   3.175  1.00  0.00     0.161 A 
ATOM      6  C   UNL     1      -5.997   2.491   1.865  1.00  0.00     0.050 A 
ENDROOT
BRANCH   1   7
ATOM      7  C   UNL     1      -7.274   5.205   4.972  1.00  0.00     0.339 C 
ATOM      8  O   UNL     1      -8.760   4.577   5.196  1.00  0.00    -0.246 OA
BRANCH   7   9
ATOM      9  O   UNL     1      -7.075   6.024   5.604  1.00  0.00    -0.478 OA
ATOM     10  H   UNL     1      -6.887   6.793   6.198  1.00  0.00     0.297 HD
ENDBRANCH   7   9
ENDBRANCH   1   7
BRANCH   2  11
ATOM     11  O   UNL     1      -6.121   2.507   5.545  1.00  0.00    -0.504 OA
ATOM     12  H   UNL     1      -5.973   2.181   6.468  1.00  0.00     0.293 HD
ENDBRANCH   2  11
BRANCH   5  13
ATOM     13  O   UNL     1      -6.319   0.647   3.591  1.00  0.00    -0.493 OA
ATOM     14  C   UNL     1      -6.384  -0.641   3.520  1.00  0.00     0.278 C 
ENDBRANCH   5  13
TORSDOF 4
ENDMDL
MODEL 7
REMARK VINA RESULT:    -4.019      1.526      1.526
REMARK INTER + INTRA:          -5.204
REMARK INTER:                  -4.739
REMARK INTRA:                  -0.465
REMARK UNBOUND:                -0.479
REMARK SMILES COc1cccc(C(=O)O)c1O
REMARK SMILES IDX 7 1 11 2 6 3 5 4 3 5 4 6 8 7 9 8 10 9 12 11 2 13 1 14
REMARK H PARENT 10 10 12 12
ROOT
ATOM      1  C   UNL     1      -7.253   0.450   3.763  1.00  0.00     0.105 A 
ATOM      2  C   UNL     1      -6.871   1.633   4.334  1.00  0.00     0.172 A 
ATOM      3  C   UNL     1      -8.632   0.352   3.249  1.00  0.00     0.020 A 
ATOM      4  C   UNL     1      -9.309   1.509   3.035  1.00  0.00     0.005 A 
ATOM      5  C   UNL     1      -7.447   2.903   3.916  1.00  0.00     0.161 A 
ATOM      6  C   UNL     1      -8.777   2.795   3.345  1.00  0.00     0.050 A 
ENDROOT
BRANCH   1   7
ATOM      7  C   UNL     1      -6.253  -0.703   3.565  1.00  0.00     0.339 C 
ATOM      8  O   UNL     1      -4.766  -0.046   3.462  1.00  0.00    -0.246 OA
BRANCH   7   9
ATOM      9  O   UNL     1      -6.237  -1.756   3.576  1.00  0.00    -0.478 OA
ATOM     10  H   UNL     1      -6.221  -2.746   3.586  1.00  0.00     0.297 HD
ENDBRANCH   7   9
ENDBRANCH   1   7
BRANCH   2  11
ATOM     11  O   UNL     1      -5.888   1.677   5.337  1.00  0.00    -0.504 OA
ATOM     12  H   UNL     1      -5.195   1.708   6.044  1.00  0.00     0.293 HD
ENDBRANCH   2  11
BRANCH   5  13
ATOM     13  O   UNL     1      -6.838   4.041   4.428  1.00  0.00    -0.493 OA
ATOM     14  C   UNL     1      -6.722   5.223   4.938  1.00  0.00     0.278 C 
ENDBRANCH   5  13
TORSDOF 4
ENDMDL
MODEL 8
REMARK VINA RESULT:    -3.978      2.185      3.111
REMARK INTER + INTRA:          -5.155
REMARK INTER:                  -4.840
REMARK INTRA:                  -0.315
REMARK UNBOUND:                -0.479
REMARK SMILES COc1cccc(C(=O)O)c1O
REMARK SMILES IDX 7 1 11 2 6 3 5 4 3 5 4 6 8 7 9 8 10 9 12 11 2 13 1 14
REMARK H PARENT 10 10 12 12
ROOT
ATOM      1  C   UNL     1      -8.200   0.955   3.019  1.00  0.00     0.105 A 
ATOM      2  C   UNL     1      -7.776   2.164   2.538  1.00  0.00     0.172 A 
ATOM      3  C   UNL     1      -7.176  -0.068   3.294  1.00  0.00     0.020 A 
ATOM      4  C   UNL     1      -5.887   0.344   3.411  1.00  0.00     0.005 A 
ATOM      5  C   UNL     1      -6.466   2.702   2.873  1.00  0.00     0.161 A 
ATOM      6  C   UNL     1      -5.478   1.695   3.214  1.00  0.00     0.050 A 
ENDROOT
BRANCH   1   7
ATOM      7  C   UNL     1      -9.679   0.705   3.362  1.00  0.00     0.339 C 
ATOM      8  O   UNL     1     -10.229   2.026   4.140  1.00  0.00    -0.246 OA
BRANCH   7   9
ATOM      9  O   UNL     1     -10.436   0.001   3.162  1.00  0.00    -0.478 OA
ATOM     10  H   UNL     1     -11.148  -0.662   2.974  1.00  0.00     0.297 HD
ENDBRANCH   7   9
ENDBRANCH   1   7
BRANCH   2  11
ATOM     11  O   UNL     1      -8.597   2.952   1.713  1.00  0.00    -0.504 OA
ATOM     12  H   UNL     1      -9.176   3.507   1.132  1.00  0.00     0.293 HD
ENDBRANCH   2  11
BRANCH   5  13
ATOM     13  O   UNL     1      -6.234   4.016   2.488  1.00  0.00    -0.493 OA
ATOM     14  C   UNL     1      -5.742   5.012   1.827  1.00  0.00     0.278 C 
ENDBRANCH   5  13
TORSDOF 4
ENDMDL
MODEL 9
REMARK VINA RESULT:    -3.943      2.096      2.873
REMARK INTER + INTRA:          -5.114
REMARK INTER:                  -4.677
REMARK INTRA:                  -0.437
REMARK UNBOUND:                -0.479
REMARK SMILES COc1cccc(C(=O)O)c1O
REMARK SMILES IDX 7 1 11 2 6 3 5 4 3 5 4 6 8 7 9 8 10 9 12 11 2 13 1 14
REMARK H PARENT 10 10 12 12
ROOT
ATOM      1  C   UNL     1      -6.230   2.013   3.026  1.00  0.00     0.105 A 
ATOM      2  C   UNL     1      -6.913   2.836   3.879  1.00  0.00     0.172 A 
ATOM      3  C   UNL     1      -5.760   2.588   1.752  1.00  0.00     0.020 A 
ATOM      4  C   UNL     1      -5.698   3.941   1.654  1.00  0.00     0.005 A 
ATOM      5  C   UNL     1      -6.659   4.269   3.925  1.00  0.00     0.161 A 
ATOM      6  C   UNL     1      -6.128   4.820   2.691  1.00  0.00     0.050 A 
ENDROOT
BRANCH   1   7
ATOM      7  C   UNL     1      -5.871   0.571   3.422  1.00  0.00     0.339 C 
ATOM      8  O   UNL     1      -7.264  -0.202   3.764  1.00  0.00    -0.246 OA
BRANCH   7   9
ATOM      9  O   UNL     1      -5.033  -0.066   3.441  1.00  0.00    -0.478 OA
ATOM     10  H   UNL     1      -4.244  -0.665   3.459  1.00  0.00     0.297 HD
ENDBRANCH   7   9
ENDBRANCH   1   7
BRANCH   2  11
ATOM     11  O   UNL     1      -7.878   2.331   4.767  1.00  0.00    -0.504 OA
ATOM     12  H   UNL     1      -8.558   1.975   5.392  1.00  0.00     0.293 HD
ENDBRANCH   2  11
BRANCH   5  13
ATOM     13  O   UNL     1      -7.270   4.960   4.963  1.00  0.00    -0.493 OA
ATOM     14  C   UNL     1      -7.782   5.949   5.619  1.00  0.00     0.278 C 
ENDBRANCH   5  13
TORSDOF 4
ENDMDL
