MODEL 1
REMARK VINA RESULT:    -4.863      0.000      0.000
REMARK INTER + INTRA:          -6.196
REMARK INTER:                  -5.716
REMARK INTRA:                  -0.480
REMARK UNBOUND:                -0.480
REMARK SMILES COc1cccc(C(=O)O)c1O
REMARK SMILES IDX 7 1 11 2 6 3 5 4 3 5 4 6 8 7 9 8 10 9 12 11 2 13 1 14
REMARK H PARENT 10 10 12 12
ROOT
ATOM      1  C   UNL     1       1.810   4.958  -5.602  1.00  0.00     0.105 A 
ATOM      2  C   UNL     1       0.570   4.398  -5.744  1.00  0.00     0.172 A 
ATOM      3  C   UNL     1       1.923   6.419  -5.759  1.00  0.00     0.020 A 
ATOM      4  C   UNL     1       0.784   7.153  -5.668  1.00  0.00     0.005 A 
ATOM      5  C   UNL     1      -0.642   5.132  -5.410  1.00  0.00     0.161 A 
ATOM      6  C   UNL     1      -0.508   6.575  -5.497  1.00  0.00     0.050 A 
ENDROOT
BRANCH   1   7
ATOM      7  C   UNL     1       3.027   4.112  -5.188  1.00  0.00     0.339 C 
ATOM      8  O   UNL     1       2.466   2.672  -4.673  1.00  0.00    -0.246 OA
BRANCH   7   9
ATOM      9  O   UNL     1       4.078   4.152  -5.232  1.00  0.00    -0.478 OA
ATOM     10  H   UNL     1       5.067   4.190  -5.272  1.00  0.00     0.297 HD
ENDBRANCH   7   9
ENDBRANCH   1   7
BRANCH   2  11
ATOM     11  O   UNL     1       0.410   3.078  -6.200  1.00  0.00    -0.504 OA
ATOM     12  H   UNL     1       0.298   2.149  -6.522  1.00  0.00     0.293 HD
ENDBRANCH   2  11
BRANCH   5  13
ATOM     13  O   UNL     1      -1.818   4.392  -5.409  1.00  0.00    -0.493 OA
ATOM     14  C   UNL     1      -3.074   4.122  -5.544  1.00  0.00     0.278 C 
ENDBRANCH   5  13
TORSDOF 4
ENDMDL
MODEL 2
REMARK VINA RESULT:    -4.856      1.749      4.687
REMARK INTER + INTRA:          -6.187
REMARK INTER:                  -5.712
REMARK INTRA:                  -0.475
REMARK UNBOUND:                -0.480
REMARK SMILES COc1cccc(C(=O)O)c1O
REMARK SMILES IDX 7 1 11 2 6 3 5 4 3 5 4 6 8 7 9 8 10 9 12 11 2 13 1 14
REMARK H PARENT 10 10 12 12
ROOT
ATOM      1  C   UNL     1      -1.738   4.393  -6.220  1.00  0.00     0.105 A 
ATOM      2  C   UNL     1      -0.515   4.560  -5.630  1.00  0.00     0.172 A 
ATOM      3  C   UNL     1      -1.777   4.265  -7.688  1.00  0.00     0.020 A 
ATOM      4  C   UNL     1      -0.619   3.955  -8.326  1.00  0.00     0.005 A 
ATOM      5  C   UNL     1       0.698   4.008  -6.216  1.00  0.00     0.161 A 
ATOM      6  C   UNL     1       0.631   3.816  -7.653  1.00  0.00     0.050 A 
ENDROOT
BRANCH   1   7
ATOM      7  C   UNL     1      -3.017   4.236  -5.379  1.00  0.00     0.339 C 
ATOM      8  O   UNL     1      -2.558   3.990  -3.835  1.00  0.00    -0.246 OA
BRANCH   7   9
ATOM      9  O   UNL     1      -4.059   4.336  -5.487  1.00  0.00    -0.478 OA
ATOM     10  H   UNL     1      -5.040   4.429  -5.588  1.00  0.00     0.297 HD
ENDBRANCH   7   9
ENDBRANCH   1   7
BRANCH   2  11
ATOM     11  O   UNL     1      -0.377   5.257  -4.417  1.00  0.00    -0.504 OA
ATOM     12  H   UNL     1      -0.279   5.747  -3.563  1.00  0.00     0.293 HD
ENDBRANCH   2  11
BRANCH   5  13
ATOM     13  O   UNL     1       1.838   4.075  -5.426  1.00  0.00    -0.493 OA
ATOM     14  C   UNL     1       3.069   4.294  -5.098  1.00  0.00     0.278 C 
ENDBRANCH   5  13
TORSDOF 4
ENDMDL
MODEL 3
REMARK VINA RESULT:    -4.714      2.969      4.426
REMARK INTER + INTRA:          -6.020
REMARK INTER:                  -5.752
REMARK INTRA:                  -0.268
REMARK UNBOUND:                -0.480
REMARK SMILES COc1cccc(C(=O)O)c1O
REMARK SMILES IDX 7 1 11 2 6 3 5 4 3 5 4 6 8 7 9 8 10 9 12 11 2 13 1 14
REMARK H PARENT 10 10 12 12
ROOT
ATOM      1  C   UNL     1      -1.516   4.406  -6.078  1.00  0.00     0.105 A 
ATOM      2  C   UNL     1      -1.399   4.791  -7.385  1.00  0.00     0.172 A 
ATOM      3  C   UNL     1      -0.311   4.485  -5.231  1.00  0.00     0.020 A 
ATOM      4  C   UNL     1       0.717   5.257  -5.668  1.00  0.00     0.005 A 
ATOM      5  C   UNL     1      -0.441   5.806  -7.799  1.00  0.00     0.161 A 
ATOM      6  C   UNL     1       0.710   5.931  -6.924  1.00  0.00     0.050 A 
ENDROOT
BRANCH   1   7
ATOM      7  C   UNL     1      -2.876   4.005  -5.480  1.00  0.00     0.339 C 
ATOM      8  O   UNL     1      -2.742   4.100  -3.859  1.00  0.00    -0.246 OA
BRANCH   7   9
ATOM      9  O   UNL     1      -3.856   3.791  -5.800  1.00  0.00    -0.478 OA
ATOM     10  H   UNL     1      -4.778   3.591  -6.100  1.00  0.00     0.297 HD
ENDBRANCH   7   9
ENDBRANCH   1   7
BRANCH   2  11
ATOM     11  O   UNL     1      -2.216   4.239  -8.386  1.00  0.00    -0.504 OA
ATOM     12  H   UNL     1      -2.791   3.849  -9.092  1.00  0.00     0.293 HD
ENDBRANCH   2  11
BRANCH   5  13
ATOM     13  O   UNL     1      -0.556   6.248  -9.111  1.00  0.00    -0.493 OA
ATOM     14  C   UNL     1      -0.854   7.022 -10.102  1.00  0.00     0.278 C 
ENDBRANCH   5  13
TORSDOF 4
ENDMDL
MODEL 4
REMARK VINA RESULT:    -4.692      2.168      3.178
REMARK INTER + INTRA:          -5.995
REMARK INTER:                  -5.724
REMARK INTRA:                  -0.271
REMARK UNBOUND:                -0.480
REMARK SMILES COc1cccc(C(=O)O)c1O
REMARK SMILES IDX 7 1 11 2 6 3 5 4 3 5 4 6 8 7 9 8 10 9 12 11 2 13 1 14
REMARK H PARENT 10 10 12 12
ROOT
ATOM      1  C   UNL     1       1.531   4.752  -5.600  1.00  0.00     0.105 A 
ATOM      2  C   UNL     1       1.495   5.937  -6.283  1.00  0.00     0.172 A 
ATOM      3  C   UNL     1       0.271   3.997  -5.475  1.00  0.00     0.020 A 
ATOM      4  C   UNL     1      -0.740   4.311  -6.327  1.00  0.00     0.005 A 
ATOM      5  C   UNL     1       0.549   6.167  -7.365  1.00  0.00     0.161 A 
ATOM      6  C   UNL     1      -0.661   5.370  -7.278  1.00  0.00     0.050 A 
ENDROOT
BRANCH   1   7
ATOM      7  C   UNL     1       2.855   4.172  -5.072  1.00  0.00     0.339 C 
ATOM      8  O   UNL     1       2.597   2.599  -4.737  1.00  0.00    -0.246 OA
BRANCH   7   9
ATOM      9  O   UNL     1       3.863   4.456  -4.962  1.00  0.00    -0.478 OA
ATOM     10  H   UNL     1       4.811   4.723  -4.859  1.00  0.00     0.297 HD
ENDBRANCH   7   9
ENDBRANCH   1   7
BRANCH   2  11
ATOM     11  O   UNL     1       2.388   6.981  -5.983  1.00  0.00    -0.504 OA
ATOM     12  H   UNL     1       3.017   7.716  -5.773  1.00  0.00     0.293 HD
ENDBRANCH   2  11
BRANCH   5  13
ATOM     13  O   UNL     1       0.744   7.327  -8.104  1.00  0.00    -0.493 OA
ATOM     14  C   UNL     1       1.016   8.081  -9.118  1.00  0.00     0.278 C 
ENDBRANCH   5  13
TORSDOF 4
ENDMDL
MODEL 5
REMARK VINA RESULT:    -4.002      2.159      2.990
REMARK INTER + INTRA:          -5.184
REMARK INTER:                  -4.742
REMARK INTRA:                  -0.442
REMARK UNBOUND:                -0.480
REMARK SMILES COc1cccc(C(=O)O)c1O
REMARK SMILES IDX 7 1 11 2 6 3 5 4 3 5 4 6 8 7 9 8 10 9 12 11 2 13 1 14
REMARK H PARENT 10 10 12 12
ROOT
ATOM      1  C   UNL     1       0.759   4.332  -5.504  1.00  0.00     0.105 A 
ATOM      2  C   UNL     1       0.634   5.177  -6.573  1.00  0.00     0.172 A 
ATOM      3  C   UNL     1      -0.477   3.907  -4.822  1.00  0.00     0.020 A 
ATOM      4  C   UNL     1      -1.651   4.063  -5.486  1.00  0.00     0.005 A 
ATOM      5  C   UNL     1      -0.547   5.161  -7.425  1.00  0.00     0.161 A 
ATOM      6  C   UNL     1      -1.747   4.674  -6.771  1.00  0.00     0.050 A 
ENDROOT
BRANCH   1   7
ATOM      7  C   UNL     1       2.126   3.761  -5.091  1.00  0.00     0.339 C 
ATOM      8  O   UNL     1       3.146   5.018  -4.915  1.00  0.00    -0.246 OA
BRANCH   7   9
ATOM      9  O   UNL     1       2.553   2.842  -4.805  1.00  0.00    -0.478 OA
ATOM     10  H   UNL     1       2.955   1.978  -4.536  1.00  0.00     0.297 HD
ENDBRANCH   7   9
ENDBRANCH   1   7
BRANCH   2  11
ATOM     11  O   UNL     1       1.652   6.084  -6.912  1.00  0.00    -0.504 OA
ATOM     12  H   UNL     1       2.369   6.724  -7.150  1.00  0.00     0.293 HD
ENDBRANCH   2  11
BRANCH   5  13
ATOM     13  O   UNL     1      -0.467   5.921  -8.585  1.00  0.00    -0.493 OA
ATOM     14  C   UNL     1      -0.618   6.927  -9.382  1.00  0.00     0.278 C 
ENDBRANCH   5  13
TORSDOF 4
ENDMDL
MODEL 6
REMARK VINA RESULT:    -3.982      2.339      4.641
REMARK INTER + INTRA:          -5.161
REMARK INTER:                  -4.906
REMARK INTRA:                  -0.254
REMARK UNBOUND:                -0.480
REMARK SMILES COc1cccc(C(=O)O)c1O
REMARK SMILES IDX 7 1 11 2 6 3 5 4 3 5 4 6 8 7 9 8 10 9 12 11 2 13 1 14
REMARK H PARENT 10 10 12 12
ROOT
ATOM      1  C   UNL     1      -1.451   4.270  -7.353  1.00  0.00     0.105 A 
ATOM      2  C   UNL     1      -0.154   3.974  -7.038  1.00  0.00     0.172 A 
ATOM      3  C   UNL     1      -2.443   4.243  -6.262  1.00  0.00     0.020 A 
ATOM      4  C   UNL     1      -1.979   4.293  -4.987  1.00  0.00     0.005 A 
ATOM      5  C   UNL     1       0.396   4.259  -5.721  1.00  0.00     0.161 A 
ATOM      6  C   UNL     1      -0.592   4.302  -4.659  1.00  0.00     0.050 A 
ENDROOT
BRANCH   1   7
ATOM      7  C   UNL     1      -1.849   4.719  -8.770  1.00  0.00     0.339 C 
ATOM      8  O   UNL     1      -0.788   5.865  -9.233  1.00  0.00    -0.246 OA
BRANCH   7   9
ATOM      9  O   UNL     1      -2.517   4.445  -9.536  1.00  0.00    -0.478 OA
ATOM     10  H   UNL     1      -3.145   4.187 -10.257  1.00  0.00     0.297 HD
ENDBRANCH   7   9
ENDBRANCH   1   7
BRANCH   2  11
ATOM     11  O   UNL     1       0.715   3.400  -7.982  1.00  0.00    -0.504 OA
ATOM     12  H   UNL     1       1.328   2.995  -8.647  1.00  0.00     0.293 HD
ENDBRANCH   2  11
BRANCH   5  13
ATOM     13  O   UNL     1       1.770   4.096  -5.590  1.00  0.00    -0.493 OA
ATOM     14  C   UNL     1       2.977   4.308  -5.181  1.00  0.00     0.278 C 
ENDBRANCH   5  13
TORSDOF 4
ENDMDL
MODEL 7
REMARK VINA RESULT:    -3.955      2.159      3.102
REMARK INTER + INTRA:          -5.128
REMARK INTER:                  -4.873
REMARK INTRA:                  -0.256
REMARK UNBOUND:                -0.480
REMARK SMILES COc1cccc(C(=O)O)c1O
REMARK SMILES IDX 7 1 11 2 6 3 5 4 3 5 4 6 8 7 9 8 10 9 12 11 2 13 1 14
REMARK H PARENT 10 10 12 12
ROOT
ATOM      1  C   UNL     1       1.577   6.074  -5.720  1.00  0.00     0.105 A 
ATOM      2  C   UNL     1       0.258   5.866  -5.419  1.00  0.00     0.172 A 
ATOM      3  C   UNL     1       2.527   4.988  -5.415  1.00  0.00     0.020 A 
ATOM      4  C   UNL     1       2.020   3.745  -5.209  1.00  0.00     0.005 A 
ATOM      5  C   UNL     1      -0.328   4.533  -5.437  1.00  0.00     0.161 A 
ATOM      6  C   UNL     1       0.623   3.461  -5.208  1.00  0.00     0.050 A 
ENDROOT
BRANCH   1   7
ATOM      7  C   UNL     1       2.041   7.349  -6.446  1.00  0.00     0.339 C 
ATOM      8  O   UNL     1       1.036   7.584  -7.706  1.00  0.00    -0.246 OA
BRANCH   7   9
ATOM      9  O   UNL     1       2.727   8.136  -6.315  1.00  0.00    -0.478 OA
ATOM     10  H   UNL     1       3.373   8.877  -6.193  1.00  0.00     0.297 HD
ENDBRANCH   7   9
ENDBRANCH   1   7
BRANCH   2  11
ATOM     11  O   UNL     1      -0.597   6.935  -5.100  1.00  0.00    -0.504 OA
ATOM     12  H   UNL     1      -1.199   7.688  -4.875  1.00  0.00     0.293 HD
ENDBRANCH   2  11
BRANCH   5  13
ATOM     13  O   UNL     1      -1.710   4.478  -5.310  1.00  0.00    -0.493 OA
ATOM     14  C   UNL     1      -2.939   4.204  -5.600  1.00  0.00     0.278 C 
ENDBRANCH   5  13
TORSDOF 4
ENDMDL
MODEL 8
REMARK VINA RESULT:    -3.944      7.179      8.578
REMARK INTER + INTRA:          -5.116
REMARK INTER:                  -4.868
REMARK INTRA:                  -0.247
REMARK UNBOUND:                -0.480
REMARK SMILES COc1cccc(C(=O)O)c1O
REMARK SMILES IDX 7 1 11 2 6 3 5 4 3 5 4 6 8 7 9 8 10 9 12 11 2 13 1 14
REMARK H PARENT 10 10 12 12
ROOT
ATOM      1  C   UNL     1      -0.298  -2.941  -3.907  1.00  0.00     0.105 A 
ATOM      2  C   UNL     1      -0.234  -1.895  -3.028  1.00  0.00     0.172 A 
ATOM      3  C   UNL     1       0.945  -3.686  -4.175  1.00  0.00     0.020 A 
ATOM      4  C   UNL     1       1.968  -3.546  -3.292  1.00  0.00     0.005 A 
ATOM      5  C   UNL     1       0.724  -1.877  -1.932  1.00  0.00     0.161 A 
ATOM      6  C   UNL     1       1.916  -2.669  -2.169  1.00  0.00     0.050 A 
ENDROOT
BRANCH   1   7
ATOM      7  C   UNL     1      -1.637  -3.394  -4.515  1.00  0.00     0.339 C 
ATOM      8  O   UNL     1      -2.796  -3.113  -3.406  1.00  0.00    -0.246 OA
BRANCH   7   9
ATOM      9  O   UNL     1      -2.023  -3.727  -5.437  1.00  0.00    -0.478 OA
ATOM     10  H   UNL     1      -2.385  -4.040  -6.303  1.00  0.00     0.297 HD
ENDBRANCH   7   9
ENDBRANCH   1   7
BRANCH   2  11
ATOM     11  O   UNL     1      -1.107  -0.798  -3.130  1.00  0.00    -0.504 OA
ATOM     12  H   UNL     1      -1.722  -0.026  -3.203  1.00  0.00     0.293 HD
ENDBRANCH   2  11
BRANCH   5  13
ATOM     13  O   UNL     1       0.557  -0.861  -0.999  1.00  0.00    -0.493 OA
ATOM     14  C   UNL     1      -0.024   0.076  -0.325  1.00  0.00     0.278 C 
ENDBRANCH   5  13
TORSDOF 4
ENDMDL
MODEL 9
REMARK VINA RESULT:    -3.650      2.262      4.427
REMARK INTER + INTRA:          -4.770
REMARK INTER:                  -4.288
REMARK INTRA:                  -0.483
REMARK UNBOUND:                -0.480
REMARK SMILES COc1cccc(C(=O)O)c1O
REMARK SMILES IDX 7 1 11 2 6 3 5 4 3 5 4 6 8 7 9 8 10 9 12 11 2 13 1 14
REMARK H PARENT 10 10 12 12
ROOT
ATOM      1  C   UNL     1      -0.212   4.488  -5.612  1.00  0.00     0.105 A 
ATOM      2  C   UNL     1       0.290   5.580  -6.265  1.00  0.00     0.172 A 
ATOM      3  C   UNL     1       0.745   3.456  -5.170  1.00  0.00     0.020 A 
ATOM      4  C   UNL     1       2.056   3.801  -5.098  1.00  0.00     0.005 A 
ATOM      5  C   UNL     1       1.630   6.081  -5.996  1.00  0.00     0.161 A 
ATOM      6  C   UNL     1       2.551   5.079  -5.493  1.00  0.00     0.050 A 
ENDROOT
BRANCH   1   7
ATOM      7  C   UNL     1      -1.705   4.384  -5.257  1.00  0.00     0.339 C 
ATOM      8  O   UNL     1      -2.359   5.861  -5.466  1.00  0.00    -0.246 OA
BRANCH   7   9
ATOM      9  O   UNL     1      -2.420   3.647  -5.023  1.00  0.00    -0.478 OA
ATOM     10  H   UNL     1      -3.093   2.955  -4.803  1.00  0.00     0.297 HD
ENDBRANCH   7   9
ENDBRANCH   1   7
BRANCH   2  11
ATOM     11  O   UNL     1      -0.476   6.282  -7.211  1.00  0.00    -0.504 OA
ATOM     12  H   UNL     1      -1.015   6.777  -7.878  1.00  0.00     0.293 HD
ENDBRANCH   2  11
BRANCH   5  13
ATOM     13  O   UNL     1       1.946   7.305  -6.573  1.00  0.00    -0.493 OA
ATOM     14  C   UNL     1       2.641   8.349  -6.886  1.00  0.00     0.278 C 
ENDBRANCH   5  13
TORSDOF 4
ENDMDL
