MODEL 1
REMARK VINA RESULT:    -4.927      0.000      0.000
REMARK INTER + INTRA:          -6.258
REMARK INTER:                  -5.791
REMARK INTRA:                  -0.468
REMARK UNBOUND:                -0.468
REMARK SMILES COc1cccc(C(=O)O)c1O
REMARK SMILES IDX 7 1 11 2 6 3 5 4 3 5 4 6 8 7 9 8 10 9 12 11 2 13 1 14
REMARK H PARENT 10 10 12 12
ROOT
ATOM      1  C   UNL     1       4.309   1.010  -5.938  1.00  0.00     0.105 A 
ATOM      2  C   UNL     1       3.498  -0.091  -5.925  1.00  0.00     0.172 A 
ATOM      3  C   UNL     1       4.335   1.826  -7.167  1.00  0.00     0.020 A 
ATOM      4  C   UNL     1       3.314   1.669  -8.049  1.00  0.00     0.005 A 
ATOM      5  C   UNL     1       2.270  -0.144  -6.705  1.00  0.00     0.161 A 
ATOM      6  C   UNL     1       2.270   0.714  -7.875  1.00  0.00     0.050 A 
ENDROOT
BRANCH   1   7
ATOM      7  C   UNL     1       5.088   1.446  -4.685  1.00  0.00     0.339 C 
ATOM      8  O   UNL     1       4.504   0.591  -3.427  1.00  0.00    -0.246 OA
BRANCH   7   9
ATOM      9  O   UNL     1       5.920   2.038  -4.429  1.00  0.00    -0.478 OA
ATOM     10  H   UNL     1       6.703   2.594  -4.187  1.00  0.00     0.297 HD
ENDBRANCH   7   9
ENDBRANCH   1   7
BRANCH   2  11
ATOM     11  O   UNL     1       3.803  -1.214  -5.138  1.00  0.00    -0.504 OA
ATOM     12  H   UNL     1       4.017  -2.006  -4.583  1.00  0.00     0.293 HD
ENDBRANCH   2  11
BRANCH   5  13
ATOM     13  O   UNL     1       1.439  -1.228  -6.453  1.00  0.00    -0.493 OA
ATOM     14  C   UNL     1       0.598  -2.183  -6.680  1.00  0.00     0.278 C 
ENDBRANCH   5  13
TORSDOF 4
ENDMDL
MODEL 2
REMARK VINA RESULT:    -4.920      1.773      4.700
REMARK INTER + INTRA:          -6.250
REMARK INTER:                  -5.768
REMARK INTRA:                  -0.482
REMARK UNBOUND:                -0.468
REMARK SMILES COc1cccc(C(=O)O)c1O
REMARK SMILES IDX 7 1 11 2 6 3 5 4 3 5 4 6 8 7 9 8 10 9 12 11 2 13 1 14
REMARK H PARENT 10 10 12 12
ROOT
ATOM      1  C   UNL     1       2.000  -1.694  -6.905  1.00  0.00     0.105 A 
ATOM      2  C   UNL     1       2.554  -0.514  -6.492  1.00  0.00     0.172 A 
ATOM      3  C   UNL     1       2.902  -2.706  -7.486  1.00  0.00     0.020 A 
ATOM      4  C   UNL     1       4.232  -2.576  -7.249  1.00  0.00     0.005 A 
ATOM      5  C   UNL     1       3.926  -0.441  -6.011  1.00  0.00     0.161 A 
ATOM      6  C   UNL     1       4.795  -1.481  -6.529  1.00  0.00     0.050 A 
ENDROOT
BRANCH   1   7
ATOM      7  C   UNL     1       0.510  -2.002  -6.677  1.00  0.00     0.339 C 
ATOM      8  O   UNL     1      -0.060  -0.898  -5.624  1.00  0.00    -0.246 OA
BRANCH   7   9
ATOM      9  O   UNL     1      -0.243  -2.630  -7.062  1.00  0.00    -0.478 OA
ATOM     10  H   UNL     1      -0.951  -3.221  -7.423  1.00  0.00     0.297 HD
ENDBRANCH   7   9
ENDBRANCH   1   7
BRANCH   2  11
ATOM     11  O   UNL     1       1.814   0.681  -6.493  1.00  0.00    -0.504 OA
ATOM     12  H   UNL     1       1.293   1.523  -6.494  1.00  0.00     0.293 HD
ENDBRANCH   2  11
BRANCH   5  13
ATOM     13  O   UNL     1       4.304   0.767  -5.438  1.00  0.00    -0.493 OA
ATOM     14  C   UNL     1       5.020   1.622  -4.785  1.00  0.00     0.278 C 
ENDBRANCH   5  13
TORSDOF 4
ENDMDL
MODEL 3
REMARK VINA RESULT:    -4.715      2.199      3.259
REMARK INTER + INTRA:          -6.009
REMARK INTER:                  -5.744
REMARK INTRA:                  -0.265
REMARK UNBOUND:                -0.468
REMARK SMILES COc1cccc(C(=O)O)c1O
REMARK SMILES IDX 7 1 11 2 6 3 5 4 3 5 4 6 8 7 9 8 10 9 12 11 2 13 1 14
REMARK H PARENT 10 10 12 12
ROOT
ATOM      1  C   UNL     1       4.191   0.766  -5.888  1.00  0.00     0.105 A 
ATOM      2  C   UNL     1       4.433   1.102  -7.191  1.00  0.00     0.172 A 
ATOM      3  C   UNL     1       3.301  -0.381  -5.631  1.00  0.00     0.020 A 
ATOM      4  C   UNL     1       3.075  -1.245  -6.654  1.00  0.00     0.005 A 
ATOM      5  C   UNL     1       4.420   0.105  -8.252  1.00  0.00     0.161 A 
ATOM      6  C   UNL     1       3.599  -1.057  -7.967  1.00  0.00     0.050 A 
ENDROOT
BRANCH   1   7
ATOM      7  C   UNL     1       4.903   1.488  -4.730  1.00  0.00     0.339 C 
ATOM      8  O   UNL     1       4.664   0.602  -3.384  1.00  0.00    -0.246 OA
BRANCH   7   9
ATOM      9  O   UNL     1       5.555   2.300  -4.577  1.00  0.00    -0.478 OA
ATOM     10  H   UNL     1       6.168   3.064  -4.432  1.00  0.00     0.297 HD
ENDBRANCH   7   9
ENDBRANCH   1   7
BRANCH   2  11
ATOM     11  O   UNL     1       4.728   2.425  -7.563  1.00  0.00    -0.504 OA
ATOM     12  H   UNL     1       4.936   3.357  -7.825  1.00  0.00     0.293 HD
ENDBRANCH   2  11
BRANCH   5  13
ATOM     13  O   UNL     1       4.873   0.535  -9.493  1.00  0.00    -0.493 OA
ATOM     14  C   UNL     1       5.650   0.657 -10.519  1.00  0.00     0.278 C 
ENDBRANCH   5  13
TORSDOF 4
ENDMDL
MODEL 4
REMARK VINA RESULT:    -4.715      2.996      4.447
REMARK INTER + INTRA:          -6.009
REMARK INTER:                  -5.743
REMARK INTRA:                  -0.266
REMARK UNBOUND:                -0.468
REMARK SMILES COc1cccc(C(=O)O)c1O
REMARK SMILES IDX 7 1 11 2 6 3 5 4 3 5 4 6 8 7 9 8 10 9 12 11 2 13 1 14
REMARK H PARENT 10 10 12 12
ROOT
ATOM      1  C   UNL     1       2.034  -1.440  -6.768  1.00  0.00     0.105 A 
ATOM      2  C   UNL     1       2.895  -1.974  -7.687  1.00  0.00     0.172 A 
ATOM      3  C   UNL     1       2.453  -0.209  -6.072  1.00  0.00     0.020 A 
ATOM      4  C   UNL     1       3.462   0.514  -6.623  1.00  0.00     0.005 A 
ATOM      5  C   UNL     1       3.815  -1.139  -8.446  1.00  0.00     0.161 A 
ATOM      6  C   UNL     1       4.171   0.105  -7.791  1.00  0.00     0.050 A 
ENDROOT
BRANCH   1   7
ATOM      7  C   UNL     1       0.634  -2.037  -6.542  1.00  0.00     0.339 C 
ATOM      8  O   UNL     1      -0.223  -0.954  -5.677  1.00  0.00    -0.246 OA
BRANCH   7   9
ATOM      9  O   UNL     1       0.059  -2.862  -6.853  1.00  0.00    -0.478 OA
ATOM     10  H   UNL     1      -0.482  -3.638  -7.146  1.00  0.00     0.297 HD
ENDBRANCH   7   9
ENDBRANCH   1   7
BRANCH   2  11
ATOM     11  O   UNL     1       2.916  -3.353  -7.955  1.00  0.00    -0.504 OA
ATOM     12  H   UNL     1       2.931  -4.325  -8.143  1.00  0.00     0.293 HD
ENDBRANCH   2  11
BRANCH   5  13
ATOM     13  O   UNL     1       4.492  -1.771  -9.482  1.00  0.00    -0.493 OA
ATOM     14  C   UNL     1       4.855  -2.060 -10.688  1.00  0.00     0.278 C 
ENDBRANCH   5  13
TORSDOF 4
ENDMDL
MODEL 5
REMARK VINA RESULT:    -4.045      2.175      3.100
REMARK INTER + INTRA:          -5.222
REMARK INTER:                  -4.917
REMARK INTRA:                  -0.304
REMARK UNBOUND:                -0.468
REMARK SMILES COc1cccc(C(=O)O)c1O
REMARK SMILES IDX 7 1 11 2 6 3 5 4 3 5 4 6 8 7 9 8 10 9 12 11 2 13 1 14
REMARK H PARENT 10 10 12 12
ROOT
ATOM      1  C   UNL     1       4.119   1.472  -6.993  1.00  0.00     0.105 A 
ATOM      2  C   UNL     1       2.942   0.788  -7.122  1.00  0.00     0.172 A 
ATOM      3  C   UNL     1       4.747   1.508  -5.659  1.00  0.00     0.020 A 
ATOM      4  C   UNL     1       4.344   0.586  -4.747  1.00  0.00     0.005 A 
ATOM      5  C   UNL     1       2.630  -0.360  -6.281  1.00  0.00     0.161 A 
ATOM      6  C   UNL     1       3.305  -0.358  -4.997  1.00  0.00     0.050 A 
ENDROOT
BRANCH   1   7
ATOM      7  C   UNL     1       4.821   2.094  -8.213  1.00  0.00     0.339 C 
ATOM      8  O   UNL     1       4.769   0.997  -9.416  1.00  0.00    -0.246 OA
BRANCH   7   9
ATOM      9  O   UNL     1       5.220   3.019  -8.518  1.00  0.00    -0.478 OA
ATOM     10  H   UNL     1       5.597   3.890  -8.804  1.00  0.00     0.297 HD
ENDBRANCH   7   9
ENDBRANCH   1   7
BRANCH   2  11
ATOM     11  O   UNL     1       1.988   1.148  -8.088  1.00  0.00    -0.504 OA
ATOM     12  H   UNL     1       1.315   1.403  -8.769  1.00  0.00     0.293 HD
ENDBRANCH   2  11
BRANCH   5  13
ATOM     13  O   UNL     1       1.501  -1.085  -6.641  1.00  0.00    -0.493 OA
ATOM     14  C   UNL     1       0.690  -2.086  -6.738  1.00  0.00     0.278 C 
ENDBRANCH   5  13
TORSDOF 4
ENDMDL
MODEL 6
REMARK VINA RESULT:    -4.029      2.363      4.679
REMARK INTER + INTRA:          -5.203
REMARK INTER:                  -4.887
REMARK INTRA:                  -0.316
REMARK UNBOUND:                -0.468
REMARK SMILES COc1cccc(C(=O)O)c1O
REMARK SMILES IDX 7 1 11 2 6 3 5 4 3 5 4 6 8 7 9 8 10 9 12 11 2 13 1 14
REMARK H PARENT 10 10 12 12
ROOT
ATOM      1  C   UNL     1       2.934  -2.275  -7.294  1.00  0.00     0.105 A 
ATOM      2  C   UNL     1       3.808  -1.501  -6.582  1.00  0.00     0.172 A 
ATOM      3  C   UNL     1       1.503  -2.179  -6.954  1.00  0.00     0.020 A 
ATOM      4  C   UNL     1       1.095  -1.097  -6.242  1.00  0.00     0.005 A 
ATOM      5  C   UNL     1       3.410  -0.217  -6.023  1.00  0.00     0.161 A 
ATOM      6  C   UNL     1       1.989  -0.098  -5.756  1.00  0.00     0.050 A 
ENDROOT
BRANCH   1   7
ATOM      7  C   UNL     1       3.409  -3.138  -8.476  1.00  0.00     0.339 C 
ATOM      8  O   UNL     1       4.449  -2.238  -9.349  1.00  0.00    -0.246 OA
BRANCH   7   9
ATOM      9  O   UNL     1       3.339  -4.131  -8.818  1.00  0.00    -0.478 OA
ATOM     10  H   UNL     1       3.272  -5.066  -9.139  1.00  0.00     0.297 HD
ENDBRANCH   7   9
ENDBRANCH   1   7
BRANCH   2  11
ATOM     11  O   UNL     1       5.140  -1.900  -6.377  1.00  0.00    -0.504 OA
ATOM     12  H   UNL     1       6.078  -2.182  -6.232  1.00  0.00     0.293 HD
ENDBRANCH   2  11
BRANCH   5  13
ATOM     13  O   UNL     1       4.436   0.559  -5.497  1.00  0.00    -0.493 OA
ATOM     14  C   UNL     1       5.016   1.512  -4.845  1.00  0.00     0.278 C 
ENDBRANCH   5  13
TORSDOF 4
ENDMDL
MODEL 7
REMARK VINA RESULT:    -3.958      2.565      4.251
REMARK INTER + INTRA:          -5.120
REMARK INTER:                  -4.672
REMARK INTRA:                  -0.448
REMARK UNBOUND:                -0.468
REMARK SMILES COc1cccc(C(=O)O)c1O
REMARK SMILES IDX 7 1 11 2 6 3 5 4 3 5 4 6 8 7 9 8 10 9 12 11 2 13 1 14
REMARK H PARENT 10 10 12 12
ROOT
ATOM      1  C   UNL     1       2.376  -0.700  -6.228  1.00  0.00     0.105 A 
ATOM      2  C   UNL     1       3.096  -0.684  -7.391  1.00  0.00     0.172 A 
ATOM      3  C   UNL     1       2.967  -0.040  -5.049  1.00  0.00     0.020 A 
ATOM      4  C   UNL     1       3.980   0.839  -5.260  1.00  0.00     0.005 A 
ATOM      5  C   UNL     1       4.011   0.404  -7.708  1.00  0.00     0.161 A 
ATOM      6  C   UNL     1       4.536   1.098  -6.547  1.00  0.00     0.050 A 
ENDROOT
BRANCH   1   7
ATOM      7  C   UNL     1       0.956  -1.289  -6.175  1.00  0.00     0.339 C 
ATOM      8  O   UNL     1       1.037  -2.809  -6.757  1.00  0.00    -0.246 OA
BRANCH   7   9
ATOM      9  O   UNL     1       0.005  -1.045  -5.795  1.00  0.00    -0.478 OA
ATOM     10  H   UNL     1      -0.890  -0.815  -5.439  1.00  0.00     0.297 HD
ENDBRANCH   7   9
ENDBRANCH   1   7
BRANCH   2  11
ATOM     11  O   UNL     1       2.969  -1.708  -8.345  1.00  0.00    -0.504 OA
ATOM     12  H   UNL     1       2.879  -2.430  -9.017  1.00  0.00     0.293 HD
ENDBRANCH   2  11
BRANCH   5  13
ATOM     13  O   UNL     1       4.529   0.404  -8.997  1.00  0.00    -0.493 OA
ATOM     14  C   UNL     1       5.383   0.254  -9.955  1.00  0.00     0.278 C 
ENDBRANCH   5  13
TORSDOF 4
ENDMDL
MODEL 8
REMARK VINA RESULT:    -3.814      2.170      2.725
REMARK INTER + INTRA:          -4.950
REMARK INTER:                  -4.707
REMARK INTRA:                  -0.243
REMARK UNBOUND:                -0.468
REMARK SMILES COc1cccc(C(=O)O)c1O
REMARK SMILES IDX 7 1 11 2 6 3 5 4 3 5 4 6 8 7 9 8 10 9 12 11 2 13 1 14
REMARK H PARENT 10 10 12 12
ROOT
ATOM      1  C   UNL     1       3.565  -0.141  -6.098  1.00  0.00     0.105 A 
ATOM      2  C   UNL     1       3.897  -0.979  -7.127  1.00  0.00     0.172 A 
ATOM      3  C   UNL     1       2.143  -0.054  -5.720  1.00  0.00     0.020 A 
ATOM      4  C   UNL     1       1.316  -1.046  -6.139  1.00  0.00     0.005 A 
ATOM      5  C   UNL     1       3.125  -2.180  -7.414  1.00  0.00     0.161 A 
ATOM      6  C   UNL     1       1.743  -2.118  -6.976  1.00  0.00     0.050 A 
ENDROOT
BRANCH   1   7
ATOM      7  C   UNL     1       4.644   0.603  -5.293  1.00  0.00     0.339 C 
ATOM      8  O   UNL     1       4.271   0.442  -3.715  1.00  0.00    -0.246 OA
BRANCH   7   9
ATOM      9  O   UNL     1       5.568   1.082  -5.449  1.00  0.00    -0.478 OA
ATOM     10  H   UNL     1       6.438   1.533  -5.597  1.00  0.00     0.297 HD
ENDBRANCH   7   9
ENDBRANCH   1   7
BRANCH   2  11
ATOM     11  O   UNL     1       5.014  -0.729  -7.943  1.00  0.00    -0.504 OA
ATOM     12  H   UNL     1       5.800  -0.553  -8.518  1.00  0.00     0.293 HD
ENDBRANCH   2  11
BRANCH   5  13
ATOM     13  O   UNL     1       3.676  -3.045  -8.351  1.00  0.00    -0.493 OA
ATOM     14  C   UNL     1       3.745  -3.834  -9.372  1.00  0.00     0.278 C 
ENDBRANCH   5  13
TORSDOF 4
ENDMDL
MODEL 9
REMARK VINA RESULT:    -3.370      3.720      5.337
REMARK INTER + INTRA:          -4.429
REMARK INTER:                  -3.968
REMARK INTRA:                  -0.462
REMARK UNBOUND:                -0.468
REMARK SMILES COc1cccc(C(=O)O)c1O
REMARK SMILES IDX 7 1 11 2 6 3 5 4 3 5 4 6 8 7 9 8 10 9 12 11 2 13 1 14
REMARK H PARENT 10 10 12 12
ROOT
ATOM      1  C   UNL     1       4.144  -2.324  -9.708  1.00  0.00     0.105 A 
ATOM      2  C   UNL     1       3.963  -1.162  -9.009  1.00  0.00     0.172 A 
ATOM      3  C   UNL     1       4.843  -2.240 -11.004  1.00  0.00     0.020 A 
ATOM      4  C   UNL     1       5.575  -1.124 -11.255  1.00  0.00     0.005 A 
ATOM      5  C   UNL     1       4.902  -0.054  -9.114  1.00  0.00     0.161 A 
ATOM      6  C   UNL     1       5.641  -0.015 -10.362  1.00  0.00     0.050 A 
ENDROOT
BRANCH   1   7
ATOM      7  C   UNL     1       3.730  -3.684  -9.121  1.00  0.00     0.339 C 
ATOM      8  O   UNL     1       3.649  -3.511  -7.503  1.00  0.00    -0.246 OA
BRANCH   7   9
ATOM      9  O   UNL     1       3.401  -4.628  -9.450  1.00  0.00    -0.478 OA
ATOM     10  H   UNL     1       3.092  -5.517  -9.759  1.00  0.00     0.297 HD
ENDBRANCH   7   9
ENDBRANCH   1   7
BRANCH   2  11
ATOM     11  O   UNL     1       2.872  -0.994  -8.139  1.00  0.00    -0.504 OA
ATOM     12  H   UNL     1       2.104  -0.875  -7.527  1.00  0.00     0.293 HD
ENDBRANCH   2  11
BRANCH   5  13
ATOM     13  O   UNL     1       4.716   0.984  -8.209  1.00  0.00    -0.493 OA
ATOM     14  C   UNL     1       4.306   2.115  -7.737  1.00  0.00     0.278 C 
ENDBRANCH   5  13
TORSDOF 4
ENDMDL
