MODEL 1
REMARK VINA RESULT:    -4.780      0.000      0.000
REMARK INTER + INTRA:          -6.085
REMARK INTER:                  -5.618
REMARK INTRA:                  -0.467
REMARK UNBOUND:                -0.467
REMARK SMILES COc1cccc(C(=O)O)c1O
REMARK SMILES IDX 7 1 11 2 6 3 5 4 3 5 4 6 8 7 9 8 10 9 12 11 2 13 1 14
REMARK H PARENT 10 10 12 12
ROOT
ATOM      1  C   UNL     1      -1.620   6.760  -2.256  1.00  0.00     0.105 A 
ATOM      2  C   UNL     1      -1.360   6.763  -0.913  1.00  0.00     0.172 A 
ATOM      3  C   UNL     1      -0.916   7.751  -3.091  1.00  0.00     0.020 A 
ATOM      4  C   UNL     1       0.189   8.344  -2.570  1.00  0.00     0.005 A 
ATOM      5  C   UNL     1      -0.070   7.183  -0.386  1.00  0.00     0.161 A 
ATOM      6  C   UNL     1       0.653   8.104  -1.243  1.00  0.00     0.050 A 
ENDROOT
BRANCH   1   7
ATOM      7  C   UNL     1      -2.530   5.695  -2.893  1.00  0.00     0.339 C 
ATOM      8  O   UNL     1      -2.748   4.517  -1.789  1.00  0.00    -0.246 OA
BRANCH   7   9
ATOM      9  O   UNL     1      -3.111   5.558  -3.760  1.00  0.00    -0.478 OA
ATOM     10  H   UNL     1      -3.657   5.428  -4.576  1.00  0.00     0.297 HD
ENDBRANCH   7   9
ENDBRANCH   1   7
BRANCH   2  11
ATOM     11  O   UNL     1      -2.323   6.339   0.019  1.00  0.00    -0.504 OA
ATOM     12  H   UNL     1      -3.001   6.041   0.676  1.00  0.00     0.293 HD
ENDBRANCH   2  11
BRANCH   5  13
ATOM     13  O   UNL     1       0.134   6.953   0.969  1.00  0.00    -0.493 OA
ATOM     14  C   UNL     1       0.178   7.185   2.239  1.00  0.00     0.278 C 
ENDBRANCH   5  13
TORSDOF 4
ENDMDL
MODEL 2
REMARK VINA RESULT:    -4.760      1.755      4.640
REMARK INTER + INTRA:          -6.062
REMARK INTER:                  -5.591
REMARK INTRA:                  -0.470
REMARK UNBOUND:                -0.467
REMARK SMILES COc1cccc(C(=O)O)c1O
REMARK SMILES IDX 7 1 11 2 6 3 5 4 3 5 4 6 8 7 9 8 10 9 12 11 2 13 1 14
REMARK H PARENT 10 10 12 12
ROOT
ATOM      1  C   UNL     1      -0.671   7.615   1.002  1.00  0.00     0.105 A 
ATOM      2  C   UNL     1      -0.876   6.991  -0.197  1.00  0.00     0.172 A 
ATOM      3  C   UNL     1      -1.624   8.670   1.395  1.00  0.00     0.020 A 
ATOM      4  C   UNL     1      -2.821   8.709   0.755  1.00  0.00     0.005 A 
ATOM      5  C   UNL     1      -2.210   6.832  -0.758  1.00  0.00     0.161 A 
ATOM      6  C   UNL     1      -3.165   7.830  -0.314  1.00  0.00     0.050 A 
ENDROOT
BRANCH   1   7
ATOM      7  C   UNL     1       0.448   7.166   1.958  1.00  0.00     0.339 C 
ATOM      8  O   UNL     1       0.915   5.676   1.494  1.00  0.00    -0.246 OA
BRANCH   7   9
ATOM      9  O   UNL     1       1.044   7.562   2.731  1.00  0.00    -0.478 OA
ATOM     10  H   UNL     1       1.604   7.934   3.457  1.00  0.00     0.297 HD
ENDBRANCH   7   9
ENDBRANCH   1   7
BRANCH   2  11
ATOM     11  O   UNL     1       0.194   6.453  -0.934  1.00  0.00    -0.504 OA
ATOM     12  H   UNL     1       0.947   6.075  -1.453  1.00  0.00     0.293 HD
ENDBRANCH   2  11
BRANCH   5  13
ATOM     13  O   UNL     1      -2.304   6.012  -1.875  1.00  0.00    -0.493 OA
ATOM     14  C   UNL     1      -2.367   5.670  -3.120  1.00  0.00     0.278 C 
ENDBRANCH   5  13
TORSDOF 4
ENDMDL
MODEL 3
REMARK VINA RESULT:    -4.703      2.857      4.368
REMARK INTER + INTRA:          -5.995
REMARK INTER:                  -5.724
REMARK INTRA:                  -0.270
REMARK UNBOUND:                -0.467
REMARK SMILES COc1cccc(C(=O)O)c1O
REMARK SMILES IDX 7 1 11 2 6 3 5 4 3 5 4 6 8 7 9 8 10 9 12 11 2 13 1 14
REMARK H PARENT 10 10 12 12
ROOT
ATOM      1  C   UNL     1      -0.732   7.403   0.784  1.00  0.00     0.105 A 
ATOM      2  C   UNL     1      -1.346   8.619   0.663  1.00  0.00     0.172 A 
ATOM      3  C   UNL     1      -0.743   6.512  -0.391  1.00  0.00     0.020 A 
ATOM      4  C   UNL     1      -1.019   7.065  -1.600  1.00  0.00     0.005 A 
ATOM      5  C   UNL     1      -1.422   9.313  -0.616  1.00  0.00     0.161 A 
ATOM      6  C   UNL     1      -1.361   8.438  -1.772  1.00  0.00     0.050 A 
ENDROOT
BRANCH   1   7
ATOM      7  C   UNL     1       0.035   7.018   2.060  1.00  0.00     0.339 C 
ATOM      8  O   UNL     1       1.088   5.840   1.659  1.00  0.00    -0.246 OA
BRANCH   7   9
ATOM      9  O   UNL     1       0.146   7.346   3.055  1.00  0.00    -0.478 OA
ATOM     10  H   UNL     1       0.249   7.654   3.990  1.00  0.00     0.297 HD
ENDBRANCH   7   9
ENDBRANCH   1   7
BRANCH   2  11
ATOM     11  O   UNL     1      -1.913   9.267   1.774  1.00  0.00    -0.504 OA
ATOM     12  H   UNL     1      -2.313   9.722   2.557  1.00  0.00     0.293 HD
ENDBRANCH   2  11
BRANCH   5  13
ATOM     13  O   UNL     1      -1.891  10.619  -0.569  1.00  0.00    -0.493 OA
ATOM     14  C   UNL     1      -1.924  11.898  -0.756  1.00  0.00     0.278 C 
ENDBRANCH   5  13
TORSDOF 4
ENDMDL
MODEL 4
REMARK VINA RESULT:    -4.689      2.252      3.243
REMARK INTER + INTRA:          -5.979
REMARK INTER:                  -5.708
REMARK INTRA:                  -0.271
REMARK UNBOUND:                -0.467
REMARK SMILES COc1cccc(C(=O)O)c1O
REMARK SMILES IDX 7 1 11 2 6 3 5 4 3 5 4 6 8 7 9 8 10 9 12 11 2 13 1 14
REMARK H PARENT 10 10 12 12
ROOT
ATOM      1  C   UNL     1      -1.630   6.720  -2.009  1.00  0.00     0.105 A 
ATOM      2  C   UNL     1      -1.284   7.980  -2.411  1.00  0.00     0.172 A 
ATOM      3  C   UNL     1      -1.535   6.412  -0.570  1.00  0.00     0.020 A 
ATOM      4  C   UNL     1      -1.474   7.455   0.296  1.00  0.00     0.005 A 
ATOM      5  C   UNL     1      -1.451   9.134  -1.539  1.00  0.00     0.161 A 
ATOM      6  C   UNL     1      -1.429   8.818  -0.123  1.00  0.00     0.050 A 
ENDROOT
BRANCH   1   7
ATOM      7  C   UNL     1      -2.200   5.691  -3.001  1.00  0.00     0.339 C 
ATOM      8  O   UNL     1      -2.979   4.555  -2.131  1.00  0.00    -0.246 OA
BRANCH   7   9
ATOM      9  O   UNL     1      -2.314   5.563  -4.040  1.00  0.00    -0.478 OA
ATOM     10  H   UNL     1      -2.421   5.442  -5.017  1.00  0.00     0.297 HD
ENDBRANCH   7   9
ENDBRANCH   1   7
BRANCH   2  11
ATOM     11  O   UNL     1      -0.770   8.222  -3.697  1.00  0.00    -0.504 OA
ATOM     12  H   UNL     1      -0.408   8.393  -4.603  1.00  0.00     0.293 HD
ENDBRANCH   2  11
BRANCH   5  13
ATOM     13  O   UNL     1      -1.251  10.375  -2.130  1.00  0.00    -0.493 OA
ATOM     14  C   UNL     1      -1.511  11.571  -2.544  1.00  0.00     0.278 C 
ENDBRANCH   5  13
TORSDOF 4
ENDMDL
MODEL 5
REMARK VINA RESULT:    -4.090      2.677      4.227
REMARK INTER + INTRA:          -5.275
REMARK INTER:                  -4.812
REMARK INTRA:                  -0.463
REMARK UNBOUND:                -0.467
REMARK SMILES COc1cccc(C(=O)O)c1O
REMARK SMILES IDX 7 1 11 2 6 3 5 4 3 5 4 6 8 7 9 8 10 9 12 11 2 13 1 14
REMARK H PARENT 10 10 12 12
ROOT
ATOM      1  C   UNL     1      -0.844   6.795   0.390  1.00  0.00     0.105 A 
ATOM      2  C   UNL     1      -1.360   8.047   0.197  1.00  0.00     0.172 A 
ATOM      3  C   UNL     1      -1.246   5.737  -0.555  1.00  0.00     0.020 A 
ATOM      4  C   UNL     1      -1.786   6.121  -1.740  1.00  0.00     0.005 A 
ATOM      5  C   UNL     1      -1.715   8.530  -1.130  1.00  0.00     0.161 A 
ATOM      6  C   UNL     1      -2.041   7.482  -2.079  1.00  0.00     0.050 A 
ENDROOT
BRANCH   1   7
ATOM      7  C   UNL     1       0.200   6.521   1.486  1.00  0.00     0.339 C 
ATOM      8  O   UNL     1      -0.298   7.285   2.835  1.00  0.00    -0.246 OA
BRANCH   7   9
ATOM      9  O   UNL     1       1.056   5.927   1.642  1.00  0.00    -0.478 OA
ATOM     10  H   UNL     1       1.860   5.368   1.789  1.00  0.00     0.297 HD
ENDBRANCH   7   9
ENDBRANCH   1   7
BRANCH   2  11
ATOM     11  O   UNL     1      -1.552   8.933   1.271  1.00  0.00    -0.504 OA
ATOM     12  H   UNL     1      -1.687   9.557   2.027  1.00  0.00     0.293 HD
ENDBRANCH   2  11
BRANCH   5  13
ATOM     13  O   UNL     1      -2.040   9.878  -1.217  1.00  0.00    -0.493 OA
ATOM     14  C   UNL     1      -1.951  11.122  -1.556  1.00  0.00     0.278 C 
ENDBRANCH   5  13
TORSDOF 4
ENDMDL
MODEL 6
REMARK VINA RESULT:    -4.042      1.490      1.490
REMARK INTER + INTRA:          -5.218
REMARK INTER:                  -4.787
REMARK INTRA:                  -0.431
REMARK UNBOUND:                -0.467
REMARK SMILES COc1cccc(C(=O)O)c1O
REMARK SMILES IDX 7 1 11 2 6 3 5 4 3 5 4 6 8 7 9 8 10 9 12 11 2 13 1 14
REMARK H PARENT 10 10 12 12
ROOT
ATOM      1  C   UNL     1      -1.979   6.892  -2.495  1.00  0.00     0.105 A 
ATOM      2  C   UNL     1      -2.335   7.426  -1.287  1.00  0.00     0.172 A 
ATOM      3  C   UNL     1      -0.964   7.611  -3.287  1.00  0.00     0.020 A 
ATOM      4  C   UNL     1      -0.191   8.523  -2.644  1.00  0.00     0.005 A 
ATOM      5  C   UNL     1      -1.400   8.211  -0.493  1.00  0.00     0.161 A 
ATOM      6  C   UNL     1      -0.360   8.861  -1.269  1.00  0.00     0.050 A 
ENDROOT
BRANCH   1   7
ATOM      7  C   UNL     1      -2.534   5.537  -2.966  1.00  0.00     0.339 C 
ATOM      8  O   UNL     1      -2.812   4.636  -1.638  1.00  0.00    -0.246 OA
BRANCH   7   9
ATOM      9  O   UNL     1      -2.867   5.076  -3.853  1.00  0.00    -0.478 OA
ATOM     10  H   UNL     1      -3.180   4.643  -4.686  1.00  0.00     0.297 HD
ENDBRANCH   7   9
ENDBRANCH   1   7
BRANCH   2  11
ATOM     11  O   UNL     1      -3.615   7.221  -0.746  1.00  0.00    -0.504 OA
ATOM     12  H   UNL     1      -4.518   7.076  -0.364  1.00  0.00     0.293 HD
ENDBRANCH   2  11
BRANCH   5  13
ATOM     13  O   UNL     1      -1.815   8.526   0.794  1.00  0.00    -0.493 OA
ATOM     14  C   UNL     1      -2.305   9.218   1.769  1.00  0.00     0.278 C 
ENDBRANCH   5  13
TORSDOF 4
ENDMDL
MODEL 7
REMARK VINA RESULT:    -4.029      2.165      3.090
REMARK INTER + INTRA:          -5.203
REMARK INTER:                  -4.907
REMARK INTRA:                  -0.296
REMARK UNBOUND:                -0.467
REMARK SMILES COc1cccc(C(=O)O)c1O
REMARK SMILES IDX 7 1 11 2 6 3 5 4 3 5 4 6 8 7 9 8 10 9 12 11 2 13 1 14
REMARK H PARENT 10 10 12 12
ROOT
ATOM      1  C   UNL     1      -0.946   7.547  -2.700  1.00  0.00     0.105 A 
ATOM      2  C   UNL     1      -0.250   7.526  -1.522  1.00  0.00     0.172 A 
ATOM      3  C   UNL     1      -1.879   6.437  -2.962  1.00  0.00     0.020 A 
ATOM      4  C   UNL     1      -2.269   5.677  -1.906  1.00  0.00     0.005 A 
ATOM      5  C   UNL     1      -0.796   6.906  -0.323  1.00  0.00     0.161 A 
ATOM      6  C   UNL     1      -1.768   5.861  -0.583  1.00  0.00     0.050 A 
ENDROOT
BRANCH   1   7
ATOM      7  C   UNL     1      -0.842   8.737  -3.669  1.00  0.00     0.339 C 
ATOM      8  O   UNL     1      -0.926  10.099  -2.780  1.00  0.00    -0.246 OA
BRANCH   7   9
ATOM      9  O   UNL     1      -0.640   8.922  -4.686  1.00  0.00    -0.478 OA
ATOM     10  H   UNL     1      -0.451   9.097  -5.642  1.00  0.00     0.297 HD
ENDBRANCH   7   9
ENDBRANCH   1   7
BRANCH   2  11
ATOM     11  O   UNL     1       1.018   8.123  -1.411  1.00  0.00    -0.504 OA
ATOM     12  H   UNL     1       1.911   8.543  -1.332  1.00  0.00     0.293 HD
ENDBRANCH   2  11
BRANCH   5  13
ATOM     13  O   UNL     1      -0.083   7.123   0.849  1.00  0.00    -0.493 OA
ATOM     14  C   UNL     1       0.155   7.232   2.115  1.00  0.00     0.278 C 
ENDBRANCH   5  13
TORSDOF 4
ENDMDL
MODEL 8
REMARK VINA RESULT:    -3.879      7.285      7.892
REMARK INTER + INTRA:          -5.026
REMARK INTER:                  -4.850
REMARK INTRA:                  -0.177
REMARK UNBOUND:                -0.467
REMARK SMILES COc1cccc(C(=O)O)c1O
REMARK SMILES IDX 7 1 11 2 6 3 5 4 3 5 4 6 8 7 9 8 10 9 12 11 2 13 1 14
REMARK H PARENT 10 10 12 12
ROOT
ATOM      1  C   UNL     1       3.727   1.029  -1.643  1.00  0.00     0.105 A 
ATOM      2  C   UNL     1       2.430   0.985  -1.210  1.00  0.00     0.172 A 
ATOM      3  C   UNL     1       4.779   1.230  -0.629  1.00  0.00     0.020 A 
ATOM      4  C   UNL     1       4.457   0.996   0.669  1.00  0.00     0.005 A 
ATOM      5  C   UNL     1       2.084   0.500   0.118  1.00  0.00     0.161 A 
ATOM      6  C   UNL     1       3.146   0.634   1.097  1.00  0.00     0.050 A 
ENDROOT
BRANCH   1   7
ATOM      7  C   UNL     1       4.089   0.772  -3.116  1.00  0.00     0.339 C 
ATOM      8  O   UNL     1       4.891  -0.645  -3.180  1.00  0.00    -0.246 OA
BRANCH   7   9
ATOM      9  O   UNL     1       3.892   1.176  -4.068  1.00  0.00    -0.478 OA
ATOM     10  H   UNL     1       3.707   1.556  -4.963  1.00  0.00     0.297 HD
ENDBRANCH   7   9
ENDBRANCH   1   7
BRANCH   2  11
ATOM     11  O   UNL     1       1.368   1.387  -2.039  1.00  0.00    -0.504 OA
ATOM     12  H   UNL     1       0.621   1.670  -2.623  1.00  0.00     0.293 HD
ENDBRANCH   2  11
BRANCH   5  13
ATOM     13  O   UNL     1       0.728   0.319   0.362  1.00  0.00    -0.493 OA
ATOM     14  C   UNL     1      -0.452   0.537   0.842  1.00  0.00     0.278 C 
ENDBRANCH   5  13
TORSDOF 4
ENDMDL
MODEL 9
REMARK VINA RESULT:    -3.804      7.143      8.553
REMARK INTER + INTRA:          -4.938
REMARK INTER:                  -4.720
REMARK INTRA:                  -0.218
REMARK UNBOUND:                -0.467
REMARK SMILES COc1cccc(C(=O)O)c1O
REMARK SMILES IDX 7 1 11 2 6 3 5 4 3 5 4 6 8 7 9 8 10 9 12 11 2 13 1 14
REMARK H PARENT 10 10 12 12
ROOT
ATOM      1  C   UNL     1      -4.545   1.092   3.131  1.00  0.00     0.105 A 
ATOM      2  C   UNL     1      -3.357   1.040   2.454  1.00  0.00     0.172 A 
ATOM      3  C   UNL     1      -5.747   0.589   2.441  1.00  0.00     0.020 A 
ATOM      4  C   UNL     1      -5.565  -0.214   1.360  1.00  0.00     0.005 A 
ATOM      5  C   UNL     1      -3.090   0.013   1.457  1.00  0.00     0.161 A 
ATOM      6  C   UNL     1      -4.280  -0.531   0.830  1.00  0.00     0.050 A 
ENDROOT
BRANCH   1   7
ATOM      7  C   UNL     1      -4.612   1.558   4.595  1.00  0.00     0.339 C 
ATOM      8  O   UNL     1      -3.226   1.097   5.317  1.00  0.00    -0.246 OA
BRANCH   7   9
ATOM      9  O   UNL     1      -5.222   2.149   5.217  1.00  0.00    -0.478 OA
ATOM     10  H   UNL     1      -5.796   2.705   5.802  1.00  0.00     0.297 HD
ENDBRANCH   7   9
ENDBRANCH   1   7
BRANCH   2  11
ATOM     11  O   UNL     1      -2.329   1.965   2.708  1.00  0.00    -0.504 OA
ATOM     12  H   UNL     1      -1.606   2.616   2.887  1.00  0.00     0.293 HD
ENDBRANCH   2  11
BRANCH   5  13
ATOM     13  O   UNL     1      -1.784  -0.051   0.988  1.00  0.00    -0.493 OA
ATOM     14  C   UNL     1      -0.544   0.273   0.821  1.00  0.00     0.278 C 
ENDBRANCH   5  13
TORSDOF 4
ENDMDL
