MODEL 1
REMARK VINA RESULT:    -4.891      0.000      0.000
REMARK INTER + INTRA:          -6.177
REMARK INTER:                  -5.749
REMARK INTRA:                  -0.429
REMARK UNBOUND:                -0.429
REMARK SMILES COc1cccc(C(=O)O)c1O
REMARK SMILES IDX 7 1 11 2 6 3 5 4 3 5 4 6 8 7 9 8 10 9 12 11 2 13 1 14
REMARK H PARENT 10 10 12 12
ROOT
ATOM      1  C   UNL     1       3.471   3.268   5.488  1.00  0.00     0.105 A 
ATOM      2  C   UNL     1       3.681   1.959   5.149  1.00  0.00     0.172 A 
ATOM      3  C   UNL     1       4.655   4.102   5.763  1.00  0.00     0.020 A 
ATOM      4  C   UNL     1       5.859   3.655   5.319  1.00  0.00     0.005 A 
ATOM      5  C   UNL     1       4.888   1.535   4.453  1.00  0.00     0.161 A 
ATOM      6  C   UNL     1       6.034   2.398   4.669  1.00  0.00     0.050 A 
ENDROOT
BRANCH   1   7
ATOM      7  C   UNL     1       2.059   3.879   5.481  1.00  0.00     0.339 C 
ATOM      8  O   UNL     1       1.057   2.784   4.810  1.00  0.00    -0.246 OA
BRANCH   7   9
ATOM      9  O   UNL     1       1.553   4.723   5.856  1.00  0.00    -0.478 OA
ATOM     10  H   UNL     1       1.078   5.516   6.209  1.00  0.00     0.297 HD
ENDBRANCH   7   9
ENDBRANCH   1   7
BRANCH   2  11
ATOM     11  O   UNL     1       2.730   0.966   5.439  1.00  0.00    -0.504 OA
ATOM     12  H   UNL     1       2.060   0.267   5.644  1.00  0.00     0.293 HD
ENDBRANCH   2  11
BRANCH   5  13
ATOM     13  O   UNL     1       4.892   0.225   3.993  1.00  0.00    -0.493 OA
ATOM     14  C   UNL     1       5.251  -1.011   3.870  1.00  0.00     0.278 C 
ENDBRANCH   5  13
TORSDOF 4
ENDMDL
MODEL 2
REMARK VINA RESULT:    -4.724      2.974      4.454
REMARK INTER + INTRA:          -5.981
REMARK INTER:                  -5.712
REMARK INTRA:                  -0.269
REMARK UNBOUND:                -0.429
REMARK SMILES COc1cccc(C(=O)O)c1O
REMARK SMILES IDX 7 1 11 2 6 3 5 4 3 5 4 6 8 7 9 8 10 9 12 11 2 13 1 14
REMARK H PARENT 10 10 12 12
ROOT
ATOM      1  C   UNL     1       4.850   0.231   4.807  1.00  0.00     0.105 A 
ATOM      2  C   UNL     1       5.360   0.199   6.076  1.00  0.00     0.172 A 
ATOM      3  C   UNL     1       4.146   1.455   4.384  1.00  0.00     0.020 A 
ATOM      4  C   UNL     1       4.355   2.585   5.107  1.00  0.00     0.005 A 
ATOM      5  C   UNL     1       5.805   1.410   6.751  1.00  0.00     0.161 A 
ATOM      6  C   UNL     1       5.161   2.623   6.283  1.00  0.00     0.050 A 
ENDROOT
BRANCH   1   7
ATOM      7  C   UNL     1       5.091  -0.923   3.819  1.00  0.00     0.339 C 
ATOM      8  O   UNL     1       4.887  -0.328   2.316  1.00  0.00    -0.246 OA
BRANCH   7   9
ATOM      9  O   UNL     1       5.432  -1.919   3.823  1.00  0.00    -0.478 OA
ATOM     10  H   UNL     1       5.753  -2.856   3.827  1.00  0.00     0.297 HD
ENDBRANCH   7   9
ENDBRANCH   1   7
BRANCH   2  11
ATOM     11  O   UNL     1       5.499  -1.010   6.779  1.00  0.00    -0.504 OA
ATOM     12  H   UNL     1       5.596  -1.862   7.274  1.00  0.00     0.293 HD
ENDBRANCH   2  11
BRANCH   5  13
ATOM     13  O   UNL     1       6.482   1.222   7.949  1.00  0.00    -0.493 OA
ATOM     14  C   UNL     1       7.237   1.487   8.963  1.00  0.00     0.278 C 
ENDBRANCH   5  13
TORSDOF 4
ENDMDL
MODEL 3
REMARK VINA RESULT:    -4.714      2.232      3.204
REMARK INTER + INTRA:          -5.970
REMARK INTER:                  -5.700
REMARK INTRA:                  -0.269
REMARK UNBOUND:                -0.429
REMARK SMILES COc1cccc(C(=O)O)c1O
REMARK SMILES IDX 7 1 11 2 6 3 5 4 3 5 4 6 8 7 9 8 10 9 12 11 2 13 1 14
REMARK H PARENT 10 10 12 12
ROOT
ATOM      1  C   UNL     1       3.469   3.003   5.440  1.00  0.00     0.105 A 
ATOM      2  C   UNL     1       4.611   3.381   6.091  1.00  0.00     0.172 A 
ATOM      3  C   UNL     1       3.390   1.615   4.949  1.00  0.00     0.020 A 
ATOM      4  C   UNL     1       4.256   0.710   5.473  1.00  0.00     0.005 A 
ATOM      5  C   UNL     1       5.405   2.429   6.854  1.00  0.00     0.161 A 
ATOM      6  C   UNL     1       5.271   1.053   6.414  1.00  0.00     0.050 A 
ENDROOT
BRANCH   1   7
ATOM      7  C   UNL     1       2.267   3.954   5.314  1.00  0.00     0.339 C 
ATOM      8  O   UNL     1       0.950   3.040   5.023  1.00  0.00    -0.246 OA
BRANCH   7   9
ATOM      9  O   UNL     1       2.037   4.972   5.453  1.00  0.00    -0.478 OA
ATOM     10  H   UNL     1       1.821   5.930   5.583  1.00  0.00     0.297 HD
ENDBRANCH   7   9
ENDBRANCH   1   7
BRANCH   2  11
ATOM     11  O   UNL     1       5.057   4.713   6.072  1.00  0.00    -0.504 OA
ATOM     12  H   UNL     1       5.372   5.652   6.058  1.00  0.00     0.293 HD
ENDBRANCH   2  11
BRANCH   5  13
ATOM     13  O   UNL     1       6.423   2.972   7.628  1.00  0.00    -0.493 OA
ATOM     14  C   UNL     1       7.224   3.134   8.629  1.00  0.00     0.278 C 
ENDBRANCH   5  13
TORSDOF 4
ENDMDL
MODEL 4
REMARK VINA RESULT:    -4.583      1.421      1.488
REMARK INTER + INTRA:          -5.815
REMARK INTER:                  -5.577
REMARK INTRA:                  -0.239
REMARK UNBOUND:                -0.429
REMARK SMILES COc1cccc(C(=O)O)c1O
REMARK SMILES IDX 7 1 11 2 6 3 5 4 3 5 4 6 8 7 9 8 10 9 12 11 2 13 1 14
REMARK H PARENT 10 10 12 12
ROOT
ATOM      1  C   UNL     1       3.021   2.502   5.671  1.00  0.00     0.105 A 
ATOM      2  C   UNL     1       3.508   1.465   4.924  1.00  0.00     0.172 A 
ATOM      3  C   UNL     1       3.483   2.617   7.066  1.00  0.00     0.020 A 
ATOM      4  C   UNL     1       4.608   1.942   7.416  1.00  0.00     0.005 A 
ATOM      5  C   UNL     1       4.831   0.907   5.166  1.00  0.00     0.161 A 
ATOM      6  C   UNL     1       5.314   1.084   6.522  1.00  0.00     0.050 A 
ENDROOT
BRANCH   1   7
ATOM      7  C   UNL     1       2.106   3.573   5.052  1.00  0.00     0.339 C 
ATOM      8  O   UNL     1       0.646   2.890   4.816  1.00  0.00    -0.246 OA
BRANCH   7   9
ATOM      9  O   UNL     1       2.116   4.604   4.837  1.00  0.00    -0.478 OA
ATOM     10  H   UNL     1       2.126   5.573   4.634  1.00  0.00     0.297 HD
ENDBRANCH   7   9
ENDBRANCH   1   7
BRANCH   2  11
ATOM     11  O   UNL     1       2.761   0.905   3.874  1.00  0.00    -0.504 OA
ATOM     12  H   UNL     1       2.235   0.510   3.134  1.00  0.00     0.293 HD
ENDBRANCH   2  11
BRANCH   5  13
ATOM     13  O   UNL     1       5.286  -0.003   4.219  1.00  0.00    -0.493 OA
ATOM     14  C   UNL     1       5.379  -1.104   3.550  1.00  0.00     0.278 C 
ENDBRANCH   5  13
TORSDOF 4
ENDMDL
MODEL 5
REMARK VINA RESULT:    -4.557      1.839      4.664
REMARK INTER + INTRA:          -5.785
REMARK INTER:                  -5.370
REMARK INTRA:                  -0.415
REMARK UNBOUND:                -0.429
REMARK SMILES COc1cccc(C(=O)O)c1O
REMARK SMILES IDX 7 1 11 2 6 3 5 4 3 5 4 6 8 7 9 8 10 9 12 11 2 13 1 14
REMARK H PARENT 10 10 12 12
ROOT
ATOM      1  C   UNL     1       5.108   0.094   5.056  1.00  0.00     0.105 A 
ATOM      2  C   UNL     1       4.627   1.374   5.037  1.00  0.00     0.172 A 
ATOM      3  C   UNL     1       5.110  -0.616   6.348  1.00  0.00     0.020 A 
ATOM      4  C   UNL     1       4.321  -0.126   7.338  1.00  0.00     0.005 A 
ATOM      5  C   UNL     1       3.597   1.817   5.965  1.00  0.00     0.161 A 
ATOM      6  C   UNL     1       3.553   1.069   7.208  1.00  0.00     0.050 A 
ENDROOT
BRANCH   1   7
ATOM      7  C   UNL     1       5.535  -0.620   3.762  1.00  0.00     0.339 C 
ATOM      8  O   UNL     1       4.550  -0.102   2.572  1.00  0.00    -0.246 OA
BRANCH   7   9
ATOM      9  O   UNL     1       6.308  -1.244   3.412  1.00  0.00    -0.478 OA
ATOM     10  H   UNL     1       7.035  -1.831   3.083  1.00  0.00     0.297 HD
ENDBRANCH   7   9
ENDBRANCH   1   7
BRANCH   2  11
ATOM     11  O   UNL     1       5.091   2.317   4.103  1.00  0.00    -0.504 OA
ATOM     12  H   UNL     1       5.418   2.980   3.445  1.00  0.00     0.293 HD
ENDBRANCH   2  11
BRANCH   5  13
ATOM     13  O   UNL     1       3.055   3.071   5.716  1.00  0.00    -0.493 OA
ATOM     14  C   UNL     1       2.192   3.964   5.358  1.00  0.00     0.278 C 
ENDBRANCH   5  13
TORSDOF 4
ENDMDL
MODEL 6
REMARK VINA RESULT:    -4.039      2.411      4.704
REMARK INTER + INTRA:          -5.176
REMARK INTER:                  -4.847
REMARK INTRA:                  -0.329
REMARK UNBOUND:                -0.429
REMARK SMILES COc1cccc(C(=O)O)c1O
REMARK SMILES IDX 7 1 11 2 6 3 5 4 3 5 4 6 8 7 9 8 10 9 12 11 2 13 1 14
REMARK H PARENT 10 10 12 12
ROOT
ATOM      1  C   UNL     1       4.960  -0.235   6.084  1.00  0.00     0.105 A 
ATOM      2  C   UNL     1       4.066   0.786   6.254  1.00  0.00     0.172 A 
ATOM      3  C   UNL     1       5.204  -0.707   4.708  1.00  0.00     0.020 A 
ATOM      4  C   UNL     1       4.833   0.107   3.686  1.00  0.00     0.005 A 
ATOM      5  C   UNL     1       3.855   1.797   5.227  1.00  0.00     0.161 A 
ATOM      6  C   UNL     1       4.165   1.351   3.881  1.00  0.00     0.050 A 
ENDROOT
BRANCH   1   7
ATOM      7  C   UNL     1       5.763  -0.801   7.267  1.00  0.00     0.339 C 
ATOM      8  O   UNL     1       6.256   0.461   8.170  1.00  0.00    -0.246 OA
BRANCH   7   9
ATOM      9  O   UNL     1       5.994  -1.732   7.702  1.00  0.00    -0.478 OA
ATOM     10  H   UNL     1       6.211  -2.608   8.111  1.00  0.00     0.297 HD
ENDBRANCH   7   9
ENDBRANCH   1   7
BRANCH   2  11
ATOM     11  O   UNL     1       3.325   0.919   7.441  1.00  0.00    -0.504 OA
ATOM     12  H   UNL     1       2.802   1.012   8.277  1.00  0.00     0.293 HD
ENDBRANCH   2  11
BRANCH   5  13
ATOM     13  O   UNL     1       3.074   2.884   5.598  1.00  0.00    -0.493 OA
ATOM     14  C   UNL     1       2.253   3.875   5.485  1.00  0.00     0.278 C 
ENDBRANCH   5  13
TORSDOF 4
ENDMDL
MODEL 7
REMARK VINA RESULT:    -4.035      2.164      3.107
REMARK INTER + INTRA:          -5.171
REMARK INTER:                  -4.906
REMARK INTRA:                  -0.265
REMARK UNBOUND:                -0.429
REMARK SMILES COc1cccc(C(=O)O)c1O
REMARK SMILES IDX 7 1 11 2 6 3 5 4 3 5 4 6 8 7 9 8 10 9 12 11 2 13 1 14
REMARK H PARENT 10 10 12 12
ROOT
ATOM      1  C   UNL     1       4.551   3.664   5.550  1.00  0.00     0.105 A 
ATOM      2  C   UNL     1       4.997   2.589   4.831  1.00  0.00     0.172 A 
ATOM      3  C   UNL     1       3.100   3.921   5.567  1.00  0.00     0.020 A 
ATOM      4  C   UNL     1       2.275   2.907   5.198  1.00  0.00     0.005 A 
ATOM      5  C   UNL     1       4.175   1.401   4.646  1.00  0.00     0.161 A 
ATOM      6  C   UNL     1       2.748   1.645   4.734  1.00  0.00     0.050 A 
ENDROOT
BRANCH   1   7
ATOM      7  C   UNL     1       5.514   4.515   6.397  1.00  0.00     0.339 C 
ATOM      8  O   UNL     1       6.447   3.488   7.251  1.00  0.00    -0.246 OA
BRANCH   7   9
ATOM      9  O   UNL     1       5.802   5.521   6.508  1.00  0.00    -0.478 OA
ATOM     10  H   UNL     1       6.073   6.468   6.614  1.00  0.00     0.297 HD
ENDBRANCH   7   9
ENDBRANCH   1   7
BRANCH   2  11
ATOM     11  O   UNL     1       6.279   2.574   4.256  1.00  0.00    -0.504 OA
ATOM     12  H   UNL     1       7.182   2.563   3.850  1.00  0.00     0.293 HD
ENDBRANCH   2  11
BRANCH   5  13
ATOM     13  O   UNL     1       4.812   0.309   4.070  1.00  0.00    -0.493 OA
ATOM     14  C   UNL     1       5.333  -0.869   3.969  1.00  0.00     0.278 C 
ENDBRANCH   5  13
TORSDOF 4
ENDMDL
MODEL 8
REMARK VINA RESULT:    -3.902      2.291      4.417
REMARK INTER + INTRA:          -5.015
REMARK INTER:                  -4.573
REMARK INTRA:                  -0.442
REMARK UNBOUND:                -0.429
REMARK SMILES COc1cccc(C(=O)O)c1O
REMARK SMILES IDX 7 1 11 2 6 3 5 4 3 5 4 6 8 7 9 8 10 9 12 11 2 13 1 14
REMARK H PARENT 10 10 12 12
ROOT
ATOM      1  C   UNL     1       4.203   1.478   4.688  1.00  0.00     0.105 A 
ATOM      2  C   UNL     1       4.978   2.348   5.404  1.00  0.00     0.172 A 
ATOM      3  C   UNL     1       2.743   1.681   4.717  1.00  0.00     0.020 A 
ATOM      4  C   UNL     1       2.281   2.891   5.127  1.00  0.00     0.005 A 
ATOM      5  C   UNL     1       4.569   3.726   5.633  1.00  0.00     0.161 A 
ATOM      6  C   UNL     1       3.133   3.936   5.590  1.00  0.00     0.050 A 
ENDROOT
BRANCH   1   7
ATOM      7  C   UNL     1       4.831   0.392   3.797  1.00  0.00     0.339 C 
ATOM      8  O   UNL     1       5.806  -0.508   4.742  1.00  0.00    -0.246 OA
BRANCH   7   9
ATOM      9  O   UNL     1       4.744   0.014   2.818  1.00  0.00    -0.478 OA
ATOM     10  H   UNL     1       4.662  -0.342   1.898  1.00  0.00     0.297 HD
ENDBRANCH   7   9
ENDBRANCH   1   7
BRANCH   2  11
ATOM     11  O   UNL     1       6.218   1.954   5.936  1.00  0.00    -0.504 OA
ATOM     12  H   UNL     1       7.092   1.677   6.310  1.00  0.00     0.293 HD
ENDBRANCH   2  11
BRANCH   5  13
ATOM     13  O   UNL     1       5.527   4.556   6.200  1.00  0.00    -0.493 OA
ATOM     14  C   UNL     1       6.114   5.295   7.083  1.00  0.00     0.278 C 
ENDBRANCH   5  13
TORSDOF 4
ENDMDL
MODEL 9
REMARK VINA RESULT:    -3.808      2.236      2.802
REMARK INTER + INTRA:          -4.905
REMARK INTER:                  -4.636
REMARK INTRA:                  -0.269
REMARK UNBOUND:                -0.429
REMARK SMILES COc1cccc(C(=O)O)c1O
REMARK SMILES IDX 7 1 11 2 6 3 5 4 3 5 4 6 8 7 9 8 10 9 12 11 2 13 1 14
REMARK H PARENT 10 10 12 12
ROOT
ATOM      1  C   UNL     1       3.726   1.838   5.414  1.00  0.00     0.105 A 
ATOM      2  C   UNL     1       4.552   1.326   6.377  1.00  0.00     0.172 A 
ATOM      3  C   UNL     1       3.901   1.350   4.034  1.00  0.00     0.020 A 
ATOM      4  C   UNL     1       4.587   0.192   3.856  1.00  0.00     0.005 A 
ATOM      5  C   UNL     1       5.091  -0.023   6.281  1.00  0.00     0.161 A 
ATOM      6  C   UNL     1       5.196  -0.528   4.925  1.00  0.00     0.050 A 
ENDROOT
BRANCH   1   7
ATOM      7  C   UNL     1       2.586   2.808   5.770  1.00  0.00     0.339 C 
ATOM      8  O   UNL     1       1.387   2.566   4.694  1.00  0.00    -0.246 OA
BRANCH   7   9
ATOM      9  O   UNL     1       2.324   3.484   6.533  1.00  0.00    -0.478 OA
ATOM     10  H   UNL     1       2.077   4.120   7.251  1.00  0.00     0.297 HD
ENDBRANCH   7   9
ENDBRANCH   1   7
BRANCH   2  11
ATOM     11  O   UNL     1       4.899   2.073   7.516  1.00  0.00    -0.504 OA
ATOM     12  H   UNL     1       5.144   2.599   8.318  1.00  0.00     0.293 HD
ENDBRANCH   2  11
BRANCH   5  13
ATOM     13  O   UNL     1       5.750  -0.493   7.411  1.00  0.00    -0.493 OA
ATOM     14  C   UNL     1       6.388  -1.308   8.185  1.00  0.00     0.278 C 
ENDBRANCH   5  13
TORSDOF 4
ENDMDL
