MODEL 1
REMARK VINA RESULT:    -4.888      0.000      0.000
REMARK INTER + INTRA:          -6.181
REMARK INTER:                  -5.746
REMARK INTRA:                  -0.436
REMARK UNBOUND:                -0.436
REMARK SMILES COc1cccc(C(=O)O)c1O
REMARK SMILES IDX 7 1 11 2 6 3 5 4 3 5 4 6 8 7 9 8 10 9 12 11 2 13 1 14
REMARK H PARENT 10 10 12 12
ROOT
ATOM      1  C   UNL     1       5.259   2.476  -3.371  1.00  0.00     0.105 A 
ATOM      2  C   UNL     1       5.557   1.204  -2.967  1.00  0.00     0.172 A 
ATOM      3  C   UNL     1       5.456   2.805  -4.795  1.00  0.00     0.020 A 
ATOM      4  C   UNL     1       5.559   1.774  -5.672  1.00  0.00     0.005 A 
ATOM      5  C   UNL     1       5.431   0.067  -3.869  1.00  0.00     0.161 A 
ATOM      6  C   UNL     1       5.555   0.405  -5.274  1.00  0.00     0.050 A 
ENDROOT
BRANCH   1   7
ATOM      7  C   UNL     1       4.640   3.499  -2.402  1.00  0.00     0.339 C 
ATOM      8  O   UNL     1       4.237   2.699  -1.042  1.00  0.00    -0.246 OA
BRANCH   7   9
ATOM      9  O   UNL     1       4.497   4.539  -2.325  1.00  0.00    -0.478 OA
ATOM     10  H   UNL     1       4.363   5.517  -2.252  1.00  0.00     0.297 HD
ENDBRANCH   7   9
ENDBRANCH   1   7
BRANCH   2  11
ATOM     11  O   UNL     1       5.979   0.933  -1.654  1.00  0.00    -0.504 OA
ATOM     12  H   UNL     1       6.277   0.742  -0.730  1.00  0.00     0.293 HD
ENDBRANCH   2  11
BRANCH   5  13
ATOM     13  O   UNL     1       5.572  -1.186  -3.286  1.00  0.00    -0.493 OA
ATOM     14  C   UNL     1       5.989  -2.397  -3.112  1.00  0.00     0.278 C 
ENDBRANCH   5  13
TORSDOF 4
ENDMDL
MODEL 2
REMARK VINA RESULT:    -4.853      1.767      4.661
REMARK INTER + INTRA:          -6.139
REMARK INTER:                  -5.663
REMARK INTRA:                  -0.477
REMARK UNBOUND:                -0.436
REMARK SMILES COc1cccc(C(=O)O)c1O
REMARK SMILES IDX 7 1 11 2 6 3 5 4 3 5 4 6 8 7 9 8 10 9 12 11 2 13 1 14
REMARK H PARENT 10 10 12 12
ROOT
ATOM      1  C   UNL     1       6.460  -0.909  -3.291  1.00  0.00     0.105 A 
ATOM      2  C   UNL     1       5.707   0.232  -3.245  1.00  0.00     0.172 A 
ATOM      3  C   UNL     1       7.920  -0.772  -3.141  1.00  0.00     0.020 A 
ATOM      4  C   UNL     1       8.393   0.385  -2.610  1.00  0.00     0.005 A 
ATOM      5  C   UNL     1       6.123   1.390  -2.467  1.00  0.00     0.161 A 
ATOM      6  C   UNL     1       7.556   1.485  -2.260  1.00  0.00     0.050 A 
ENDROOT
BRANCH   1   7
ATOM      7  C   UNL     1       5.803  -2.297  -3.390  1.00  0.00     0.339 C 
ATOM      8  O   UNL     1       4.238  -2.127  -2.973  1.00  0.00    -0.246 OA
BRANCH   7   9
ATOM      9  O   UNL     1       6.035  -3.267  -3.729  1.00  0.00    -0.478 OA
ATOM     10  H   UNL     1       6.252  -4.179  -4.048  1.00  0.00     0.297 HD
ENDBRANCH   7   9
ENDBRANCH   1   7
BRANCH   2  11
ATOM     11  O   UNL     1       4.484   0.330  -3.931  1.00  0.00    -0.504 OA
ATOM     12  H   UNL     1       3.623   0.399  -4.414  1.00  0.00     0.293 HD
ENDBRANCH   2  11
BRANCH   5  13
ATOM     13  O   UNL     1       5.183   2.405  -2.342  1.00  0.00    -0.493 OA
ATOM     14  C   UNL     1       4.588   3.532  -2.555  1.00  0.00     0.278 C 
ENDBRANCH   5  13
TORSDOF 4
ENDMDL
MODEL 3
REMARK VINA RESULT:    -4.714      2.976      4.451
REMARK INTER + INTRA:          -5.976
REMARK INTER:                  -5.706
REMARK INTRA:                  -0.270
REMARK UNBOUND:                -0.436
REMARK SMILES COc1cccc(C(=O)O)c1O
REMARK SMILES IDX 7 1 11 2 6 3 5 4 3 5 4 6 8 7 9 8 10 9 12 11 2 13 1 14
REMARK H PARENT 10 10 12 12
ROOT
ATOM      1  C   UNL     1       6.295  -0.758  -3.198  1.00  0.00     0.105 A 
ATOM      2  C   UNL     1       7.565  -0.386  -3.543  1.00  0.00     0.172 A 
ATOM      3  C   UNL     1       5.263   0.293  -3.152  1.00  0.00     0.020 A 
ATOM      4  C   UNL     1       5.524   1.463  -3.792  1.00  0.00     0.005 A 
ATOM      5  C   UNL     1       7.816   0.740  -4.432  1.00  0.00     0.161 A 
ATOM      6  C   UNL     1       6.764   1.739  -4.439  1.00  0.00     0.050 A 
ENDROOT
BRANCH   1   7
ATOM      7  C   UNL     1       5.929  -2.235  -2.968  1.00  0.00     0.339 C 
ATOM      8  O   UNL     1       4.313  -2.367  -3.130  1.00  0.00    -0.246 OA
BRANCH   7   9
ATOM      9  O   UNL     1       6.406  -3.165  -2.841  1.00  0.00    -0.478 OA
ATOM     10  H   UNL     1       6.854  -4.040  -2.721  1.00  0.00     0.297 HD
ENDBRANCH   7   9
ENDBRANCH   1   7
BRANCH   2  11
ATOM     11  O   UNL     1       8.688  -1.088  -3.071  1.00  0.00    -0.504 OA
ATOM     12  H   UNL     1       9.478  -1.582  -2.738  1.00  0.00     0.293 HD
ENDBRANCH   2  11
BRANCH   5  13
ATOM     13  O   UNL     1       9.129   0.892  -4.861  1.00  0.00    -0.493 OA
ATOM     14  C   UNL     1      10.130   0.989  -5.671  1.00  0.00     0.278 C 
ENDBRANCH   5  13
TORSDOF 4
ENDMDL
MODEL 4
REMARK VINA RESULT:    -4.684      2.161      3.200
REMARK INTER + INTRA:          -5.941
REMARK INTER:                  -5.671
REMARK INTRA:                  -0.271
REMARK UNBOUND:                -0.436
REMARK SMILES COc1cccc(C(=O)O)c1O
REMARK SMILES IDX 7 1 11 2 6 3 5 4 3 5 4 6 8 7 9 8 10 9 12 11 2 13 1 14
REMARK H PARENT 10 10 12 12
ROOT
ATOM      1  C   UNL     1       5.283   2.227  -3.223  1.00  0.00     0.105 A 
ATOM      2  C   UNL     1       5.936   2.446  -4.405  1.00  0.00     0.172 A 
ATOM      3  C   UNL     1       5.395   0.887  -2.619  1.00  0.00     0.020 A 
ATOM      4  C   UNL     1       6.402   0.083  -3.048  1.00  0.00     0.005 A 
ATOM      5  C   UNL     1       7.161   1.736  -4.744  1.00  0.00     0.161 A 
ATOM      6  C   UNL     1       7.302   0.447  -4.092  1.00  0.00     0.050 A 
ENDROOT
BRANCH   1   7
ATOM      7  C   UNL     1       4.546   3.363  -2.493  1.00  0.00     0.339 C 
ATOM      8  O   UNL     1       4.295   2.875  -0.960  1.00  0.00    -0.246 OA
BRANCH   7   9
ATOM      9  O   UNL     1       4.256   4.362  -2.659  1.00  0.00    -0.478 OA
ATOM     10  H   UNL     1       3.984   5.301  -2.814  1.00  0.00     0.297 HD
ENDBRANCH   7   9
ENDBRANCH   1   7
BRANCH   2  11
ATOM     11  O   UNL     1       5.464   3.385  -5.338  1.00  0.00    -0.504 OA
ATOM     12  H   UNL     1       5.132   4.047  -5.996  1.00  0.00     0.293 HD
ENDBRANCH   2  11
BRANCH   5  13
ATOM     13  O   UNL     1       7.830   2.188  -5.874  1.00  0.00    -0.493 OA
ATOM     14  C   UNL     1       8.774   2.696  -6.596  1.00  0.00     0.278 C 
ENDBRANCH   5  13
TORSDOF 4
ENDMDL
MODEL 5
REMARK VINA RESULT:    -4.575      1.486      4.280
REMARK INTER + INTRA:          -5.813
REMARK INTER:                  -5.469
REMARK INTRA:                  -0.345
REMARK UNBOUND:                -0.436
REMARK SMILES COc1cccc(C(=O)O)c1O
REMARK SMILES IDX 7 1 11 2 6 3 5 4 3 5 4 6 8 7 9 8 10 9 12 11 2 13 1 14
REMARK H PARENT 10 10 12 12
ROOT
ATOM      1  C   UNL     1       5.711  -0.804  -3.629  1.00  0.00     0.105 A 
ATOM      2  C   UNL     1       5.151   0.342  -3.134  1.00  0.00     0.172 A 
ATOM      3  C   UNL     1       6.543  -0.691  -4.840  1.00  0.00     0.020 A 
ATOM      4  C   UNL     1       7.004   0.542  -5.176  1.00  0.00     0.005 A 
ATOM      5  C   UNL     1       5.792   1.639  -3.302  1.00  0.00     0.161 A 
ATOM      6  C   UNL     1       6.667   1.725  -4.456  1.00  0.00     0.050 A 
ENDROOT
BRANCH   1   7
ATOM      7  C   UNL     1       5.567  -2.147  -2.892  1.00  0.00     0.339 C 
ATOM      8  O   UNL     1       4.007  -2.602  -3.008  1.00  0.00    -0.246 OA
BRANCH   7   9
ATOM      9  O   UNL     1       6.175  -2.878  -2.440  1.00  0.00    -0.478 OA
ATOM     10  H   UNL     1       6.747  -3.565  -2.014  1.00  0.00     0.297 HD
ENDBRANCH   7   9
ENDBRANCH   1   7
BRANCH   2  11
ATOM     11  O   UNL     1       3.941   0.317  -2.420  1.00  0.00    -0.504 OA
ATOM     12  H   UNL     1       3.088   0.298  -1.918  1.00  0.00     0.293 HD
ENDBRANCH   2  11
BRANCH   5  13
ATOM     13  O   UNL     1       5.230   2.689  -2.588  1.00  0.00    -0.493 OA
ATOM     14  C   UNL     1       4.531   3.750  -2.350  1.00  0.00     0.278 C 
ENDBRANCH   5  13
TORSDOF 4
ENDMDL
MODEL 6
REMARK VINA RESULT:    -4.554      1.464      1.538
REMARK INTER + INTRA:          -5.788
REMARK INTER:                  -5.473
REMARK INTRA:                  -0.315
REMARK UNBOUND:                -0.436
REMARK SMILES COc1cccc(C(=O)O)c1O
REMARK SMILES IDX 7 1 11 2 6 3 5 4 3 5 4 6 8 7 9 8 10 9 12 11 2 13 1 14
REMARK H PARENT 10 10 12 12
ROOT
ATOM      1  C   UNL     1       5.606   2.147  -2.514  1.00  0.00     0.105 A 
ATOM      2  C   UNL     1       5.456   0.788  -2.505  1.00  0.00     0.172 A 
ATOM      3  C   UNL     1       6.931   2.686  -2.873  1.00  0.00     0.020 A 
ATOM      4  C   UNL     1       7.796   1.858  -3.516  1.00  0.00     0.005 A 
ATOM      5  C   UNL     1       6.234  -0.073  -3.384  1.00  0.00     0.161 A 
ATOM      6  C   UNL     1       7.508   0.490  -3.794  1.00  0.00     0.050 A 
ENDROOT
BRANCH   1   7
ATOM      7  C   UNL     1       4.414   3.087  -2.264  1.00  0.00     0.339 C 
ATOM      8  O   UNL     1       4.034   2.980  -0.683  1.00  0.00    -0.246 OA
BRANCH   7   9
ATOM      9  O   UNL     1       3.858   3.823  -2.771  1.00  0.00    -0.478 OA
ATOM     10  H   UNL     1       3.334   4.515  -3.248  1.00  0.00     0.297 HD
ENDBRANCH   7   9
ENDBRANCH   1   7
BRANCH   2  11
ATOM     11  O   UNL     1       4.524   0.161  -1.660  1.00  0.00    -0.504 OA
ATOM     12  H   UNL     1       3.868  -0.281  -1.065  1.00  0.00     0.293 HD
ENDBRANCH   2  11
BRANCH   5  13
ATOM     13  O   UNL     1       5.850  -1.407  -3.421  1.00  0.00    -0.493 OA
ATOM     14  C   UNL     1       5.872  -2.677  -3.182  1.00  0.00     0.278 C 
ENDBRANCH   5  13
TORSDOF 4
ENDMDL
MODEL 7
REMARK VINA RESULT:    -4.140      2.406      4.682
REMARK INTER + INTRA:          -5.302
REMARK INTER:                  -4.990
REMARK INTRA:                  -0.312
REMARK UNBOUND:                -0.436
REMARK SMILES COc1cccc(C(=O)O)c1O
REMARK SMILES IDX 7 1 11 2 6 3 5 4 3 5 4 6 8 7 9 8 10 9 12 11 2 13 1 14
REMARK H PARENT 10 10 12 12
ROOT
ATOM      1  C   UNL     1       7.572  -0.536  -3.071  1.00  0.00     0.105 A 
ATOM      2  C   UNL     1       7.073   0.668  -2.657  1.00  0.00     0.172 A 
ATOM      3  C   UNL     1       6.631  -1.667  -3.177  1.00  0.00     0.020 A 
ATOM      4  C   UNL     1       5.304  -1.381  -3.220  1.00  0.00     0.005 A 
ATOM      5  C   UNL     1       5.696   1.057  -2.926  1.00  0.00     0.161 A 
ATOM      6  C   UNL     1       4.785  -0.058  -3.100  1.00  0.00     0.050 A 
ENDROOT
BRANCH   1   7
ATOM      7  C   UNL     1       9.038  -0.686  -3.514  1.00  0.00     0.339 C 
ATOM      8  O   UNL     1       9.397   0.598  -4.451  1.00  0.00    -0.246 OA
BRANCH   7   9
ATOM      9  O   UNL     1       9.873  -1.296  -3.317  1.00  0.00    -0.478 OA
ATOM     10  H   UNL     1      10.658  -1.871  -3.131  1.00  0.00     0.297 HD
ENDBRANCH   7   9
ENDBRANCH   1   7
BRANCH   2  11
ATOM     11  O   UNL     1       7.876   1.595  -1.970  1.00  0.00    -0.504 OA
ATOM     12  H   UNL     1       8.441   2.248  -1.486  1.00  0.00     0.293 HD
ENDBRANCH   2  11
BRANCH   5  13
ATOM     13  O   UNL     1       5.371   2.375  -2.631  1.00  0.00    -0.493 OA
ATOM     14  C   UNL     1       4.679   3.465  -2.580  1.00  0.00     0.278 C 
ENDBRANCH   5  13
TORSDOF 4
ENDMDL
MODEL 8
REMARK VINA RESULT:    -4.065      2.211      3.136
REMARK INTER + INTRA:          -5.213
REMARK INTER:                  -4.887
REMARK INTRA:                  -0.327
REMARK UNBOUND:                -0.436
REMARK SMILES COc1cccc(C(=O)O)c1O
REMARK SMILES IDX 7 1 11 2 6 3 5 4 3 5 4 6 8 7 9 8 10 9 12 11 2 13 1 14
REMARK H PARENT 10 10 12 12
ROOT
ATOM      1  C   UNL     1       5.571   2.374  -4.578  1.00  0.00     0.105 A 
ATOM      2  C   UNL     1       5.673   1.014  -4.476  1.00  0.00     0.172 A 
ATOM      3  C   UNL     1       5.000   3.105  -3.432  1.00  0.00     0.020 A 
ATOM      4  C   UNL     1       4.953   2.465  -2.235  1.00  0.00     0.005 A 
ATOM      5  C   UNL     1       5.863   0.357  -3.190  1.00  0.00     0.161 A 
ATOM      6  C   UNL     1       5.363   1.112  -2.056  1.00  0.00     0.050 A 
ENDROOT
BRANCH   1   7
ATOM      7  C   UNL     1       6.128   3.129  -5.798  1.00  0.00     0.339 C 
ATOM      8  O   UNL     1       7.568   2.463  -6.167  1.00  0.00    -0.246 OA
BRANCH   7   9
ATOM      9  O   UNL     1       5.819   3.854  -6.497  1.00  0.00    -0.478 OA
ATOM     10  H   UNL     1       5.529   4.535  -7.154  1.00  0.00     0.297 HD
ENDBRANCH   7   9
ENDBRANCH   1   7
BRANCH   2  11
ATOM     11  O   UNL     1       5.620   0.189  -5.612  1.00  0.00    -0.504 OA
ATOM     12  H   UNL     1       5.583  -0.393  -6.412  1.00  0.00     0.293 HD
ENDBRANCH   2  11
BRANCH   5  13
ATOM     13  O   UNL     1       6.149  -1.001  -3.241  1.00  0.00    -0.493 OA
ATOM     14  C   UNL     1       5.959  -2.278  -3.181  1.00  0.00     0.278 C 
ENDBRANCH   5  13
TORSDOF 4
ENDMDL
MODEL 9
REMARK VINA RESULT:    -3.885      2.270      4.439
REMARK INTER + INTRA:          -5.002
REMARK INTER:                  -4.519
REMARK INTRA:                  -0.483
REMARK UNBOUND:                -0.436
REMARK SMILES COc1cccc(C(=O)O)c1O
REMARK SMILES IDX 7 1 11 2 6 3 5 4 3 5 4 6 8 7 9 8 10 9 12 11 2 13 1 14
REMARK H PARENT 10 10 12 12
ROOT
ATOM      1  C   UNL     1       5.656   0.386  -3.161  1.00  0.00     0.105 A 
ATOM      2  C   UNL     1       6.175   1.105  -4.203  1.00  0.00     0.172 A 
ATOM      3  C   UNL     1       5.100   1.139  -2.022  1.00  0.00     0.020 A 
ATOM      4  C   UNL     1       4.799   2.448  -2.217  1.00  0.00     0.005 A 
ATOM      5  C   UNL     1       5.669   2.426  -4.546  1.00  0.00     0.161 A 
ATOM      6  C   UNL     1       5.057   3.136  -3.439  1.00  0.00     0.050 A 
ENDROOT
BRANCH   1   7
ATOM      7  C   UNL     1       5.558  -1.148  -3.218  1.00  0.00     0.339 C 
ATOM      8  O   UNL     1       5.817  -1.596  -4.763  1.00  0.00    -0.246 OA
BRANCH   7   9
ATOM      9  O   UNL     1       5.474  -1.967  -2.561  1.00  0.00    -0.478 OA
ATOM     10  H   UNL     1       5.394  -2.737  -1.944  1.00  0.00     0.297 HD
ENDBRANCH   7   9
ENDBRANCH   1   7
BRANCH   2  11
ATOM     11  O   UNL     1       7.209   0.590  -5.004  1.00  0.00    -0.504 OA
ATOM     12  H   UNL     1       7.936   0.227  -5.569  1.00  0.00     0.293 HD
ENDBRANCH   2  11
BRANCH   5  13
ATOM     13  O   UNL     1       6.139   2.964  -5.738  1.00  0.00    -0.493 OA
ATOM     14  C   UNL     1       6.417   3.851  -6.635  1.00  0.00     0.278 C 
ENDBRANCH   5  13
TORSDOF 4
ENDMDL
