MODEL 1
REMARK VINA RESULT:    -4.889      0.000      0.000
REMARK INTER + INTRA:          -6.229
REMARK INTER:                  -5.746
REMARK INTRA:                  -0.483
REMARK UNBOUND:                -0.483
REMARK SMILES COc1cccc(C(=O)O)c1O
REMARK SMILES IDX 7 1 11 2 6 3 5 4 3 5 4 6 8 7 9 8 10 9 12 11 2 13 1 14
REMARK H PARENT 10 10 12 12
ROOT
ATOM      1  C   UNL     1      -7.985   0.066   0.797  1.00  0.00     0.105 A 
ATOM      2  C   UNL     1      -7.482   0.333  -0.447  1.00  0.00     0.172 A 
ATOM      3  C   UNL     1      -9.079  -0.919   0.894  1.00  0.00     0.020 A 
ATOM      4  C   UNL     1      -9.271  -1.755  -0.158  1.00  0.00     0.005 A 
ATOM      5  C   UNL     1      -7.483  -0.669  -1.503  1.00  0.00     0.161 A 
ATOM      6  C   UNL     1      -8.516  -1.679  -1.365  1.00  0.00     0.050 A 
ENDROOT
BRANCH   1   7
ATOM      7  C   UNL     1      -7.366   0.686   2.061  1.00  0.00     0.339 C 
ATOM      8  O   UNL     1      -5.932   1.332   1.635  1.00  0.00    -0.246 OA
BRANCH   7   9
ATOM      9  O   UNL     1      -7.630   0.895   3.059  1.00  0.00    -0.478 OA
ATOM     10  H   UNL     1      -7.878   1.091   3.997  1.00  0.00     0.297 HD
ENDBRANCH   7   9
ENDBRANCH   1   7
BRANCH   2  11
ATOM     11  O   UNL     1      -6.921   1.584  -0.755  1.00  0.00    -0.504 OA
ATOM     12  H   UNL     1      -6.525   2.465  -0.973  1.00  0.00     0.293 HD
ENDBRANCH   2  11
BRANCH   5  13
ATOM     13  O   UNL     1      -6.769  -0.342  -2.649  1.00  0.00    -0.493 OA
ATOM     14  C   UNL     1      -6.347  -0.408  -3.868  1.00  0.00     0.278 C 
ENDBRANCH   5  13
TORSDOF 4
ENDMDL
MODEL 2
REMARK VINA RESULT:    -4.852      1.759      4.697
REMARK INTER + INTRA:          -6.186
REMARK INTER:                  -5.700
REMARK INTRA:                  -0.486
REMARK UNBOUND:                -0.483
REMARK SMILES COc1cccc(C(=O)O)c1O
REMARK SMILES IDX 7 1 11 2 6 3 5 4 3 5 4 6 8 7 9 8 10 9 12 11 2 13 1 14
REMARK H PARENT 10 10 12 12
ROOT
ATOM      1  C   UNL     1      -7.333   0.106  -2.798  1.00  0.00     0.105 A 
ATOM      2  C   UNL     1      -7.263  -0.098  -1.447  1.00  0.00     0.172 A 
ATOM      3  C   UNL     1      -8.269   1.136  -3.285  1.00  0.00     0.020 A 
ATOM      4  C   UNL     1      -8.719   2.054  -2.391  1.00  0.00     0.005 A 
ATOM      5  C   UNL     1      -7.521   0.975  -0.498  1.00  0.00     0.161 A 
ATOM      6  C   UNL     1      -8.386   2.024  -1.006  1.00  0.00     0.050 A 
ENDROOT
BRANCH   1   7
ATOM      7  C   UNL     1      -6.397  -0.634  -3.769  1.00  0.00     0.339 C 
ATOM      8  O   UNL     1      -5.196  -1.289  -2.884  1.00  0.00    -0.246 OA
BRANCH   7   9
ATOM      9  O   UNL     1      -6.359  -0.914  -4.783  1.00  0.00    -0.478 OA
ATOM     10  H   UNL     1      -6.324  -1.177  -5.737  1.00  0.00     0.297 HD
ENDBRANCH   7   9
ENDBRANCH   1   7
BRANCH   2  11
ATOM     11  O   UNL     1      -6.916  -1.351  -0.913  1.00  0.00    -0.504 OA
ATOM     12  H   UNL     1      -6.672  -2.234  -0.538  1.00  0.00     0.293 HD
ENDBRANCH   2  11
BRANCH   5  13
ATOM     13  O   UNL     1      -7.225   0.694   0.830  1.00  0.00    -0.493 OA
ATOM     14  C   UNL     1      -7.412   0.504   2.095  1.00  0.00     0.278 C 
ENDBRANCH   5  13
TORSDOF 4
ENDMDL
MODEL 3
REMARK VINA RESULT:    -4.681      2.991      4.435
REMARK INTER + INTRA:          -5.985
REMARK INTER:                  -5.716
REMARK INTRA:                  -0.269
REMARK UNBOUND:                -0.483
REMARK SMILES COc1cccc(C(=O)O)c1O
REMARK SMILES IDX 7 1 11 2 6 3 5 4 3 5 4 6 8 7 9 8 10 9 12 11 2 13 1 14
REMARK H PARENT 10 10 12 12
ROOT
ATOM      1  C   UNL     1      -7.248   0.037  -2.562  1.00  0.00     0.105 A 
ATOM      2  C   UNL     1      -8.461   0.600  -2.848  1.00  0.00     0.172 A 
ATOM      3  C   UNL     1      -6.965  -0.297  -1.154  1.00  0.00     0.020 A 
ATOM      4  C   UNL     1      -8.017  -0.375  -0.300  1.00  0.00     0.005 A 
ATOM      5  C   UNL     1      -9.644   0.312  -2.050  1.00  0.00     0.161 A 
ATOM      6  C   UNL     1      -9.359  -0.085  -0.684  1.00  0.00     0.050 A 
ENDROOT
BRANCH   1   7
ATOM      7  C   UNL     1      -6.255  -0.335  -3.677  1.00  0.00     0.339 C 
ATOM      8  O   UNL     1      -5.165  -1.363  -3.036  1.00  0.00    -0.246 OA
BRANCH   7   9
ATOM      9  O   UNL     1      -6.136  -0.205  -4.715  1.00  0.00    -0.478 OA
ATOM     10  H   UNL     1      -6.023  -0.083  -5.691  1.00  0.00     0.297 HD
ENDBRANCH   7   9
ENDBRANCH   1   7
BRANCH   2  11
ATOM     11  O   UNL     1      -8.625   1.468  -3.942  1.00  0.00    -0.504 OA
ATOM     12  H   UNL     1      -8.740   2.079  -4.712  1.00  0.00     0.293 HD
ENDBRANCH   2  11
BRANCH   5  13
ATOM     13  O   UNL     1     -10.847   0.786  -2.558  1.00  0.00    -0.493 OA
ATOM     14  C   UNL     1     -12.098   0.803  -2.882  1.00  0.00     0.278 C 
ENDBRANCH   5  13
TORSDOF 4
ENDMDL
MODEL 4
REMARK VINA RESULT:    -4.650      2.150      3.148
REMARK INTER + INTRA:          -5.948
REMARK INTER:                  -5.683
REMARK INTRA:                  -0.266
REMARK UNBOUND:                -0.483
REMARK SMILES COc1cccc(C(=O)O)c1O
REMARK SMILES IDX 7 1 11 2 6 3 5 4 3 5 4 6 8 7 9 8 10 9 12 11 2 13 1 14
REMARK H PARENT 10 10 12 12
ROOT
ATOM      1  C   UNL     1      -7.762   0.133   0.512  1.00  0.00     0.105 A 
ATOM      2  C   UNL     1      -9.038  -0.316   0.309  1.00  0.00     0.172 A 
ATOM      3  C   UNL     1      -6.908   0.323  -0.675  1.00  0.00     0.020 A 
ATOM      4  C   UNL     1      -7.518   0.401  -1.885  1.00  0.00     0.005 A 
ATOM      5  C   UNL     1      -9.769  -0.015  -0.914  1.00  0.00     0.161 A 
ATOM      6  C   UNL     1      -8.923   0.242  -2.065  1.00  0.00     0.050 A 
ENDROOT
BRANCH   1   7
ATOM      7  C   UNL     1      -7.266   0.529   1.914  1.00  0.00     0.339 C 
ATOM      8  O   UNL     1      -5.896   1.389   1.721  1.00  0.00    -0.246 OA
BRANCH   7   9
ATOM      9  O   UNL     1      -7.591   0.493   2.915  1.00  0.00    -0.478 OA
ATOM     10  H   UNL     1      -7.896   0.460   3.856  1.00  0.00     0.297 HD
ENDBRANCH   7   9
ENDBRANCH   1   7
BRANCH   2  11
ATOM     11  O   UNL     1      -9.711  -1.072   1.284  1.00  0.00    -0.504 OA
ATOM     12  H   UNL     1     -10.186  -1.604   1.972  1.00  0.00     0.293 HD
ENDBRANCH   2  11
BRANCH   5  13
ATOM     13  O   UNL     1     -11.115  -0.356  -0.914  1.00  0.00    -0.493 OA
ATOM     14  C   UNL     1     -12.393  -0.229  -1.064  1.00  0.00     0.278 C 
ENDBRANCH   5  13
TORSDOF 4
ENDMDL
MODEL 5
REMARK VINA RESULT:    -4.489      1.529      4.282
REMARK INTER + INTRA:          -5.759
REMARK INTER:                  -5.384
REMARK INTRA:                  -0.376
REMARK UNBOUND:                -0.483
REMARK SMILES COc1cccc(C(=O)O)c1O
REMARK SMILES IDX 7 1 11 2 6 3 5 4 3 5 4 6 8 7 9 8 10 9 12 11 2 13 1 14
REMARK H PARENT 10 10 12 12
ROOT
ATOM      1  C   UNL     1      -7.269  -0.580  -2.382  1.00  0.00     0.105 A 
ATOM      2  C   UNL     1      -7.036  -0.285  -1.067  1.00  0.00     0.172 A 
ATOM      3  C   UNL     1      -8.640  -0.964  -2.764  1.00  0.00     0.020 A 
ATOM      4  C   UNL     1      -9.645  -0.654  -1.904  1.00  0.00     0.005 A 
ATOM      5  C   UNL     1      -8.075   0.276  -0.214  1.00  0.00     0.161 A 
ATOM      6  C   UNL     1      -9.426  -0.043  -0.634  1.00  0.00     0.050 A 
ENDROOT
BRANCH   1   7
ATOM      7  C   UNL     1      -6.169  -0.418  -3.445  1.00  0.00     0.339 C 
ATOM      8  O   UNL     1      -4.955  -1.429  -3.049  1.00  0.00    -0.246 OA
BRANCH   7   9
ATOM      9  O   UNL     1      -6.019   0.062  -4.370  1.00  0.00    -0.478 OA
ATOM     10  H   UNL     1      -5.877   0.513  -5.240  1.00  0.00     0.297 HD
ENDBRANCH   7   9
ENDBRANCH   1   7
BRANCH   2  11
ATOM     11  O   UNL     1      -5.774  -0.490  -0.483  1.00  0.00    -0.504 OA
ATOM     12  H   UNL     1      -4.885  -0.634  -0.072  1.00  0.00     0.293 HD
ENDBRANCH   2  11
BRANCH   5  13
ATOM     13  O   UNL     1      -7.660   0.714   1.037  1.00  0.00    -0.493 OA
ATOM     14  C   UNL     1      -7.327   0.664   2.285  1.00  0.00     0.278 C 
ENDBRANCH   5  13
TORSDOF 4
ENDMDL
MODEL 6
REMARK VINA RESULT:    -4.022      2.857      4.231
REMARK INTER + INTRA:          -5.210
REMARK INTER:                  -4.818
REMARK INTRA:                  -0.392
REMARK UNBOUND:                -0.483
REMARK SMILES COc1cccc(C(=O)O)c1O
REMARK SMILES IDX 7 1 11 2 6 3 5 4 3 5 4 6 8 7 9 8 10 9 12 11 2 13 1 14
REMARK H PARENT 10 10 12 12
ROOT
ATOM      1  C   UNL     1      -7.009   0.084  -1.971  1.00  0.00     0.105 A 
ATOM      2  C   UNL     1      -8.244   0.521  -2.363  1.00  0.00     0.172 A 
ATOM      3  C   UNL     1      -6.661   0.209  -0.544  1.00  0.00     0.020 A 
ATOM      4  C   UNL     1      -7.676   0.395   0.339  1.00  0.00     0.005 A 
ATOM      5  C   UNL     1      -9.388   0.489  -1.462  1.00  0.00     0.161 A 
ATOM      6  C   UNL     1      -9.038   0.540  -0.055  1.00  0.00     0.050 A 
ENDROOT
BRANCH   1   7
ATOM      7  C   UNL     1      -6.055  -0.611  -2.958  1.00  0.00     0.339 C 
ATOM      8  O   UNL     1      -6.212   0.138  -4.396  1.00  0.00    -0.246 OA
BRANCH   7   9
ATOM      9  O   UNL     1      -5.290  -1.334  -2.953  1.00  0.00    -0.478 OA
ATOM     10  H   UNL     1      -4.569  -2.014  -2.948  1.00  0.00     0.297 HD
ENDBRANCH   7   9
ENDBRANCH   1   7
BRANCH   2  11
ATOM     11  O   UNL     1      -8.471   1.002  -3.664  1.00  0.00    -0.504 OA
ATOM     12  H   UNL     1      -8.631   1.341  -4.581  1.00  0.00     0.293 HD
ENDBRANCH   2  11
BRANCH   5  13
ATOM     13  O   UNL     1     -10.620   0.771  -2.037  1.00  0.00    -0.493 OA
ATOM     14  C   UNL     1     -11.814   0.574  -2.492  1.00  0.00     0.278 C 
ENDBRANCH   5  13
TORSDOF 4
ENDMDL
MODEL 7
REMARK VINA RESULT:    -3.998      2.268      4.646
REMARK INTER + INTRA:          -5.182
REMARK INTER:                  -4.977
REMARK INTRA:                  -0.205
REMARK UNBOUND:                -0.483
REMARK SMILES COc1cccc(C(=O)O)c1O
REMARK SMILES IDX 7 1 11 2 6 3 5 4 3 5 4 6 8 7 9 8 10 9 12 11 2 13 1 14
REMARK H PARENT 10 10 12 12
ROOT
ATOM      1  C   UNL     1      -8.031   0.950  -2.916  1.00  0.00     0.105 A 
ATOM      2  C   UNL     1      -7.862   1.255  -1.593  1.00  0.00     0.172 A 
ATOM      3  C   UNL     1      -7.053   0.038  -3.537  1.00  0.00     0.020 A 
ATOM      4  C   UNL     1      -6.285  -0.721  -2.713  1.00  0.00     0.005 A 
ATOM      5  C   UNL     1      -7.242   0.319  -0.666  1.00  0.00     0.161 A 
ATOM      6  C   UNL     1      -6.334  -0.625  -1.291  1.00  0.00     0.050 A 
ENDROOT
BRANCH   1   7
ATOM      7  C   UNL     1      -9.254   1.451  -3.703  1.00  0.00     0.339 C 
ATOM      8  O   UNL     1     -10.584   0.914  -2.931  1.00  0.00    -0.246 OA
BRANCH   7   9
ATOM      9  O   UNL     1      -9.476   2.096  -4.505  1.00  0.00    -0.478 OA
ATOM     10  H   UNL     1      -9.686   2.703  -5.259  1.00  0.00     0.297 HD
ENDBRANCH   7   9
ENDBRANCH   1   7
BRANCH   2  11
ATOM     11  O   UNL     1      -8.300   2.481  -1.064  1.00  0.00    -0.504 OA
ATOM     12  H   UNL     1      -8.608   3.345  -0.691  1.00  0.00     0.293 HD
ENDBRANCH   2  11
BRANCH   5  13
ATOM     13  O   UNL     1      -7.308   0.664   0.678  1.00  0.00    -0.493 OA
ATOM     14  C   UNL     1      -7.532   0.545   1.945  1.00  0.00     0.278 C 
ENDBRANCH   5  13
TORSDOF 4
ENDMDL
MODEL 8
REMARK VINA RESULT:    -3.990      2.162      3.093
REMARK INTER + INTRA:          -5.172
REMARK INTER:                  -4.968
REMARK INTRA:                  -0.205
REMARK UNBOUND:                -0.483
REMARK SMILES COc1cccc(C(=O)O)c1O
REMARK SMILES IDX 7 1 11 2 6 3 5 4 3 5 4 6 8 7 9 8 10 9 12 11 2 13 1 14
REMARK H PARENT 10 10 12 12
ROOT
ATOM      1  C   UNL     1      -8.731  -0.755   0.575  1.00  0.00     0.105 A 
ATOM      2  C   UNL     1      -8.121  -1.092  -0.602  1.00  0.00     0.172 A 
ATOM      3  C   UNL     1      -7.989   0.117   1.504  1.00  0.00     0.020 A 
ATOM      4  C   UNL     1      -6.939   0.821   1.007  1.00  0.00     0.005 A 
ATOM      5  C   UNL     1      -7.163  -0.205  -1.247  1.00  0.00     0.161 A 
ATOM      6  C   UNL     1      -6.486   0.702  -0.339  1.00  0.00     0.050 A 
ENDROOT
BRANCH   1   7
ATOM      7  C   UNL     1     -10.178  -1.180   0.877  1.00  0.00     0.339 C 
ATOM      8  O   UNL     1     -11.123  -0.555  -0.294  1.00  0.00    -0.246 OA
BRANCH   7   9
ATOM      9  O   UNL     1     -10.704  -1.813   1.534  1.00  0.00    -0.478 OA
ATOM     10  H   UNL     1     -11.198  -2.407   2.153  1.00  0.00     0.297 HD
ENDBRANCH   7   9
ENDBRANCH   1   7
BRANCH   2  11
ATOM     11  O   UNL     1      -8.407  -2.303  -1.254  1.00  0.00    -0.504 OA
ATOM     12  H   UNL     1      -8.609  -3.157  -1.713  1.00  0.00     0.293 HD
ENDBRANCH   2  11
BRANCH   5  13
ATOM     13  O   UNL     1      -6.767  -0.570  -2.527  1.00  0.00    -0.493 OA
ATOM     14  C   UNL     1      -6.490  -0.455  -3.784  1.00  0.00     0.278 C 
ENDBRANCH   5  13
TORSDOF 4
ENDMDL
MODEL 9
REMARK VINA RESULT:    -3.744      2.261      4.449
REMARK INTER + INTRA:          -4.883
REMARK INTER:                  -4.650
REMARK INTRA:                  -0.234
REMARK UNBOUND:                -0.483
REMARK SMILES COc1cccc(C(=O)O)c1O
REMARK SMILES IDX 7 1 11 2 6 3 5 4 3 5 4 6 8 7 9 8 10 9 12 11 2 13 1 14
REMARK H PARENT 10 10 12 12
ROOT
ATOM      1  C   UNL     1      -7.527  -0.149  -1.348  1.00  0.00     0.105 A 
ATOM      2  C   UNL     1      -8.742  -0.538  -0.856  1.00  0.00     0.172 A 
ATOM      3  C   UNL     1      -6.671   0.680  -0.479  1.00  0.00     0.020 A 
ATOM      4  C   UNL     1      -6.954   0.702   0.849  1.00  0.00     0.005 A 
ATOM      5  C   UNL     1      -8.960  -0.741   0.569  1.00  0.00     0.161 A 
ATOM      6  C   UNL     1      -8.068   0.022   1.423  1.00  0.00     0.050 A 
ENDROOT
BRANCH   1   7
ATOM      7  C   UNL     1      -7.021  -0.642  -2.714  1.00  0.00     0.339 C 
ATOM      8  O   UNL     1      -5.457  -1.060  -2.533  1.00  0.00    -0.246 OA
BRANCH   7   9
ATOM      9  O   UNL     1      -7.400  -0.874  -3.669  1.00  0.00    -0.478 OA
ATOM     10  H   UNL     1      -7.756  -1.091  -4.567  1.00  0.00     0.297 HD
ENDBRANCH   7   9
ENDBRANCH   1   7
BRANCH   2  11
ATOM     11  O   UNL     1      -9.833  -0.781  -1.708  1.00  0.00    -0.504 OA
ATOM     12  H   UNL     1     -10.601  -0.953  -2.309  1.00  0.00     0.293 HD
ENDBRANCH   2  11
BRANCH   5  13
ATOM     13  O   UNL     1     -10.171  -1.324   0.920  1.00  0.00    -0.493 OA
ATOM     14  C   UNL     1     -11.396  -1.414   1.321  1.00  0.00     0.278 C 
ENDBRANCH   5  13
TORSDOF 4
ENDMDL
