MODEL 1
REMARK VINA RESULT:    -4.979      0.000      0.000
REMARK INTER + INTRA:          -6.123
REMARK INTER:                  -5.853
REMARK INTRA:                  -0.271
REMARK UNBOUND:                -0.271
REMARK SMILES COc1cccc(C(=O)O)c1O
REMARK SMILES IDX 7 1 11 2 6 3 5 4 3 5 4 6 8 7 9 8 10 9 12 11 2 13 1 14
REMARK H PARENT 10 10 12 12
ROOT
ATOM      1  C   UNL     1      -5.338   4.764   1.238  1.00  0.00     0.105 A 
ATOM      2  C   UNL     1      -6.548   5.042   1.811  1.00  0.00     0.172 A 
ATOM      3  C   UNL     1      -5.268   3.624   0.305  1.00  0.00     0.020 A 
ATOM      4  C   UNL     1      -6.436   3.158  -0.210  1.00  0.00     0.005 A 
ATOM      5  C   UNL     1      -7.801   4.747   1.130  1.00  0.00     0.161 A 
ATOM      6  C   UNL     1      -7.713   3.672   0.160  1.00  0.00     0.050 A 
ENDROOT
BRANCH   1   7
ATOM      7  C   UNL     1      -4.115   5.668   1.472  1.00  0.00     0.339 C 
ATOM      8  O   UNL     1      -3.027   5.327   0.308  1.00  0.00    -0.246 OA
BRANCH   7   9
ATOM      9  O   UNL     1      -3.826   6.478   2.079  1.00  0.00    -0.478 OA
ATOM     10  H   UNL     1      -3.555   7.241   2.649  1.00  0.00     0.297 HD
ENDBRANCH   7   9
ENDBRANCH   1   7
BRANCH   2  11
ATOM     11  O   UNL     1      -6.637   5.646   3.077  1.00  0.00    -0.504 OA
ATOM     12  H   UNL     1      -6.700   6.071   3.969  1.00  0.00     0.293 HD
ENDBRANCH   2  11
BRANCH   5  13
ATOM     13  O   UNL     1      -8.948   5.255   1.726  1.00  0.00    -0.493 OA
ATOM     14  C   UNL     1     -10.015   5.968   1.879  1.00  0.00     0.278 C 
ENDBRANCH   5  13
TORSDOF 4
ENDMDL
MODEL 2
REMARK VINA RESULT:    -4.975      3.088      4.069
REMARK INTER + INTRA:          -6.118
REMARK INTER:                  -5.848
REMARK INTRA:                  -0.270
REMARK UNBOUND:                -0.271
REMARK SMILES COc1cccc(C(=O)O)c1O
REMARK SMILES IDX 7 1 11 2 6 3 5 4 3 5 4 6 8 7 9 8 10 9 12 11 2 13 1 14
REMARK H PARENT 10 10 12 12
ROOT
ATOM      1  C   UNL     1      -6.424   2.191  -0.087  1.00  0.00     0.105 A 
ATOM      2  C   UNL     1      -7.548   2.831  -0.531  1.00  0.00     0.172 A 
ATOM      3  C   UNL     1      -5.509   2.945   0.790  1.00  0.00     0.020 A 
ATOM      4  C   UNL     1      -5.992   4.061   1.395  1.00  0.00     0.005 A 
ATOM      5  C   UNL     1      -8.194   3.874   0.254  1.00  0.00     0.161 A 
ATOM      6  C   UNL     1      -7.306   4.567   1.169  1.00  0.00     0.050 A 
ENDROOT
BRANCH   1   7
ATOM      7  C   UNL     1      -6.171   0.706  -0.401  1.00  0.00     0.339 C 
ATOM      8  O   UNL     1      -5.050   0.170   0.652  1.00  0.00    -0.246 OA
BRANCH   7   9
ATOM      9  O   UNL     1      -6.566  -0.059  -1.006  1.00  0.00    -0.478 OA
ATOM     10  H   UNL     1      -6.937  -0.779  -1.576  1.00  0.00     0.297 HD
ENDBRANCH   7   9
ENDBRANCH   1   7
BRANCH   2  11
ATOM     11  O   UNL     1      -8.145   2.495  -1.758  1.00  0.00    -0.504 OA
ATOM     12  H   UNL     1      -8.565   2.259  -2.623  1.00  0.00     0.293 HD
ENDBRANCH   2  11
BRANCH   5  13
ATOM     13  O   UNL     1      -9.430   4.304  -0.210  1.00  0.00    -0.493 OA
ATOM     14  C   UNL     1     -10.671   4.664  -0.184  1.00  0.00     0.278 C 
ENDBRANCH   5  13
TORSDOF 4
ENDMDL
MODEL 3
REMARK VINA RESULT:    -4.887      2.951      4.320
REMARK INTER + INTRA:          -6.015
REMARK INTER:                  -5.531
REMARK INTRA:                  -0.483
REMARK UNBOUND:                -0.271
REMARK SMILES COc1cccc(C(=O)O)c1O
REMARK SMILES IDX 7 1 11 2 6 3 5 4 3 5 4 6 8 7 9 8 10 9 12 11 2 13 1 14
REMARK H PARENT 10 10 12 12
ROOT
ATOM      1  C   UNL     1      -6.625   2.036  -0.224  1.00  0.00     0.105 A 
ATOM      2  C   UNL     1      -6.046   2.940   0.624  1.00  0.00     0.172 A 
ATOM      3  C   UNL     1      -7.539   2.556  -1.256  1.00  0.00     0.020 A 
ATOM      4  C   UNL     1      -7.474   3.881  -1.548  1.00  0.00     0.005 A 
ATOM      5  C   UNL     1      -5.764   4.306   0.207  1.00  0.00     0.161 A 
ATOM      6  C   UNL     1      -6.619   4.792  -0.860  1.00  0.00     0.050 A 
ENDROOT
BRANCH   1   7
ATOM      7  C   UNL     1      -6.257   0.543  -0.174  1.00  0.00     0.339 C 
ATOM      8  O   UNL     1      -4.914   0.402   0.737  1.00  0.00    -0.246 OA
BRANCH   7   9
ATOM      9  O   UNL     1      -6.658  -0.387  -0.461  1.00  0.00    -0.478 OA
ATOM     10  H   UNL     1      -7.035  -1.263  -0.731  1.00  0.00     0.297 HD
ENDBRANCH   7   9
ENDBRANCH   1   7
BRANCH   2  11
ATOM     11  O   UNL     1      -5.675   2.583   1.932  1.00  0.00    -0.504 OA
ATOM     12  H   UNL     1      -5.414   2.332   2.854  1.00  0.00     0.293 HD
ENDBRANCH   2  11
BRANCH   5  13
ATOM     13  O   UNL     1      -4.999   5.062   1.086  1.00  0.00    -0.493 OA
ATOM     14  C   UNL     1      -4.108   5.905   1.494  1.00  0.00     0.278 C 
ENDBRANCH   5  13
TORSDOF 4
ENDMDL
MODEL 4
REMARK VINA RESULT:    -4.764      2.186      3.219
REMARK INTER + INTRA:          -5.870
REMARK INTER:                  -5.397
REMARK INTRA:                  -0.474
REMARK UNBOUND:                -0.271
REMARK SMILES COc1cccc(C(=O)O)c1O
REMARK SMILES IDX 7 1 11 2 6 3 5 4 3 5 4 6 8 7 9 8 10 9 12 11 2 13 1 14
REMARK H PARENT 10 10 12 12
ROOT
ATOM      1  C   UNL     1      -5.416   5.032   1.326  1.00  0.00     0.105 A 
ATOM      2  C   UNL     1      -5.737   3.993   0.496  1.00  0.00     0.172 A 
ATOM      3  C   UNL     1      -6.266   5.249   2.511  1.00  0.00     0.020 A 
ATOM      4  C   UNL     1      -7.065   4.226   2.910  1.00  0.00     0.005 A 
ATOM      5  C   UNL     1      -6.388   2.790   0.995  1.00  0.00     0.161 A 
ATOM      6  C   UNL     1      -7.167   2.992   2.203  1.00  0.00     0.050 A 
ENDROOT
BRANCH   1   7
ATOM      7  C   UNL     1      -4.153   5.880   1.094  1.00  0.00     0.339 C 
ATOM      8  O   UNL     1      -3.112   4.976   0.227  1.00  0.00    -0.246 OA
BRANCH   7   9
ATOM      9  O   UNL     1      -3.817   6.867   1.239  1.00  0.00    -0.478 OA
ATOM     10  H   UNL     1      -3.501   7.796   1.376  1.00  0.00     0.297 HD
ENDBRANCH   7   9
ENDBRANCH   1   7
BRANCH   2  11
ATOM     11  O   UNL     1      -5.434   4.031  -0.876  1.00  0.00    -0.504 OA
ATOM     12  H   UNL     1      -5.220   4.058  -1.842  1.00  0.00     0.293 HD
ENDBRANCH   2  11
BRANCH   5  13
ATOM     13  O   UNL     1      -6.481   1.735   0.097  1.00  0.00    -0.493 OA
ATOM     14  C   UNL     1      -6.309   0.555  -0.401  1.00  0.00     0.278 C 
ENDBRANCH   5  13
TORSDOF 4
ENDMDL
MODEL 5
REMARK VINA RESULT:    -4.243      0.697      1.142
REMARK INTER + INTRA:          -5.258
REMARK INTER:                  -4.795
REMARK INTRA:                  -0.462
REMARK UNBOUND:                -0.271
REMARK SMILES COc1cccc(C(=O)O)c1O
REMARK SMILES IDX 7 1 11 2 6 3 5 4 3 5 4 6 8 7 9 8 10 9 12 11 2 13 1 14
REMARK H PARENT 10 10 12 12
ROOT
ATOM      1  C   UNL     1      -5.196   4.149   0.959  1.00  0.00     0.105 A 
ATOM      2  C   UNL     1      -6.377   4.606   1.476  1.00  0.00     0.172 A 
ATOM      3  C   UNL     1      -5.180   2.791   0.387  1.00  0.00     0.020 A 
ATOM      4  C   UNL     1      -6.374   2.226   0.070  1.00  0.00     0.005 A 
ATOM      5  C   UNL     1      -7.662   4.160   0.954  1.00  0.00     0.161 A 
ATOM      6  C   UNL     1      -7.628   2.852   0.327  1.00  0.00     0.050 A 
ENDROOT
BRANCH   1   7
ATOM      7  C   UNL     1      -3.954   5.054   0.881  1.00  0.00     0.339 C 
ATOM      8  O   UNL     1      -3.837   5.846   2.300  1.00  0.00    -0.246 OA
BRANCH   7   9
ATOM      9  O   UNL     1      -3.135   5.231   0.244  1.00  0.00    -0.478 OA
ATOM     10  H   UNL     1      -2.364   5.397  -0.356  1.00  0.00     0.297 HD
ENDBRANCH   7   9
ENDBRANCH   1   7
BRANCH   2  11
ATOM     11  O   UNL     1      -6.405   5.546   2.520  1.00  0.00    -0.504 OA
ATOM     12  H   UNL     1      -6.424   6.207   3.257  1.00  0.00     0.293 HD
ENDBRANCH   2  11
BRANCH   5  13
ATOM     13  O   UNL     1      -8.776   4.843   1.425  1.00  0.00    -0.493 OA
ATOM     14  C   UNL     1      -9.802   5.628   1.420  1.00  0.00     0.278 C 
ENDBRANCH   5  13
TORSDOF 4
ENDMDL
MODEL 6
REMARK VINA RESULT:    -4.239      2.946      3.928
REMARK INTER + INTRA:          -5.253
REMARK INTER:                  -4.768
REMARK INTRA:                  -0.485
REMARK UNBOUND:                -0.271
REMARK SMILES COc1cccc(C(=O)O)c1O
REMARK SMILES IDX 7 1 11 2 6 3 5 4 3 5 4 6 8 7 9 8 10 9 12 11 2 13 1 14
REMARK H PARENT 10 10 12 12
ROOT
ATOM      1  C   UNL     1      -7.049   1.954  -0.115  1.00  0.00     0.105 A 
ATOM      2  C   UNL     1      -6.991   2.636   1.069  1.00  0.00     0.172 A 
ATOM      3  C   UNL     1      -7.859   2.537  -1.200  1.00  0.00     0.020 A 
ATOM      4  C   UNL     1      -8.189   3.851  -1.106  1.00  0.00     0.005 A 
ATOM      5  C   UNL     1      -7.110   4.086   1.123  1.00  0.00     0.161 A 
ATOM      6  C   UNL     1      -7.848   4.664   0.015  1.00  0.00     0.050 A 
ENDROOT
BRANCH   1   7
ATOM      7  C   UNL     1      -6.216   0.682  -0.348  1.00  0.00     0.339 C 
ATOM      8  O   UNL     1      -5.054   0.645   0.793  1.00  0.00    -0.246 OA
BRANCH   7   9
ATOM      9  O   UNL     1      -6.236  -0.188  -0.941  1.00  0.00    -0.478 OA
ATOM     10  H   UNL     1      -6.256  -1.005  -1.500  1.00  0.00     0.297 HD
ENDBRANCH   7   9
ENDBRANCH   1   7
BRANCH   2  11
ATOM     11  O   UNL     1      -6.791   1.967   2.289  1.00  0.00    -0.504 OA
ATOM     12  H   UNL     1      -6.650   1.496   3.149  1.00  0.00     0.293 HD
ENDBRANCH   2  11
BRANCH   5  13
ATOM     13  O   UNL     1      -6.838   4.671   2.353  1.00  0.00    -0.493 OA
ATOM     14  C   UNL     1      -6.927   5.496   3.344  1.00  0.00     0.278 C 
ENDBRANCH   5  13
TORSDOF 4
ENDMDL
MODEL 7
REMARK VINA RESULT:    -4.215      2.977      3.739
REMARK INTER + INTRA:          -5.224
REMARK INTER:                  -4.769
REMARK INTRA:                  -0.455
REMARK UNBOUND:                -0.271
REMARK SMILES COc1cccc(C(=O)O)c1O
REMARK SMILES IDX 7 1 11 2 6 3 5 4 3 5 4 6 8 7 9 8 10 9 12 11 2 13 1 14
REMARK H PARENT 10 10 12 12
ROOT
ATOM      1  C   UNL     1      -6.152   2.547   0.287  1.00  0.00     0.105 A 
ATOM      2  C   UNL     1      -7.384   2.929  -0.169  1.00  0.00     0.172 A 
ATOM      3  C   UNL     1      -5.333   3.563   0.974  1.00  0.00     0.020 A 
ATOM      4  C   UNL     1      -5.962   4.675   1.435  1.00  0.00     0.005 A 
ATOM      5  C   UNL     1      -8.154   3.973   0.491  1.00  0.00     0.161 A 
ATOM      6  C   UNL     1      -7.349   4.931   1.227  1.00  0.00     0.050 A 
ENDROOT
BRANCH   1   7
ATOM      7  C   UNL     1      -5.678   1.087   0.185  1.00  0.00     0.339 C 
ATOM      8  O   UNL     1      -6.073   0.550  -1.301  1.00  0.00    -0.246 OA
BRANCH   7   9
ATOM      9  O   UNL     1      -5.107   0.393   0.735  1.00  0.00    -0.478 OA
ATOM     10  H   UNL     1      -4.571  -0.259   1.252  1.00  0.00     0.297 HD
ENDBRANCH   7   9
ENDBRANCH   1   7
BRANCH   2  11
ATOM     11  O   UNL     1      -7.972   2.313  -1.287  1.00  0.00    -0.504 OA
ATOM     12  H   UNL     1      -8.387   1.879  -2.075  1.00  0.00     0.293 HD
ENDBRANCH   2  11
BRANCH   5  13
ATOM     13  O   UNL     1      -9.463   4.129   0.054  1.00  0.00    -0.493 OA
ATOM     14  C   UNL     1     -10.623   4.672  -0.113  1.00  0.00     0.278 C 
ENDBRANCH   5  13
TORSDOF 4
ENDMDL
MODEL 8
REMARK VINA RESULT:    -4.089      2.344      4.681
REMARK INTER + INTRA:          -5.077
REMARK INTER:                  -4.776
REMARK INTRA:                  -0.300
REMARK UNBOUND:                -0.271
REMARK SMILES COc1cccc(C(=O)O)c1O
REMARK SMILES IDX 7 1 11 2 6 3 5 4 3 5 4 6 8 7 9 8 10 9 12 11 2 13 1 14
REMARK H PARENT 10 10 12 12
ROOT
ATOM      1  C   UNL     1      -7.240   2.725  -0.929  1.00  0.00     0.105 A 
ATOM      2  C   UNL     1      -6.437   3.795  -0.647  1.00  0.00     0.172 A 
ATOM      3  C   UNL     1      -6.757   1.386  -0.543  1.00  0.00     0.020 A 
ATOM      4  C   UNL     1      -5.756   1.317   0.372  1.00  0.00     0.005 A 
ATOM      5  C   UNL     1      -5.532   3.791   0.494  1.00  0.00     0.161 A 
ATOM      6  C   UNL     1      -5.114   2.467   0.917  1.00  0.00     0.050 A 
ENDROOT
BRANCH   1   7
ATOM      7  C   UNL     1      -8.643   2.914  -1.532  1.00  0.00     0.339 C 
ATOM      8  O   UNL     1      -9.358   4.137  -0.726  1.00  0.00    -0.246 OA
BRANCH   7   9
ATOM      9  O   UNL     1      -9.217   2.567  -2.344  1.00  0.00    -0.478 OA
ATOM     10  H   UNL     1      -9.756   2.240  -3.107  1.00  0.00     0.297 HD
ENDBRANCH   7   9
ENDBRANCH   1   7
BRANCH   2  11
ATOM     11  O   UNL     1      -6.464   4.959  -1.434  1.00  0.00    -0.504 OA
ATOM     12  H   UNL     1      -6.484   5.778  -1.989  1.00  0.00     0.293 HD
ENDBRANCH   2  11
BRANCH   5  13
ATOM     13  O   UNL     1      -4.921   5.003   0.787  1.00  0.00    -0.493 OA
ATOM     14  C   UNL     1      -4.211   5.874   1.425  1.00  0.00     0.278 C 
ENDBRANCH   5  13
TORSDOF 4
ENDMDL
MODEL 9
REMARK VINA RESULT:    -4.047      2.230      3.811
REMARK INTER + INTRA:          -5.027
REMARK INTER:                  -4.697
REMARK INTRA:                  -0.330
REMARK UNBOUND:                -0.271
REMARK SMILES COc1cccc(C(=O)O)c1O
REMARK SMILES IDX 7 1 11 2 6 3 5 4 3 5 4 6 8 7 9 8 10 9 12 11 2 13 1 14
REMARK H PARENT 10 10 12 12
ROOT
ATOM      1  C   UNL     1      -6.244   4.925   2.157  1.00  0.00     0.105 A 
ATOM      2  C   UNL     1      -6.471   3.635   1.764  1.00  0.00     0.172 A 
ATOM      3  C   UNL     1      -4.982   5.558   1.730  1.00  0.00     0.020 A 
ATOM      4  C   UNL     1      -4.307   4.987   0.699  1.00  0.00     0.005 A 
ATOM      5  C   UNL     1      -5.927   3.108   0.520  1.00  0.00     0.161 A 
ATOM      6  C   UNL     1      -4.724   3.780   0.065  1.00  0.00     0.050 A 
ENDROOT
BRANCH   1   7
ATOM      7  C   UNL     1      -7.308   5.727   2.926  1.00  0.00     0.339 C 
ATOM      8  O   UNL     1      -8.749   5.414   2.233  1.00  0.00    -0.246 OA
BRANCH   7   9
ATOM      9  O   UNL     1      -7.390   6.316   3.795  1.00  0.00    -0.478 OA
ATOM     10  H   UNL     1      -7.467   6.870   4.612  1.00  0.00     0.297 HD
ENDBRANCH   7   9
ENDBRANCH   1   7
BRANCH   2  11
ATOM     11  O   UNL     1      -7.260   2.763   2.534  1.00  0.00    -0.504 OA
ATOM     12  H   UNL     1      -7.816   2.149   3.077  1.00  0.00     0.293 HD
ENDBRANCH   2  11
BRANCH   5  13
ATOM     13  O   UNL     1      -6.390   1.856   0.139  1.00  0.00    -0.493 OA
ATOM     14  C   UNL     1      -6.364   0.643  -0.308  1.00  0.00     0.278 C 
ENDBRANCH   5  13
TORSDOF 4
ENDMDL
