MODEL 1
REMARK VINA RESULT:    -4.890      0.000      0.000
REMARK INTER + INTRA:          -6.013
REMARK INTER:                  -5.747
REMARK INTRA:                  -0.265
REMARK UNBOUND:                -0.265
REMARK SMILES COc1cccc(C(=O)O)c1O
REMARK SMILES IDX 7 1 11 2 6 3 5 4 3 5 4 6 8 7 9 8 10 9 12 11 2 13 1 14
REMARK H PARENT 10 10 12 12
ROOT
ATOM      1  C   UNL     1      -4.732   0.741  -4.789  1.00  0.00     0.105 A 
ATOM      2  C   UNL     1      -5.957   1.250  -5.125  1.00  0.00     0.172 A 
ATOM      3  C   UNL     1      -4.651  -0.698  -4.482  1.00  0.00     0.020 A 
ATOM      4  C   UNL     1      -5.674  -1.490  -4.896  1.00  0.00     0.005 A 
ATOM      5  C   UNL     1      -6.964   0.438  -5.791  1.00  0.00     0.161 A 
ATOM      6  C   UNL     1      -6.839  -0.987  -5.545  1.00  0.00     0.050 A 
ENDROOT
BRANCH   1   7
ATOM      7  C   UNL     1      -3.465   1.612  -4.830  1.00  0.00     0.339 C 
ATOM      8  O   UNL     1      -2.221   0.643  -5.238  1.00  0.00    -0.246 OA
BRANCH   7   9
ATOM      9  O   UNL     1      -3.192   2.628  -4.773  1.00  0.00    -0.478 OA
ATOM     10  H   UNL     1      -2.935   3.583  -4.718  1.00  0.00     0.297 HD
ENDBRANCH   7   9
ENDBRANCH   1   7
BRANCH   2  11
ATOM     11  O   UNL     1      -6.290   2.590  -4.862  1.00  0.00    -0.504 OA
ATOM     12  H   UNL     1      -6.524   3.534  -4.676  1.00  0.00     0.293 HD
ENDBRANCH   2  11
BRANCH   5  13
ATOM     13  O   UNL     1      -8.082   1.119  -6.255  1.00  0.00    -0.493 OA
ATOM     14  C   UNL     1      -9.123   1.383  -6.974  1.00  0.00     0.278 C 
ENDBRANCH   5  13
TORSDOF 4
ENDMDL
MODEL 2
REMARK VINA RESULT:    -4.886      2.636      3.585
REMARK INTER + INTRA:          -6.008
REMARK INTER:                  -5.746
REMARK INTRA:                  -0.262
REMARK UNBOUND:                -0.265
REMARK SMILES COc1cccc(C(=O)O)c1O
REMARK SMILES IDX 7 1 11 2 6 3 5 4 3 5 4 6 8 7 9 8 10 9 12 11 2 13 1 14
REMARK H PARENT 10 10 12 12
ROOT
ATOM      1  C   UNL     1      -5.533  -1.433  -4.405  1.00  0.00     0.105 A 
ATOM      2  C   UNL     1      -6.413  -1.297  -5.442  1.00  0.00     0.172 A 
ATOM      3  C   UNL     1      -4.627  -0.304  -4.124  1.00  0.00     0.020 A 
ATOM      4  C   UNL     1      -4.952   0.909  -4.642  1.00  0.00     0.005 A 
ATOM      5  C   UNL     1      -6.938   0.003  -5.833  1.00  0.00     0.161 A 
ATOM      6  C   UNL     1      -6.077   1.120  -5.492  1.00  0.00     0.050 A 
ENDROOT
BRANCH   1   7
ATOM      7  C   UNL     1      -5.554  -2.674  -3.494  1.00  0.00     0.339 C 
ATOM      8  O   UNL     1      -5.175  -2.179  -1.989  1.00  0.00    -0.246 OA
BRANCH   7   9
ATOM      9  O   UNL     1      -5.827  -3.690  -3.536  1.00  0.00    -0.478 OA
ATOM     10  H   UNL     1      -6.085  -4.645  -3.576  1.00  0.00     0.297 HD
ENDBRANCH   7   9
ENDBRANCH   1   7
BRANCH   2  11
ATOM     11  O   UNL     1      -6.869  -2.413  -6.166  1.00  0.00    -0.504 OA
ATOM     12  H   UNL     1      -7.190  -3.198  -6.676  1.00  0.00     0.293 HD
ENDBRANCH   2  11
BRANCH   5  13
ATOM     13  O   UNL     1      -7.968  -0.015  -6.765  1.00  0.00    -0.493 OA
ATOM     14  C   UNL     1      -9.062   0.327  -7.362  1.00  0.00     0.278 C 
ENDBRANCH   5  13
TORSDOF 4
ENDMDL
MODEL 3
REMARK VINA RESULT:    -4.233      7.658      8.676
REMARK INTER + INTRA:          -5.241
REMARK INTER:                  -4.978
REMARK INTRA:                  -0.263
REMARK UNBOUND:                -0.265
REMARK SMILES COc1cccc(C(=O)O)c1O
REMARK SMILES IDX 7 1 11 2 6 3 5 4 3 5 4 6 8 7 9 8 10 9 12 11 2 13 1 14
REMARK H PARENT 10 10 12 12
ROOT
ATOM      1  C   UNL     1      -1.783   0.744   2.171  1.00  0.00     0.105 A 
ATOM      2  C   UNL     1      -1.352   0.011   1.099  1.00  0.00     0.172 A 
ATOM      3  C   UNL     1      -2.455   0.022   3.267  1.00  0.00     0.020 A 
ATOM      4  C   UNL     1      -2.285  -1.324   3.334  1.00  0.00     0.005 A 
ATOM      5  C   UNL     1      -0.944  -1.380   1.240  1.00  0.00     0.161 A 
ATOM      6  C   UNL     1      -1.552  -2.068   2.363  1.00  0.00     0.050 A 
ENDROOT
BRANCH   1   7
ATOM      7  C   UNL     1      -1.488   2.249   2.281  1.00  0.00     0.339 C 
ATOM      8  O   UNL     1      -0.124   2.541   1.439  1.00  0.00    -0.246 OA
BRANCH   7   9
ATOM      9  O   UNL     1      -1.943   3.127   2.643  1.00  0.00    -0.478 OA
ATOM     10  H   UNL     1      -2.371   3.953   2.984  1.00  0.00     0.297 HD
ENDBRANCH   7   9
ENDBRANCH   1   7
BRANCH   2  11
ATOM     11  O   UNL     1      -1.263   0.575  -0.185  1.00  0.00    -0.504 OA
ATOM     12  H   UNL     1      -1.200   0.972  -1.089  1.00  0.00     0.293 HD
ENDBRANCH   2  11
BRANCH   5  13
ATOM     13  O   UNL     1      -0.343  -1.950   0.125  1.00  0.00    -0.493 OA
ATOM     14  C   UNL     1       0.209  -2.030  -1.041  1.00  0.00     0.278 C 
ENDBRANCH   5  13
TORSDOF 4
ENDMDL
MODEL 4
REMARK VINA RESULT:    -3.760      2.767      4.650
REMARK INTER + INTRA:          -4.685
REMARK INTER:                  -4.609
REMARK INTRA:                  -0.076
REMARK UNBOUND:                -0.265
REMARK SMILES COc1cccc(C(=O)O)c1O
REMARK SMILES IDX 7 1 11 2 6 3 5 4 3 5 4 6 8 7 9 8 10 9 12 11 2 13 1 14
REMARK H PARENT 10 10 12 12
ROOT
ATOM      1  C   UNL     1      -5.480  -1.132  -3.549  1.00  0.00     0.105 A 
ATOM      2  C   UNL     1      -4.280  -0.528  -3.806  1.00  0.00     0.172 A 
ATOM      3  C   UNL     1      -6.702  -0.326  -3.722  1.00  0.00     0.020 A 
ATOM      4  C   UNL     1      -6.609   0.811  -4.460  1.00  0.00     0.005 A 
ATOM      5  C   UNL     1      -4.159   0.542  -4.787  1.00  0.00     0.161 A 
ATOM      6  C   UNL     1      -5.383   1.289  -5.008  1.00  0.00     0.050 A 
ENDROOT
BRANCH   1   7
ATOM      7  C   UNL     1      -5.564  -2.626  -3.193  1.00  0.00     0.339 C 
ATOM      8  O   UNL     1      -5.251  -2.766  -1.600  1.00  0.00    -0.246 OA
BRANCH   7   9
ATOM      9  O   UNL     1      -5.849  -3.537  -3.637  1.00  0.00    -0.478 OA
ATOM     10  H   UNL     1      -6.117  -4.394  -4.055  1.00  0.00     0.297 HD
ENDBRANCH   7   9
ENDBRANCH   1   7
BRANCH   2  11
ATOM     11  O   UNL     1      -3.103  -0.928  -3.151  1.00  0.00    -0.504 OA
ATOM     12  H   UNL     1      -2.274  -1.210  -2.689  1.00  0.00     0.293 HD
ENDBRANCH   2  11
BRANCH   5  13
ATOM     13  O   UNL     1      -2.863   0.933  -5.098  1.00  0.00    -0.493 OA
ATOM     14  C   UNL     1      -1.622   0.834  -5.445  1.00  0.00     0.278 C 
ENDBRANCH   5  13
TORSDOF 4
ENDMDL
MODEL 5
REMARK VINA RESULT:    -3.747      2.188      3.211
REMARK INTER + INTRA:          -4.669
REMARK INTER:                  -4.499
REMARK INTRA:                  -0.170
REMARK UNBOUND:                -0.265
REMARK SMILES COc1cccc(C(=O)O)c1O
REMARK SMILES IDX 7 1 11 2 6 3 5 4 3 5 4 6 8 7 9 8 10 9 12 11 2 13 1 14
REMARK H PARENT 10 10 12 12
ROOT
ATOM      1  C   UNL     1      -4.049   0.447  -5.271  1.00  0.00     0.105 A 
ATOM      2  C   UNL     1      -4.292  -0.497  -4.311  1.00  0.00     0.172 A 
ATOM      3  C   UNL     1      -4.811   0.353  -6.530  1.00  0.00     0.020 A 
ATOM      4  C   UNL     1      -5.937  -0.406  -6.531  1.00  0.00     0.005 A 
ATOM      5  C   UNL     1      -5.595  -1.132  -4.177  1.00  0.00     0.161 A 
ATOM      6  C   UNL     1      -6.372  -1.160  -5.402  1.00  0.00     0.050 A 
ENDROOT
BRANCH   1   7
ATOM      7  C   UNL     1      -3.096   1.626  -5.011  1.00  0.00     0.339 C 
ATOM      8  O   UNL     1      -1.582   1.105  -5.316  1.00  0.00    -0.246 OA
BRANCH   7   9
ATOM      9  O   UNL     1      -3.140   2.657  -4.799  1.00  0.00    -0.478 OA
ATOM     10  H   UNL     1      -3.182   3.626  -4.599  1.00  0.00     0.297 HD
ENDBRANCH   7   9
ENDBRANCH   1   7
BRANCH   2  11
ATOM     11  O   UNL     1      -3.298  -0.880  -3.394  1.00  0.00    -0.504 OA
ATOM     12  H   UNL     1      -2.598  -1.150  -2.747  1.00  0.00     0.293 HD
ENDBRANCH   2  11
BRANCH   5  13
ATOM     13  O   UNL     1      -5.771  -1.921  -3.047  1.00  0.00    -0.493 OA
ATOM     14  C   UNL     1      -5.886  -2.986  -2.324  1.00  0.00     0.278 C 
ENDBRANCH   5  13
TORSDOF 4
ENDMDL
MODEL 6
REMARK VINA RESULT:    -3.632      1.764      2.173
REMARK INTER + INTRA:          -4.535
REMARK INTER:                  -4.092
REMARK INTRA:                  -0.443
REMARK UNBOUND:                -0.265
REMARK SMILES COc1cccc(C(=O)O)c1O
REMARK SMILES IDX 7 1 11 2 6 3 5 4 3 5 4 6 8 7 9 8 10 9 12 11 2 13 1 14
REMARK H PARENT 10 10 12 12
ROOT
ATOM      1  C   UNL     1      -4.982   0.168  -4.756  1.00  0.00     0.105 A 
ATOM      2  C   UNL     1      -5.922  -0.319  -5.621  1.00  0.00     0.172 A 
ATOM      3  C   UNL     1      -4.849  -0.495  -3.446  1.00  0.00     0.020 A 
ATOM      4  C   UNL     1      -5.380  -1.738  -3.311  1.00  0.00     0.005 A 
ATOM      5  C   UNL     1      -6.308  -1.723  -5.618  1.00  0.00     0.161 A 
ATOM      6  C   UNL     1      -6.109  -2.393  -4.346  1.00  0.00     0.050 A 
ENDROOT
BRANCH   1   7
ATOM      7  C   UNL     1      -4.023   1.298  -5.169  1.00  0.00     0.339 C 
ATOM      8  O   UNL     1      -3.828   1.206  -6.784  1.00  0.00    -0.246 OA
BRANCH   7   9
ATOM      9  O   UNL     1      -3.553   2.140  -4.746  1.00  0.00    -0.478 OA
ATOM     10  H   UNL     1      -3.112   2.933  -4.349  1.00  0.00     0.297 HD
ENDBRANCH   7   9
ENDBRANCH   1   7
BRANCH   2  11
ATOM     11  O   UNL     1      -6.544   0.511  -6.569  1.00  0.00    -0.504 OA
ATOM     12  H   UNL     1      -6.983   1.096  -7.237  1.00  0.00     0.293 HD
ENDBRANCH   2  11
BRANCH   5  13
ATOM     13  O   UNL     1      -7.120  -2.130  -6.669  1.00  0.00    -0.493 OA
ATOM     14  C   UNL     1      -8.197  -2.435  -7.314  1.00  0.00     0.278 C 
ENDBRANCH   5  13
TORSDOF 4
ENDMDL
MODEL 7
REMARK VINA RESULT:    -3.591      2.402      3.391
REMARK INTER + INTRA:          -4.486
REMARK INTER:                  -4.236
REMARK INTRA:                  -0.250
REMARK UNBOUND:                -0.265
REMARK SMILES COc1cccc(C(=O)O)c1O
REMARK SMILES IDX 7 1 11 2 6 3 5 4 3 5 4 6 8 7 9 8 10 9 12 11 2 13 1 14
REMARK H PARENT 10 10 12 12
ROOT
ATOM      1  C   UNL     1      -5.488  -0.678  -4.136  1.00  0.00     0.105 A 
ATOM      2  C   UNL     1      -6.394   0.240  -4.591  1.00  0.00     0.172 A 
ATOM      3  C   UNL     1      -4.071  -0.473  -4.492  1.00  0.00     0.020 A 
ATOM      4  C   UNL     1      -3.699   0.762  -4.916  1.00  0.00     0.005 A 
ATOM      5  C   UNL     1      -6.027   1.631  -4.815  1.00  0.00     0.161 A 
ATOM      6  C   UNL     1      -4.618   1.837  -5.095  1.00  0.00     0.050 A 
ENDROOT
BRANCH   1   7
ATOM      7  C   UNL     1      -5.909  -1.823  -3.198  1.00  0.00     0.339 C 
ATOM      8  O   UNL     1      -4.767  -1.952  -2.044  1.00  0.00    -0.246 OA
BRANCH   7   9
ATOM      9  O   UNL     1      -6.734  -2.456  -3.033  1.00  0.00    -0.478 OA
ATOM     10  H   UNL     1      -7.510  -3.051  -2.878  1.00  0.00     0.297 HD
ENDBRANCH   7   9
ENDBRANCH   1   7
BRANCH   2  11
ATOM     11  O   UNL     1      -7.731  -0.115  -4.842  1.00  0.00    -0.504 OA
ATOM     12  H   UNL     1      -8.672  -0.366  -5.020  1.00  0.00     0.293 HD
ENDBRANCH   2  11
BRANCH   5  13
ATOM     13  O   UNL     1      -7.077   2.499  -5.084  1.00  0.00    -0.493 OA
ATOM     14  C   UNL     1      -7.698   3.541  -5.529  1.00  0.00     0.278 C 
ENDBRANCH   5  13
TORSDOF 4
ENDMDL
MODEL 8
REMARK VINA RESULT:    -3.518      2.399      3.092
REMARK INTER + INTRA:          -4.401
REMARK INTER:                  -4.202
REMARK INTRA:                  -0.199
REMARK UNBOUND:                -0.265
REMARK SMILES COc1cccc(C(=O)O)c1O
REMARK SMILES IDX 7 1 11 2 6 3 5 4 3 5 4 6 8 7 9 8 10 9 12 11 2 13 1 14
REMARK H PARENT 10 10 12 12
ROOT
ATOM      1  C   UNL     1      -6.172  -1.402  -4.156  1.00  0.00     0.105 A 
ATOM      2  C   UNL     1      -6.620  -0.111  -4.094  1.00  0.00     0.172 A 
ATOM      3  C   UNL     1      -6.430  -2.156  -5.396  1.00  0.00     0.020 A 
ATOM      4  C   UNL     1      -6.750  -1.448  -6.510  1.00  0.00     0.005 A 
ATOM      5  C   UNL     1      -6.731   0.717  -5.287  1.00  0.00     0.161 A 
ATOM      6  C   UNL     1      -6.913  -0.031  -6.516  1.00  0.00     0.050 A 
ENDROOT
BRANCH   1   7
ATOM      7  C   UNL     1      -5.338  -2.016  -3.018  1.00  0.00     0.339 C 
ATOM      8  O   UNL     1      -3.835  -1.397  -3.128  1.00  0.00    -0.246 OA
BRANCH   7   9
ATOM      9  O   UNL     1      -5.474  -2.617  -2.164  1.00  0.00    -0.478 OA
ATOM     10  H   UNL     1      -5.601  -3.182  -1.361  1.00  0.00     0.297 HD
ENDBRANCH   7   9
ENDBRANCH   1   7
BRANCH   2  11
ATOM     11  O   UNL     1      -6.972   0.483  -2.870  1.00  0.00    -0.504 OA
ATOM     12  H   UNL     1      -7.221   0.902  -2.008  1.00  0.00     0.293 HD
ENDBRANCH   2  11
BRANCH   5  13
ATOM     13  O   UNL     1      -7.005   2.061  -5.068  1.00  0.00    -0.493 OA
ATOM     14  C   UNL     1      -7.453   3.253  -5.287  1.00  0.00     0.278 C 
ENDBRANCH   5  13
TORSDOF 4
ENDMDL
MODEL 9
REMARK VINA RESULT:    -3.429      1.838      2.640
REMARK INTER + INTRA:          -4.295
REMARK INTER:                  -4.125
REMARK INTRA:                  -0.171
REMARK UNBOUND:                -0.265
REMARK SMILES COc1cccc(C(=O)O)c1O
REMARK SMILES IDX 7 1 11 2 6 3 5 4 3 5 4 6 8 7 9 8 10 9 12 11 2 13 1 14
REMARK H PARENT 10 10 12 12
ROOT
ATOM      1  C   UNL     1      -4.907   0.584  -5.263  1.00  0.00     0.105 A 
ATOM      2  C   UNL     1      -5.512  -0.338  -6.071  1.00  0.00     0.172 A 
ATOM      3  C   UNL     1      -5.669   1.800  -4.922  1.00  0.00     0.020 A 
ATOM      4  C   UNL     1      -7.014   1.773  -5.108  1.00  0.00     0.005 A 
ATOM      5  C   UNL     1      -6.957  -0.515  -6.079  1.00  0.00     0.161 A 
ATOM      6  C   UNL     1      -7.704   0.661  -5.674  1.00  0.00     0.050 A 
ENDROOT
BRANCH   1   7
ATOM      7  C   UNL     1      -3.523   0.321  -4.644  1.00  0.00     0.339 C 
ATOM      8  O   UNL     1      -2.467   1.330  -5.364  1.00  0.00    -0.246 OA
BRANCH   7   9
ATOM      9  O   UNL     1      -3.094  -0.228  -3.854  1.00  0.00    -0.478 OA
ATOM     10  H   UNL     1      -2.690  -0.744  -3.112  1.00  0.00     0.297 HD
ENDBRANCH   7   9
ENDBRANCH   1   7
BRANCH   2  11
ATOM     11  O   UNL     1      -4.763  -1.174  -6.916  1.00  0.00    -0.504 OA
ATOM     12  H   UNL     1      -4.234  -1.763  -7.512  1.00  0.00     0.293 HD
ENDBRANCH   2  11
BRANCH   5  13
ATOM     13  O   UNL     1      -7.429  -1.612  -6.789  1.00  0.00    -0.493 OA
ATOM     14  C   UNL     1      -8.264  -2.384  -7.403  1.00  0.00     0.278 C 
ENDBRANCH   5  13
TORSDOF 4
ENDMDL
