MODEL 1
REMARK VINA RESULT:    -4.903      0.000      0.000
REMARK INTER + INTRA:          -6.250
REMARK INTER:                  -5.763
REMARK INTRA:                  -0.487
REMARK UNBOUND:                -0.487
REMARK SMILES COc1cccc(C(=O)O)c1O
REMARK SMILES IDX 7 1 11 2 6 3 5 4 3 5 4 6 8 7 9 8 10 9 12 11 2 13 1 14
REMARK H PARENT 10 10 12 12
ROOT
ATOM      1  C   UNL     1       9.478   3.052  -0.849  1.00  0.00     0.105 A 
ATOM      2  C   UNL     1       8.645   4.137  -0.865  1.00  0.00     0.172 A 
ATOM      3  C   UNL     1      10.596   3.062   0.111  1.00  0.00     0.020 A 
ATOM      4  C   UNL     1      10.529   3.937   1.148  1.00  0.00     0.005 A 
ATOM      5  C   UNL     1       8.400   4.929   0.332  1.00  0.00     0.161 A 
ATOM      6  C   UNL     1       9.472   4.880   1.309  1.00  0.00     0.050 A 
ENDROOT
BRANCH   1   7
ATOM      7  C   UNL     1       9.200   1.818  -1.725  1.00  0.00     0.339 C 
ATOM      8  O   UNL     1       7.675   1.949  -2.282  1.00  0.00    -0.246 OA
BRANCH   7   9
ATOM      9  O   UNL     1       9.718   0.997  -2.134  1.00  0.00    -0.478 OA
ATOM     10  H   UNL     1      10.205   0.225  -2.518  1.00  0.00     0.297 HD
ENDBRANCH   7   9
ENDBRANCH   1   7
BRANCH   2  11
ATOM     11  O   UNL     1       7.970   4.525  -2.035  1.00  0.00    -0.504 OA
ATOM     12  H   UNL     1       7.494   4.798  -2.859  1.00  0.00     0.293 HD
ENDBRANCH   2  11
BRANCH   5  13
ATOM     13  O   UNL     1       7.389   5.877   0.235  1.00  0.00    -0.493 OA
ATOM     14  C   UNL     1       6.799   7.024   0.308  1.00  0.00     0.278 C 
ENDBRANCH   5  13
TORSDOF 4
ENDMDL
MODEL 2
REMARK VINA RESULT:    -4.889      1.746      4.687
REMARK INTER + INTRA:          -6.233
REMARK INTER:                  -5.749
REMARK INTRA:                  -0.484
REMARK UNBOUND:                -0.487
REMARK SMILES COc1cccc(C(=O)O)c1O
REMARK SMILES IDX 7 1 11 2 6 3 5 4 3 5 4 6 8 7 9 8 10 9 12 11 2 13 1 14
REMARK H PARENT 10 10 12 12
ROOT
ATOM      1  C   UNL     1       8.026   6.285  -0.337  1.00  0.00     0.105 A 
ATOM      2  C   UNL     1       8.337   4.955  -0.276  1.00  0.00     0.172 A 
ATOM      3  C   UNL     1       8.756   7.114  -1.313  1.00  0.00     0.020 A 
ATOM      4  C   UNL     1       9.404   6.477  -2.323  1.00  0.00     0.005 A 
ATOM      5  C   UNL     1       8.811   4.227  -1.445  1.00  0.00     0.161 A 
ATOM      6  C   UNL     1       9.466   5.057  -2.439  1.00  0.00     0.050 A 
ENDROOT
BRANCH   1   7
ATOM      7  C   UNL     1       6.884   6.879   0.505  1.00  0.00     0.339 C 
ATOM      8  O   UNL     1       5.975   5.637   1.039  1.00  0.00    -0.246 OA
BRANCH   7   9
ATOM      9  O   UNL     1       6.586   7.807   0.904  1.00  0.00    -0.478 OA
ATOM     10  H   UNL     1       6.305   8.680   1.279  1.00  0.00     0.297 HD
ENDBRANCH   7   9
ENDBRANCH   1   7
BRANCH   2  11
ATOM     11  O   UNL     1       8.193   4.223   0.915  1.00  0.00    -0.504 OA
ATOM     12  H   UNL     1       8.091   3.707   1.754  1.00  0.00     0.293 HD
ENDBRANCH   2  11
BRANCH   5  13
ATOM     13  O   UNL     1       8.901   2.848  -1.304  1.00  0.00    -0.493 OA
ATOM     14  C   UNL     1       9.253   1.630  -1.553  1.00  0.00     0.278 C 
ENDBRANCH   5  13
TORSDOF 4
ENDMDL
MODEL 3
REMARK VINA RESULT:    -4.665      2.230      3.247
REMARK INTER + INTRA:          -5.970
REMARK INTER:                  -5.699
REMARK INTRA:                  -0.271
REMARK UNBOUND:                -0.487
REMARK SMILES COc1cccc(C(=O)O)c1O
REMARK SMILES IDX 7 1 11 2 6 3 5 4 3 5 4 6 8 7 9 8 10 9 12 11 2 13 1 14
REMARK H PARENT 10 10 12 12
ROOT
ATOM      1  C   UNL     1       9.244   3.245  -0.885  1.00  0.00     0.105 A 
ATOM      2  C   UNL     1      10.433   3.679  -0.368  1.00  0.00     0.172 A 
ATOM      3  C   UNL     1       8.158   4.232  -1.026  1.00  0.00     0.020 A 
ATOM      4  C   UNL     1       8.493   5.548  -0.992  1.00  0.00     0.005 A 
ATOM      5  C   UNL     1      10.889   5.050  -0.549  1.00  0.00     0.161 A 
ATOM      6  C   UNL     1       9.822   6.010  -0.759  1.00  0.00     0.050 A 
ENDROOT
BRANCH   1   7
ATOM      7  C   UNL     1       9.074   1.805  -1.401  1.00  0.00     0.339 C 
ATOM      8  O   UNL     1       7.788   1.795  -2.401  1.00  0.00    -0.246 OA
BRANCH   7   9
ATOM      9  O   UNL     1       9.582   0.884  -1.376  1.00  0.00    -0.478 OA
ATOM     10  H   UNL     1      10.061   0.017  -1.353  1.00  0.00     0.297 HD
ENDBRANCH   7   9
ENDBRANCH   1   7
BRANCH   2  11
ATOM     11  O   UNL     1      11.281   2.814   0.345  1.00  0.00    -0.504 OA
ATOM     12  H   UNL     1      11.878   2.204   0.847  1.00  0.00     0.293 HD
ENDBRANCH   2  11
BRANCH   5  13
ATOM     13  O   UNL     1      12.194   5.312  -0.151  1.00  0.00    -0.493 OA
ATOM     14  C   UNL     1      13.439   5.647  -0.239  1.00  0.00     0.278 C 
ENDBRANCH   5  13
TORSDOF 4
ENDMDL
MODEL 4
REMARK VINA RESULT:    -4.655      2.963      4.445
REMARK INTER + INTRA:          -5.958
REMARK INTER:                  -5.690
REMARK INTRA:                  -0.269
REMARK UNBOUND:                -0.487
REMARK SMILES COc1cccc(C(=O)O)c1O
REMARK SMILES IDX 7 1 11 2 6 3 5 4 3 5 4 6 8 7 9 8 10 9 12 11 2 13 1 14
REMARK H PARENT 10 10 12 12
ROOT
ATOM      1  C   UNL     1       8.020   6.059  -0.317  1.00  0.00     0.105 A 
ATOM      2  C   UNL     1       9.117   6.708  -0.814  1.00  0.00     0.172 A 
ATOM      3  C   UNL     1       8.100   4.594  -0.173  1.00  0.00     0.020 A 
ATOM      4  C   UNL     1       9.333   4.025  -0.184  1.00  0.00     0.005 A 
ATOM      5  C   UNL     1      10.465   6.198  -0.606  1.00  0.00     0.161 A 
ATOM      6  C   UNL     1      10.534   4.765  -0.394  1.00  0.00     0.050 A 
ENDROOT
BRANCH   1   7
ATOM      7  C   UNL     1       6.785   6.834   0.175  1.00  0.00     0.339 C 
ATOM      8  O   UNL     1       5.931   5.833   1.134  1.00  0.00    -0.246 OA
BRANCH   7   9
ATOM      9  O   UNL     1       6.398   7.813   0.154  1.00  0.00    -0.478 OA
ATOM     10  H   UNL     1       6.033   8.734   0.135  1.00  0.00     0.297 HD
ENDBRANCH   7   9
ENDBRANCH   1   7
BRANCH   2  11
ATOM     11  O   UNL     1       8.993   7.911  -1.530  1.00  0.00    -0.504 OA
ATOM     12  H   UNL     1       8.905   8.758  -2.035  1.00  0.00     0.293 HD
ENDBRANCH   2  11
BRANCH   5  13
ATOM     13  O   UNL     1      11.498   7.046  -0.986  1.00  0.00    -0.493 OA
ATOM     14  C   UNL     1      12.672   7.586  -1.004  1.00  0.00     0.278 C 
ENDBRANCH   5  13
TORSDOF 4
ENDMDL
MODEL 5
REMARK VINA RESULT:    -4.045      2.681      4.256
REMARK INTER + INTRA:          -5.241
REMARK INTER:                  -4.781
REMARK INTRA:                  -0.461
REMARK UNBOUND:                -0.487
REMARK SMILES COc1cccc(C(=O)O)c1O
REMARK SMILES IDX 7 1 11 2 6 3 5 4 3 5 4 6 8 7 9 8 10 9 12 11 2 13 1 14
REMARK H PARENT 10 10 12 12
ROOT
ATOM      1  C   UNL     1       7.763   5.235  -0.477  1.00  0.00     0.105 A 
ATOM      2  C   UNL     1       8.964   5.787  -0.828  1.00  0.00     0.172 A 
ATOM      3  C   UNL     1       7.527   3.825  -0.837  1.00  0.00     0.020 A 
ATOM      4  C   UNL     1       8.607   3.064  -1.150  1.00  0.00     0.005 A 
ATOM      5  C   UNL     1      10.174   4.983  -0.927  1.00  0.00     0.161 A 
ATOM      6  C   UNL     1       9.935   3.580  -1.211  1.00  0.00     0.050 A 
ENDROOT
BRANCH   1   7
ATOM      7  C   UNL     1       6.735   6.020   0.356  1.00  0.00     0.339 C 
ATOM      8  O   UNL     1       6.656   7.526  -0.260  1.00  0.00    -0.246 OA
BRANCH   7   9
ATOM      9  O   UNL     1       6.023   5.848   1.113  1.00  0.00    -0.478 OA
ATOM     10  H   UNL     1       5.355   5.687   1.826  1.00  0.00     0.297 HD
ENDBRANCH   7   9
ENDBRANCH   1   7
BRANCH   2  11
ATOM     11  O   UNL     1       9.090   7.162  -1.088  1.00  0.00    -0.504 OA
ATOM     12  H   UNL     1       9.178   8.131  -1.272  1.00  0.00     0.293 HD
ENDBRANCH   2  11
BRANCH   5  13
ATOM     13  O   UNL     1      11.358   5.689  -1.096  1.00  0.00    -0.493 OA
ATOM     14  C   UNL     1      12.498   6.223  -0.802  1.00  0.00     0.278 C 
ENDBRANCH   5  13
TORSDOF 4
ENDMDL
MODEL 6
REMARK VINA RESULT:    -4.034      2.175      3.093
REMARK INTER + INTRA:          -5.229
REMARK INTER:                  -5.025
REMARK INTRA:                  -0.203
REMARK UNBOUND:                -0.487
REMARK SMILES COc1cccc(C(=O)O)c1O
REMARK SMILES IDX 7 1 11 2 6 3 5 4 3 5 4 6 8 7 9 8 10 9 12 11 2 13 1 14
REMARK H PARENT 10 10 12 12
ROOT
ATOM      1  C   UNL     1      10.218   3.305   0.019  1.00  0.00     0.105 A 
ATOM      2  C   UNL     1       9.370   4.254   0.521  1.00  0.00     0.172 A 
ATOM      3  C   UNL     1       9.680   2.373  -0.989  1.00  0.00     0.020 A 
ATOM      4  C   UNL     1       8.530   2.722  -1.622  1.00  0.00     0.005 A 
ATOM      5  C   UNL     1       8.274   4.794  -0.270  1.00  0.00     0.161 A 
ATOM      6  C   UNL     1       7.793   3.902  -1.309  1.00  0.00     0.050 A 
ENDROOT
BRANCH   1   7
ATOM      7  C   UNL     1      11.706   3.273   0.409  1.00  0.00     0.339 C 
ATOM      8  O   UNL     1      12.347   4.715   0.002  1.00  0.00    -0.246 OA
BRANCH   7   9
ATOM      9  O   UNL     1      12.381   2.656   0.931  1.00  0.00    -0.478 OA
ATOM     10  H   UNL     1      13.016   2.076   1.422  1.00  0.00     0.297 HD
ENDBRANCH   7   9
ENDBRANCH   1   7
BRANCH   2  11
ATOM     11  O   UNL     1       9.534   4.768   1.818  1.00  0.00    -0.504 OA
ATOM     12  H   UNL     1       9.649   5.130   2.733  1.00  0.00     0.293 HD
ENDBRANCH   2  11
BRANCH   5  13
ATOM     13  O   UNL     1       7.613   5.886   0.277  1.00  0.00    -0.493 OA
ATOM     14  C   UNL     1       6.894   6.958   0.332  1.00  0.00     0.278 C 
ENDBRANCH   5  13
TORSDOF 4
ENDMDL
MODEL 7
REMARK VINA RESULT:    -4.023      2.086      3.076
REMARK INTER + INTRA:          -5.216
REMARK INTER:                  -4.750
REMARK INTRA:                  -0.466
REMARK UNBOUND:                -0.487
REMARK SMILES COc1cccc(C(=O)O)c1O
REMARK SMILES IDX 7 1 11 2 6 3 5 4 3 5 4 6 8 7 9 8 10 9 12 11 2 13 1 14
REMARK H PARENT 10 10 12 12
ROOT
ATOM      1  C   UNL     1       8.566   3.590  -0.797  1.00  0.00     0.105 A 
ATOM      2  C   UNL     1       9.820   3.989  -0.426  1.00  0.00     0.172 A 
ATOM      3  C   UNL     1       7.441   4.490  -0.482  1.00  0.00     0.020 A 
ATOM      4  C   UNL     1       7.731   5.784  -0.191  1.00  0.00     0.005 A 
ATOM      5  C   UNL     1      10.182   5.397  -0.349  1.00  0.00     0.161 A 
ATOM      6  C   UNL     1       9.062   6.288  -0.110  1.00  0.00     0.050 A 
ENDROOT
BRANCH   1   7
ATOM      7  C   UNL     1       8.343   2.301  -1.607  1.00  0.00     0.339 C 
ATOM      8  O   UNL     1       9.236   1.129  -0.913  1.00  0.00    -0.246 OA
BRANCH   7   9
ATOM      9  O   UNL     1       7.731   1.945  -2.386  1.00  0.00    -0.478 OA
ATOM     10  H   UNL     1       7.156   1.609  -3.120  1.00  0.00     0.297 HD
ENDBRANCH   7   9
ENDBRANCH   1   7
BRANCH   2  11
ATOM     11  O   UNL     1      10.825   3.054  -0.122  1.00  0.00    -0.504 OA
ATOM     12  H   UNL     1      11.533   2.396   0.093  1.00  0.00     0.293 HD
ENDBRANCH   2  11
BRANCH   5  13
ATOM     13  O   UNL     1      11.531   5.666  -0.155  1.00  0.00    -0.493 OA
ATOM     14  C   UNL     1      12.663   6.285  -0.234  1.00  0.00     0.278 C 
ENDBRANCH   5  13
TORSDOF 4
ENDMDL
MODEL 8
REMARK VINA RESULT:    -4.005      2.495      4.629
REMARK INTER + INTRA:          -5.194
REMARK INTER:                  -4.710
REMARK INTRA:                  -0.484
REMARK UNBOUND:                -0.487
REMARK SMILES COc1cccc(C(=O)O)c1O
REMARK SMILES IDX 7 1 11 2 6 3 5 4 3 5 4 6 8 7 9 8 10 9 12 11 2 13 1 14
REMARK H PARENT 10 10 12 12
ROOT
ATOM      1  C   UNL     1       8.306   6.549  -0.119  1.00  0.00     0.105 A 
ATOM      2  C   UNL     1       9.033   5.553   0.472  1.00  0.00     0.172 A 
ATOM      3  C   UNL     1       8.993   7.404  -1.105  1.00  0.00     0.020 A 
ATOM      4  C   UNL     1      10.155   6.946  -1.636  1.00  0.00     0.005 A 
ATOM      5  C   UNL     1      10.139   4.904  -0.217  1.00  0.00     0.161 A 
ATOM      6  C   UNL     1      10.768   5.722  -1.237  1.00  0.00     0.050 A 
ENDROOT
BRANCH   1   7
ATOM      7  C   UNL     1       6.800   6.710   0.152  1.00  0.00     0.339 C 
ATOM      8  O   UNL     1       6.291   5.352   0.895  1.00  0.00    -0.246 OA
BRANCH   7   9
ATOM      9  O   UNL     1       6.053   7.450   0.091  1.00  0.00    -0.478 OA
ATOM     10  H   UNL     1       5.350   8.145   0.033  1.00  0.00     0.297 HD
ENDBRANCH   7   9
ENDBRANCH   1   7
BRANCH   2  11
ATOM     11  O   UNL     1       8.729   5.094   1.765  1.00  0.00    -0.504 OA
ATOM     12  H   UNL     1       8.516   4.771   2.676  1.00  0.00     0.293 HD
ENDBRANCH   2  11
BRANCH   5  13
ATOM     13  O   UNL     1      10.666   3.780   0.408  1.00  0.00    -0.493 OA
ATOM     14  C   UNL     1      11.532   2.886   0.754  1.00  0.00     0.278 C 
ENDBRANCH   5  13
TORSDOF 4
ENDMDL
MODEL 9
REMARK VINA RESULT:    -3.984      2.404      4.649
REMARK INTER + INTRA:          -5.169
REMARK INTER:                  -4.814
REMARK INTRA:                  -0.356
REMARK UNBOUND:                -0.487
REMARK SMILES COc1cccc(C(=O)O)c1O
REMARK SMILES IDX 7 1 11 2 6 3 5 4 3 5 4 6 8 7 9 8 10 9 12 11 2 13 1 14
REMARK H PARENT 10 10 12 12
ROOT
ATOM      1  C   UNL     1       8.742   6.734  -1.135  1.00  0.00     0.105 A 
ATOM      2  C   UNL     1       9.030   5.463  -1.551  1.00  0.00     0.172 A 
ATOM      3  C   UNL     1       7.578   6.916  -0.249  1.00  0.00     0.020 A 
ATOM      4  C   UNL     1       7.093   5.820   0.390  1.00  0.00     0.005 A 
ATOM      5  C   UNL     1       8.712   4.302  -0.732  1.00  0.00     0.161 A 
ATOM      6  C   UNL     1       7.611   4.506   0.191  1.00  0.00     0.050 A 
ENDROOT
BRANCH   1   7
ATOM      7  C   UNL     1       9.656   7.919  -1.490  1.00  0.00     0.339 C 
ATOM      8  O   UNL     1      11.196   7.403  -1.355  1.00  0.00    -0.246 OA
BRANCH   7   9
ATOM      9  O   UNL     1       9.583   8.896  -1.875  1.00  0.00    -0.478 OA
ATOM     10  H   UNL     1       9.514   9.815  -2.238  1.00  0.00     0.297 HD
ENDBRANCH   7   9
ENDBRANCH   1   7
BRANCH   2  11
ATOM     11  O   UNL     1       9.667   5.222  -2.780  1.00  0.00    -0.504 OA
ATOM     12  H   UNL     1      10.116   5.052  -3.646  1.00  0.00     0.293 HD
ENDBRANCH   2  11
BRANCH   5  13
ATOM     13  O   UNL     1       9.231   3.091  -1.172  1.00  0.00    -0.493 OA
ATOM     14  C   UNL     1       9.261   1.852  -1.539  1.00  0.00     0.278 C 
ENDBRANCH   5  13
TORSDOF 4
ENDMDL
