MODEL 1
REMARK VINA RESULT:    -4.910      0.000      0.000
REMARK INTER + INTRA:          -6.200
REMARK INTER:                  -5.771
REMARK INTRA:                  -0.429
REMARK UNBOUND:                -0.429
REMARK SMILES COc1cccc(C(=O)O)c1O
REMARK SMILES IDX 7 1 11 2 6 3 5 4 3 5 4 6 8 7 9 8 10 9 12 11 2 13 1 14
REMARK H PARENT 10 10 12 12
ROOT
ATOM      1  C   UNL     1      -2.352   5.851   0.211  1.00  0.00     0.105 A 
ATOM      2  C   UNL     1      -3.161   4.888   0.747  1.00  0.00     0.172 A 
ATOM      3  C   UNL     1      -2.223   7.123   0.945  1.00  0.00     0.020 A 
ATOM      4  C   UNL     1      -2.597   7.139   2.251  1.00  0.00     0.005 A 
ATOM      5  C   UNL     1      -3.362   4.773   2.185  1.00  0.00     0.161 A 
ATOM      6  C   UNL     1      -3.165   6.012   2.915  1.00  0.00     0.050 A 
ENDROOT
BRANCH   1   7
ATOM      7  C   UNL     1      -1.521   5.584  -1.056  1.00  0.00     0.339 C 
ATOM      8  O   UNL     1      -1.644   3.994  -1.393  1.00  0.00    -0.246 OA
BRANCH   7   9
ATOM      9  O   UNL     1      -0.999   6.121  -1.796  1.00  0.00    -0.478 OA
ATOM     10  H   UNL     1      -0.508   6.626  -2.492  1.00  0.00     0.297 HD
ENDBRANCH   7   9
ENDBRANCH   1   7
BRANCH   2  11
ATOM     11  O   UNL     1      -3.820   3.950  -0.066  1.00  0.00    -0.504 OA
ATOM     12  H   UNL     1      -4.284   3.289  -0.638  1.00  0.00     0.293 HD
ENDBRANCH   2  11
BRANCH   5  13
ATOM     13  O   UNL     1      -4.042   3.640   2.613  1.00  0.00    -0.493 OA
ATOM     14  C   UNL     1      -4.924   2.921   3.226  1.00  0.00     0.278 C 
ENDBRANCH   5  13
TORSDOF 4
ENDMDL
MODEL 2
REMARK VINA RESULT:    -4.900      1.785      4.677
REMARK INTER + INTRA:          -6.189
REMARK INTER:                  -5.706
REMARK INTRA:                  -0.483
REMARK UNBOUND:                -0.429
REMARK SMILES COc1cccc(C(=O)O)c1O
REMARK SMILES IDX 7 1 11 2 6 3 5 4 3 5 4 6 8 7 9 8 10 9 12 11 2 13 1 14
REMARK H PARENT 10 10 12 12
ROOT
ATOM      1  C   UNL     1      -4.788   4.080   2.221  1.00  0.00     0.105 A 
ATOM      2  C   UNL     1      -3.665   4.675   1.714  1.00  0.00     0.172 A 
ATOM      3  C   UNL     1      -6.088   4.467   1.643  1.00  0.00     0.020 A 
ATOM      4  C   UNL     1      -6.082   5.084   0.434  1.00  0.00     0.005 A 
ATOM      5  C   UNL     1      -3.597   5.120   0.329  1.00  0.00     0.161 A 
ATOM      6  C   UNL     1      -4.886   5.432  -0.261  1.00  0.00     0.050 A 
ENDROOT
BRANCH   1   7
ATOM      7  C   UNL     1      -4.695   2.970   3.283  1.00  0.00     0.339 C 
ATOM      8  O   UNL     1      -3.141   2.484   3.345  1.00  0.00    -0.246 OA
BRANCH   7   9
ATOM      9  O   UNL     1      -5.295   2.520   4.021  1.00  0.00    -0.478 OA
ATOM     10  H   UNL     1      -5.861   2.096   4.715  1.00  0.00     0.297 HD
ENDBRANCH   7   9
ENDBRANCH   1   7
BRANCH   2  11
ATOM     11  O   UNL     1      -2.517   4.864   2.502  1.00  0.00    -0.504 OA
ATOM     12  H   UNL     1      -1.708   4.997   3.057  1.00  0.00     0.293 HD
ENDBRANCH   2  11
BRANCH   5  13
ATOM     13  O   UNL     1      -2.345   5.523  -0.116  1.00  0.00    -0.493 OA
ATOM     14  C   UNL     1      -1.373   5.762  -0.935  1.00  0.00     0.278 C 
ENDBRANCH   5  13
TORSDOF 4
ENDMDL
MODEL 3
REMARK VINA RESULT:    -4.789      2.957      4.406
REMARK INTER + INTRA:          -6.058
REMARK INTER:                  -5.790
REMARK INTRA:                  -0.269
REMARK UNBOUND:                -0.429
REMARK SMILES COc1cccc(C(=O)O)c1O
REMARK SMILES IDX 7 1 11 2 6 3 5 4 3 5 4 6 8 7 9 8 10 9 12 11 2 13 1 14
REMARK H PARENT 10 10 12 12
ROOT
ATOM      1  C   UNL     1      -4.474   4.176   2.156  1.00  0.00     0.105 A 
ATOM      2  C   UNL     1      -5.464   5.079   1.878  1.00  0.00     0.172 A 
ATOM      3  C   UNL     1      -3.111   4.492   1.693  1.00  0.00     0.020 A 
ATOM      4  C   UNL     1      -2.840   5.781   1.359  1.00  0.00     0.005 A 
ATOM      5  C   UNL     1      -5.186   6.503   1.758  1.00  0.00     0.161 A 
ATOM      6  C   UNL     1      -3.822   6.814   1.371  1.00  0.00     0.050 A 
ENDROOT
BRANCH   1   7
ATOM      7  C   UNL     1      -4.748   2.927   3.012  1.00  0.00     0.339 C 
ATOM      8  O   UNL     1      -3.310   2.378   3.545  1.00  0.00    -0.246 OA
BRANCH   7   9
ATOM      9  O   UNL     1      -5.565   2.403   3.419  1.00  0.00    -0.478 OA
ATOM     10  H   UNL     1      -6.333   1.909   3.802  1.00  0.00     0.297 HD
ENDBRANCH   7   9
ENDBRANCH   1   7
BRANCH   2  11
ATOM     11  O   UNL     1      -6.800   4.674   1.716  1.00  0.00    -0.504 OA
ATOM     12  H   UNL     1      -7.741   4.388   1.602  1.00  0.00     0.293 HD
ENDBRANCH   2  11
BRANCH   5  13
ATOM     13  O   UNL     1      -6.298   7.332   1.671  1.00  0.00    -0.493 OA
ATOM     14  C   UNL     1      -7.023   8.395   1.787  1.00  0.00     0.278 C 
ENDBRANCH   5  13
TORSDOF 4
ENDMDL
MODEL 4
REMARK VINA RESULT:    -4.785      2.284      3.288
REMARK INTER + INTRA:          -6.053
REMARK INTER:                  -5.783
REMARK INTRA:                  -0.270
REMARK UNBOUND:                -0.429
REMARK SMILES COc1cccc(C(=O)O)c1O
REMARK SMILES IDX 7 1 11 2 6 3 5 4 3 5 4 6 8 7 9 8 10 9 12 11 2 13 1 14
REMARK H PARENT 10 10 12 12
ROOT
ATOM      1  C   UNL     1      -2.604   5.655   0.226  1.00  0.00     0.105 A 
ATOM      2  C   UNL     1      -2.999   6.844   0.775  1.00  0.00     0.172 A 
ATOM      3  C   UNL     1      -3.379   4.450   0.573  1.00  0.00     0.020 A 
ATOM      4  C   UNL     1      -4.619   4.627   1.097  1.00  0.00     0.005 A 
ATOM      5  C   UNL     1      -4.391   7.103   1.113  1.00  0.00     0.161 A 
ATOM      6  C   UNL     1      -5.170   5.910   1.386  1.00  0.00     0.050 A 
ENDROOT
BRANCH   1   7
ATOM      7  C   UNL     1      -1.459   5.589  -0.801  1.00  0.00     0.339 C 
ATOM      8  O   UNL     1      -1.576   4.158  -1.569  1.00  0.00    -0.246 OA
BRANCH   7   9
ATOM      9  O   UNL     1      -0.713   6.213  -1.205  1.00  0.00    -0.478 OA
ATOM     10  H   UNL     1      -0.012   6.799  -1.585  1.00  0.00     0.297 HD
ENDBRANCH   7   9
ENDBRANCH   1   7
BRANCH   2  11
ATOM     11  O   UNL     1      -2.080   7.879   1.018  1.00  0.00    -0.504 OA
ATOM     12  H   UNL     1      -1.433   8.609   1.189  1.00  0.00     0.293 HD
ENDBRANCH   2  11
BRANCH   5  13
ATOM     13  O   UNL     1      -4.693   8.410   1.476  1.00  0.00    -0.493 OA
ATOM     14  C   UNL     1      -5.333   9.531   1.529  1.00  0.00     0.278 C 
ENDBRANCH   5  13
TORSDOF 4
ENDMDL
MODEL 5
REMARK VINA RESULT:    -4.288      1.484      1.484
REMARK INTER + INTRA:          -5.469
REMARK INTER:                  -5.021
REMARK INTRA:                  -0.448
REMARK UNBOUND:                -0.429
REMARK SMILES COc1cccc(C(=O)O)c1O
REMARK SMILES IDX 7 1 11 2 6 3 5 4 3 5 4 6 8 7 9 8 10 9 12 11 2 13 1 14
REMARK H PARENT 10 10 12 12
ROOT
ATOM      1  C   UNL     1      -2.497   6.170  -0.143  1.00  0.00     0.105 A 
ATOM      2  C   UNL     1      -3.765   5.665  -0.045  1.00  0.00     0.172 A 
ATOM      3  C   UNL     1      -2.114   7.241   0.795  1.00  0.00     0.020 A 
ATOM      4  C   UNL     1      -2.874   7.407   1.908  1.00  0.00     0.005 A 
ATOM      5  C   UNL     1      -4.479   5.635   1.223  1.00  0.00     0.161 A 
ATOM      6  C   UNL     1      -4.050   6.646   2.172  1.00  0.00     0.050 A 
ENDROOT
BRANCH   1   7
ATOM      7  C   UNL     1      -1.472   5.574  -1.123  1.00  0.00     0.339 C 
ATOM      8  O   UNL     1      -1.830   3.995  -1.301  1.00  0.00    -0.246 OA
BRANCH   7   9
ATOM      9  O   UNL     1      -0.699   5.894  -1.762  1.00  0.00    -0.478 OA
ATOM     10  H   UNL     1       0.028   6.196  -2.363  1.00  0.00     0.297 HD
ENDBRANCH   7   9
ENDBRANCH   1   7
BRANCH   2  11
ATOM     11  O   UNL     1      -4.428   5.130  -1.163  1.00  0.00    -0.504 OA
ATOM     12  H   UNL     1      -4.895   4.754  -1.950  1.00  0.00     0.293 HD
ENDBRANCH   2  11
BRANCH   5  13
ATOM     13  O   UNL     1      -5.671   4.922   1.231  1.00  0.00    -0.493 OA
ATOM     14  C   UNL     1      -6.921   4.661   1.430  1.00  0.00     0.278 C 
ENDBRANCH   5  13
TORSDOF 4
ENDMDL
MODEL 6
REMARK VINA RESULT:    -4.137      2.722      4.276
REMARK INTER + INTRA:          -5.291
REMARK INTER:                  -4.826
REMARK INTRA:                  -0.465
REMARK UNBOUND:                -0.429
REMARK SMILES COc1cccc(C(=O)O)c1O
REMARK SMILES IDX 7 1 11 2 6 3 5 4 3 5 4 6 8 7 9 8 10 9 12 11 2 13 1 14
REMARK H PARENT 10 10 12 12
ROOT
ATOM      1  C   UNL     1      -3.860   3.982   1.708  1.00  0.00     0.105 A 
ATOM      2  C   UNL     1      -4.742   5.012   1.536  1.00  0.00     0.172 A 
ATOM      3  C   UNL     1      -2.708   3.908   0.791  1.00  0.00     0.020 A 
ATOM      4  C   UNL     1      -2.384   5.026   0.093  1.00  0.00     0.005 A 
ATOM      5  C   UNL     1      -4.319   6.298   1.000  1.00  0.00     0.161 A 
ATOM      6  C   UNL     1      -3.142   6.233   0.155  1.00  0.00     0.050 A 
ENDROOT
BRANCH   1   7
ATOM      7  C   UNL     1      -4.001   2.994   2.880  1.00  0.00     0.339 C 
ATOM      8  O   UNL     1      -5.574   2.584   2.983  1.00  0.00    -0.246 OA
BRANCH   7   9
ATOM      9  O   UNL     1      -3.391   2.451   3.544  1.00  0.00    -0.478 OA
ATOM     10  H   UNL     1      -2.817   1.940   4.168  1.00  0.00     0.297 HD
ENDBRANCH   7   9
ENDBRANCH   1   7
BRANCH   2  11
ATOM     11  O   UNL     1      -6.096   4.883   1.890  1.00  0.00    -0.504 OA
ATOM     12  H   UNL     1      -7.050   4.793   2.140  1.00  0.00     0.293 HD
ENDBRANCH   2  11
BRANCH   5  13
ATOM     13  O   UNL     1      -5.260   7.318   1.060  1.00  0.00    -0.493 OA
ATOM     14  C   UNL     1      -5.740   8.514   1.165  1.00  0.00     0.278 C 
ENDBRANCH   5  13
TORSDOF 4
ENDMDL
MODEL 7
REMARK VINA RESULT:    -3.994      2.390      4.696
REMARK INTER + INTRA:          -5.124
REMARK INTER:                  -4.819
REMARK INTRA:                  -0.305
REMARK UNBOUND:                -0.429
REMARK SMILES COc1cccc(C(=O)O)c1O
REMARK SMILES IDX 7 1 11 2 6 3 5 4 3 5 4 6 8 7 9 8 10 9 12 11 2 13 1 14
REMARK H PARENT 10 10 12 12
ROOT
ATOM      1  C   UNL     1      -5.664   4.513   1.629  1.00  0.00     0.105 A 
ATOM      2  C   UNL     1      -4.797   4.868   0.633  1.00  0.00     0.172 A 
ATOM      3  C   UNL     1      -5.182   3.564   2.650  1.00  0.00     0.020 A 
ATOM      4  C   UNL     1      -3.840   3.388   2.763  1.00  0.00     0.005 A 
ATOM      5  C   UNL     1      -3.358   4.901   0.850  1.00  0.00     0.161 A 
ATOM      6  C   UNL     1      -2.893   4.019   1.904  1.00  0.00     0.050 A 
ENDROOT
BRANCH   1   7
ATOM      7  C   UNL     1      -7.057   5.157   1.745  1.00  0.00     0.339 C 
ATOM      8  O   UNL     1      -6.875   6.757   1.499  1.00  0.00    -0.246 OA
BRANCH   7   9
ATOM      9  O   UNL     1      -8.065   4.867   1.835  1.00  0.00    -0.478 OA
ATOM     10  H   UNL     1      -9.013   4.594   1.920  1.00  0.00     0.297 HD
ENDBRANCH   7   9
ENDBRANCH   1   7
BRANCH   2  11
ATOM     11  O   UNL     1      -5.259   5.238  -0.641  1.00  0.00    -0.504 OA
ATOM     12  H   UNL     1      -5.584   5.500  -1.539  1.00  0.00     0.293 HD
ENDBRANCH   2  11
BRANCH   5  13
ATOM     13  O   UNL     1      -2.604   5.465  -0.172  1.00  0.00    -0.493 OA
ATOM     14  C   UNL     1      -1.575   5.736  -0.905  1.00  0.00     0.278 C 
ENDBRANCH   5  13
TORSDOF 4
ENDMDL
MODEL 8
REMARK VINA RESULT:    -3.990      2.201      3.099
REMARK INTER + INTRA:          -5.119
REMARK INTER:                  -4.805
REMARK INTRA:                  -0.313
REMARK UNBOUND:                -0.429
REMARK SMILES COc1cccc(C(=O)O)c1O
REMARK SMILES IDX 7 1 11 2 6 3 5 4 3 5 4 6 8 7 9 8 10 9 12 11 2 13 1 14
REMARK H PARENT 10 10 12 12
ROOT
ATOM      1  C   UNL     1      -2.379   6.788   0.929  1.00  0.00     0.105 A 
ATOM      2  C   UNL     1      -2.942   5.960   1.861  1.00  0.00     0.172 A 
ATOM      3  C   UNL     1      -1.811   6.167  -0.282  1.00  0.00     0.020 A 
ATOM      4  C   UNL     1      -2.193   4.898  -0.579  1.00  0.00     0.005 A 
ATOM      5  C   UNL     1      -3.565   4.699   1.486  1.00  0.00     0.161 A 
ATOM      6  C   UNL     1      -3.054   4.126   0.254  1.00  0.00     0.050 A 
ENDROOT
BRANCH   1   7
ATOM      7  C   UNL     1      -2.427   8.317   1.084  1.00  0.00     0.339 C 
ATOM      8  O   UNL     1      -3.929   8.710   1.577  1.00  0.00    -0.246 OA
BRANCH   7   9
ATOM      9  O   UNL     1      -1.773   9.143   1.062  1.00  0.00    -0.478 OA
ATOM     10  H   UNL     1      -1.158   9.918   1.042  1.00  0.00     0.297 HD
ENDBRANCH   7   9
ENDBRANCH   1   7
BRANCH   2  11
ATOM     11  O   UNL     1      -2.964   6.301   3.225  1.00  0.00    -0.504 OA
ATOM     12  H   UNL     1      -2.980   6.541   4.185  1.00  0.00     0.293 HD
ENDBRANCH   2  11
BRANCH   5  13
ATOM     13  O   UNL     1      -4.271   4.049   2.490  1.00  0.00    -0.493 OA
ATOM     14  C   UNL     1      -4.810   3.080   3.155  1.00  0.00     0.278 C 
ENDBRANCH   5  13
TORSDOF 4
ENDMDL
MODEL 9
REMARK VINA RESULT:    -3.615      7.189      8.322
REMARK INTER + INTRA:          -4.678
REMARK INTER:                  -4.509
REMARK INTRA:                  -0.169
REMARK UNBOUND:                -0.429
REMARK SMILES COc1cccc(C(=O)O)c1O
REMARK SMILES IDX 7 1 11 2 6 3 5 4 3 5 4 6 8 7 9 8 10 9 12 11 2 13 1 14
REMARK H PARENT 10 10 12 12
ROOT
ATOM      1  C   UNL     1      -2.051  -2.091  -3.485  1.00  0.00     0.105 A 
ATOM      2  C   UNL     1      -1.173  -1.675  -2.522  1.00  0.00     0.172 A 
ATOM      3  C   UNL     1      -3.307  -2.721  -3.039  1.00  0.00     0.020 A 
ATOM      4  C   UNL     1      -3.687  -2.527  -1.750  1.00  0.00     0.005 A 
ATOM      5  C   UNL     1      -1.629  -1.241  -1.209  1.00  0.00     0.161 A 
ATOM      6  C   UNL     1      -2.901  -1.808  -0.802  1.00  0.00     0.050 A 
ENDROOT
BRANCH   1   7
ATOM      7  C   UNL     1      -1.791  -1.817  -4.976  1.00  0.00     0.339 C 
ATOM      8  O   UNL     1      -1.458  -3.246  -5.683  1.00  0.00    -0.246 OA
BRANCH   7   9
ATOM      9  O   UNL     1      -1.859  -1.024  -5.666  1.00  0.00    -0.478 OA
ATOM     10  H   UNL     1      -1.923  -0.278  -6.314  1.00  0.00     0.297 HD
ENDBRANCH   7   9
ENDBRANCH   1   7
BRANCH   2  11
ATOM     11  O   UNL     1       0.211  -1.629  -2.764  1.00  0.00    -0.504 OA
ATOM     12  H   UNL     1       1.186  -1.596  -2.934  1.00  0.00     0.293 HD
ENDBRANCH   2  11
BRANCH   5  13
ATOM     13  O   UNL     1      -0.665  -0.659  -0.395  1.00  0.00    -0.493 OA
ATOM     14  C   UNL     1       0.167  -0.526   0.585  1.00  0.00     0.278 C 
ENDBRANCH   5  13
TORSDOF 4
ENDMDL
