MODEL 1
REMARK VINA RESULT:    -4.854      0.000      0.000
REMARK INTER + INTRA:          -6.185
REMARK INTER:                  -5.706
REMARK INTRA:                  -0.479
REMARK UNBOUND:                -0.479
REMARK SMILES COc1cccc(C(=O)O)c1O
REMARK SMILES IDX 7 1 11 2 6 3 5 4 3 5 4 6 8 7 9 8 10 9 12 11 2 13 1 14
REMARK H PARENT 10 10 12 12
ROOT
ATOM      1  C   UNL     1      -3.475  -7.085   2.020  1.00  0.00     0.105 A 
ATOM      2  C   UNL     1      -2.148  -6.810   1.834  1.00  0.00     0.172 A 
ATOM      3  C   UNL     1      -3.849  -7.866   3.213  1.00  0.00     0.020 A 
ATOM      4  C   UNL     1      -2.945  -7.949   4.223  1.00  0.00     0.005 A 
ATOM      5  C   UNL     1      -1.232  -6.666   2.956  1.00  0.00     0.161 A 
ATOM      6  C   UNL     1      -1.640  -7.378   4.153  1.00  0.00     0.050 A 
ENDROOT
BRANCH   1   7
ATOM      7  C   UNL     1      -4.551  -6.513   1.081  1.00  0.00     0.339 C 
ATOM      8  O   UNL     1      -3.844  -5.355   0.179  1.00  0.00    -0.246 OA
BRANCH   7   9
ATOM      9  O   UNL     1      -5.544  -6.710   0.792  1.00  0.00    -0.478 OA
ATOM     10  H   UNL     1      -6.478  -6.896   0.520  1.00  0.00     0.297 HD
ENDBRANCH   7   9
ENDBRANCH   1   7
BRANCH   2  11
ATOM     11  O   UNL     1      -1.612  -6.632   0.547  1.00  0.00    -0.504 OA
ATOM     12  H   UNL     1      -1.234  -6.506  -0.360  1.00  0.00     0.293 HD
ENDBRANCH   2  11
BRANCH   5  13
ATOM     13  O   UNL     1       0.037  -6.193   2.646  1.00  0.00    -0.493 OA
ATOM     14  C   UNL     1       1.282  -5.885   2.803  1.00  0.00     0.278 C 
ENDBRANCH   5  13
TORSDOF 4
ENDMDL
MODEL 2
REMARK VINA RESULT:    -4.788      1.757      4.676
REMARK INTER + INTRA:          -6.107
REMARK INTER:                  -5.622
REMARK INTRA:                  -0.485
REMARK UNBOUND:                -0.479
REMARK SMILES COc1cccc(C(=O)O)c1O
REMARK SMILES IDX 7 1 11 2 6 3 5 4 3 5 4 6 8 7 9 8 10 9 12 11 2 13 1 14
REMARK H PARENT 10 10 12 12
ROOT
ATOM      1  C   UNL     1       0.106  -6.878   2.373  1.00  0.00     0.105 A 
ATOM      2  C   UNL     1      -1.234  -6.608   2.333  1.00  0.00     0.172 A 
ATOM      3  C   UNL     1       0.576  -8.109   1.711  1.00  0.00     0.020 A 
ATOM      4  C   UNL     1      -0.253  -8.696   0.809  1.00  0.00     0.005 A 
ATOM      5  C   UNL     1      -2.069  -7.048   1.224  1.00  0.00     0.161 A 
ATOM      6  C   UNL     1      -1.567  -8.219   0.528  1.00  0.00     0.050 A 
ENDROOT
BRANCH   1   7
ATOM      7  C   UNL     1       1.104  -5.885   2.993  1.00  0.00     0.339 C 
ATOM      8  O   UNL     1       0.320  -4.472   3.202  1.00  0.00    -0.246 OA
BRANCH   7   9
ATOM      9  O   UNL     1       2.077  -5.878   3.397  1.00  0.00    -0.478 OA
ATOM     10  H   UNL     1       2.991  -5.871   3.777  1.00  0.00     0.297 HD
ENDBRANCH   7   9
ENDBRANCH   1   7
BRANCH   2  11
ATOM     11  O   UNL     1      -1.864  -5.873   3.352  1.00  0.00    -0.504 OA
ATOM     12  H   UNL     1      -2.307  -5.355   4.070  1.00  0.00     0.293 HD
ENDBRANCH   2  11
BRANCH   5  13
ATOM     13  O   UNL     1      -3.363  -6.544   1.203  1.00  0.00    -0.493 OA
ATOM     14  C   UNL     1      -4.655  -6.532   1.238  1.00  0.00     0.278 C 
ENDBRANCH   5  13
TORSDOF 4
ENDMDL
MODEL 3
REMARK VINA RESULT:    -4.738      2.946      4.395
REMARK INTER + INTRA:          -6.048
REMARK INTER:                  -5.778
REMARK INTRA:                  -0.270
REMARK UNBOUND:                -0.479
REMARK SMILES COc1cccc(C(=O)O)c1O
REMARK SMILES IDX 7 1 11 2 6 3 5 4 3 5 4 6 8 7 9 8 10 9 12 11 2 13 1 14
REMARK H PARENT 10 10 12 12
ROOT
ATOM      1  C   UNL     1      -0.150  -6.699   2.389  1.00  0.00     0.105 A 
ATOM      2  C   UNL     1      -0.023  -8.050   2.217  1.00  0.00     0.172 A 
ATOM      3  C   UNL     1      -1.513  -6.135   2.390  1.00  0.00     0.020 A 
ATOM      4  C   UNL     1      -2.549  -6.990   2.591  1.00  0.00     0.005 A 
ATOM      5  C   UNL     1      -1.054  -8.977   2.661  1.00  0.00     0.161 A 
ATOM      6  C   UNL     1      -2.384  -8.400   2.729  1.00  0.00     0.050 A 
ENDROOT
BRANCH   1   7
ATOM      7  C   UNL     1       1.072  -5.809   2.676  1.00  0.00     0.339 C 
ATOM      8  O   UNL     1       0.525  -4.437   3.362  1.00  0.00    -0.246 OA
BRANCH   7   9
ATOM      9  O   UNL     1       2.123  -5.866   2.652  1.00  0.00    -0.478 OA
ATOM     10  H   UNL     1       3.112  -5.919   2.629  1.00  0.00     0.297 HD
ENDBRANCH   7   9
ENDBRANCH   1   7
BRANCH   2  11
ATOM     11  O   UNL     1       1.123  -8.607   1.623  1.00  0.00    -0.504 OA
ATOM     12  H   UNL     1       1.930  -8.999   1.205  1.00  0.00     0.293 HD
ENDBRANCH   2  11
BRANCH   5  13
ATOM     13  O   UNL     1      -0.720 -10.324   2.610  1.00  0.00    -0.493 OA
ATOM     14  C   UNL     1      -0.401 -11.505   3.026  1.00  0.00     0.278 C 
ENDBRANCH   5  13
TORSDOF 4
ENDMDL
MODEL 4
REMARK VINA RESULT:    -4.734      2.179      3.166
REMARK INTER + INTRA:          -6.043
REMARK INTER:                  -5.772
REMARK INTRA:                  -0.271
REMARK UNBOUND:                -0.479
REMARK SMILES COc1cccc(C(=O)O)c1O
REMARK SMILES IDX 7 1 11 2 6 3 5 4 3 5 4 6 8 7 9 8 10 9 12 11 2 13 1 14
REMARK H PARENT 10 10 12 12
ROOT
ATOM      1  C   UNL     1      -3.160  -6.925   1.992  1.00  0.00     0.105 A 
ATOM      2  C   UNL     1      -3.164  -8.069   2.742  1.00  0.00     0.172 A 
ATOM      3  C   UNL     1      -1.860  -6.276   1.743  1.00  0.00     0.020 A 
ATOM      4  C   UNL     1      -0.738  -7.015   1.939  1.00  0.00     0.005 A 
ATOM      5  C   UNL     1      -2.028  -8.979   2.753  1.00  0.00     0.161 A 
ATOM      6  C   UNL     1      -0.759  -8.351   2.436  1.00  0.00     0.050 A 
ENDROOT
BRANCH   1   7
ATOM      7  C   UNL     1      -4.448  -6.390   1.343  1.00  0.00     0.339 C 
ATOM      8  O   UNL     1      -4.005  -5.429   0.104  1.00  0.00    -0.246 OA
BRANCH   7   9
ATOM      9  O   UNL     1      -5.490  -6.534   1.398  1.00  0.00    -0.478 OA
ATOM     10  H   UNL     1      -6.469  -6.669   1.451  1.00  0.00     0.297 HD
ENDBRANCH   7   9
ENDBRANCH   1   7
BRANCH   2  11
ATOM     11  O   UNL     1      -4.277  -8.429   3.521  1.00  0.00    -0.504 OA
ATOM     12  H   UNL     1      -5.061  -8.683   4.070  1.00  0.00     0.293 HD
ENDBRANCH   2  11
BRANCH   5  13
ATOM     13  O   UNL     1      -2.232 -10.195   3.392  1.00  0.00    -0.493 OA
ATOM     14  C   UNL     1      -2.349 -11.473   3.548  1.00  0.00     0.278 C 
ENDBRANCH   5  13
TORSDOF 4
ENDMDL
MODEL 5
REMARK VINA RESULT:    -4.121      2.881      4.135
REMARK INTER + INTRA:          -5.322
REMARK INTER:                  -4.861
REMARK INTRA:                  -0.462
REMARK UNBOUND:                -0.479
REMARK SMILES COc1cccc(C(=O)O)c1O
REMARK SMILES IDX 7 1 11 2 6 3 5 4 3 5 4 6 8 7 9 8 10 9 12 11 2 13 1 14
REMARK H PARENT 10 10 12 12
ROOT
ATOM      1  C   UNL     1      -0.665  -6.515   2.345  1.00  0.00     0.105 A 
ATOM      2  C   UNL     1      -0.297  -7.830   2.258  1.00  0.00     0.172 A 
ATOM      3  C   UNL     1      -2.078  -6.183   2.085  1.00  0.00     0.020 A 
ATOM      4  C   UNL     1      -2.984  -7.193   2.141  1.00  0.00     0.005 A 
ATOM      5  C   UNL     1      -1.231  -8.906   2.557  1.00  0.00     0.161 A 
ATOM      6  C   UNL     1      -2.626  -8.554   2.368  1.00  0.00     0.050 A 
ENDROOT
BRANCH   1   7
ATOM      7  C   UNL     1       0.329  -5.434   2.800  1.00  0.00     0.339 C 
ATOM      8  O   UNL     1       1.740  -5.716   2.035  1.00  0.00    -0.246 OA
BRANCH   7   9
ATOM      9  O   UNL     1       0.338  -4.543   3.361  1.00  0.00    -0.478 OA
ATOM     10  H   UNL     1       0.345  -3.704   3.888  1.00  0.00     0.297 HD
ENDBRANCH   7   9
ENDBRANCH   1   7
BRANCH   2  11
ATOM     11  O   UNL     1       1.010  -8.201   1.896  1.00  0.00    -0.504 OA
ATOM     12  H   UNL     1       1.930  -8.462   1.642  1.00  0.00     0.293 HD
ENDBRANCH   2  11
BRANCH   5  13
ATOM     13  O   UNL     1      -0.683 -10.181   2.624  1.00  0.00    -0.493 OA
ATOM     14  C   UNL     1      -0.450 -11.373   3.066  1.00  0.00     0.278 C 
ENDBRANCH   5  13
TORSDOF 4
ENDMDL
MODEL 6
REMARK VINA RESULT:    -4.113      2.113      3.180
REMARK INTER + INTRA:          -5.313
REMARK INTER:                  -4.850
REMARK INTRA:                  -0.463
REMARK UNBOUND:                -0.479
REMARK SMILES COc1cccc(C(=O)O)c1O
REMARK SMILES IDX 7 1 11 2 6 3 5 4 3 5 4 6 8 7 9 8 10 9 12 11 2 13 1 14
REMARK H PARENT 10 10 12 12
ROOT
ATOM      1  C   UNL     1      -2.656  -6.608   1.925  1.00  0.00     0.105 A 
ATOM      2  C   UNL     1      -2.847  -7.785   2.596  1.00  0.00     0.172 A 
ATOM      3  C   UNL     1      -1.321  -5.987   2.002  1.00  0.00     0.020 A 
ATOM      4  C   UNL     1      -0.284  -6.766   2.403  1.00  0.00     0.005 A 
ATOM      5  C   UNL     1      -1.758  -8.727   2.810  1.00  0.00     0.161 A 
ATOM      6  C   UNL     1      -0.439  -8.123   2.814  1.00  0.00     0.050 A 
ENDROOT
BRANCH   1   7
ATOM      7  C   UNL     1      -3.757  -6.006   1.036  1.00  0.00     0.339 C 
ATOM      8  O   UNL     1      -5.161  -6.120   1.854  1.00  0.00    -0.246 OA
BRANCH   7   9
ATOM      9  O   UNL     1      -3.851  -5.474   0.132  1.00  0.00    -0.478 OA
ATOM     10  H   UNL     1      -3.938  -4.973  -0.718  1.00  0.00     0.297 HD
ENDBRANCH   7   9
ENDBRANCH   1   7
BRANCH   2  11
ATOM     11  O   UNL     1      -4.111  -8.148   3.091  1.00  0.00    -0.504 OA
ATOM     12  H   UNL     1      -5.002  -8.403   3.440  1.00  0.00     0.293 HD
ENDBRANCH   2  11
BRANCH   5  13
ATOM     13  O   UNL     1      -2.121  -9.965   3.326  1.00  0.00    -0.493 OA
ATOM     14  C   UNL     1      -2.266 -11.247   3.399  1.00  0.00     0.278 C 
ENDBRANCH   5  13
TORSDOF 4
ENDMDL
MODEL 7
REMARK VINA RESULT:    -3.976      2.298      4.655
REMARK INTER + INTRA:          -5.152
REMARK INTER:                  -4.949
REMARK INTRA:                  -0.203
REMARK UNBOUND:                -0.479
REMARK SMILES COc1cccc(C(=O)O)c1O
REMARK SMILES IDX 7 1 11 2 6 3 5 4 3 5 4 6 8 7 9 8 10 9 12 11 2 13 1 14
REMARK H PARENT 10 10 12 12
ROOT
ATOM      1  C   UNL     1       0.238  -7.820   1.755  1.00  0.00     0.105 A 
ATOM      2  C   UNL     1      -1.008  -7.634   1.222  1.00  0.00     0.172 A 
ATOM      3  C   UNL     1       0.833  -6.700   2.507  1.00  0.00     0.020 A 
ATOM      4  C   UNL     1       0.002  -5.716   2.938  1.00  0.00     0.005 A 
ATOM      5  C   UNL     1      -1.979  -6.745   1.842  1.00  0.00     0.161 A 
ATOM      6  C   UNL     1      -1.392  -5.685   2.640  1.00  0.00     0.050 A 
ENDROOT
BRANCH   1   7
ATOM      7  C   UNL     1       0.951  -9.180   1.668  1.00  0.00     0.339 C 
ATOM      8  O   UNL     1       0.012 -10.272   2.429  1.00  0.00    -0.246 OA
BRANCH   7   9
ATOM      9  O   UNL     1       1.785  -9.615   1.195  1.00  0.00    -0.478 OA
ATOM     10  H   UNL     1       2.570 -10.023   0.750  1.00  0.00     0.297 HD
ENDBRANCH   7   9
ENDBRANCH   1   7
BRANCH   2  11
ATOM     11  O   UNL     1      -1.415  -8.313   0.061  1.00  0.00    -0.504 OA
ATOM     12  H   UNL     1      -1.702  -8.791  -0.758  1.00  0.00     0.293 HD
ENDBRANCH   2  11
BRANCH   5  13
ATOM     13  O   UNL     1      -3.266  -6.795   1.321  1.00  0.00    -0.493 OA
ATOM     14  C   UNL     1      -4.535  -6.573   1.213  1.00  0.00     0.278 C 
ENDBRANCH   5  13
TORSDOF 4
ENDMDL
MODEL 8
REMARK VINA RESULT:    -3.903      7.182      8.546
REMARK INTER + INTRA:          -5.066
REMARK INTER:                  -4.795
REMARK INTRA:                  -0.271
REMARK UNBOUND:                -0.479
REMARK SMILES COc1cccc(C(=O)O)c1O
REMARK SMILES IDX 7 1 11 2 6 3 5 4 3 5 4 6 8 7 9 8 10 9 12 11 2 13 1 14
REMARK H PARENT 10 10 12 12
ROOT
ATOM      1  C   UNL     1      -0.351  -1.701  -3.470  1.00  0.00     0.105 A 
ATOM      2  C   UNL     1      -0.868  -1.419  -2.236  1.00  0.00     0.172 A 
ATOM      3  C   UNL     1      -1.293  -1.787  -4.602  1.00  0.00     0.020 A 
ATOM      4  C   UNL     1      -2.523  -1.235  -4.443  1.00  0.00     0.005 A 
ATOM      5  C   UNL     1      -2.072  -0.614  -2.078  1.00  0.00     0.161 A 
ATOM      6  C   UNL     1      -2.963  -0.644  -3.222  1.00  0.00     0.050 A 
ENDROOT
BRANCH   1   7
ATOM      7  C   UNL     1       1.166  -1.820  -3.695  1.00  0.00     0.339 C 
ATOM      8  O   UNL     1       1.893  -0.788  -2.665  1.00  0.00    -0.246 OA
BRANCH   7   9
ATOM      9  O   UNL     1       1.849  -2.420  -4.226  1.00  0.00    -0.478 OA
ATOM     10  H   UNL     1       2.492  -2.984  -4.725  1.00  0.00     0.297 HD
ENDBRANCH   7   9
ENDBRANCH   1   7
BRANCH   2  11
ATOM     11  O   UNL     1      -0.247  -1.875  -1.061  1.00  0.00    -0.504 OA
ATOM     12  H   UNL     1       0.190  -2.197  -0.233  1.00  0.00     0.293 HD
ENDBRANCH   2  11
BRANCH   5  13
ATOM     13  O   UNL     1      -2.380  -0.235  -0.777  1.00  0.00    -0.493 OA
ATOM     14  C   UNL     1      -2.199   0.096   0.459  1.00  0.00     0.278 C 
ENDBRANCH   5  13
TORSDOF 4
ENDMDL
MODEL 9
REMARK VINA RESULT:    -3.796      2.081      2.860
REMARK INTER + INTRA:          -4.940
REMARK INTER:                  -4.479
REMARK INTRA:                  -0.461
REMARK UNBOUND:                -0.479
REMARK SMILES COc1cccc(C(=O)O)c1O
REMARK SMILES IDX 7 1 11 2 6 3 5 4 3 5 4 6 8 7 9 8 10 9 12 11 2 13 1 14
REMARK H PARENT 10 10 12 12
ROOT
ATOM      1  C   UNL     1      -1.894  -6.583   1.871  1.00  0.00     0.105 A 
ATOM      2  C   UNL     1      -1.261  -7.795   1.893  1.00  0.00     0.172 A 
ATOM      3  C   UNL     1      -1.237  -5.456   2.557  1.00  0.00     0.020 A 
ATOM      4  C   UNL     1       0.085  -5.575   2.842  1.00  0.00     0.005 A 
ATOM      5  C   UNL     1       0.190  -7.898   1.960  1.00  0.00     0.161 A 
ATOM      6  C   UNL     1       0.840  -6.754   2.572  1.00  0.00     0.050 A 
ENDROOT
BRANCH   1   7
ATOM      7  C   UNL     1      -3.191  -6.372   1.071  1.00  0.00     0.339 C 
ATOM      8  O   UNL     1      -4.213  -7.576   1.474  1.00  0.00    -0.246 OA
BRANCH   7   9
ATOM      9  O   UNL     1      -3.632  -5.653   0.440  1.00  0.00    -0.478 OA
ATOM     10  H   UNL     1      -4.047  -4.977  -0.152  1.00  0.00     0.297 HD
ENDBRANCH   7   9
ENDBRANCH   1   7
BRANCH   2  11
ATOM     11  O   UNL     1      -1.983  -8.999   1.830  1.00  0.00    -0.504 OA
ATOM     12  H   UNL     1      -2.492  -9.848   1.785  1.00  0.00     0.293 HD
ENDBRANCH   2  11
BRANCH   5  13
ATOM     13  O   UNL     1       0.716  -9.170   1.777  1.00  0.00    -0.493 OA
ATOM     14  C   UNL     1       1.600 -10.100   1.621  1.00  0.00     0.278 C 
ENDBRANCH   5  13
TORSDOF 4
ENDMDL
