MODEL 1
REMARK VINA RESULT:    -4.968      0.000      0.000
REMARK INTER + INTRA:          -6.288
REMARK INTER:                  -5.839
REMARK INTRA:                  -0.449
REMARK UNBOUND:                -0.449
REMARK SMILES COc1cccc(C(=O)O)c1O
REMARK SMILES IDX 7 1 11 2 6 3 5 4 3 5 4 6 8 7 9 8 10 9 12 11 2 13 1 14
REMARK H PARENT 10 10 12 12
ROOT
ATOM      1  C   UNL     1       3.103   0.306   5.403  1.00  0.00     0.105 A 
ATOM      2  C   UNL     1       2.603   1.387   4.730  1.00  0.00     0.172 A 
ATOM      3  C   UNL     1       2.590   0.049   6.762  1.00  0.00     0.020 A 
ATOM      4  C   UNL     1       1.424   0.647   7.119  1.00  0.00     0.005 A 
ATOM      5  C   UNL     1       1.249   1.871   4.961  1.00  0.00     0.161 A 
ATOM      6  C   UNL     1       0.720   1.554   6.275  1.00  0.00     0.050 A 
ENDROOT
BRANCH   1   7
ATOM      7  C   UNL     1       4.086  -0.669   4.733  1.00  0.00     0.339 C 
ATOM      8  O   UNL     1       4.133  -0.301   3.147  1.00  0.00    -0.246 OA
BRANCH   7   9
ATOM      9  O   UNL     1       4.784  -1.410   5.003  1.00  0.00    -0.478 OA
ATOM     10  H   UNL     1       5.440  -2.107   5.258  1.00  0.00     0.297 HD
ENDBRANCH   7   9
ENDBRANCH   1   7
BRANCH   2  11
ATOM     11  O   UNL     1       3.367   2.067   3.767  1.00  0.00    -0.504 OA
ATOM     12  H   UNL     1       3.906   2.546   3.089  1.00  0.00     0.293 HD
ENDBRANCH   2  11
BRANCH   5  13
ATOM     13  O   UNL     1       0.795   2.843   4.080  1.00  0.00    -0.493 OA
ATOM     14  C   UNL     1       0.271   3.951   3.669  1.00  0.00     0.278 C 
ENDBRANCH   5  13
TORSDOF 4
ENDMDL
MODEL 2
REMARK VINA RESULT:    -4.899      1.758      4.679
REMARK INTER + INTRA:          -6.207
REMARK INTER:                  -5.774
REMARK INTRA:                  -0.433
REMARK UNBOUND:                -0.449
REMARK SMILES COc1cccc(C(=O)O)c1O
REMARK SMILES IDX 7 1 11 2 6 3 5 4 3 5 4 6 8 7 9 8 10 9 12 11 2 13 1 14
REMARK H PARENT 10 10 12 12
ROOT
ATOM      1  C   UNL     1       1.411   3.397   4.482  1.00  0.00     0.105 A 
ATOM      2  C   UNL     1       1.836   2.100   4.573  1.00  0.00     0.172 A 
ATOM      3  C   UNL     1       2.252   4.437   5.101  1.00  0.00     0.020 A 
ATOM      4  C   UNL     1       3.540   4.118   5.391  1.00  0.00     0.005 A 
ATOM      5  C   UNL     1       3.250   1.763   4.644  1.00  0.00     0.161 A 
ATOM      6  C   UNL     1       4.087   2.817   5.188  1.00  0.00     0.050 A 
ENDROOT
BRANCH   1   7
ATOM      7  C   UNL     1       0.157   3.774   3.674  1.00  0.00     0.339 C 
ATOM      8  O   UNL     1      -0.311   2.446   2.853  1.00  0.00    -0.246 OA
BRANCH   7   9
ATOM      9  O   UNL     1      -0.518   4.576   3.575  1.00  0.00    -0.478 OA
ATOM     10  H   UNL     1      -1.153   5.330   3.483  1.00  0.00     0.297 HD
ENDBRANCH   7   9
ENDBRANCH   1   7
BRANCH   2  11
ATOM     11  O   UNL     1       0.924   1.030   4.581  1.00  0.00    -0.504 OA
ATOM     12  H   UNL     1       0.282   0.277   4.586  1.00  0.00     0.293 HD
ENDBRANCH   2  11
BRANCH   5  13
ATOM     13  O   UNL     1       3.558   0.413   4.533  1.00  0.00    -0.493 OA
ATOM     14  C   UNL     1       3.957  -0.766   4.879  1.00  0.00     0.278 C 
ENDBRANCH   5  13
TORSDOF 4
ENDMDL
MODEL 3
REMARK VINA RESULT:    -4.727      2.919      4.409
REMARK INTER + INTRA:          -6.006
REMARK INTER:                  -5.735
REMARK INTRA:                  -0.271
REMARK UNBOUND:                -0.449
REMARK SMILES COc1cccc(C(=O)O)c1O
REMARK SMILES IDX 7 1 11 2 6 3 5 4 3 5 4 6 8 7 9 8 10 9 12 11 2 13 1 14
REMARK H PARENT 10 10 12 12
ROOT
ATOM      1  C   UNL     1       1.478   3.056   4.472  1.00  0.00     0.105 A 
ATOM      2  C   UNL     1       2.104   3.724   5.488  1.00  0.00     0.172 A 
ATOM      3  C   UNL     1       1.764   1.618   4.321  1.00  0.00     0.020 A 
ATOM      4  C   UNL     1       2.316   0.969   5.379  1.00  0.00     0.005 A 
ATOM      5  C   UNL     1       2.478   3.054   6.726  1.00  0.00     0.161 A 
ATOM      6  C   UNL     1       2.689   1.625   6.589  1.00  0.00     0.050 A 
ENDROOT
BRANCH   1   7
ATOM      7  C   UNL     1       0.434   3.751   3.582  1.00  0.00     0.339 C 
ATOM      8  O   UNL     1      -0.475   2.586   2.896  1.00  0.00    -0.246 OA
BRANCH   7   9
ATOM      9  O   UNL     1       0.083   4.722   3.372  1.00  0.00    -0.478 OA
ATOM     10  H   UNL     1      -0.246   5.635   3.175  1.00  0.00     0.297 HD
ENDBRANCH   7   9
ENDBRANCH   1   7
BRANCH   2  11
ATOM     11  O   UNL     1       2.396   5.095   5.393  1.00  0.00    -0.504 OA
ATOM     12  H   UNL     1       2.602   6.061   5.325  1.00  0.00     0.293 HD
ENDBRANCH   2  11
BRANCH   5  13
ATOM     13  O   UNL     1       2.924   3.879   7.750  1.00  0.00    -0.493 OA
ATOM     14  C   UNL     1       2.954   4.466   8.901  1.00  0.00     0.278 C 
ENDBRANCH   5  13
TORSDOF 4
ENDMDL
MODEL 4
REMARK VINA RESULT:    -4.727      2.206      3.192
REMARK INTER + INTRA:          -6.006
REMARK INTER:                  -5.735
REMARK INTRA:                  -0.270
REMARK UNBOUND:                -0.449
REMARK SMILES COc1cccc(C(=O)O)c1O
REMARK SMILES IDX 7 1 11 2 6 3 5 4 3 5 4 6 8 7 9 8 10 9 12 11 2 13 1 14
REMARK H PARENT 10 10 12 12
ROOT
ATOM      1  C   UNL     1       2.990   0.549   5.188  1.00  0.00     0.105 A 
ATOM      2  C   UNL     1       2.785   0.814   6.514  1.00  0.00     0.172 A 
ATOM      3  C   UNL     1       2.500   1.538   4.210  1.00  0.00     0.020 A 
ATOM      4  C   UNL     1       2.218   2.787   4.663  1.00  0.00     0.005 A 
ATOM      5  C   UNL     1       2.724   2.177   7.020  1.00  0.00     0.161 A 
ATOM      6  C   UNL     1       2.310   3.160   6.036  1.00  0.00     0.050 A 
ENDROOT
BRANCH   1   7
ATOM      7  C   UNL     1       3.794  -0.681   4.731  1.00  0.00     0.339 C 
ATOM      8  O   UNL     1       4.301  -0.394   3.210  1.00  0.00    -0.246 OA
BRANCH   7   9
ATOM      9  O   UNL     1       4.181  -1.574   5.132  1.00  0.00    -0.478 OA
ATOM     10  H   UNL     1       4.545  -2.415   5.508  1.00  0.00     0.297 HD
ENDBRANCH   7   9
ENDBRANCH   1   7
BRANCH   2  11
ATOM     11  O   UNL     1       2.647  -0.222   7.454  1.00  0.00    -0.504 OA
ATOM     12  H   UNL     1       2.549  -0.952   8.116  1.00  0.00     0.293 HD
ENDBRANCH   2  11
BRANCH   5  13
ATOM     13  O   UNL     1       2.711   2.310   8.403  1.00  0.00    -0.493 OA
ATOM     14  C   UNL     1       3.078   2.689   9.583  1.00  0.00     0.278 C 
ENDBRANCH   5  13
TORSDOF 4
ENDMDL
MODEL 5
REMARK VINA RESULT:    -4.055      2.352      4.634
REMARK INTER + INTRA:          -5.216
REMARK INTER:                  -5.010
REMARK INTRA:                  -0.205
REMARK UNBOUND:                -0.449
REMARK SMILES COc1cccc(C(=O)O)c1O
REMARK SMILES IDX 7 1 11 2 6 3 5 4 3 5 4 6 8 7 9 8 10 9 12 11 2 13 1 14
REMARK H PARENT 10 10 12 12
ROOT
ATOM      1  C   UNL     1       2.274   3.953   4.976  1.00  0.00     0.105 A 
ATOM      2  C   UNL     1       3.088   2.866   4.812  1.00  0.00     0.172 A 
ATOM      3  C   UNL     1       0.988   3.958   4.254  1.00  0.00     0.020 A 
ATOM      4  C   UNL     1       0.524   2.773   3.782  1.00  0.00     0.005 A 
ATOM      5  C   UNL     1       2.548   1.542   4.538  1.00  0.00     0.161 A 
ATOM      6  C   UNL     1       1.248   1.550   3.892  1.00  0.00     0.050 A 
ENDROOT
BRANCH   1   7
ATOM      7  C   UNL     1       2.633   5.081   5.958  1.00  0.00     0.339 C 
ATOM      8  O   UNL     1       2.826   4.405   7.427  1.00  0.00    -0.246 OA
BRANCH   7   9
ATOM      9  O   UNL     1       2.879   6.105   5.941  1.00  0.00    -0.478 OA
ATOM     10  H   UNL     1       3.109   7.068   5.926  1.00  0.00     0.297 HD
ENDBRANCH   7   9
ENDBRANCH   1   7
BRANCH   2  11
ATOM     11  O   UNL     1       4.484   2.974   4.923  1.00  0.00    -0.504 OA
ATOM     12  H   UNL     1       5.468   3.051   5.001  1.00  0.00     0.293 HD
ENDBRANCH   2  11
BRANCH   5  13
ATOM     13  O   UNL     1       3.458   0.494   4.590  1.00  0.00    -0.493 OA
ATOM     14  C   UNL     1       3.981  -0.635   4.940  1.00  0.00     0.278 C 
ENDBRANCH   5  13
TORSDOF 4
ENDMDL
MODEL 6
REMARK VINA RESULT:    -4.055      2.184      3.097
REMARK INTER + INTRA:          -5.215
REMARK INTER:                  -4.903
REMARK INTRA:                  -0.312
REMARK UNBOUND:                -0.449
REMARK SMILES COc1cccc(C(=O)O)c1O
REMARK SMILES IDX 7 1 11 2 6 3 5 4 3 5 4 6 8 7 9 8 10 9 12 11 2 13 1 14
REMARK H PARENT 10 10 12 12
ROOT
ATOM      1  C   UNL     1       2.528   0.303   6.427  1.00  0.00     0.105 A 
ATOM      2  C   UNL     1       1.591   1.156   5.912  1.00  0.00     0.172 A 
ATOM      3  C   UNL     1       3.470  -0.328   5.485  1.00  0.00     0.020 A 
ATOM      4  C   UNL     1       3.601   0.232   4.254  1.00  0.00     0.005 A 
ATOM      5  C   UNL     1       1.847   1.935   4.709  1.00  0.00     0.161 A 
ATOM      6  C   UNL     1       2.828   1.347   3.816  1.00  0.00     0.050 A 
ENDROOT
BRANCH   1   7
ATOM      7  C   UNL     1       2.666   0.088   7.944  1.00  0.00     0.339 C 
ATOM      8  O   UNL     1       2.559   1.550   8.655  1.00  0.00    -0.246 OA
BRANCH   7   9
ATOM      9  O   UNL     1       2.708  -0.703   8.638  1.00  0.00    -0.478 OA
ATOM     10  H   UNL     1       2.748  -1.448   9.290  1.00  0.00     0.297 HD
ENDBRANCH   7   9
ENDBRANCH   1   7
BRANCH   2  11
ATOM     11  O   UNL     1       0.344   1.337   6.534  1.00  0.00    -0.504 OA
ATOM     12  H   UNL     1      -0.534   1.464   6.973  1.00  0.00     0.293 HD
ENDBRANCH   2  11
BRANCH   5  13
ATOM     13  O   UNL     1       0.901   2.905   4.402  1.00  0.00    -0.493 OA
ATOM     14  C   UNL     1       0.320   3.864   3.760  1.00  0.00     0.278 C 
ENDBRANCH   5  13
TORSDOF 4
ENDMDL
MODEL 7
REMARK VINA RESULT:    -3.907      7.238      7.743
REMARK INTER + INTRA:          -5.041
REMARK INTER:                  -4.748
REMARK INTRA:                  -0.293
REMARK UNBOUND:                -0.449
REMARK SMILES COc1cccc(C(=O)O)c1O
REMARK SMILES IDX 7 1 11 2 6 3 5 4 3 5 4 6 8 7 9 8 10 9 12 11 2 13 1 14
REMARK H PARENT 10 10 12 12
ROOT
ATOM      1  C   UNL     1      -2.159  -3.185   0.827  1.00  0.00     0.105 A 
ATOM      2  C   UNL     1      -1.204  -2.348   0.320  1.00  0.00     0.172 A 
ATOM      3  C   UNL     1      -3.571  -2.790   0.666  1.00  0.00     0.020 A 
ATOM      4  C   UNL     1      -3.859  -1.847  -0.267  1.00  0.00     0.005 A 
ATOM      5  C   UNL     1      -1.463  -1.509  -0.842  1.00  0.00     0.161 A 
ATOM      6  C   UNL     1      -2.863  -1.181  -1.040  1.00  0.00     0.050 A 
ENDROOT
BRANCH   1   7
ATOM      7  C   UNL     1      -1.785  -4.541   1.450  1.00  0.00     0.339 C 
ATOM      8  O   UNL     1      -0.464  -5.088   0.670  1.00  0.00    -0.246 OA
BRANCH   7   9
ATOM      9  O   UNL     1      -2.061  -5.148   2.265  1.00  0.00    -0.478 OA
ATOM     10  H   UNL     1      -2.321  -5.719   3.032  1.00  0.00     0.297 HD
ENDBRANCH   7   9
ENDBRANCH   1   7
BRANCH   2  11
ATOM     11  O   UNL     1       0.080  -2.274   0.885  1.00  0.00    -0.504 OA
ATOM     12  H   UNL     1       0.985  -2.223   1.284  1.00  0.00     0.293 HD
ENDBRANCH   2  11
BRANCH   5  13
ATOM     13  O   UNL     1      -0.359  -0.857  -1.377  1.00  0.00    -0.493 OA
ATOM     14  C   UNL     1       0.862  -0.659  -1.751  1.00  0.00     0.278 C 
ENDBRANCH   5  13
TORSDOF 4
ENDMDL
MODEL 8
REMARK VINA RESULT:    -3.894      2.305      4.405
REMARK INTER + INTRA:          -5.026
REMARK INTER:                  -4.592
REMARK INTRA:                  -0.434
REMARK UNBOUND:                -0.449
REMARK SMILES COc1cccc(C(=O)O)c1O
REMARK SMILES IDX 7 1 11 2 6 3 5 4 3 5 4 6 8 7 9 8 10 9 12 11 2 13 1 14
REMARK H PARENT 10 10 12 12
ROOT
ATOM      1  C   UNL     1       1.872   1.839   4.525  1.00  0.00     0.105 A 
ATOM      2  C   UNL     1       2.034   1.694   5.875  1.00  0.00     0.172 A 
ATOM      3  C   UNL     1       2.820   1.135   3.643  1.00  0.00     0.020 A 
ATOM      4  C   UNL     1       3.545   0.119   4.178  1.00  0.00     0.005 A 
ATOM      5  C   UNL     1       2.602   0.483   6.451  1.00  0.00     0.161 A 
ATOM      6  C   UNL     1       3.480  -0.247   5.555  1.00  0.00     0.050 A 
ENDROOT
BRANCH   1   7
ATOM      7  C   UNL     1       0.681   2.620   3.941  1.00  0.00     0.339 C 
ATOM      8  O   UNL     1       0.752   4.133   4.539  1.00  0.00    -0.246 OA
BRANCH   7   9
ATOM      9  O   UNL     1      -0.077   2.497   3.221  1.00  0.00    -0.478 OA
ATOM     10  H   UNL     1      -0.791   2.382   2.545  1.00  0.00     0.297 HD
ENDBRANCH   7   9
ENDBRANCH   1   7
BRANCH   2  11
ATOM     11  O   UNL     1       1.639   2.702   6.772  1.00  0.00    -0.504 OA
ATOM     12  H   UNL     1       1.361   3.412   7.403  1.00  0.00     0.293 HD
ENDBRANCH   2  11
BRANCH   5  13
ATOM     13  O   UNL     1       2.531   0.379   7.834  1.00  0.00    -0.493 OA
ATOM     14  C   UNL     1       2.727  -0.094   9.021  1.00  0.00     0.278 C 
ENDBRANCH   5  13
TORSDOF 4
ENDMDL
MODEL 9
REMARK VINA RESULT:    -3.790      2.201      2.757
REMARK INTER + INTRA:          -4.904
REMARK INTER:                  -4.654
REMARK INTRA:                  -0.250
REMARK UNBOUND:                -0.449
REMARK SMILES COc1cccc(C(=O)O)c1O
REMARK SMILES IDX 7 1 11 2 6 3 5 4 3 5 4 6 8 7 9 8 10 9 12 11 2 13 1 14
REMARK H PARENT 10 10 12 12
ROOT
ATOM      1  C   UNL     1       2.667   1.495   4.904  1.00  0.00     0.105 A 
ATOM      2  C   UNL     1       2.839   2.591   5.705  1.00  0.00     0.172 A 
ATOM      3  C   UNL     1       1.482   1.469   4.027  1.00  0.00     0.020 A 
ATOM      4  C   UNL     1       0.847   2.645   3.788  1.00  0.00     0.005 A 
ATOM      5  C   UNL     1       2.352   3.906   5.314  1.00  0.00     0.161 A 
ATOM      6  C   UNL     1       1.230   3.877   4.395  1.00  0.00     0.050 A 
ENDROOT
BRANCH   1   7
ATOM      7  C   UNL     1       3.723   0.379   4.838  1.00  0.00     0.339 C 
ATOM      8  O   UNL     1       3.893  -0.039   3.272  1.00  0.00    -0.246 OA
BRANCH   7   9
ATOM      9  O   UNL     1       4.412  -0.106   5.469  1.00  0.00    -0.478 OA
ATOM     10  H   UNL     1       5.061  -0.562   6.063  1.00  0.00     0.297 HD
ENDBRANCH   7   9
ENDBRANCH   1   7
BRANCH   2  11
ATOM     11  O   UNL     1       3.514   2.500   6.934  1.00  0.00    -0.504 OA
ATOM     12  H   UNL     1       3.989   2.435   7.800  1.00  0.00     0.293 HD
ENDBRANCH   2  11
BRANCH   5  13
ATOM     13  O   UNL     1       2.760   4.965   6.115  1.00  0.00    -0.493 OA
ATOM     14  C   UNL     1       2.774   6.145   6.642  1.00  0.00     0.278 C 
ENDBRANCH   5  13
TORSDOF 4
ENDMDL
