MODEL 1
REMARK VINA RESULT:    -4.893      0.000      0.000
REMARK INTER + INTRA:          -6.213
REMARK INTER:                  -5.751
REMARK INTRA:                  -0.462
REMARK UNBOUND:                -0.462
REMARK SMILES COc1cccc(C(=O)O)c1O
REMARK SMILES IDX 7 1 11 2 6 3 5 4 3 5 4 6 8 7 9 8 10 9 12 11 2 13 1 14
REMARK H PARENT 10 10 12 12
ROOT
ATOM      1  C   UNL     1       3.949   6.493  -2.433  1.00  0.00     0.105 A 
ATOM      2  C   UNL     1       2.620   6.417  -2.119  1.00  0.00     0.172 A 
ATOM      3  C   UNL     1       4.699   7.667  -1.950  1.00  0.00     0.020 A 
ATOM      4  C   UNL     1       4.152   8.395  -0.943  1.00  0.00     0.005 A 
ATOM      5  C   UNL     1       2.088   7.008  -0.899  1.00  0.00     0.161 A 
ATOM      6  C   UNL     1       2.869   8.118  -0.386  1.00  0.00     0.050 A 
ENDROOT
BRANCH   1   7
ATOM      7  C   UNL     1       4.664   5.349  -3.172  1.00  0.00     0.339 C 
ATOM      8  O   UNL     1       3.655   4.069  -3.179  1.00  0.00    -0.246 OA
BRANCH   7   9
ATOM      9  O   UNL     1       5.537   5.187  -3.737  1.00  0.00    -0.478 OA
ATOM     10  H   UNL     1       6.359   5.034  -4.269  1.00  0.00     0.297 HD
ENDBRANCH   7   9
ENDBRANCH   1   7
BRANCH   2  11
ATOM     11  O   UNL     1       1.709   5.744  -2.951  1.00  0.00    -0.504 OA
ATOM     12  H   UNL     1       1.067   5.270  -3.537  1.00  0.00     0.293 HD
ENDBRANCH   2  11
BRANCH   5  13
ATOM     13  O   UNL     1       0.769   6.693  -0.599  1.00  0.00    -0.493 OA
ATOM     14  C   UNL     1      -0.462   6.862  -0.243  1.00  0.00     0.278 C 
ENDBRANCH   5  13
TORSDOF 4
ENDMDL
MODEL 2
REMARK VINA RESULT:    -4.779      1.777      4.636
REMARK INTER + INTRA:          -6.079
REMARK INTER:                  -5.636
REMARK INTRA:                  -0.443
REMARK UNBOUND:                -0.462
REMARK SMILES COc1cccc(C(=O)O)c1O
REMARK SMILES IDX 7 1 11 2 6 3 5 4 3 5 4 6 8 7 9 8 10 9 12 11 2 13 1 14
REMARK H PARENT 10 10 12 12
ROOT
ATOM      1  C   UNL     1       0.677   7.234  -1.341  1.00  0.00     0.105 A 
ATOM      2  C   UNL     1       1.890   6.662  -1.608  1.00  0.00     0.172 A 
ATOM      3  C   UNL     1       0.112   8.143  -2.356  1.00  0.00     0.020 A 
ATOM      4  C   UNL     1       0.619   8.077  -3.614  1.00  0.00     0.005 A 
ATOM      5  C   UNL     1       2.319   6.380  -2.970  1.00  0.00     0.161 A 
ATOM      6  C   UNL     1       1.707   7.228  -3.975  1.00  0.00     0.050 A 
ENDROOT
BRANCH   1   7
ATOM      7  C   UNL     1      -0.122   6.866  -0.079  1.00  0.00     0.339 C 
ATOM      8  O   UNL     1       0.554   5.524   0.551  1.00  0.00    -0.246 OA
BRANCH   7   9
ATOM      9  O   UNL     1      -0.885   7.265   0.527  1.00  0.00    -0.478 OA
ATOM     10  H   UNL     1      -1.602   7.640   1.097  1.00  0.00     0.297 HD
ENDBRANCH   7   9
ENDBRANCH   1   7
BRANCH   2  11
ATOM     11  O   UNL     1       2.771   6.300  -0.574  1.00  0.00    -0.504 OA
ATOM     12  H   UNL     1       3.392   6.045   0.154  1.00  0.00     0.293 HD
ENDBRANCH   2  11
BRANCH   5  13
ATOM     13  O   UNL     1       3.476   5.622  -3.096  1.00  0.00    -0.493 OA
ATOM     14  C   UNL     1       4.737   5.341  -3.138  1.00  0.00     0.278 C 
ENDBRANCH   5  13
TORSDOF 4
ENDMDL
MODEL 3
REMARK VINA RESULT:    -4.716      2.948      4.427
REMARK INTER + INTRA:          -6.005
REMARK INTER:                  -5.742
REMARK INTRA:                  -0.263
REMARK UNBOUND:                -0.462
REMARK SMILES COc1cccc(C(=O)O)c1O
REMARK SMILES IDX 7 1 11 2 6 3 5 4 3 5 4 6 8 7 9 8 10 9 12 11 2 13 1 14
REMARK H PARENT 10 10 12 12
ROOT
ATOM      1  C   UNL     1       0.824   7.054  -1.287  1.00  0.00     0.105 A 
ATOM      2  C   UNL     1       0.722   8.145  -2.105  1.00  0.00     0.172 A 
ATOM      3  C   UNL     1       2.078   6.281  -1.333  1.00  0.00     0.020 A 
ATOM      4  C   UNL     1       3.168   6.878  -1.880  1.00  0.00     0.005 A 
ATOM      5  C   UNL     1       1.891   8.922  -2.493  1.00  0.00     0.161 A 
ATOM      6  C   UNL     1       3.136   8.177  -2.468  1.00  0.00     0.050 A 
ENDROOT
BRANCH   1   7
ATOM      7  C   UNL     1      -0.283   6.703  -0.278  1.00  0.00     0.339 C 
ATOM      8  O   UNL     1       0.348   5.650   0.792  1.00  0.00    -0.246 OA
BRANCH   7   9
ATOM      9  O   UNL     1      -1.260   7.008  -0.028  1.00  0.00    -0.478 OA
ATOM     10  H   UNL     1      -2.178   7.294   0.209  1.00  0.00     0.297 HD
ENDBRANCH   7   9
ENDBRANCH   1   7
BRANCH   2  11
ATOM     11  O   UNL     1      -0.523   8.580  -2.593  1.00  0.00    -0.504 OA
ATOM     12  H   UNL     1      -1.399   8.886  -2.937  1.00  0.00     0.293 HD
ENDBRANCH   2  11
BRANCH   5  13
ATOM     13  O   UNL     1       1.633  10.113  -3.159  1.00  0.00    -0.493 OA
ATOM     14  C   UNL     1       1.486  11.383  -3.348  1.00  0.00     0.278 C 
ENDBRANCH   5  13
TORSDOF 4
ENDMDL
MODEL 4
REMARK VINA RESULT:    -4.712      2.141      3.130
REMARK INTER + INTRA:          -6.000
REMARK INTER:                  -5.731
REMARK INTRA:                  -0.269
REMARK UNBOUND:                -0.462
REMARK SMILES COc1cccc(C(=O)O)c1O
REMARK SMILES IDX 7 1 11 2 6 3 5 4 3 5 4 6 8 7 9 8 10 9 12 11 2 13 1 14
REMARK H PARENT 10 10 12 12
ROOT
ATOM      1  C   UNL     1       3.621   6.373  -2.339  1.00  0.00     0.105 A 
ATOM      2  C   UNL     1       3.927   7.704  -2.272  1.00  0.00     0.172 A 
ATOM      3  C   UNL     1       2.285   5.954  -1.877  1.00  0.00     0.020 A 
ATOM      4  C   UNL     1       1.328   6.910  -1.765  1.00  0.00     0.005 A 
ATOM      5  C   UNL     1       2.901   8.730  -2.393  1.00  0.00     0.161 A 
ATOM      6  C   UNL     1       1.573   8.294  -2.005  1.00  0.00     0.050 A 
ENDROOT
BRANCH   1   7
ATOM      7  C   UNL     1       4.592   5.360  -2.972  1.00  0.00     0.339 C 
ATOM      8  O   UNL     1       3.731   4.028  -3.344  1.00  0.00    -0.246 OA
BRANCH   7   9
ATOM      9  O   UNL     1       5.587   5.314  -3.312  1.00  0.00    -0.478 OA
ATOM     10  H   UNL     1       6.523   5.271  -3.632  1.00  0.00     0.297 HD
ENDBRANCH   7   9
ENDBRANCH   1   7
BRANCH   2  11
ATOM     11  O   UNL     1       5.251   8.143  -2.103  1.00  0.00    -0.504 OA
ATOM     12  H   UNL     1       6.184   8.452  -1.984  1.00  0.00     0.293 HD
ENDBRANCH   2  11
BRANCH   5  13
ATOM     13  O   UNL     1       3.362  10.036  -2.507  1.00  0.00    -0.493 OA
ATOM     14  C   UNL     1       3.655  11.170  -3.054  1.00  0.00     0.278 C 
ENDBRANCH   5  13
TORSDOF 4
ENDMDL
MODEL 5
REMARK VINA RESULT:    -4.109      2.683      4.256
REMARK INTER + INTRA:          -5.291
REMARK INTER:                  -4.825
REMARK INTRA:                  -0.466
REMARK UNBOUND:                -0.462
REMARK SMILES COc1cccc(C(=O)O)c1O
REMARK SMILES IDX 7 1 11 2 6 3 5 4 3 5 4 6 8 7 9 8 10 9 12 11 2 13 1 14
REMARK H PARENT 10 10 12 12
ROOT
ATOM      1  C   UNL     1       1.369   6.448  -1.392  1.00  0.00     0.105 A 
ATOM      2  C   UNL     1       1.436   7.621  -2.093  1.00  0.00     0.172 A 
ATOM      3  C   UNL     1       2.346   5.396  -1.726  1.00  0.00     0.020 A 
ATOM      4  C   UNL     1       3.456   5.762  -2.418  1.00  0.00     0.005 A 
ATOM      5  C   UNL     1       2.694   8.120  -2.628  1.00  0.00     0.161 A 
ATOM      6  C   UNL     1       3.681   7.089  -2.889  1.00  0.00     0.050 A 
ENDROOT
BRANCH   1   7
ATOM      7  C   UNL     1       0.381   6.267  -0.226  1.00  0.00     0.339 C 
ATOM      8  O   UNL     1      -1.054   6.872  -0.706  1.00  0.00    -0.246 OA
BRANCH   7   9
ATOM      9  O   UNL     1       0.336   5.798   0.715  1.00  0.00    -0.478 OA
ATOM     10  H   UNL     1       0.292   5.356   1.600  1.00  0.00     0.297 HD
ENDBRANCH   7   9
ENDBRANCH   1   7
BRANCH   2  11
ATOM     11  O   UNL     1       0.293   8.410  -2.309  1.00  0.00    -0.504 OA
ATOM     12  H   UNL     1      -0.512   8.966  -2.461  1.00  0.00     0.293 HD
ENDBRANCH   2  11
BRANCH   5  13
ATOM     13  O   UNL     1       2.664   9.410  -3.144  1.00  0.00    -0.493 OA
ATOM     14  C   UNL     1       2.982  10.651  -3.310  1.00  0.00     0.278 C 
ENDBRANCH   5  13
TORSDOF 4
ENDMDL
MODEL 6
REMARK VINA RESULT:    -4.107      2.051      2.984
REMARK INTER + INTRA:          -5.290
REMARK INTER:                  -4.827
REMARK INTRA:                  -0.462
REMARK UNBOUND:                -0.462
REMARK SMILES COc1cccc(C(=O)O)c1O
REMARK SMILES IDX 7 1 11 2 6 3 5 4 3 5 4 6 8 7 9 8 10 9 12 11 2 13 1 14
REMARK H PARENT 10 10 12 12
ROOT
ATOM      1  C   UNL     1       3.024   6.081  -2.002  1.00  0.00     0.105 A 
ATOM      2  C   UNL     1       3.242   7.430  -2.052  1.00  0.00     0.172 A 
ATOM      3  C   UNL     1       1.875   5.602  -1.212  1.00  0.00     0.020 A 
ATOM      4  C   UNL     1       0.908   6.502  -0.896  1.00  0.00     0.005 A 
ATOM      5  C   UNL     1       2.147   8.385  -1.948  1.00  0.00     0.161 A 
ATOM      6  C   UNL     1       0.988   7.886  -1.231  1.00  0.00     0.050 A 
ENDROOT
BRANCH   1   7
ATOM      7  C   UNL     1       3.880   5.101  -2.823  1.00  0.00     0.339 C 
ATOM      8  O   UNL     1       5.435   5.560  -2.663  1.00  0.00    -0.246 OA
BRANCH   7   9
ATOM      9  O   UNL     1       3.771   4.199  -3.356  1.00  0.00    -0.478 OA
ATOM     10  H   UNL     1       3.669   3.352  -3.858  1.00  0.00     0.297 HD
ENDBRANCH   7   9
ENDBRANCH   1   7
BRANCH   2  11
ATOM     11  O   UNL     1       4.533   7.957  -2.228  1.00  0.00    -0.504 OA
ATOM     12  H   UNL     1       5.442   8.328  -2.353  1.00  0.00     0.293 HD
ENDBRANCH   2  11
BRANCH   5  13
ATOM     13  O   UNL     1       2.472   9.709  -2.211  1.00  0.00    -0.493 OA
ATOM     14  C   UNL     1       2.508  10.844  -2.828  1.00  0.00     0.278 C 
ENDBRANCH   5  13
TORSDOF 4
ENDMDL
MODEL 7
REMARK VINA RESULT:    -4.082      2.182      3.099
REMARK INTER + INTRA:          -5.260
REMARK INTER:                  -4.956
REMARK INTRA:                  -0.304
REMARK UNBOUND:                -0.462
REMARK SMILES COc1cccc(C(=O)O)c1O
REMARK SMILES IDX 7 1 11 2 6 3 5 4 3 5 4 6 8 7 9 8 10 9 12 11 2 13 1 14
REMARK H PARENT 10 10 12 12
ROOT
ATOM      1  C   UNL     1       4.304   7.494  -1.931  1.00  0.00     0.105 A 
ATOM      2  C   UNL     1       3.188   7.507  -1.141  1.00  0.00     0.172 A 
ATOM      3  C   UNL     1       4.596   6.259  -2.682  1.00  0.00     0.020 A 
ATOM      4  C   UNL     1       3.587   5.365  -2.842  1.00  0.00     0.005 A 
ATOM      5  C   UNL     1       2.013   6.711  -1.467  1.00  0.00     0.161 A 
ATOM      6  C   UNL     1       2.294   5.533  -2.266  1.00  0.00     0.050 A 
ENDROOT
BRANCH   1   7
ATOM      7  C   UNL     1       5.169   8.753  -2.116  1.00  0.00     0.339 C 
ATOM      8  O   UNL     1       4.157  10.009  -2.346  1.00  0.00    -0.246 OA
BRANCH   7   9
ATOM      9  O   UNL     1       6.177   9.047  -2.043  1.00  0.00    -0.478 OA
ATOM     10  H   UNL     1       7.126   9.323  -1.974  1.00  0.00     0.297 HD
ENDBRANCH   7   9
ENDBRANCH   1   7
BRANCH   2  11
ATOM     11  O   UNL     1       3.116   8.308   0.011  1.00  0.00    -0.504 OA
ATOM     12  H   UNL     1       3.066   8.873   0.823  1.00  0.00     0.293 HD
ENDBRANCH   2  11
BRANCH   5  13
ATOM     13  O   UNL     1       0.881   6.962  -0.702  1.00  0.00    -0.493 OA
ATOM     14  C   UNL     1      -0.345   6.888  -0.299  1.00  0.00     0.278 C 
ENDBRANCH   5  13
TORSDOF 4
ENDMDL
MODEL 8
REMARK VINA RESULT:    -4.063      2.410      4.668
REMARK INTER + INTRA:          -5.237
REMARK INTER:                  -4.881
REMARK INTRA:                  -0.356
REMARK UNBOUND:                -0.462
REMARK SMILES COc1cccc(C(=O)O)c1O
REMARK SMILES IDX 7 1 11 2 6 3 5 4 3 5 4 6 8 7 9 8 10 9 12 11 2 13 1 14
REMARK H PARENT 10 10 12 12
ROOT
ATOM      1  C   UNL     1       0.431   7.871  -2.296  1.00  0.00     0.105 A 
ATOM      2  C   UNL     1       1.546   7.291  -2.837  1.00  0.00     0.172 A 
ATOM      3  C   UNL     1      -0.113   7.283  -1.058  1.00  0.00     0.020 A 
ATOM      4  C   UNL     1       0.699   6.467  -0.337  1.00  0.00     0.005 A 
ATOM      5  C   UNL     1       2.535   6.619  -2.007  1.00  0.00     0.161 A 
ATOM      6  C   UNL     1       2.013   6.103  -0.755  1.00  0.00     0.050 A 
ENDROOT
BRANCH   1   7
ATOM      7  C   UNL     1      -0.175   9.152  -2.894  1.00  0.00     0.339 C 
ATOM      8  O   UNL     1       1.061  10.124  -3.318  1.00  0.00    -0.246 OA
BRANCH   7   9
ATOM      9  O   UNL     1      -1.113   9.529  -3.189  1.00  0.00    -0.478 OA
ATOM     10  H   UNL     1      -1.995   9.883  -3.466  1.00  0.00     0.297 HD
ENDBRANCH   7   9
ENDBRANCH   1   7
BRANCH   2  11
ATOM     11  O   UNL     1       1.797   7.338  -4.218  1.00  0.00    -0.504 OA
ATOM     12  H   UNL     1       1.974   7.371  -5.192  1.00  0.00     0.293 HD
ENDBRANCH   2  11
BRANCH   5  13
ATOM     13  O   UNL     1       3.711   6.248  -2.648  1.00  0.00    -0.493 OA
ATOM     14  C   UNL     1       4.677   5.493  -3.057  1.00  0.00     0.278 C 
ENDBRANCH   5  13
TORSDOF 4
ENDMDL
MODEL 9
REMARK VINA RESULT:    -3.907      7.238      7.749
REMARK INTER + INTRA:          -5.054
REMARK INTER:                  -4.800
REMARK INTRA:                  -0.254
REMARK UNBOUND:                -0.462
REMARK SMILES COc1cccc(C(=O)O)c1O
REMARK SMILES IDX 7 1 11 2 6 3 5 4 3 5 4 6 8 7 9 8 10 9 12 11 2 13 1 14
REMARK H PARENT 10 10 12 12
ROOT
ATOM      1  C   UNL     1       4.251   1.657   3.691  1.00  0.00     0.105 A 
ATOM      2  C   UNL     1       3.438   1.404   2.620  1.00  0.00     0.172 A 
ATOM      3  C   UNL     1       3.608   1.899   4.996  1.00  0.00     0.020 A 
ATOM      4  C   UNL     1       2.317   1.506   5.146  1.00  0.00     0.005 A 
ATOM      5  C   UNL     1       2.143   0.758   2.780  1.00  0.00     0.161 A 
ATOM      6  C   UNL     1       1.545   0.938   4.090  1.00  0.00     0.050 A 
ENDROOT
BRANCH   1   7
ATOM      7  C   UNL     1       5.783   1.586   3.567  1.00  0.00     0.339 C 
ATOM      8  O   UNL     1       6.129   0.450   2.452  1.00  0.00    -0.246 OA
BRANCH   7   9
ATOM      9  O   UNL     1       6.635   2.104   3.904  1.00  0.00    -0.478 OA
ATOM     10  H   UNL     1       7.437   2.591   4.221  1.00  0.00     0.297 HD
ENDBRANCH   7   9
ENDBRANCH   1   7
BRANCH   2  11
ATOM     11  O   UNL     1       3.826   1.740   1.312  1.00  0.00    -0.504 OA
ATOM     12  H   UNL     1       4.100   1.976   0.390  1.00  0.00     0.293 HD
ENDBRANCH   2  11
BRANCH   5  13
ATOM     13  O   UNL     1       1.506   0.381   1.605  1.00  0.00    -0.493 OA
ATOM     14  C   UNL     1       1.355   0.065   0.361  1.00  0.00     0.278 C 
ENDBRANCH   5  13
TORSDOF 4
ENDMDL
