MODEL 1
REMARK VINA RESULT:    -4.945      0.000      0.000
REMARK INTER + INTRA:          -6.083
REMARK INTER:                  -5.812
REMARK INTRA:                  -0.271
REMARK UNBOUND:                -0.271
REMARK SMILES COc1cccc(C(=O)O)c1O
REMARK SMILES IDX 7 1 11 2 6 3 5 4 3 5 4 6 8 7 9 8 10 9 12 11 2 13 1 14
REMARK H PARENT 10 10 12 12
ROOT
ATOM      1  C   UNL     1      -0.115   6.085  -3.861  1.00  0.00     0.105 A 
ATOM      2  C   UNL     1      -0.206   7.323  -4.436  1.00  0.00     0.172 A 
ATOM      3  C   UNL     1      -0.126   6.012  -2.389  1.00  0.00     0.020 A 
ATOM      4  C   UNL     1      -0.585   7.093  -1.707  1.00  0.00     0.005 A 
ATOM      5  C   UNL     1      -0.916   8.416  -3.786  1.00  0.00     0.161 A 
ATOM      6  C   UNL     1      -0.987   8.305  -2.341  1.00  0.00     0.050 A 
ENDROOT
BRANCH   1   7
ATOM      7  C   UNL     1      -0.108   4.805  -4.716  1.00  0.00     0.339 C 
ATOM      8  O   UNL     1      -0.555   3.573  -3.749  1.00  0.00    -0.246 OA
BRANCH   7   9
ATOM      9  O   UNL     1       0.000   4.519  -5.723  1.00  0.00    -0.478 OA
ATOM     10  H   UNL     1       0.102   4.250  -6.671  1.00  0.00     0.297 HD
ENDBRANCH   7   9
ENDBRANCH   1   7
BRANCH   2  11
ATOM     11  O   UNL     1       0.366   7.591  -5.691  1.00  0.00    -0.504 OA
ATOM     12  H   UNL     1       0.768   7.780  -6.576  1.00  0.00     0.293 HD
ENDBRANCH   2  11
BRANCH   5  13
ATOM     13  O   UNL     1      -1.106   9.557  -4.556  1.00  0.00    -0.493 OA
ATOM     14  C   UNL     1      -1.727  10.491  -5.198  1.00  0.00     0.278 C 
ENDBRANCH   5  13
TORSDOF 4
ENDMDL
MODEL 2
REMARK VINA RESULT:    -4.897      2.916      3.958
REMARK INTER + INTRA:          -6.026
REMARK INTER:                  -5.758
REMARK INTRA:                  -0.268
REMARK UNBOUND:                -0.271
REMARK SMILES COc1cccc(C(=O)O)c1O
REMARK SMILES IDX 7 1 11 2 6 3 5 4 3 5 4 6 8 7 9 8 10 9 12 11 2 13 1 14
REMARK H PARENT 10 10 12 12
ROOT
ATOM      1  C   UNL     1      -0.033   7.283  -1.148  1.00  0.00     0.105 A 
ATOM      2  C   UNL     1      -1.025   8.155  -1.505  1.00  0.00     0.172 A 
ATOM      3  C   UNL     1       0.410   6.301  -2.155  1.00  0.00     0.020 A 
ATOM      4  C   UNL     1       0.094   6.543  -3.453  1.00  0.00     0.005 A 
ATOM      5  C   UNL     1      -1.198   8.590  -2.884  1.00  0.00     0.161 A 
ATOM      6  C   UNL     1      -0.696   7.654  -3.872  1.00  0.00     0.050 A 
ENDROOT
BRANCH   1   7
ATOM      7  C   UNL     1       0.670   7.386   0.217  1.00  0.00     0.339 C 
ATOM      8  O   UNL     1       2.061   6.543   0.113  1.00  0.00    -0.246 OA
BRANCH   7   9
ATOM      9  O   UNL     1       0.570   7.902   1.129  1.00  0.00    -0.478 OA
ATOM     10  H   UNL     1       0.476   8.388   1.986  1.00  0.00     0.297 HD
ENDBRANCH   7   9
ENDBRANCH   1   7
BRANCH   2  11
ATOM     11  O   UNL     1      -1.909   8.687  -0.552  1.00  0.00    -0.504 OA
ATOM     12  H   UNL     1      -2.532   9.063   0.120  1.00  0.00     0.293 HD
ENDBRANCH   2  11
BRANCH   5  13
ATOM     13  O   UNL     1      -2.107   9.622  -3.083  1.00  0.00    -0.493 OA
ATOM     14  C   UNL     1      -2.548  10.816  -3.307  1.00  0.00     0.278 C 
ENDBRANCH   5  13
TORSDOF 4
ENDMDL
MODEL 3
REMARK VINA RESULT:    -4.880      2.216      3.219
REMARK INTER + INTRA:          -6.006
REMARK INTER:                  -5.585
REMARK INTRA:                  -0.422
REMARK UNBOUND:                -0.271
REMARK SMILES COc1cccc(C(=O)O)c1O
REMARK SMILES IDX 7 1 11 2 6 3 5 4 3 5 4 6 8 7 9 8 10 9 12 11 2 13 1 14
REMARK H PARENT 10 10 12 12
ROOT
ATOM      1  C   UNL     1      -0.100   6.054  -4.185  1.00  0.00     0.105 A 
ATOM      2  C   UNL     1      -0.140   6.250  -2.832  1.00  0.00     0.172 A 
ATOM      3  C   UNL     1       0.280   7.200  -5.031  1.00  0.00     0.020 A 
ATOM      4  C   UNL     1       0.909   8.245  -4.433  1.00  0.00     0.005 A 
ATOM      5  C   UNL     1       0.724   7.220  -2.175  1.00  0.00     0.161 A 
ATOM      6  C   UNL     1       1.154   8.310  -3.030  1.00  0.00     0.050 A 
ENDROOT
BRANCH   1   7
ATOM      7  C   UNL     1      -0.337   4.663  -4.800  1.00  0.00     0.339 C 
ATOM      8  O   UNL     1      -0.417   3.596  -3.572  1.00  0.00    -0.246 OA
BRANCH   7   9
ATOM      9  O   UNL     1      -0.553   4.231  -5.735  1.00  0.00    -0.478 OA
ATOM     10  H   UNL     1      -0.756   3.824  -6.615  1.00  0.00     0.297 HD
ENDBRANCH   7   9
ENDBRANCH   1   7
BRANCH   2  11
ATOM     11  O   UNL     1      -1.005   5.507  -2.011  1.00  0.00    -0.504 OA
ATOM     12  H   UNL     1      -1.615   4.984  -1.432  1.00  0.00     0.293 HD
ENDBRANCH   2  11
BRANCH   5  13
ATOM     13  O   UNL     1       0.728   7.184  -0.786  1.00  0.00    -0.493 OA
ATOM     14  C   UNL     1       0.660   7.608   0.433  1.00  0.00     0.278 C 
ENDBRANCH   5  13
TORSDOF 4
ENDMDL
MODEL 4
REMARK VINA RESULT:    -4.709      2.838      4.401
REMARK INTER + INTRA:          -5.805
REMARK INTER:                  -5.400
REMARK INTRA:                  -0.406
REMARK UNBOUND:                -0.271
REMARK SMILES COc1cccc(C(=O)O)c1O
REMARK SMILES IDX 7 1 11 2 6 3 5 4 3 5 4 6 8 7 9 8 10 9 12 11 2 13 1 14
REMARK H PARENT 10 10 12 12
ROOT
ATOM      1  C   UNL     1       0.615   7.559  -1.339  1.00  0.00     0.105 A 
ATOM      2  C   UNL     1       0.499   6.511  -2.210  1.00  0.00     0.172 A 
ATOM      3  C   UNL     1       0.452   8.920  -1.883  1.00  0.00     0.020 A 
ATOM      4  C   UNL     1      -0.151   9.049  -3.093  1.00  0.00     0.005 A 
ATOM      5  C   UNL     1      -0.351   6.588  -3.390  1.00  0.00     0.161 A 
ATOM      6  C   UNL     1      -0.567   7.936  -3.881  1.00  0.00     0.050 A 
ENDROOT
BRANCH   1   7
ATOM      7  C   UNL     1       0.801   7.329   0.170  1.00  0.00     0.339 C 
ATOM      8  O   UNL     1       2.197   6.513   0.369  1.00  0.00    -0.246 OA
BRANCH   7   9
ATOM      9  O   UNL     1       0.361   7.619   1.082  1.00  0.00    -0.478 OA
ATOM     10  H   UNL     1      -0.053   7.891   1.939  1.00  0.00     0.297 HD
ENDBRANCH   7   9
ENDBRANCH   1   7
BRANCH   2  11
ATOM     11  O   UNL     1       1.181   5.301  -1.993  1.00  0.00    -0.504 OA
ATOM     12  H   UNL     1       1.661   4.449  -1.840  1.00  0.00     0.293 HD
ENDBRANCH   2  11
BRANCH   5  13
ATOM     13  O   UNL     1      -0.536   5.397  -4.081  1.00  0.00    -0.493 OA
ATOM     14  C   UNL     1      -0.363   4.481  -4.976  1.00  0.00     0.278 C 
ENDBRANCH   5  13
TORSDOF 4
ENDMDL
MODEL 5
REMARK VINA RESULT:    -4.250      2.016      3.196
REMARK INTER + INTRA:          -5.267
REMARK INTER:                  -4.903
REMARK INTRA:                  -0.363
REMARK UNBOUND:                -0.271
REMARK SMILES COc1cccc(C(=O)O)c1O
REMARK SMILES IDX 7 1 11 2 6 3 5 4 3 5 4 6 8 7 9 8 10 9 12 11 2 13 1 14
REMARK H PARENT 10 10 12 12
ROOT
ATOM      1  C   UNL     1      -0.780   5.729  -3.587  1.00  0.00     0.105 A 
ATOM      2  C   UNL     1      -0.419   5.936  -2.284  1.00  0.00     0.172 A 
ATOM      3  C   UNL     1      -1.783   6.638  -4.172  1.00  0.00     0.020 A 
ATOM      4  C   UNL     1      -2.011   7.817  -3.538  1.00  0.00     0.005 A 
ATOM      5  C   UNL     1      -0.445   7.264  -1.687  1.00  0.00     0.161 A 
ATOM      6  C   UNL     1      -1.383   8.180  -2.311  1.00  0.00     0.050 A 
ENDROOT
BRANCH   1   7
ATOM      7  C   UNL     1      -0.091   4.654  -4.447  1.00  0.00     0.339 C 
ATOM      8  O   UNL     1      -0.516   3.202  -3.843  1.00  0.00    -0.246 OA
BRANCH   7   9
ATOM      9  O   UNL     1       0.471   4.582  -5.334  1.00  0.00    -0.478 OA
ATOM     10  H   UNL     1       0.999   4.515  -6.169  1.00  0.00     0.297 HD
ENDBRANCH   7   9
ENDBRANCH   1   7
BRANCH   2  11
ATOM     11  O   UNL     1       0.015   4.878  -1.468  1.00  0.00    -0.504 OA
ATOM     12  H   UNL     1       0.321   4.133  -0.892  1.00  0.00     0.293 HD
ENDBRANCH   2  11
BRANCH   5  13
ATOM     13  O   UNL     1       0.129   7.373  -0.427  1.00  0.00    -0.493 OA
ATOM     14  C   UNL     1       1.004   7.657   0.480  1.00  0.00     0.278 C 
ENDBRANCH   5  13
TORSDOF 4
ENDMDL
MODEL 6
REMARK VINA RESULT:    -4.205      2.952      3.972
REMARK INTER + INTRA:          -5.213
REMARK INTER:                  -4.778
REMARK INTRA:                  -0.436
REMARK UNBOUND:                -0.271
REMARK SMILES COc1cccc(C(=O)O)c1O
REMARK SMILES IDX 7 1 11 2 6 3 5 4 3 5 4 6 8 7 9 8 10 9 12 11 2 13 1 14
REMARK H PARENT 10 10 12 12
ROOT
ATOM      1  C   UNL     1      -0.028   7.939  -0.852  1.00  0.00     0.105 A 
ATOM      2  C   UNL     1       0.472   7.986  -2.125  1.00  0.00     0.172 A 
ATOM      3  C   UNL     1      -1.463   8.226  -0.671  1.00  0.00     0.020 A 
ATOM      4  C   UNL     1      -2.264   8.155  -1.765  1.00  0.00     0.005 A 
ATOM      5  C   UNL     1      -0.354   7.671  -3.282  1.00  0.00     0.161 A 
ATOM      6  C   UNL     1      -1.774   7.886  -3.077  1.00  0.00     0.050 A 
ENDROOT
BRANCH   1   7
ATOM      7  C   UNL     1       0.846   7.500   0.335  1.00  0.00     0.339 C 
ATOM      8  O   UNL     1       1.923   6.415  -0.227  1.00  0.00    -0.246 OA
BRANCH   7   9
ATOM      9  O   UNL     1       1.011   7.758   1.343  1.00  0.00    -0.478 OA
ATOM     10  H   UNL     1       1.166   8.001   2.290  1.00  0.00     0.297 HD
ENDBRANCH   7   9
ENDBRANCH   1   7
BRANCH   2  11
ATOM     11  O   UNL     1       1.814   8.321  -2.371  1.00  0.00    -0.504 OA
ATOM     12  H   UNL     1       2.760   8.556  -2.545  1.00  0.00     0.293 HD
ENDBRANCH   2  11
BRANCH   5  13
ATOM     13  O   UNL     1       0.318   7.562  -4.493  1.00  0.00    -0.493 OA
ATOM     14  C   UNL     1       0.654   7.818  -5.714  1.00  0.00     0.278 C 
ENDBRANCH   5  13
TORSDOF 4
ENDMDL
MODEL 7
REMARK VINA RESULT:    -4.137      2.205      4.631
REMARK INTER + INTRA:          -5.133
REMARK INTER:                  -4.887
REMARK INTRA:                  -0.246
REMARK UNBOUND:                -0.271
REMARK SMILES COc1cccc(C(=O)O)c1O
REMARK SMILES IDX 7 1 11 2 6 3 5 4 3 5 4 6 8 7 9 8 10 9 12 11 2 13 1 14
REMARK H PARENT 10 10 12 12
ROOT
ATOM      1  C   UNL     1      -1.261   7.835  -1.110  1.00  0.00     0.105 A 
ATOM      2  C   UNL     1      -1.381   6.867  -2.069  1.00  0.00     0.172 A 
ATOM      3  C   UNL     1      -0.098   7.762  -0.207  1.00  0.00     0.020 A 
ATOM      4  C   UNL     1       0.952   6.991  -0.591  1.00  0.00     0.005 A 
ATOM      5  C   UNL     1      -0.214   6.214  -2.645  1.00  0.00     0.161 A 
ATOM      6  C   UNL     1       0.952   6.206  -1.781  1.00  0.00     0.050 A 
ENDROOT
BRANCH   1   7
ATOM      7  C   UNL     1      -2.242   9.018  -1.040  1.00  0.00     0.339 C 
ATOM      8  O   UNL     1      -2.391   9.617  -2.548  1.00  0.00    -0.246 OA
BRANCH   7   9
ATOM      9  O   UNL     1      -2.895   9.474  -0.351  1.00  0.00    -0.478 OA
ATOM     10  H   UNL     1      -3.509   9.902   0.297  1.00  0.00     0.297 HD
ENDBRANCH   7   9
ENDBRANCH   1   7
BRANCH   2  11
ATOM     11  O   UNL     1      -2.638   6.473  -2.558  1.00  0.00    -0.504 OA
ATOM     12  H   UNL     1      -3.524   6.196  -2.902  1.00  0.00     0.293 HD
ENDBRANCH   2  11
BRANCH   5  13
ATOM     13  O   UNL     1      -0.457   5.398  -3.742  1.00  0.00    -0.493 OA
ATOM     14  C   UNL     1      -0.275   4.832  -4.890  1.00  0.00     0.278 C 
ENDBRANCH   5  13
TORSDOF 4
ENDMDL
MODEL 8
REMARK VINA RESULT:    -4.074      2.241      3.776
REMARK INTER + INTRA:          -5.060
REMARK INTER:                  -4.756
REMARK INTRA:                  -0.303
REMARK UNBOUND:                -0.271
REMARK SMILES COc1cccc(C(=O)O)c1O
REMARK SMILES IDX 7 1 11 2 6 3 5 4 3 5 4 6 8 7 9 8 10 9 12 11 2 13 1 14
REMARK H PARENT 10 10 12 12
ROOT
ATOM      1  C   UNL     1       0.251   7.153  -4.622  1.00  0.00     0.105 A 
ATOM      2  C   UNL     1       0.571   7.526  -3.345  1.00  0.00     0.172 A 
ATOM      3  C   UNL     1      -0.064   5.733  -4.861  1.00  0.00     0.020 A 
ATOM      4  C   UNL     1      -0.377   4.966  -3.785  1.00  0.00     0.005 A 
ATOM      5  C   UNL     1       0.028   6.829  -2.188  1.00  0.00     0.161 A 
ATOM      6  C   UNL     1      -0.348   5.451  -2.444  1.00  0.00     0.050 A 
ENDROOT
BRANCH   1   7
ATOM      7  C   UNL     1       0.121   8.192  -5.749  1.00  0.00     0.339 C 
ATOM      8  O   UNL     1      -0.720   9.454  -5.154  1.00  0.00    -0.246 OA
BRANCH   7   9
ATOM      9  O   UNL     1       0.484   8.363  -6.723  1.00  0.00    -0.478 OA
ATOM     10  H   UNL     1       0.827   8.524  -7.637  1.00  0.00     0.297 HD
ENDBRANCH   7   9
ENDBRANCH   1   7
BRANCH   2  11
ATOM     11  O   UNL     1       1.423   8.614  -3.092  1.00  0.00    -0.504 OA
ATOM     12  H   UNL     1       2.023   9.381  -2.914  1.00  0.00     0.293 HD
ENDBRANCH   2  11
BRANCH   5  13
ATOM     13  O   UNL     1       0.269   7.423  -0.955  1.00  0.00    -0.493 OA
ATOM     14  C   UNL     1       0.657   7.544   0.271  1.00  0.00     0.278 C 
ENDBRANCH   5  13
TORSDOF 4
ENDMDL
MODEL 9
REMARK VINA RESULT:    -3.882      2.308      3.532
REMARK INTER + INTRA:          -4.833
REMARK INTER:                  -4.349
REMARK INTRA:                  -0.485
REMARK UNBOUND:                -0.271
REMARK SMILES COc1cccc(C(=O)O)c1O
REMARK SMILES IDX 7 1 11 2 6 3 5 4 3 5 4 6 8 7 9 8 10 9 12 11 2 13 1 14
REMARK H PARENT 10 10 12 12
ROOT
ATOM      1  C   UNL     1       0.092   6.671  -2.240  1.00  0.00     0.105 A 
ATOM      2  C   UNL     1      -0.029   7.567  -3.266  1.00  0.00     0.172 A 
ATOM      3  C   UNL     1      -0.243   5.262  -2.519  1.00  0.00     0.020 A 
ATOM      4  C   UNL     1      -0.292   4.871  -3.819  1.00  0.00     0.005 A 
ATOM      5  C   UNL     1       0.160   7.169  -4.654  1.00  0.00     0.161 A 
ATOM      6  C   UNL     1      -0.102   5.766  -4.912  1.00  0.00     0.050 A 
ENDROOT
BRANCH   1   7
ATOM      7  C   UNL     1       0.658   7.091  -0.873  1.00  0.00     0.339 C 
ATOM      8  O   UNL     1       1.341   8.559  -1.059  1.00  0.00    -0.246 OA
BRANCH   7   9
ATOM      9  O   UNL     1       0.647   6.768   0.129  1.00  0.00    -0.478 OA
ATOM     10  H   UNL     1       0.638   6.463   1.071  1.00  0.00     0.297 HD
ENDBRANCH   7   9
ENDBRANCH   1   7
BRANCH   2  11
ATOM     11  O   UNL     1      -0.322   8.920  -3.025  1.00  0.00    -0.504 OA
ATOM     12  H   UNL     1      -0.528   9.874  -2.855  1.00  0.00     0.293 HD
ENDBRANCH   2  11
BRANCH   5  13
ATOM     13  O   UNL     1       0.206   8.204  -5.579  1.00  0.00    -0.493 OA
ATOM     14  C   UNL     1       0.010   8.845  -6.684  1.00  0.00     0.278 C 
ENDBRANCH   5  13
TORSDOF 4
ENDMDL
