MODEL 1
REMARK VINA RESULT:    -4.971      0.000      0.000
REMARK INTER + INTRA:          -6.323
REMARK INTER:                  -5.843
REMARK INTRA:                  -0.479
REMARK UNBOUND:                -0.479
REMARK SMILES COc1cccc(C(=O)O)c1O
REMARK SMILES IDX 7 1 11 2 6 3 5 4 3 5 4 6 8 7 9 8 10 9 12 11 2 13 1 14
REMARK H PARENT 10 10 12 12
ROOT
ATOM      1  C   UNL     1      -4.256   4.281   1.067  1.00  0.00     0.105 A 
ATOM      2  C   UNL     1      -4.557   3.885  -0.207  1.00  0.00     0.172 A 
ATOM      3  C   UNL     1      -5.357   4.324   2.047  1.00  0.00     0.020 A 
ATOM      4  C   UNL     1      -6.491   3.640   1.752  1.00  0.00     0.005 A 
ATOM      5  C   UNL     1      -5.641   2.952  -0.481  1.00  0.00     0.161 A 
ATOM      6  C   UNL     1      -6.689   2.946   0.522  1.00  0.00     0.050 A 
ENDROOT
BRANCH   1   7
ATOM      7  C   UNL     1      -2.806   4.569   1.494  1.00  0.00     0.339 C 
ATOM      8  O   UNL     1      -1.830   3.992   0.325  1.00  0.00    -0.246 OA
BRANCH   7   9
ATOM      9  O   UNL     1      -2.285   5.096   2.242  1.00  0.00    -0.478 OA
ATOM     10  H   UNL     1      -1.794   5.592   2.945  1.00  0.00     0.297 HD
ENDBRANCH   7   9
ENDBRANCH   1   7
BRANCH   2  11
ATOM     11  O   UNL     1      -3.817   4.345  -1.310  1.00  0.00    -0.504 OA
ATOM     12  H   UNL     1      -3.296   4.668  -2.087  1.00  0.00     0.293 HD
ENDBRANCH   2  11
BRANCH   5  13
ATOM     13  O   UNL     1      -5.717   2.479  -1.785  1.00  0.00    -0.493 OA
ATOM     14  C   UNL     1      -6.219   1.936  -2.845  1.00  0.00     0.278 C 
ENDBRANCH   5  13
TORSDOF 4
ENDMDL
MODEL 2
REMARK VINA RESULT:    -4.958      1.766      4.719
REMARK INTER + INTRA:          -6.307
REMARK INTER:                  -5.825
REMARK INTRA:                  -0.483
REMARK UNBOUND:                -0.479
REMARK SMILES COc1cccc(C(=O)O)c1O
REMARK SMILES IDX 7 1 11 2 6 3 5 4 3 5 4 6 8 7 9 8 10 9 12 11 2 13 1 14
REMARK H PARENT 10 10 12 12
ROOT
ATOM      1  C   UNL     1      -6.006   3.119  -1.981  1.00  0.00     0.105 A 
ATOM      2  C   UNL     1      -5.368   3.196  -0.773  1.00  0.00     0.172 A 
ATOM      3  C   UNL     1      -6.367   4.385  -2.645  1.00  0.00     0.020 A 
ATOM      4  C   UNL     1      -5.744   5.517  -2.228  1.00  0.00     0.005 A 
ATOM      5  C   UNL     1      -4.505   4.319  -0.436  1.00  0.00     0.161 A 
ATOM      6  C   UNL     1      -4.818   5.546  -1.144  1.00  0.00     0.050 A 
ENDROOT
BRANCH   1   7
ATOM      7  C   UNL     1      -6.244   1.767  -2.676  1.00  0.00     0.339 C 
ATOM      8  O   UNL     1      -5.325   0.659  -1.912  1.00  0.00    -0.246 OA
BRANCH   7   9
ATOM      9  O   UNL     1      -6.874   1.346  -3.406  1.00  0.00    -0.478 OA
ATOM     10  H   UNL     1      -7.467   0.948  -4.092  1.00  0.00     0.297 HD
ENDBRANCH   7   9
ENDBRANCH   1   7
BRANCH   2  11
ATOM     11  O   UNL     1      -5.502   2.182   0.190  1.00  0.00    -0.504 OA
ATOM     12  H   UNL     1      -5.597   1.468   0.869  1.00  0.00     0.293 HD
ENDBRANCH   2  11
BRANCH   5  13
ATOM     13  O   UNL     1      -3.764   4.183   0.732  1.00  0.00    -0.493 OA
ATOM     14  C   UNL     1      -2.939   4.483   1.680  1.00  0.00     0.278 C 
ENDBRANCH   5  13
TORSDOF 4
ENDMDL
MODEL 3
REMARK VINA RESULT:    -4.672      2.204      3.215
REMARK INTER + INTRA:          -5.970
REMARK INTER:                  -5.700
REMARK INTRA:                  -0.270
REMARK UNBOUND:                -0.479
REMARK SMILES COc1cccc(C(=O)O)c1O
REMARK SMILES IDX 7 1 11 2 6 3 5 4 3 5 4 6 8 7 9 8 10 9 12 11 2 13 1 14
REMARK H PARENT 10 10 12 12
ROOT
ATOM      1  C   UNL     1      -4.264   4.162   0.768  1.00  0.00     0.105 A 
ATOM      2  C   UNL     1      -5.437   4.652   1.271  1.00  0.00     0.172 A 
ATOM      3  C   UNL     1      -4.291   3.578  -0.586  1.00  0.00     0.020 A 
ATOM      4  C   UNL     1      -5.348   3.882  -1.383  1.00  0.00     0.005 A 
ATOM      5  C   UNL     1      -6.471   5.198   0.404  1.00  0.00     0.161 A 
ATOM      6  C   UNL     1      -6.451   4.674  -0.949  1.00  0.00     0.050 A 
ENDROOT
BRANCH   1   7
ATOM      7  C   UNL     1      -2.940   4.308   1.538  1.00  0.00     0.339 C 
ATOM      8  O   UNL     1      -1.729   4.094   0.470  1.00  0.00    -0.246 OA
BRANCH   7   9
ATOM      9  O   UNL     1      -2.599   4.592   2.493  1.00  0.00    -0.478 OA
ATOM     10  H   UNL     1      -2.279   4.859   3.392  1.00  0.00     0.297 HD
ENDBRANCH   7   9
ENDBRANCH   1   7
BRANCH   2  11
ATOM     11  O   UNL     1      -5.689   4.671   2.654  1.00  0.00    -0.504 OA
ATOM     12  H   UNL     1      -5.867   4.684   3.628  1.00  0.00     0.293 HD
ENDBRANCH   2  11
BRANCH   5  13
ATOM     13  O   UNL     1      -7.523   5.841   1.045  1.00  0.00    -0.493 OA
ATOM     14  C   UNL     1      -8.282   6.806   1.449  1.00  0.00     0.278 C 
ENDBRANCH   5  13
TORSDOF 4
ENDMDL
MODEL 4
REMARK VINA RESULT:    -4.631      2.956      4.407
REMARK INTER + INTRA:          -5.923
REMARK INTER:                  -5.657
REMARK INTRA:                  -0.266
REMARK UNBOUND:                -0.479
REMARK SMILES COc1cccc(C(=O)O)c1O
REMARK SMILES IDX 7 1 11 2 6 3 5 4 3 5 4 6 8 7 9 8 10 9 12 11 2 13 1 14
REMARK H PARENT 10 10 12 12
ROOT
ATOM      1  C   UNL     1      -5.787   3.045  -1.694  1.00  0.00     0.105 A 
ATOM      2  C   UNL     1      -6.478   4.221  -1.796  1.00  0.00     0.172 A 
ATOM      3  C   UNL     1      -4.858   2.894  -0.558  1.00  0.00     0.020 A 
ATOM      4  C   UNL     1      -5.007   3.739   0.495  1.00  0.00     0.005 A 
ATOM      5  C   UNL     1      -6.839   4.999  -0.620  1.00  0.00     0.161 A 
ATOM      6  C   UNL     1      -5.965   4.795   0.521  1.00  0.00     0.050 A 
ENDROOT
BRANCH   1   7
ATOM      7  C   UNL     1      -6.042   1.879  -2.665  1.00  0.00     0.339 C 
ATOM      8  O   UNL     1      -5.376   0.545  -2.009  1.00  0.00    -0.246 OA
BRANCH   7   9
ATOM      9  O   UNL     1      -6.585   1.678  -3.544  1.00  0.00    -0.478 OA
ATOM     10  H   UNL     1      -7.094   1.488  -4.372  1.00  0.00     0.297 HD
ENDBRANCH   7   9
ENDBRANCH   1   7
BRANCH   2  11
ATOM     11  O   UNL     1      -6.892   4.720  -3.043  1.00  0.00    -0.504 OA
ATOM     12  H   UNL     1      -7.184   5.072  -3.921  1.00  0.00     0.293 HD
ENDBRANCH   2  11
BRANCH   5  13
ATOM     13  O   UNL     1      -7.706   6.062  -0.839  1.00  0.00    -0.493 OA
ATOM     14  C   UNL     1      -8.798   6.752  -0.821  1.00  0.00     0.278 C 
ENDBRANCH   5  13
TORSDOF 4
ENDMDL
MODEL 5
REMARK VINA RESULT:    -3.911      2.262      4.646
REMARK INTER + INTRA:          -5.076
REMARK INTER:                  -4.872
REMARK INTRA:                  -0.204
REMARK UNBOUND:                -0.479
REMARK SMILES COc1cccc(C(=O)O)c1O
REMARK SMILES IDX 7 1 11 2 6 3 5 4 3 5 4 6 8 7 9 8 10 9 12 11 2 13 1 14
REMARK H PARENT 10 10 12 12
ROOT
ATOM      1  C   UNL     1      -6.094   4.196  -2.274  1.00  0.00     0.105 A 
ATOM      2  C   UNL     1      -5.058   4.582  -1.468  1.00  0.00     0.172 A 
ATOM      3  C   UNL     1      -6.240   2.757  -2.557  1.00  0.00     0.020 A 
ATOM      4  C   UNL     1      -5.596   1.884  -1.740  1.00  0.00     0.005 A 
ATOM      5  C   UNL     1      -4.534   3.710  -0.427  1.00  0.00     0.161 A 
ATOM      6  C   UNL     1      -4.742   2.295  -0.675  1.00  0.00     0.050 A 
ENDROOT
BRANCH   1   7
ATOM      7  C   UNL     1      -7.134   5.210  -2.781  1.00  0.00     0.339 C 
ATOM      8  O   UNL     1      -7.802   5.918  -1.474  1.00  0.00    -0.246 OA
BRANCH   7   9
ATOM      9  O   UNL     1      -7.458   5.635  -3.688  1.00  0.00    -0.478 OA
ATOM     10  H   UNL     1      -7.763   6.034  -4.542  1.00  0.00     0.297 HD
ENDBRANCH   7   9
ENDBRANCH   1   7
BRANCH   2  11
ATOM     11  O   UNL     1      -4.466   5.850  -1.596  1.00  0.00    -0.504 OA
ATOM     12  H   UNL     1      -4.048   6.743  -1.686  1.00  0.00     0.293 HD
ENDBRANCH   2  11
BRANCH   5  13
ATOM     13  O   UNL     1      -3.622   4.289   0.446  1.00  0.00    -0.493 OA
ATOM     14  C   UNL     1      -3.038   4.584   1.560  1.00  0.00     0.278 C 
ENDBRANCH   5  13
TORSDOF 4
ENDMDL
MODEL 6
REMARK VINA RESULT:    -3.583      2.050      2.827
REMARK INTER + INTRA:          -4.691
REMARK INTER:                  -4.261
REMARK INTRA:                  -0.430
REMARK UNBOUND:                -0.479
REMARK SMILES COc1cccc(C(=O)O)c1O
REMARK SMILES IDX 7 1 11 2 6 3 5 4 3 5 4 6 8 7 9 8 10 9 12 11 2 13 1 14
REMARK H PARENT 10 10 12 12
ROOT
ATOM      1  C   UNL     1      -4.518   3.622  -0.356  1.00  0.00     0.105 A 
ATOM      2  C   UNL     1      -5.520   4.445  -0.789  1.00  0.00     0.172 A 
ATOM      3  C   UNL     1      -4.583   2.201  -0.746  1.00  0.00     0.020 A 
ATOM      4  C   UNL     1      -5.393   1.868  -1.783  1.00  0.00     0.005 A 
ATOM      5  C   UNL     1      -6.224   4.198  -2.040  1.00  0.00     0.161 A 
ATOM      6  C   UNL     1      -6.225   2.809  -2.459  1.00  0.00     0.050 A 
ENDROOT
BRANCH   1   7
ATOM      7  C   UNL     1      -3.310   4.173   0.421  1.00  0.00     0.339 C 
ATOM      8  O   UNL     1      -3.882   4.889   1.768  1.00  0.00    -0.246 OA
BRANCH   7   9
ATOM      9  O   UNL     1      -2.258   4.138   0.390  1.00  0.00    -0.478 OA
ATOM     10  H   UNL     1      -1.268   4.106   0.361  1.00  0.00     0.297 HD
ENDBRANCH   7   9
ENDBRANCH   1   7
BRANCH   2  11
ATOM     11  O   UNL     1      -5.903   5.581  -0.056  1.00  0.00    -0.504 OA
ATOM     12  H   UNL     1      -6.172   6.382   0.461  1.00  0.00     0.293 HD
ENDBRANCH   2  11
BRANCH   5  13
ATOM     13  O   UNL     1      -7.077   5.209  -2.464  1.00  0.00    -0.493 OA
ATOM     14  C   UNL     1      -7.878   5.868  -3.234  1.00  0.00     0.278 C 
ENDBRANCH   5  13
TORSDOF 4
ENDMDL
MODEL 7
REMARK VINA RESULT:    -3.559      1.300      4.263
REMARK INTER + INTRA:          -4.663
REMARK INTER:                  -4.474
REMARK INTRA:                  -0.188
REMARK UNBOUND:                -0.479
REMARK SMILES COc1cccc(C(=O)O)c1O
REMARK SMILES IDX 7 1 11 2 6 3 5 4 3 5 4 6 8 7 9 8 10 9 12 11 2 13 1 14
REMARK H PARENT 10 10 12 12
ROOT
ATOM      1  C   UNL     1      -6.033   2.670  -1.266  1.00  0.00     0.105 A 
ATOM      2  C   UNL     1      -4.863   3.051  -0.670  1.00  0.00     0.172 A 
ATOM      3  C   UNL     1      -7.237   2.588  -0.418  1.00  0.00     0.020 A 
ATOM      4  C   UNL     1      -7.211   3.229   0.779  1.00  0.00     0.005 A 
ATOM      5  C   UNL     1      -4.847   3.941   0.482  1.00  0.00     0.161 A 
ATOM      6  C   UNL     1      -6.061   3.911   1.275  1.00  0.00     0.050 A 
ENDROOT
BRANCH   1   7
ATOM      7  C   UNL     1      -6.120   2.437  -2.784  1.00  0.00     0.339 C 
ATOM      8  O   UNL     1      -6.643   3.824  -3.461  1.00  0.00    -0.246 OA
BRANCH   7   9
ATOM      9  O   UNL     1      -5.856   1.707  -3.496  1.00  0.00    -0.478 OA
ATOM     10  H   UNL     1      -5.609   1.021  -4.166  1.00  0.00     0.297 HD
ENDBRANCH   7   9
ENDBRANCH   1   7
BRANCH   2  11
ATOM     11  O   UNL     1      -3.618   2.616  -1.157  1.00  0.00    -0.504 OA
ATOM     12  H   UNL     1      -2.741   2.310  -1.501  1.00  0.00     0.293 HD
ENDBRANCH   2  11
BRANCH   5  13
ATOM     13  O   UNL     1      -3.597   4.408   0.869  1.00  0.00    -0.493 OA
ATOM     14  C   UNL     1      -2.552   4.591   1.606  1.00  0.00     0.278 C 
ENDBRANCH   5  13
TORSDOF 4
ENDMDL
MODEL 8
REMARK VINA RESULT:    -3.484      2.171      3.173
REMARK INTER + INTRA:          -4.575
REMARK INTER:                  -4.444
REMARK INTRA:                  -0.131
REMARK UNBOUND:                -0.479
REMARK SMILES COc1cccc(C(=O)O)c1O
REMARK SMILES IDX 7 1 11 2 6 3 5 4 3 5 4 6 8 7 9 8 10 9 12 11 2 13 1 14
REMARK H PARENT 10 10 12 12
ROOT
ATOM      1  C   UNL     1      -5.584   4.330   1.246  1.00  0.00     0.105 A 
ATOM      2  C   UNL     1      -5.913   3.383   0.315  1.00  0.00     0.172 A 
ATOM      3  C   UNL     1      -4.155   4.511   1.562  1.00  0.00     0.020 A 
ATOM      4  C   UNL     1      -3.247   4.017   0.682  1.00  0.00     0.005 A 
ATOM      5  C   UNL     1      -5.009   3.036  -0.772  1.00  0.00     0.161 A 
ATOM      6  C   UNL     1      -3.608   3.282  -0.485  1.00  0.00     0.050 A 
ENDROOT
BRANCH   1   7
ATOM      7  C   UNL     1      -6.652   5.248   1.865  1.00  0.00     0.339 C 
ATOM      8  O   UNL     1      -6.449   5.211   3.481  1.00  0.00    -0.246 OA
BRANCH   7   9
ATOM      9  O   UNL     1      -7.382   5.943   1.559  1.00  0.00    -0.478 OA
ATOM     10  H   UNL     1      -8.069   6.596   1.270  1.00  0.00     0.297 HD
ENDBRANCH   7   9
ENDBRANCH   1   7
BRANCH   2  11
ATOM     11  O   UNL     1      -7.149   2.717   0.354  1.00  0.00    -0.504 OA
ATOM     12  H   UNL     1      -8.021   2.248   0.381  1.00  0.00     0.293 HD
ENDBRANCH   2  11
BRANCH   5  13
ATOM     13  O   UNL     1      -5.536   2.211  -1.758  1.00  0.00    -0.493 OA
ATOM     14  C   UNL     1      -6.232   1.850  -2.785  1.00  0.00     0.278 C 
ENDBRANCH   5  13
TORSDOF 4
ENDMDL
MODEL 9
REMARK VINA RESULT:    -3.239      2.568      3.682
REMARK INTER + INTRA:          -4.287
REMARK INTER:                  -3.803
REMARK INTRA:                  -0.483
REMARK UNBOUND:                -0.479
REMARK SMILES COc1cccc(C(=O)O)c1O
REMARK SMILES IDX 7 1 11 2 6 3 5 4 3 5 4 6 8 7 9 8 10 9 12 11 2 13 1 14
REMARK H PARENT 10 10 12 12
ROOT
ATOM      1  C   UNL     1      -5.005   3.529  -0.557  1.00  0.00     0.105 A 
ATOM      2  C   UNL     1      -5.776   4.176   0.370  1.00  0.00     0.172 A 
ATOM      3  C   UNL     1      -5.508   3.467  -1.941  1.00  0.00     0.020 A 
ATOM      4  C   UNL     1      -6.486   4.340  -2.297  1.00  0.00     0.005 A 
ATOM      5  C   UNL     1      -6.650   5.279  -0.000  1.00  0.00     0.161 A 
ATOM      6  C   UNL     1      -7.087   5.255  -1.384  1.00  0.00     0.050 A 
ENDROOT
BRANCH   1   7
ATOM      7  C   UNL     1      -3.614   2.978  -0.197  1.00  0.00     0.339 C 
ATOM      8  O   UNL     1      -3.139   3.714   1.177  1.00  0.00    -0.246 OA
BRANCH   7   9
ATOM      9  O   UNL     1      -2.949   2.224  -0.510  1.00  0.00    -0.478 OA
ATOM     10  H   UNL     1      -2.325   1.514  -0.804  1.00  0.00     0.297 HD
ENDBRANCH   7   9
ENDBRANCH   1   7
BRANCH   2  11
ATOM     11  O   UNL     1      -5.742   3.817   1.728  1.00  0.00    -0.504 OA
ATOM     12  H   UNL     1      -5.718   3.564   2.685  1.00  0.00     0.293 HD
ENDBRANCH   2  11
BRANCH   5  13
ATOM     13  O   UNL     1      -7.225   5.976   1.055  1.00  0.00    -0.493 OA
ATOM     14  C   UNL     1      -8.042   6.755   1.685  1.00  0.00     0.278 C 
ENDBRANCH   5  13
TORSDOF 4
ENDMDL
