MODEL 1
REMARK VINA RESULT:    -4.800      0.000      0.000
REMARK INTER + INTRA:          -6.125
REMARK INTER:                  -5.642
REMARK INTRA:                  -0.483
REMARK UNBOUND:                -0.483
REMARK SMILES COc1cccc(C(=O)O)c1O
REMARK SMILES IDX 7 1 11 2 6 3 5 4 3 5 4 6 8 7 9 8 10 9 12 11 2 13 1 14
REMARK H PARENT 10 10 12 12
ROOT
ATOM      1  C   UNL     1      -1.576  -6.300  -2.794  1.00  0.00     0.105 A 
ATOM      2  C   UNL     1      -0.238  -6.580  -2.749  1.00  0.00     0.172 A 
ATOM      3  C   UNL     1      -2.514  -7.388  -2.462  1.00  0.00     0.020 A 
ATOM      4  C   UNL     1      -2.023  -8.462  -1.792  1.00  0.00     0.005 A 
ATOM      5  C   UNL     1       0.302  -7.582  -1.841  1.00  0.00     0.161 A 
ATOM      6  C   UNL     1      -0.644  -8.613  -1.459  1.00  0.00     0.050 A 
ENDROOT
BRANCH   1   7
ATOM      7  C   UNL     1      -2.087  -4.876  -3.075  1.00  0.00     0.339 C 
ATOM      8  O   UNL     1      -0.818  -3.866  -2.925  1.00  0.00    -0.246 OA
BRANCH   7   9
ATOM      9  O   UNL     1      -2.958  -4.394  -3.419  1.00  0.00    -0.478 OA
ATOM     10  H   UNL     1      -3.777  -3.941  -3.743  1.00  0.00     0.297 HD
ENDBRANCH   7   9
ENDBRANCH   1   7
BRANCH   2  11
ATOM     11  O   UNL     1       0.680  -5.897  -3.565  1.00  0.00    -0.504 OA
ATOM     12  H   UNL     1       1.326  -5.416  -4.140  1.00  0.00     0.293 HD
ENDBRANCH   2  11
BRANCH   5  13
ATOM     13  O   UNL     1       1.688  -7.632  -1.751  1.00  0.00    -0.493 OA
ATOM     14  C   UNL     1       2.859  -7.743  -1.217  1.00  0.00     0.278 C 
ENDBRANCH   5  13
TORSDOF 4
ENDMDL
MODEL 2
REMARK VINA RESULT:    -4.799      1.788      4.650
REMARK INTER + INTRA:          -6.124
REMARK INTER:                  -5.641
REMARK INTRA:                  -0.483
REMARK UNBOUND:                -0.483
REMARK SMILES COc1cccc(C(=O)O)c1O
REMARK SMILES IDX 7 1 11 2 6 3 5 4 3 5 4 6 8 7 9 8 10 9 12 11 2 13 1 14
REMARK H PARENT 10 10 12 12
ROOT
ATOM      1  C   UNL     1       1.648  -7.646  -2.263  1.00  0.00     0.105 A 
ATOM      2  C   UNL     1       0.383  -7.135  -2.155  1.00  0.00     0.172 A 
ATOM      3  C   UNL     1       2.095  -8.085  -3.598  1.00  0.00     0.020 A 
ATOM      4  C   UNL     1       1.403  -7.634  -4.676  1.00  0.00     0.005 A 
ATOM      5  C   UNL     1      -0.256  -6.437  -3.261  1.00  0.00     0.161 A 
ATOM      6  C   UNL     1       0.237  -6.820  -4.571  1.00  0.00     0.050 A 
ENDROOT
BRANCH   1   7
ATOM      7  C   UNL     1       2.609  -7.667  -1.062  1.00  0.00     0.339 C 
ATOM      8  O   UNL     1       1.973  -6.703   0.087  1.00  0.00    -0.246 OA
BRANCH   7   9
ATOM      9  O   UNL     1       3.471  -8.177  -0.739  1.00  0.00    -0.478 OA
ATOM     10  H   UNL     1       4.282  -8.658  -0.435  1.00  0.00     0.297 HD
ENDBRANCH   7   9
ENDBRANCH   1   7
BRANCH   2  11
ATOM     11  O   UNL     1      -0.349  -7.242  -0.960  1.00  0.00    -0.504 OA
ATOM     12  H   UNL     1      -0.865  -7.318  -0.118  1.00  0.00     0.293 HD
ENDBRANCH   2  11
BRANCH   5  13
ATOM     13  O   UNL     1      -1.452  -5.797  -2.963  1.00  0.00    -0.493 OA
ATOM     14  C   UNL     1      -2.404  -4.926  -3.029  1.00  0.00     0.278 C 
ENDBRANCH   5  13
TORSDOF 4
ENDMDL
MODEL 3
REMARK VINA RESULT:    -4.640      2.871      4.267
REMARK INTER + INTRA:          -5.937
REMARK INTER:                  -5.667
REMARK INTRA:                  -0.271
REMARK UNBOUND:                -0.483
REMARK SMILES COc1cccc(C(=O)O)c1O
REMARK SMILES IDX 7 1 11 2 6 3 5 4 3 5 4 6 8 7 9 8 10 9 12 11 2 13 1 14
REMARK H PARENT 10 10 12 12
ROOT
ATOM      1  C   UNL     1       1.366  -7.453  -2.162  1.00  0.00     0.105 A 
ATOM      2  C   UNL     1       1.222  -8.236  -3.274  1.00  0.00     0.172 A 
ATOM      3  C   UNL     1       0.213  -6.631  -1.751  1.00  0.00     0.020 A 
ATOM      4  C   UNL     1      -1.006  -6.960  -2.250  1.00  0.00     0.005 A 
ATOM      5  C   UNL     1      -0.071  -8.781  -3.663  1.00  0.00     0.161 A 
ATOM      6  C   UNL     1      -1.207  -8.009  -3.196  1.00  0.00     0.050 A 
ENDROOT
BRANCH   1   7
ATOM      7  C   UNL     1       2.645  -7.503  -1.308  1.00  0.00     0.339 C 
ATOM      8  O   UNL     1       2.272  -6.908   0.162  1.00  0.00    -0.246 OA
BRANCH   7   9
ATOM      9  O   UNL     1       3.624  -7.886  -1.359  1.00  0.00    -0.478 OA
ATOM     10  H   UNL     1       4.546  -8.246  -1.408  1.00  0.00     0.297 HD
ENDBRANCH   7   9
ENDBRANCH   1   7
BRANCH   2  11
ATOM     11  O   UNL     1       2.323  -8.570  -4.082  1.00  0.00    -0.504 OA
ATOM     12  H   UNL     1       3.099  -8.805  -4.651  1.00  0.00     0.293 HD
ENDBRANCH   2  11
BRANCH   5  13
ATOM     13  O   UNL     1      -0.051  -9.716  -4.689  1.00  0.00    -0.493 OA
ATOM     14  C   UNL     1      -0.207 -10.847  -5.296  1.00  0.00     0.278 C 
ENDBRANCH   5  13
TORSDOF 4
ENDMDL
MODEL 4
REMARK VINA RESULT:    -4.637      2.240      3.221
REMARK INTER + INTRA:          -5.933
REMARK INTER:                  -5.663
REMARK INTRA:                  -0.270
REMARK UNBOUND:                -0.483
REMARK SMILES COc1cccc(C(=O)O)c1O
REMARK SMILES IDX 7 1 11 2 6 3 5 4 3 5 4 6 8 7 9 8 10 9 12 11 2 13 1 14
REMARK H PARENT 10 10 12 12
ROOT
ATOM      1  C   UNL     1      -1.202  -6.287  -2.826  1.00  0.00     0.105 A 
ATOM      2  C   UNL     1      -1.727  -7.536  -3.015  1.00  0.00     0.172 A 
ATOM      3  C   UNL     1       0.264  -6.170  -2.721  1.00  0.00     0.020 A 
ATOM      4  C   UNL     1       1.014  -7.208  -3.172  1.00  0.00     0.005 A 
ATOM      5  C   UNL     1      -0.990  -8.575  -3.719  1.00  0.00     0.161 A 
ATOM      6  C   UNL     1       0.451  -8.418  -3.674  1.00  0.00     0.050 A 
ENDROOT
BRANCH   1   7
ATOM      7  C   UNL     1      -2.096  -5.034  -2.830  1.00  0.00     0.339 C 
ATOM      8  O   UNL     1      -1.125  -3.744  -3.045  1.00  0.00    -0.246 OA
BRANCH   7   9
ATOM      9  O   UNL     1      -3.119  -4.784  -2.833  1.00  0.00    -0.478 OA
ATOM     10  H   UNL     1      -4.081  -4.548  -2.836  1.00  0.00     0.297 HD
ENDBRANCH   7   9
ENDBRANCH   1   7
BRANCH   2  11
ATOM     11  O   UNL     1      -3.013  -7.866  -2.554  1.00  0.00    -0.504 OA
ATOM     12  H   UNL     1      -3.919  -8.099  -2.230  1.00  0.00     0.293 HD
ENDBRANCH   2  11
BRANCH   5  13
ATOM     13  O   UNL     1      -1.706  -9.728  -4.017  1.00  0.00    -0.493 OA
ATOM     14  C   UNL     1      -2.201 -10.694  -4.718  1.00  0.00     0.278 C 
ENDBRANCH   5  13
TORSDOF 4
ENDMDL
MODEL 5
REMARK VINA RESULT:    -4.167      1.432      1.551
REMARK INTER + INTRA:          -5.382
REMARK INTER:                  -5.010
REMARK INTRA:                  -0.372
REMARK UNBOUND:                -0.483
REMARK SMILES COc1cccc(C(=O)O)c1O
REMARK SMILES IDX 7 1 11 2 6 3 5 4 3 5 4 6 8 7 9 8 10 9 12 11 2 13 1 14
REMARK H PARENT 10 10 12 12
ROOT
ATOM      1  C   UNL     1      -0.899  -5.968  -3.355  1.00  0.00     0.105 A 
ATOM      2  C   UNL     1       0.195  -6.219  -2.573  1.00  0.00     0.172 A 
ATOM      3  C   UNL     1      -1.113  -6.834  -4.529  1.00  0.00     0.020 A 
ATOM      4  C   UNL     1      -0.457  -8.023  -4.563  1.00  0.00     0.005 A 
ATOM      5  C   UNL     1       0.744  -7.560  -2.435  1.00  0.00     0.161 A 
ATOM      6  C   UNL     1       0.470  -8.434  -3.561  1.00  0.00     0.050 A 
ENDROOT
BRANCH   1   7
ATOM      7  C   UNL     1      -1.928  -4.890  -2.971  1.00  0.00     0.339 C 
ATOM      8  O   UNL     1      -1.164  -3.452  -3.009  1.00  0.00    -0.246 OA
BRANCH   7   9
ATOM      9  O   UNL     1      -2.962  -4.802  -2.795  1.00  0.00    -0.478 OA
ATOM     10  H   UNL     1      -3.935  -4.719  -2.630  1.00  0.00     0.297 HD
ENDBRANCH   7   9
ENDBRANCH   1   7
BRANCH   2  11
ATOM     11  O   UNL     1       0.825  -5.194  -1.847  1.00  0.00    -0.504 OA
ATOM     12  H   UNL     1       1.270  -4.472  -1.335  1.00  0.00     0.293 HD
ENDBRANCH   2  11
BRANCH   5  13
ATOM     13  O   UNL     1       1.724  -7.717  -1.464  1.00  0.00    -0.493 OA
ATOM     14  C   UNL     1       2.899  -7.739  -0.927  1.00  0.00     0.278 C 
ENDBRANCH   5  13
TORSDOF 4
ENDMDL
MODEL 6
REMARK VINA RESULT:    -4.150      1.516      4.276
REMARK INTER + INTRA:          -5.361
REMARK INTER:                  -4.944
REMARK INTRA:                  -0.417
REMARK UNBOUND:                -0.483
REMARK SMILES COc1cccc(C(=O)O)c1O
REMARK SMILES IDX 7 1 11 2 6 3 5 4 3 5 4 6 8 7 9 8 10 9 12 11 2 13 1 14
REMARK H PARENT 10 10 12 12
ROOT
ATOM      1  C   UNL     1       1.073  -7.756  -1.499  1.00  0.00     0.105 A 
ATOM      2  C   UNL     1       0.240  -6.692  -1.709  1.00  0.00     0.172 A 
ATOM      3  C   UNL     1       0.557  -9.101  -1.815  1.00  0.00     0.020 A 
ATOM      4  C   UNL     1      -0.535  -9.185  -2.618  1.00  0.00     0.005 A 
ATOM      5  C   UNL     1      -0.780  -6.714  -2.748  1.00  0.00     0.161 A 
ATOM      6  C   UNL     1      -1.235  -8.044  -3.108  1.00  0.00     0.050 A 
ENDROOT
BRANCH   1   7
ATOM      7  C   UNL     1       2.531  -7.555  -1.050  1.00  0.00     0.339 C 
ATOM      8  O   UNL     1       2.496  -6.824   0.405  1.00  0.00    -0.246 OA
BRANCH   7   9
ATOM      9  O   UNL     1       3.502  -7.830  -1.349  1.00  0.00    -0.478 OA
ATOM     10  H   UNL     1       4.416  -8.088  -1.629  1.00  0.00     0.297 HD
ENDBRANCH   7   9
ENDBRANCH   1   7
BRANCH   2  11
ATOM     11  O   UNL     1       0.346  -5.517  -0.944  1.00  0.00    -0.504 OA
ATOM     12  H   UNL     1       0.421  -4.690  -0.405  1.00  0.00     0.293 HD
ENDBRANCH   2  11
BRANCH   5  13
ATOM     13  O   UNL     1      -1.423  -5.507  -2.990  1.00  0.00    -0.493 OA
ATOM     14  C   UNL     1      -2.391  -4.667  -3.161  1.00  0.00     0.278 C 
ENDBRANCH   5  13
TORSDOF 4
ENDMDL
MODEL 7
REMARK VINA RESULT:    -3.618      7.384      7.834
REMARK INTER + INTRA:          -4.736
REMARK INTER:                  -4.488
REMARK INTRA:                  -0.247
REMARK UNBOUND:                -0.483
REMARK SMILES COc1cccc(C(=O)O)c1O
REMARK SMILES IDX 7 1 11 2 6 3 5 4 3 5 4 6 8 7 9 8 10 9 12 11 2 13 1 14
REMARK H PARENT 10 10 12 12
ROOT
ATOM      1  C   UNL     1      -1.078  -3.408   4.471  1.00  0.00     0.105 A 
ATOM      2  C   UNL     1      -0.264  -2.984   3.457  1.00  0.00     0.172 A 
ATOM      3  C   UNL     1      -0.439  -4.045   5.638  1.00  0.00     0.020 A 
ATOM      4  C   UNL     1       0.893  -3.851   5.813  1.00  0.00     0.005 A 
ATOM      5  C   UNL     1       1.103  -2.549   3.704  1.00  0.00     0.161 A 
ATOM      6  C   UNL     1       1.705  -3.124   4.893  1.00  0.00     0.050 A 
ENDROOT
BRANCH   1   7
ATOM      7  C   UNL     1      -2.592  -3.136   4.450  1.00  0.00     0.339 C 
ATOM      8  O   UNL     1      -2.822  -1.719   3.680  1.00  0.00    -0.246 OA
BRANCH   7   9
ATOM      9  O   UNL     1      -3.493  -3.625   4.689  1.00  0.00    -0.478 OA
ATOM     10  H   UNL     1      -4.342  -4.084   4.914  1.00  0.00     0.297 HD
ENDBRANCH   7   9
ENDBRANCH   1   7
BRANCH   2  11
ATOM     11  O   UNL     1      -0.720  -2.929   2.128  1.00  0.00    -0.504 OA
ATOM     12  H   UNL     1      -1.042  -2.890   1.193  1.00  0.00     0.293 HD
ENDBRANCH   2  11
BRANCH   5  13
ATOM     13  O   UNL     1       1.755  -1.959   2.629  1.00  0.00    -0.493 OA
ATOM     14  C   UNL     1       1.915  -1.365   1.493  1.00  0.00     0.278 C 
ENDBRANCH   5  13
TORSDOF 4
ENDMDL
MODEL 8
REMARK VINA RESULT:    -3.526      2.160      4.631
REMARK INTER + INTRA:          -4.628
REMARK INTER:                  -4.293
REMARK INTRA:                  -0.334
REMARK UNBOUND:                -0.483
REMARK SMILES COc1cccc(C(=O)O)c1O
REMARK SMILES IDX 7 1 11 2 6 3 5 4 3 5 4 6 8 7 9 8 10 9 12 11 2 13 1 14
REMARK H PARENT 10 10 12 12
ROOT
ATOM      1  C   UNL     1       1.834  -7.849  -3.271  1.00  0.00     0.105 A 
ATOM      2  C   UNL     1       0.764  -7.044  -3.549  1.00  0.00     0.172 A 
ATOM      3  C   UNL     1       2.454  -7.727  -1.939  1.00  0.00     0.020 A 
ATOM      4  C   UNL     1       1.733  -7.120  -0.961  1.00  0.00     0.005 A 
ATOM      5  C   UNL     1      -0.145  -6.594  -2.504  1.00  0.00     0.161 A 
ATOM      6  C   UNL     1       0.448  -6.543  -1.180  1.00  0.00     0.050 A 
ENDROOT
BRANCH   1   7
ATOM      7  C   UNL     1       2.312  -8.918  -4.269  1.00  0.00     0.339 C 
ATOM      8  O   UNL     1       0.986  -9.639  -4.882  1.00  0.00    -0.246 OA
BRANCH   7   9
ATOM      9  O   UNL     1       3.204  -9.240  -4.728  1.00  0.00    -0.478 OA
ATOM     10  H   UNL     1       4.042  -9.543  -5.159  1.00  0.00     0.297 HD
ENDBRANCH   7   9
ENDBRANCH   1   7
BRANCH   2  11
ATOM     11  O   UNL     1       0.479  -6.631  -4.862  1.00  0.00    -0.504 OA
ATOM     12  H   UNL     1       0.279  -6.341  -5.787  1.00  0.00     0.293 HD
ENDBRANCH   2  11
BRANCH   5  13
ATOM     13  O   UNL     1      -1.297  -5.951  -2.938  1.00  0.00    -0.493 OA
ATOM     14  C   UNL     1      -2.179  -5.017  -3.076  1.00  0.00     0.278 C 
ENDBRANCH   5  13
TORSDOF 4
ENDMDL
MODEL 9
REMARK VINA RESULT:    -3.524      2.135      3.065
REMARK INTER + INTRA:          -4.625
REMARK INTER:                  -4.341
REMARK INTRA:                  -0.284
REMARK UNBOUND:                -0.483
REMARK SMILES COc1cccc(C(=O)O)c1O
REMARK SMILES IDX 7 1 11 2 6 3 5 4 3 5 4 6 8 7 9 8 10 9 12 11 2 13 1 14
REMARK H PARENT 10 10 12 12
ROOT
ATOM      1  C   UNL     1      -2.109  -7.103  -2.430  1.00  0.00     0.105 A 
ATOM      2  C   UNL     1      -0.966  -7.501  -1.792  1.00  0.00     0.172 A 
ATOM      3  C   UNL     1      -2.220  -5.683  -2.810  1.00  0.00     0.020 A 
ATOM      4  C   UNL     1      -1.079  -4.949  -2.848  1.00  0.00     0.005 A 
ATOM      5  C   UNL     1       0.310  -6.843  -2.031  1.00  0.00     0.161 A 
ATOM      6  C   UNL     1       0.196  -5.466  -2.475  1.00  0.00     0.050 A 
ENDROOT
BRANCH   1   7
ATOM      7  C   UNL     1      -3.195  -8.116  -2.831  1.00  0.00     0.339 C 
ATOM      8  O   UNL     1      -2.444  -9.393  -3.508  1.00  0.00    -0.246 OA
BRANCH   7   9
ATOM      9  O   UNL     1      -4.231  -8.265  -2.713  1.00  0.00    -0.478 OA
ATOM     10  H   UNL     1      -5.205  -8.404  -2.602  1.00  0.00     0.297 HD
ENDBRANCH   7   9
ENDBRANCH   1   7
BRANCH   2  11
ATOM     11  O   UNL     1      -0.968  -8.581  -0.892  1.00  0.00    -0.504 OA
ATOM     12  H   UNL     1      -0.969  -9.341  -0.258  1.00  0.00     0.293 HD
ENDBRANCH   2  11
BRANCH   5  13
ATOM     13  O   UNL     1       1.424  -7.462  -1.479  1.00  0.00    -0.493 OA
ATOM     14  C   UNL     1       2.665  -7.772  -1.292  1.00  0.00     0.278 C 
ENDBRANCH   5  13
TORSDOF 4
ENDMDL
