MODEL 1
REMARK VINA RESULT:    -5.012      0.000      0.000
REMARK INTER + INTRA:          -6.370
REMARK INTER:                  -5.891
REMARK INTRA:                  -0.479
REMARK UNBOUND:                -0.479
REMARK SMILES COc1cccc(C(=O)O)c1O
REMARK SMILES IDX 7 1 11 2 6 3 5 4 3 5 4 6 8 7 9 8 10 9 12 11 2 13 1 14
REMARK H PARENT 10 10 12 12
ROOT
ATOM      1  C   UNL     1      -6.885  -1.070   3.420  1.00  0.00     0.105 A 
ATOM      2  C   UNL     1      -6.198  -2.170   2.986  1.00  0.00     0.172 A 
ATOM      3  C   UNL     1      -7.606  -1.175   4.701  1.00  0.00     0.020 A 
ATOM      4  C   UNL     1      -7.261  -2.187   5.538  1.00  0.00     0.005 A 
ATOM      5  C   UNL     1      -5.625  -3.129   3.920  1.00  0.00     0.161 A 
ATOM      6  C   UNL     1      -6.293  -3.180   5.207  1.00  0.00     0.050 A 
ENDROOT
BRANCH   1   7
ATOM      7  C   UNL     1      -6.824   0.264   2.655  1.00  0.00     0.339 C 
ATOM      8  O   UNL     1      -5.608   0.152   1.577  1.00  0.00    -0.246 OA
BRANCH   7   9
ATOM      9  O   UNL     1      -7.378   1.154   2.559  1.00  0.00    -0.478 OA
ATOM     10  H   UNL     1      -7.898   1.992   2.468  1.00  0.00     0.297 HD
ENDBRANCH   7   9
ENDBRANCH   1   7
BRANCH   2  11
ATOM     11  O   UNL     1      -5.996  -2.414   1.617  1.00  0.00    -0.504 OA
ATOM     12  H   UNL     1      -5.853  -2.586   0.652  1.00  0.00     0.293 HD
ENDBRANCH   2  11
BRANCH   5  13
ATOM     13  O   UNL     1      -4.787  -4.089   3.365  1.00  0.00    -0.493 OA
ATOM     14  C   UNL     1      -4.113  -5.185   3.257  1.00  0.00     0.278 C 
ENDBRANCH   5  13
TORSDOF 4
ENDMDL
MODEL 2
REMARK VINA RESULT:    -5.010      1.759      4.700
REMARK INTER + INTRA:          -6.368
REMARK INTER:                  -5.889
REMARK INTRA:                  -0.479
REMARK UNBOUND:                -0.479
REMARK SMILES COc1cccc(C(=O)O)c1O
REMARK SMILES IDX 7 1 11 2 6 3 5 4 3 5 4 6 8 7 9 8 10 9 12 11 2 13 1 14
REMARK H PARENT 10 10 12 12
ROOT
ATOM      1  C   UNL     1      -5.397  -4.380   3.080  1.00  0.00     0.105 A 
ATOM      2  C   UNL     1      -5.659  -3.075   3.393  1.00  0.00     0.172 A 
ATOM      3  C   UNL     1      -6.423  -5.121   2.324  1.00  0.00     0.020 A 
ATOM      4  C   UNL     1      -7.373  -4.400   1.676  1.00  0.00     0.005 A 
ATOM      5  C   UNL     1      -6.499  -2.240   2.546  1.00  0.00     0.161 A 
ATOM      6  C   UNL     1      -7.461  -2.979   1.749  1.00  0.00     0.050 A 
ENDROOT
BRANCH   1   7
ATOM      7  C   UNL     1      -4.039  -5.025   3.409  1.00  0.00     0.339 C 
ATOM      8  O   UNL     1      -3.015  -3.825   3.814  1.00  0.00    -0.246 OA
BRANCH   7   9
ATOM      9  O   UNL     1      -3.622  -5.983   3.540  1.00  0.00    -0.478 OA
ATOM     10  H   UNL     1      -3.228  -6.883   3.664  1.00  0.00     0.297 HD
ENDBRANCH   7   9
ENDBRANCH   1   7
BRANCH   2  11
ATOM     11  O   UNL     1      -5.110  -2.473   4.538  1.00  0.00    -0.504 OA
ATOM     12  H   UNL     1      -4.723  -2.048   5.345  1.00  0.00     0.293 HD
ENDBRANCH   2  11
BRANCH   5  13
ATOM     13  O   UNL     1      -6.527  -0.889   2.864  1.00  0.00    -0.493 OA
ATOM     14  C   UNL     1      -6.908   0.346   2.857  1.00  0.00     0.278 C 
ENDBRANCH   5  13
TORSDOF 4
ENDMDL
MODEL 3
REMARK VINA RESULT:    -4.691      2.213      3.223
REMARK INTER + INTRA:          -5.993
REMARK INTER:                  -5.723
REMARK INTRA:                  -0.271
REMARK UNBOUND:                -0.479
REMARK SMILES COc1cccc(C(=O)O)c1O
REMARK SMILES IDX 7 1 11 2 6 3 5 4 3 5 4 6 8 7 9 8 10 9 12 11 2 13 1 14
REMARK H PARENT 10 10 12 12
ROOT
ATOM      1  C   UNL     1      -6.708  -1.285   3.293  1.00  0.00     0.105 A 
ATOM      2  C   UNL     1      -7.676  -1.776   4.125  1.00  0.00     0.172 A 
ATOM      3  C   UNL     1      -5.751  -2.247   2.715  1.00  0.00     0.020 A 
ATOM      4  C   UNL     1      -6.089  -3.562   2.735  1.00  0.00     0.005 A 
ATOM      5  C   UNL     1      -8.199  -3.126   3.976  1.00  0.00     0.161 A 
ATOM      6  C   UNL     1      -7.282  -4.054   3.342  1.00  0.00     0.050 A 
ENDROOT
BRANCH   1   7
ATOM      7  C   UNL     1      -6.678   0.198   2.886  1.00  0.00     0.339 C 
ATOM      8  O   UNL     1      -5.789   0.313   1.526  1.00  0.00    -0.246 OA
BRANCH   7   9
ATOM      9  O   UNL     1      -7.128   1.110   3.161  1.00  0.00    -0.478 OA
ATOM     10  H   UNL     1      -7.551   1.967   3.420  1.00  0.00     0.297 HD
ENDBRANCH   7   9
ENDBRANCH   1   7
BRANCH   2  11
ATOM     11  O   UNL     1      -8.225  -0.989   5.152  1.00  0.00    -0.504 OA
ATOM     12  H   UNL     1      -8.612  -0.434   5.875  1.00  0.00     0.293 HD
ENDBRANCH   2  11
BRANCH   5  13
ATOM     13  O   UNL     1      -9.311  -3.434   4.750  1.00  0.00    -0.493 OA
ATOM     14  C   UNL     1     -10.535  -3.727   5.042  1.00  0.00     0.278 C 
ENDBRANCH   5  13
TORSDOF 4
ENDMDL
MODEL 4
REMARK VINA RESULT:    -4.691      2.967      4.394
REMARK INTER + INTRA:          -5.993
REMARK INTER:                  -5.723
REMARK INTRA:                  -0.270
REMARK UNBOUND:                -0.479
REMARK SMILES COc1cccc(C(=O)O)c1O
REMARK SMILES IDX 7 1 11 2 6 3 5 4 3 5 4 6 8 7 9 8 10 9 12 11 2 13 1 14
REMARK H PARENT 10 10 12 12
ROOT
ATOM      1  C   UNL     1      -5.427  -4.093   3.178  1.00  0.00     0.105 A 
ATOM      2  C   UNL     1      -6.646  -4.684   2.994  1.00  0.00     0.172 A 
ATOM      3  C   UNL     1      -5.406  -2.653   3.497  1.00  0.00     0.020 A 
ATOM      4  C   UNL     1      -6.557  -2.089   3.945  1.00  0.00     0.005 A 
ATOM      5  C   UNL     1      -7.839  -4.204   3.678  1.00  0.00     0.161 A 
ATOM      6  C   UNL     1      -7.787  -2.804   4.054  1.00  0.00     0.050 A 
ENDROOT
BRANCH   1   7
ATOM      7  C   UNL     1      -4.127  -4.916   3.160  1.00  0.00     0.339 C 
ATOM      8  O   UNL     1      -2.976  -4.025   3.891  1.00  0.00    -0.246 OA
BRANCH   7   9
ATOM      9  O   UNL     1      -3.801  -5.886   2.912  1.00  0.00    -0.478 OA
ATOM     10  H   UNL     1      -3.493  -6.798   2.680  1.00  0.00     0.297 HD
ENDBRANCH   7   9
ENDBRANCH   1   7
BRANCH   2  11
ATOM     11  O   UNL     1      -6.799  -5.798   2.151  1.00  0.00    -0.504 OA
ATOM     12  H   UNL     1      -6.908  -6.582   1.557  1.00  0.00     0.293 HD
ENDBRANCH   2  11
BRANCH   5  13
ATOM     13  O   UNL     1      -8.967  -5.006   3.562  1.00  0.00    -0.493 OA
ATOM     14  C   UNL     1      -9.984  -5.718   3.921  1.00  0.00     0.278 C 
ENDBRANCH   5  13
TORSDOF 4
ENDMDL
MODEL 5
REMARK VINA RESULT:    -4.484      1.511      4.305
REMARK INTER + INTRA:          -5.749
REMARK INTER:                  -5.345
REMARK INTRA:                  -0.404
REMARK UNBOUND:                -0.479
REMARK SMILES COc1cccc(C(=O)O)c1O
REMARK SMILES IDX 7 1 11 2 6 3 5 4 3 5 4 6 8 7 9 8 10 9 12 11 2 13 1 14
REMARK H PARENT 10 10 12 12
ROOT
ATOM      1  C   UNL     1      -5.277  -4.013   3.825  1.00  0.00     0.105 A 
ATOM      2  C   UNL     1      -5.445  -2.707   3.456  1.00  0.00     0.172 A 
ATOM      3  C   UNL     1      -6.344  -4.640   4.626  1.00  0.00     0.020 A 
ATOM      4  C   UNL     1      -7.561  -4.037   4.639  1.00  0.00     0.005 A 
ATOM      5  C   UNL     1      -6.769  -2.139   3.242  1.00  0.00     0.161 A 
ATOM      6  C   UNL     1      -7.829  -2.804   3.976  1.00  0.00     0.050 A 
ENDROOT
BRANCH   1   7
ATOM      7  C   UNL     1      -4.070  -4.833   3.337  1.00  0.00     0.339 C 
ATOM      8  O   UNL     1      -2.724  -4.075   3.854  1.00  0.00    -0.246 OA
BRANCH   7   9
ATOM      9  O   UNL     1      -3.869  -5.756   2.871  1.00  0.00    -0.478 OA
ATOM     10  H   UNL     1      -3.679  -6.624   2.433  1.00  0.00     0.297 HD
ENDBRANCH   7   9
ENDBRANCH   1   7
BRANCH   2  11
ATOM     11  O   UNL     1      -4.345  -1.858   3.246  1.00  0.00    -0.504 OA
ATOM     12  H   UNL     1      -3.570  -1.260   3.098  1.00  0.00     0.293 HD
ENDBRANCH   2  11
BRANCH   5  13
ATOM     13  O   UNL     1      -6.799  -0.868   2.681  1.00  0.00    -0.493 OA
ATOM     14  C   UNL     1      -6.809   0.422   2.615  1.00  0.00     0.278 C 
ENDBRANCH   5  13
TORSDOF 4
ENDMDL
MODEL 6
REMARK VINA RESULT:    -3.979      2.181      3.094
REMARK INTER + INTRA:          -5.156
REMARK INTER:                  -4.856
REMARK INTRA:                  -0.300
REMARK UNBOUND:                -0.479
REMARK SMILES COc1cccc(C(=O)O)c1O
REMARK SMILES IDX 7 1 11 2 6 3 5 4 3 5 4 6 8 7 9 8 10 9 12 11 2 13 1 14
REMARK H PARENT 10 10 12 12
ROOT
ATOM      1  C   UNL     1      -7.367  -1.356   4.438  1.00  0.00     0.105 A 
ATOM      2  C   UNL     1      -6.467  -2.381   4.550  1.00  0.00     0.172 A 
ATOM      3  C   UNL     1      -7.106  -0.327   3.415  1.00  0.00     0.020 A 
ATOM      4  C   UNL     1      -6.229  -0.630   2.424  1.00  0.00     0.005 A 
ATOM      5  C   UNL     1      -5.701  -2.853   3.406  1.00  0.00     0.161 A 
ATOM      6  C   UNL     1      -5.507  -1.858   2.367  1.00  0.00     0.050 A 
ENDROOT
BRANCH   1   7
ATOM      7  C   UNL     1      -8.659  -1.331   5.273  1.00  0.00     0.339 C 
ATOM      8  O   UNL     1      -9.292  -2.831   5.236  1.00  0.00    -0.246 OA
BRANCH   7   9
ATOM      9  O   UNL     1      -9.180  -0.681   5.917  1.00  0.00    -0.478 OA
ATOM     10  H   UNL     1      -9.671  -0.069   6.521  1.00  0.00     0.297 HD
ENDBRANCH   7   9
ENDBRANCH   1   7
BRANCH   2  11
ATOM     11  O   UNL     1      -6.257  -3.039   5.774  1.00  0.00    -0.504 OA
ATOM     12  H   UNL     1      -6.110  -3.504   6.635  1.00  0.00     0.293 HD
ENDBRANCH   2  11
BRANCH   5  13
ATOM     13  O   UNL     1      -4.974  -4.020   3.604  1.00  0.00    -0.493 OA
ATOM     14  C   UNL     1      -4.255  -5.056   3.323  1.00  0.00     0.278 C 
ENDBRANCH   5  13
TORSDOF 4
ENDMDL
MODEL 7
REMARK VINA RESULT:    -3.951      2.280      4.674
REMARK INTER + INTRA:          -5.123
REMARK INTER:                  -4.822
REMARK INTRA:                  -0.301
REMARK UNBOUND:                -0.479
REMARK SMILES COc1cccc(C(=O)O)c1O
REMARK SMILES IDX 7 1 11 2 6 3 5 4 3 5 4 6 8 7 9 8 10 9 12 11 2 13 1 14
REMARK H PARENT 10 10 12 12
ROOT
ATOM      1  C   UNL     1      -6.260  -4.761   2.471  1.00  0.00     0.105 A 
ATOM      2  C   UNL     1      -6.572  -3.462   2.174  1.00  0.00     0.172 A 
ATOM      3  C   UNL     1      -4.914  -5.034   3.009  1.00  0.00     0.020 A 
ATOM      4  C   UNL     1      -4.213  -3.988   3.517  1.00  0.00     0.005 A 
ATOM      5  C   UNL     1      -5.980  -2.349   2.901  1.00  0.00     0.161 A 
ATOM      6  C   UNL     1      -4.687  -2.643   3.491  1.00  0.00     0.050 A 
ENDROOT
BRANCH   1   7
ATOM      7  C   UNL     1      -7.305  -5.883   2.350  1.00  0.00     0.339 C 
ATOM      8  O   UNL     1      -8.693  -5.328   2.998  1.00  0.00    -0.246 OA
BRANCH   7   9
ATOM      9  O   UNL     1      -7.411  -6.830   1.901  1.00  0.00    -0.478 OA
ATOM     10  H   UNL     1      -7.511  -7.720   1.478  1.00  0.00     0.297 HD
ENDBRANCH   7   9
ENDBRANCH   1   7
BRANCH   2  11
ATOM     11  O   UNL     1      -7.499  -3.145   1.166  1.00  0.00    -0.504 OA
ATOM     12  H   UNL     1      -8.151  -2.921   0.456  1.00  0.00     0.293 HD
ENDBRANCH   2  11
BRANCH   5  13
ATOM     13  O   UNL     1      -6.524  -1.098   2.642  1.00  0.00    -0.493 OA
ATOM     14  C   UNL     1      -6.962   0.098   2.863  1.00  0.00     0.278 C 
ENDBRANCH   5  13
TORSDOF 4
ENDMDL
MODEL 8
REMARK VINA RESULT:    -3.817      2.586      4.666
REMARK INTER + INTRA:          -4.966
REMARK INTER:                  -4.486
REMARK INTRA:                  -0.479
REMARK UNBOUND:                -0.479
REMARK SMILES COc1cccc(C(=O)O)c1O
REMARK SMILES IDX 7 1 11 2 6 3 5 4 3 5 4 6 8 7 9 8 10 9 12 11 2 13 1 14
REMARK H PARENT 10 10 12 12
ROOT
ATOM      1  C   UNL     1      -5.488  -4.710   3.411  1.00  0.00     0.105 A 
ATOM      2  C   UNL     1      -6.097  -3.877   4.309  1.00  0.00     0.172 A 
ATOM      3  C   UNL     1      -6.353  -5.498   2.514  1.00  0.00     0.020 A 
ATOM      4  C   UNL     1      -7.643  -5.099   2.370  1.00  0.00     0.005 A 
ATOM      5  C   UNL     1      -7.387  -3.264   4.028  1.00  0.00     0.161 A 
ATOM      6  C   UNL     1      -8.208  -4.006   3.090  1.00  0.00     0.050 A 
ENDROOT
BRANCH   1   7
ATOM      7  C   UNL     1      -3.957  -4.747   3.265  1.00  0.00     0.339 C 
ATOM      8  O   UNL     1      -3.377  -3.346   3.861  1.00  0.00    -0.246 OA
BRANCH   7   9
ATOM      9  O   UNL     1      -3.197  -5.425   2.996  1.00  0.00    -0.478 OA
ATOM     10  H   UNL     1      -2.482  -6.061   2.742  1.00  0.00     0.297 HD
ENDBRANCH   7   9
ENDBRANCH   1   7
BRANCH   2  11
ATOM     11  O   UNL     1      -5.493  -3.558   5.537  1.00  0.00    -0.504 OA
ATOM     12  H   UNL     1      -5.067  -3.334   6.402  1.00  0.00     0.293 HD
ENDBRANCH   2  11
BRANCH   5  13
ATOM     13  O   UNL     1      -7.803  -2.290   4.927  1.00  0.00    -0.493 OA
ATOM     14  C   UNL     1      -8.085  -1.118   5.392  1.00  0.00     0.278 C 
ENDBRANCH   5  13
TORSDOF 4
ENDMDL
MODEL 9
REMARK VINA RESULT:    -3.736      1.640      2.186
REMARK INTER + INTRA:          -4.870
REMARK INTER:                  -4.684
REMARK INTRA:                  -0.186
REMARK UNBOUND:                -0.479
REMARK SMILES COc1cccc(C(=O)O)c1O
REMARK SMILES IDX 7 1 11 2 6 3 5 4 3 5 4 6 8 7 9 8 10 9 12 11 2 13 1 14
REMARK H PARENT 10 10 12 12
ROOT
ATOM      1  C   UNL     1      -6.801  -1.373   2.539  1.00  0.00     0.105 A 
ATOM      2  C   UNL     1      -5.682  -2.133   2.743  1.00  0.00     0.172 A 
ATOM      3  C   UNL     1      -7.931  -1.998   1.829  1.00  0.00     0.020 A 
ATOM      4  C   UNL     1      -7.954  -3.353   1.747  1.00  0.00     0.005 A 
ATOM      5  C   UNL     1      -5.758  -3.579   2.892  1.00  0.00     0.161 A 
ATOM      6  C   UNL     1      -6.911  -4.184   2.252  1.00  0.00     0.050 A 
ENDROOT
BRANCH   1   7
ATOM      7  C   UNL     1      -6.921   0.046   3.121  1.00  0.00     0.339 C 
ATOM      8  O   UNL     1      -7.786  -0.062   4.496  1.00  0.00    -0.246 OA
BRANCH   7   9
ATOM      9  O   UNL     1      -6.540   1.013   2.950  1.00  0.00    -0.478 OA
ATOM     10  H   UNL     1      -6.182   1.922   2.791  1.00  0.00     0.297 HD
ENDBRANCH   7   9
ENDBRANCH   1   7
BRANCH   2  11
ATOM     11  O   UNL     1      -4.408  -1.548   2.840  1.00  0.00    -0.504 OA
ATOM     12  H   UNL     1      -3.510  -1.136   2.909  1.00  0.00     0.293 HD
ENDBRANCH   2  11
BRANCH   5  13
ATOM     13  O   UNL     1      -4.586  -4.210   3.290  1.00  0.00    -0.493 OA
ATOM     14  C   UNL     1      -3.719  -5.153   3.456  1.00  0.00     0.278 C 
ENDBRANCH   5  13
TORSDOF 4
ENDMDL
