MODEL 1
REMARK VINA RESULT:    -4.763      0.000      0.000
REMARK INTER + INTRA:          -6.082
REMARK INTER:                  -5.598
REMARK INTRA:                  -0.484
REMARK UNBOUND:                -0.484
REMARK SMILES COc1cccc(C(=O)O)c1O
REMARK SMILES IDX 7 1 11 2 6 3 5 4 3 5 4 6 8 7 9 8 10 9 12 11 2 13 1 14
REMARK H PARENT 10 10 12 12
ROOT
ATOM      1  C   UNL     1      -4.622  -0.063   3.171  1.00  0.00     0.105 A 
ATOM      2  C   UNL     1      -3.573  -0.302   4.015  1.00  0.00     0.172 A 
ATOM      3  C   UNL     1      -5.516   1.064   3.493  1.00  0.00     0.020 A 
ATOM      4  C   UNL     1      -5.060   2.003   4.362  1.00  0.00     0.005 A 
ATOM      5  C   UNL     1      -2.938   0.771   4.766  1.00  0.00     0.161 A 
ATOM      6  C   UNL     1      -3.798   1.911   5.021  1.00  0.00     0.050 A 
ENDROOT
BRANCH   1   7
ATOM      7  C   UNL     1      -4.807  -0.871   1.875  1.00  0.00     0.339 C 
ATOM      8  O   UNL     1      -3.405  -1.649   1.583  1.00  0.00    -0.246 OA
BRANCH   7   9
ATOM      9  O   UNL     1      -5.572  -1.137   1.202  1.00  0.00    -0.478 OA
ATOM     10  H   UNL     1      -6.292  -1.387   0.570  1.00  0.00     0.297 HD
ENDBRANCH   7   9
ENDBRANCH   1   7
BRANCH   2  11
ATOM     11  O   UNL     1      -3.046  -1.595   4.180  1.00  0.00    -0.504 OA
ATOM     12  H   UNL     1      -2.675  -2.505   4.296  1.00  0.00     0.293 HD
ENDBRANCH   2  11
BRANCH   5  13
ATOM     13  O   UNL     1      -1.765   0.434   5.430  1.00  0.00    -0.493 OA
ATOM     14  C   UNL     1      -0.777   0.525   6.259  1.00  0.00     0.278 C 
ENDBRANCH   5  13
TORSDOF 4
ENDMDL
MODEL 2
REMARK VINA RESULT:    -4.746      1.746      4.665
REMARK INTER + INTRA:          -6.063
REMARK INTER:                  -5.587
REMARK INTRA:                  -0.476
REMARK UNBOUND:                -0.484
REMARK SMILES COc1cccc(C(=O)O)c1O
REMARK SMILES IDX 7 1 11 2 6 3 5 4 3 5 4 6 8 7 9 8 10 9 12 11 2 13 1 14
REMARK H PARENT 10 10 12 12
ROOT
ATOM      1  C   UNL     1      -2.306   0.091   5.837  1.00  0.00     0.105 A 
ATOM      2  C   UNL     1      -2.926   0.154   4.620  1.00  0.00     0.172 A 
ATOM      3  C   UNL     1      -2.908  -0.776   6.866  1.00  0.00     0.020 A 
ATOM      4  C   UNL     1      -3.794  -1.720   6.457  1.00  0.00     0.005 A 
ATOM      5  C   UNL     1      -3.683  -0.971   4.088  1.00  0.00     0.161 A 
ATOM      6  C   UNL     1      -4.214  -1.863   5.102  1.00  0.00     0.050 A 
ENDROOT
BRANCH   1   7
ATOM      7  C   UNL     1      -0.971   0.812   6.094  1.00  0.00     0.339 C 
ATOM      8  O   UNL     1      -0.317   1.158   4.643  1.00  0.00    -0.246 OA
BRANCH   7   9
ATOM      9  O   UNL     1      -0.427   1.219   6.898  1.00  0.00    -0.478 OA
ATOM     10  H   UNL     1       0.086   1.602   7.654  1.00  0.00     0.297 HD
ENDBRANCH   7   9
ENDBRANCH   1   7
BRANCH   2  11
ATOM     11  O   UNL     1      -2.842   1.303   3.815  1.00  0.00    -0.504 OA
ATOM     12  H   UNL     1      -2.783   2.113   3.248  1.00  0.00     0.293 HD
ENDBRANCH   2  11
BRANCH   5  13
ATOM     13  O   UNL     1      -4.094  -0.854   2.767  1.00  0.00    -0.493 OA
ATOM     14  C   UNL     1      -4.877  -0.649   1.759  1.00  0.00     0.278 C 
ENDBRANCH   5  13
TORSDOF 4
ENDMDL
MODEL 3
REMARK VINA RESULT:    -4.695      2.909      4.383
REMARK INTER + INTRA:          -6.003
REMARK INTER:                  -5.733
REMARK INTRA:                  -0.269
REMARK UNBOUND:                -0.484
REMARK SMILES COc1cccc(C(=O)O)c1O
REMARK SMILES IDX 7 1 11 2 6 3 5 4 3 5 4 6 8 7 9 8 10 9 12 11 2 13 1 14
REMARK H PARENT 10 10 12 12
ROOT
ATOM      1  C   UNL     1      -2.331   0.066   5.556  1.00  0.00     0.105 A 
ATOM      2  C   UNL     1      -3.312  -0.284   6.442  1.00  0.00     0.172 A 
ATOM      3  C   UNL     1      -2.716   0.243   4.144  1.00  0.00     0.020 A 
ATOM      4  C   UNL     1      -4.035   0.412   3.866  1.00  0.00     0.005 A 
ATOM      5  C   UNL     1      -4.698   0.116   6.244  1.00  0.00     0.161 A 
ATOM      6  C   UNL     1      -5.056   0.359   4.859  1.00  0.00     0.050 A 
ENDROOT
BRANCH   1   7
ATOM      7  C   UNL     1      -0.898   0.369   6.027  1.00  0.00     0.339 C 
ATOM      8  O   UNL     1      -0.191   1.283   4.879  1.00  0.00    -0.246 OA
BRANCH   7   9
ATOM      9  O   UNL     1      -0.297   0.248   6.883  1.00  0.00    -0.478 OA
ATOM     10  H   UNL     1       0.267   0.134   7.689  1.00  0.00     0.297 HD
ENDBRANCH   7   9
ENDBRANCH   1   7
BRANCH   2  11
ATOM     11  O   UNL     1      -3.023  -1.030   7.597  1.00  0.00    -0.504 OA
ATOM     12  H   UNL     1      -2.818  -1.555   8.411  1.00  0.00     0.293 HD
ENDBRANCH   2  11
BRANCH   5  13
ATOM     13  O   UNL     1      -5.557  -0.130   7.308  1.00  0.00    -0.493 OA
ATOM     14  C   UNL     1      -6.305   0.105   8.336  1.00  0.00     0.278 C 
ENDBRANCH   5  13
TORSDOF 4
ENDMDL
MODEL 4
REMARK VINA RESULT:    -4.680      2.230      3.270
REMARK INTER + INTRA:          -5.985
REMARK INTER:                  -5.715
REMARK INTRA:                  -0.270
REMARK UNBOUND:                -0.484
REMARK SMILES COc1cccc(C(=O)O)c1O
REMARK SMILES IDX 7 1 11 2 6 3 5 4 3 5 4 6 8 7 9 8 10 9 12 11 2 13 1 14
REMARK H PARENT 10 10 12 12
ROOT
ATOM      1  C   UNL     1      -4.462  -0.129   3.239  1.00  0.00     0.105 A 
ATOM      2  C   UNL     1      -5.381   0.539   3.999  1.00  0.00     0.172 A 
ATOM      3  C   UNL     1      -3.197  -0.525   3.886  1.00  0.00     0.020 A 
ATOM      4  C   UNL     1      -3.162  -0.542   5.244  1.00  0.00     0.005 A 
ATOM      5  C   UNL     1      -5.485   0.325   5.436  1.00  0.00     0.161 A 
ATOM      6  C   UNL     1      -4.258  -0.133   6.059  1.00  0.00     0.050 A 
ENDROOT
BRANCH   1   7
ATOM      7  C   UNL     1      -4.772  -0.547   1.791  1.00  0.00     0.339 C 
ATOM      8  O   UNL     1      -3.689  -1.689   1.371  1.00  0.00    -0.246 OA
BRANCH   7   9
ATOM      9  O   UNL     1      -5.510  -0.391   1.056  1.00  0.00    -0.478 OA
ATOM     10  H   UNL     1      -6.203  -0.244   0.365  1.00  0.00     0.297 HD
ENDBRANCH   7   9
ENDBRANCH   1   7
BRANCH   2  11
ATOM     11  O   UNL     1      -6.285   1.449   3.423  1.00  0.00    -0.504 OA
ATOM     12  H   UNL     1      -6.922   2.089   3.017  1.00  0.00     0.293 HD
ENDBRANCH   2  11
BRANCH   5  13
ATOM     13  O   UNL     1      -6.581   0.909   6.057  1.00  0.00    -0.493 OA
ATOM     14  C   UNL     1      -7.660   1.005   6.762  1.00  0.00     0.278 C 
ENDBRANCH   5  13
TORSDOF 4
ENDMDL
MODEL 5
REMARK VINA RESULT:    -4.501      1.511      4.290
REMARK INTER + INTRA:          -5.775
REMARK INTER:                  -5.413
REMARK INTRA:                  -0.363
REMARK UNBOUND:                -0.484
REMARK SMILES COc1cccc(C(=O)O)c1O
REMARK SMILES IDX 7 1 11 2 6 3 5 4 3 5 4 6 8 7 9 8 10 9 12 11 2 13 1 14
REMARK H PARENT 10 10 12 12
ROOT
ATOM      1  C   UNL     1      -2.251   0.718   5.319  1.00  0.00     0.105 A 
ATOM      2  C   UNL     1      -2.741   0.302   4.112  1.00  0.00     0.172 A 
ATOM      3  C   UNL     1      -3.197   1.339   6.264  1.00  0.00     0.020 A 
ATOM      4  C   UNL     1      -4.523   1.135   6.054  1.00  0.00     0.005 A 
ATOM      5  C   UNL     1      -4.119  -0.143   3.960  1.00  0.00     0.161 A 
ATOM      6  C   UNL     1      -5.036   0.414   4.936  1.00  0.00     0.050 A 
ENDROOT
BRANCH   1   7
ATOM      7  C   UNL     1      -0.790   0.455   5.723  1.00  0.00     0.339 C 
ATOM      8  O   UNL     1       0.154   1.363   4.753  1.00  0.00    -0.246 OA
BRANCH   7   9
ATOM      9  O   UNL     1      -0.247  -0.042   6.476  1.00  0.00    -0.478 OA
ATOM     10  H   UNL     1       0.263  -0.510   7.184  1.00  0.00     0.297 HD
ENDBRANCH   7   9
ENDBRANCH   1   7
BRANCH   2  11
ATOM     11  O   UNL     1      -1.929   0.265   2.965  1.00  0.00    -0.504 OA
ATOM     12  H   UNL     1      -1.356   0.238   2.158  1.00  0.00     0.293 HD
ENDBRANCH   2  11
BRANCH   5  13
ATOM     13  O   UNL     1      -4.436  -0.724   2.738  1.00  0.00    -0.493 OA
ATOM     14  C   UNL     1      -4.957  -0.856   1.563  1.00  0.00     0.278 C 
ENDBRANCH   5  13
TORSDOF 4
ENDMDL
MODEL 6
REMARK VINA RESULT:    -3.967      2.151      3.088
REMARK INTER + INTRA:          -5.147
REMARK INTER:                  -4.941
REMARK INTRA:                  -0.206
REMARK UNBOUND:                -0.484
REMARK SMILES COc1cccc(C(=O)O)c1O
REMARK SMILES IDX 7 1 11 2 6 3 5 4 3 5 4 6 8 7 9 8 10 9 12 11 2 13 1 14
REMARK H PARENT 10 10 12 12
ROOT
ATOM      1  C   UNL     1      -5.097   0.843   3.589  1.00  0.00     0.105 A 
ATOM      2  C   UNL     1      -3.931   1.155   4.232  1.00  0.00     0.172 A 
ATOM      3  C   UNL     1      -5.032  -0.150   2.500  1.00  0.00     0.020 A 
ATOM      4  C   UNL     1      -3.938  -0.951   2.441  1.00  0.00     0.005 A 
ATOM      5  C   UNL     1      -2.850   0.189   4.365  1.00  0.00     0.161 A 
ATOM      6  C   UNL     1      -2.831  -0.830   3.332  1.00  0.00     0.050 A 
ENDROOT
BRANCH   1   7
ATOM      7  C   UNL     1      -6.445   1.423   4.049  1.00  0.00     0.339 C 
ATOM      8  O   UNL     1      -6.652   0.998   5.608  1.00  0.00    -0.246 OA
BRANCH   7   9
ATOM      9  O   UNL     1      -7.197   2.072   3.697  1.00  0.00    -0.478 OA
ATOM     10  H   UNL     1      -7.904   2.681   3.366  1.00  0.00     0.297 HD
ENDBRANCH   7   9
ENDBRANCH   1   7
BRANCH   2  11
ATOM     11  O   UNL     1      -3.733   2.418   4.815  1.00  0.00    -0.504 OA
ATOM     12  H   UNL     1      -3.593   3.308   5.226  1.00  0.00     0.293 HD
ENDBRANCH   2  11
BRANCH   5  13
ATOM     13  O   UNL     1      -1.808   0.558   5.206  1.00  0.00    -0.493 OA
ATOM     14  C   UNL     1      -1.025   0.549   6.234  1.00  0.00     0.278 C 
ENDBRANCH   5  13
TORSDOF 4
ENDMDL
MODEL 7
REMARK VINA RESULT:    -3.926      2.592      4.251
REMARK INTER + INTRA:          -5.099
REMARK INTER:                  -4.667
REMARK INTRA:                  -0.432
REMARK UNBOUND:                -0.484
REMARK SMILES COc1cccc(C(=O)O)c1O
REMARK SMILES IDX 7 1 11 2 6 3 5 4 3 5 4 6 8 7 9 8 10 9 12 11 2 13 1 14
REMARK H PARENT 10 10 12 12
ROOT
ATOM      1  C   UNL     1      -2.435   0.110   4.743  1.00  0.00     0.105 A 
ATOM      2  C   UNL     1      -3.561   0.150   5.518  1.00  0.00     0.172 A 
ATOM      3  C   UNL     1      -2.578  -0.366   3.354  1.00  0.00     0.020 A 
ATOM      4  C   UNL     1      -3.826  -0.384   2.818  1.00  0.00     0.005 A 
ATOM      5  C   UNL     1      -4.879   0.373   4.940  1.00  0.00     0.161 A 
ATOM      6  C   UNL     1      -4.997  -0.031   3.552  1.00  0.00     0.050 A 
ENDROOT
BRANCH   1   7
ATOM      7  C   UNL     1      -1.087   0.641   5.261  1.00  0.00     0.339 C 
ATOM      8  O   UNL     1      -0.762  -0.135   6.656  1.00  0.00    -0.246 OA
BRANCH   7   9
ATOM      9  O   UNL     1      -0.298   1.260   4.941  1.00  0.00    -0.478 OA
ATOM     10  H   UNL     1       0.445   1.842   4.641  1.00  0.00     0.297 HD
ENDBRANCH   7   9
ENDBRANCH   1   7
BRANCH   2  11
ATOM     11  O   UNL     1      -3.494  -0.001   6.914  1.00  0.00    -0.504 OA
ATOM     12  H   UNL     1      -3.446  -0.107   7.897  1.00  0.00     0.293 HD
ENDBRANCH   2  11
BRANCH   5  13
ATOM     13  O   UNL     1      -5.909   0.589   5.847  1.00  0.00    -0.493 OA
ATOM     14  C   UNL     1      -6.911   0.328   6.620  1.00  0.00     0.278 C 
ENDBRANCH   5  13
TORSDOF 4
ENDMDL
MODEL 8
REMARK VINA RESULT:    -3.856      2.091      2.860
REMARK INTER + INTRA:          -5.017
REMARK INTER:                  -4.589
REMARK INTRA:                  -0.428
REMARK UNBOUND:                -0.484
REMARK SMILES COc1cccc(C(=O)O)c1O
REMARK SMILES IDX 7 1 11 2 6 3 5 4 3 5 4 6 8 7 9 8 10 9 12 11 2 13 1 14
REMARK H PARENT 10 10 12 12
ROOT
ATOM      1  C   UNL     1      -3.273  -0.288   4.054  1.00  0.00     0.105 A 
ATOM      2  C   UNL     1      -3.798  -0.564   5.286  1.00  0.00     0.172 A 
ATOM      3  C   UNL     1      -2.050   0.535   4.001  1.00  0.00     0.020 A 
ATOM      4  C   UNL     1      -1.323   0.658   5.141  1.00  0.00     0.005 A 
ATOM      5  C   UNL     1      -2.957  -0.663   6.471  1.00  0.00     0.161 A 
ATOM      6  C   UNL     1      -1.720   0.091   6.387  1.00  0.00     0.050 A 
ENDROOT
BRANCH   1   7
ATOM      7  C   UNL     1      -3.870  -0.899   2.774  1.00  0.00     0.339 C 
ATOM      8  O   UNL     1      -5.418  -0.402   2.674  1.00  0.00    -0.246 OA
BRANCH   7   9
ATOM      9  O   UNL     1      -3.557  -1.440   1.927  1.00  0.00    -0.478 OA
ATOM     10  H   UNL     1      -3.262  -1.949   1.130  1.00  0.00     0.297 HD
ENDBRANCH   7   9
ENDBRANCH   1   7
BRANCH   2  11
ATOM     11  O   UNL     1      -5.175  -0.787   5.461  1.00  0.00    -0.504 OA
ATOM     12  H   UNL     1      -6.145  -0.944   5.585  1.00  0.00     0.293 HD
ENDBRANCH   2  11
BRANCH   5  13
ATOM     13  O   UNL     1      -3.579  -1.141   7.617  1.00  0.00    -0.493 OA
ATOM     14  C   UNL     1      -3.981  -1.182   8.845  1.00  0.00     0.278 C 
ENDBRANCH   5  13
TORSDOF 4
ENDMDL
MODEL 9
REMARK VINA RESULT:    -3.704      1.705      2.248
REMARK INTER + INTRA:          -4.838
REMARK INTER:                  -4.655
REMARK INTRA:                  -0.183
REMARK UNBOUND:                -0.484
REMARK SMILES COc1cccc(C(=O)O)c1O
REMARK SMILES IDX 7 1 11 2 6 3 5 4 3 5 4 6 8 7 9 8 10 9 12 11 2 13 1 14
REMARK H PARENT 10 10 12 12
ROOT
ATOM      1  C   UNL     1      -4.216  -0.837   3.331  1.00  0.00     0.105 A 
ATOM      2  C   UNL     1      -2.968  -0.444   3.730  1.00  0.00     0.172 A 
ATOM      3  C   UNL     1      -4.951  -1.769   4.205  1.00  0.00     0.020 A 
ATOM      4  C   UNL     1      -4.532  -1.893   5.491  1.00  0.00     0.005 A 
ATOM      5  C   UNL     1      -2.610  -0.354   5.138  1.00  0.00     0.161 A 
ATOM      6  C   UNL     1      -3.384  -1.221   6.007  1.00  0.00     0.050 A 
ENDROOT
BRANCH   1   7
ATOM      7  C   UNL     1      -4.876  -0.250   2.071  1.00  0.00     0.339 C 
ATOM      8  O   UNL     1      -5.951   0.871   2.562  1.00  0.00    -0.246 OA
BRANCH   7   9
ATOM      9  O   UNL     1      -4.770  -0.286   1.024  1.00  0.00    -0.478 OA
ATOM     10  H   UNL     1      -4.671  -0.322   0.040  1.00  0.00     0.297 HD
ENDBRANCH   7   9
ENDBRANCH   1   7
BRANCH   2  11
ATOM     11  O   UNL     1      -1.980  -0.087   2.796  1.00  0.00    -0.504 OA
ATOM     12  H   UNL     1      -1.284   0.165   2.139  1.00  0.00     0.293 HD
ENDBRANCH   2  11
BRANCH   5  13
ATOM     13  O   UNL     1      -1.387   0.244   5.415  1.00  0.00    -0.493 OA
ATOM     14  C   UNL     1      -0.426   0.765   6.105  1.00  0.00     0.278 C 
ENDBRANCH   5  13
TORSDOF 4
ENDMDL
