MODEL 1
REMARK VINA RESULT:    -4.906      0.000      0.000
REMARK INTER + INTRA:          -6.249
REMARK INTER:                  -5.766
REMARK INTRA:                  -0.483
REMARK UNBOUND:                -0.483
REMARK SMILES COc1cccc(C(=O)O)c1O
REMARK SMILES IDX 7 1 11 2 6 3 5 4 3 5 4 6 8 7 9 8 10 9 12 11 2 13 1 14
REMARK H PARENT 10 10 12 12
ROOT
ATOM      1  C   UNL     1       0.654   2.669  -5.375  1.00  0.00     0.105 A 
ATOM      2  C   UNL     1       1.909   3.151  -5.125  1.00  0.00     0.172 A 
ATOM      3  C   UNL     1       0.445   1.926  -6.631  1.00  0.00     0.020 A 
ATOM      4  C   UNL     1       1.542   1.449  -7.273  1.00  0.00     0.005 A 
ATOM      5  C   UNL     1       3.099   2.480  -5.631  1.00  0.00     0.161 A 
ATOM      6  C   UNL     1       2.875   1.691  -6.827  1.00  0.00     0.050 A 
ENDROOT
BRANCH   1   7
ATOM      7  C   UNL     1      -0.476   2.803  -4.340  1.00  0.00     0.339 C 
ATOM      8  O   UNL     1       0.207   3.247  -2.929  1.00  0.00    -0.246 OA
BRANCH   7   9
ATOM      9  O   UNL     1      -1.528   2.790  -4.301  1.00  0.00    -0.478 OA
ATOM     10  H   UNL     1      -2.518   2.779  -4.264  1.00  0.00     0.297 HD
ENDBRANCH   7   9
ENDBRANCH   1   7
BRANCH   2  11
ATOM     11  O   UNL     1       2.109   4.305  -4.349  1.00  0.00    -0.504 OA
ATOM     12  H   UNL     1       2.250   5.118  -3.801  1.00  0.00     0.293 HD
ENDBRANCH   2  11
BRANCH   5  13
ATOM     13  O   UNL     1       4.312   2.952  -5.145  1.00  0.00    -0.493 OA
ATOM     14  C   UNL     1       5.591   3.072  -5.003  1.00  0.00     0.278 C 
ENDBRANCH   5  13
TORSDOF 4
ENDMDL
MODEL 2
REMARK VINA RESULT:    -4.817      1.753      4.660
REMARK INTER + INTRA:          -6.145
REMARK INTER:                  -5.674
REMARK INTRA:                  -0.470
REMARK UNBOUND:                -0.483
REMARK SMILES COc1cccc(C(=O)O)c1O
REMARK SMILES IDX 7 1 11 2 6 3 5 4 3 5 4 6 8 7 9 8 10 9 12 11 2 13 1 14
REMARK H PARENT 10 10 12 12
ROOT
ATOM      1  C   UNL     1       4.089   3.438  -5.498  1.00  0.00     0.105 A 
ATOM      2  C   UNL     1       2.849   2.939  -5.209  1.00  0.00     0.172 A 
ATOM      3  C   UNL     1       4.159   4.750  -6.167  1.00  0.00     0.020 A 
ATOM      4  C   UNL     1       3.055   5.539  -6.126  1.00  0.00     0.005 A 
ATOM      5  C   UNL     1       1.720   3.815  -4.931  1.00  0.00     0.161 A 
ATOM      6  C   UNL     1       1.825   5.131  -5.532  1.00  0.00     0.050 A 
ENDROOT
BRANCH   1   7
ATOM      7  C   UNL     1       5.369   2.711  -5.050  1.00  0.00     0.339 C 
ATOM      8  O   UNL     1       4.941   1.630  -3.909  1.00  0.00    -0.246 OA
BRANCH   7   9
ATOM      9  O   UNL     1       6.383   2.639  -5.323  1.00  0.00    -0.478 OA
ATOM     10  H   UNL     1       7.338   2.572  -5.580  1.00  0.00     0.297 HD
ENDBRANCH   7   9
ENDBRANCH   1   7
BRANCH   2  11
ATOM     11  O   UNL     1       2.614   1.555  -5.146  1.00  0.00    -0.504 OA
ATOM     12  H   UNL     1       2.448   0.580  -5.101  1.00  0.00     0.293 HD
ENDBRANCH   2  11
BRANCH   5  13
ATOM     13  O   UNL     1       0.572   3.191  -4.459  1.00  0.00    -0.493 OA
ATOM     14  C   UNL     1      -0.598   2.642  -4.477  1.00  0.00     0.278 C 
ENDBRANCH   5  13
TORSDOF 4
ENDMDL
MODEL 3
REMARK VINA RESULT:    -4.733      2.912      4.315
REMARK INTER + INTRA:          -6.045
REMARK INTER:                  -5.780
REMARK INTRA:                  -0.266
REMARK UNBOUND:                -0.483
REMARK SMILES COc1cccc(C(=O)O)c1O
REMARK SMILES IDX 7 1 11 2 6 3 5 4 3 5 4 6 8 7 9 8 10 9 12 11 2 13 1 14
REMARK H PARENT 10 10 12 12
ROOT
ATOM      1  C   UNL     1       3.845   3.269  -5.464  1.00  0.00     0.105 A 
ATOM      2  C   UNL     1       3.646   4.166  -6.477  1.00  0.00     0.172 A 
ATOM      3  C   UNL     1       2.699   2.438  -5.052  1.00  0.00     0.020 A 
ATOM      4  C   UNL     1       1.651   2.338  -5.909  1.00  0.00     0.005 A 
ATOM      5  C   UNL     1       2.671   3.923  -7.531  1.00  0.00     0.161 A 
ATOM      6  C   UNL     1       1.581   3.047  -7.145  1.00  0.00     0.050 A 
ENDROOT
BRANCH   1   7
ATOM      7  C   UNL     1       5.237   3.056  -4.846  1.00  0.00     0.339 C 
ATOM      8  O   UNL     1       5.190   1.660  -4.007  1.00  0.00    -0.246 OA
BRANCH   7   9
ATOM      9  O   UNL     1       6.201   3.478  -4.885  1.00  0.00    -0.478 OA
ATOM     10  H   UNL     1       7.108   3.875  -4.922  1.00  0.00     0.297 HD
ENDBRANCH   7   9
ENDBRANCH   1   7
BRANCH   2  11
ATOM     11  O   UNL     1       4.391   5.355  -6.559  1.00  0.00    -0.504 OA
ATOM     12  H   UNL     1       4.916   6.192  -6.616  1.00  0.00     0.293 HD
ENDBRANCH   2  11
BRANCH   5  13
ATOM     13  O   UNL     1       2.704   4.808  -8.602  1.00  0.00    -0.493 OA
ATOM     14  C   UNL     1       2.772   5.221  -9.824  1.00  0.00     0.278 C 
ENDBRANCH   5  13
TORSDOF 4
ENDMDL
MODEL 4
REMARK VINA RESULT:    -4.726      2.265      3.261
REMARK INTER + INTRA:          -6.038
REMARK INTER:                  -5.771
REMARK INTRA:                  -0.266
REMARK UNBOUND:                -0.483
REMARK SMILES COc1cccc(C(=O)O)c1O
REMARK SMILES IDX 7 1 11 2 6 3 5 4 3 5 4 6 8 7 9 8 10 9 12 11 2 13 1 14
REMARK H PARENT 10 10 12 12
ROOT
ATOM      1  C   UNL     1       0.946   2.873  -5.293  1.00  0.00     0.105 A 
ATOM      2  C   UNL     1       0.905   2.735  -6.653  1.00  0.00     0.172 A 
ATOM      3  C   UNL     1       2.189   3.395  -4.697  1.00  0.00     0.020 A 
ATOM      4  C   UNL     1       3.060   4.041  -5.515  1.00  0.00     0.005 A 
ATOM      5  C   UNL     1       1.673   3.604  -7.533  1.00  0.00     0.161 A 
ATOM      6  C   UNL     1       2.859   4.174  -6.921  1.00  0.00     0.050 A 
ENDROOT
BRANCH   1   7
ATOM      7  C   UNL     1      -0.292   2.596  -4.422  1.00  0.00     0.339 C 
ATOM      8  O   UNL     1      -0.005   3.234  -2.951  1.00  0.00    -0.246 OA
BRANCH   7   9
ATOM      9  O   UNL     1      -1.270   2.219  -4.523  1.00  0.00    -0.478 OA
ATOM     10  H   UNL     1      -2.189   1.864  -4.617  1.00  0.00     0.297 HD
ENDBRANCH   7   9
ENDBRANCH   1   7
BRANCH   2  11
ATOM     11  O   UNL     1       0.100   1.758  -7.265  1.00  0.00    -0.504 OA
ATOM     12  H   UNL     1      -0.467   1.071  -7.696  1.00  0.00     0.293 HD
ENDBRANCH   2  11
BRANCH   5  13
ATOM     13  O   UNL     1       1.394   3.493  -8.889  1.00  0.00    -0.493 OA
ATOM     14  C   UNL     1       1.000   3.831 -10.073  1.00  0.00     0.278 C 
ENDBRANCH   5  13
TORSDOF 4
ENDMDL
MODEL 5
REMARK VINA RESULT:    -4.027      2.677      4.228
REMARK INTER + INTRA:          -5.216
REMARK INTER:                  -4.753
REMARK INTRA:                  -0.463
REMARK UNBOUND:                -0.483
REMARK SMILES COc1cccc(C(=O)O)c1O
REMARK SMILES IDX 7 1 11 2 6 3 5 4 3 5 4 6 8 7 9 8 10 9 12 11 2 13 1 14
REMARK H PARENT 10 10 12 12
ROOT
ATOM      1  C   UNL     1       3.338   3.128  -4.873  1.00  0.00     0.105 A 
ATOM      2  C   UNL     1       3.062   3.853  -5.999  1.00  0.00     0.172 A 
ATOM      3  C   UNL     1       2.209   2.773  -3.994  1.00  0.00     0.020 A 
ATOM      4  C   UNL     1       0.957   2.853  -4.512  1.00  0.00     0.005 A 
ATOM      5  C   UNL     1       1.781   3.742  -6.683  1.00  0.00     0.161 A 
ATOM      6  C   UNL     1       0.684   3.324  -5.830  1.00  0.00     0.050 A 
ENDROOT
BRANCH   1   7
ATOM      7  C   UNL     1       4.757   2.608  -4.584  1.00  0.00     0.339 C 
ATOM      8  O   UNL     1       5.796   3.820  -4.910  1.00  0.00    -0.246 OA
BRANCH   7   9
ATOM      9  O   UNL     1       5.228   1.767  -4.160  1.00  0.00    -0.478 OA
ATOM     10  H   UNL     1       5.672   0.976  -3.762  1.00  0.00     0.297 HD
ENDBRANCH   7   9
ENDBRANCH   1   7
BRANCH   2  11
ATOM     11  O   UNL     1       4.012   4.723  -6.561  1.00  0.00    -0.504 OA
ATOM     12  H   UNL     1       4.681   5.336  -6.957  1.00  0.00     0.293 HD
ENDBRANCH   2  11
BRANCH   5  13
ATOM     13  O   UNL     1       1.697   4.375  -7.917  1.00  0.00    -0.493 OA
ATOM     14  C   UNL     1       1.580   4.515  -9.196  1.00  0.00     0.278 C 
ENDBRANCH   5  13
TORSDOF 4
ENDMDL
MODEL 6
REMARK VINA RESULT:    -3.789      2.137      3.083
REMARK INTER + INTRA:          -4.937
REMARK INTER:                  -4.682
REMARK INTRA:                  -0.255
REMARK UNBOUND:                -0.483
REMARK SMILES COc1cccc(C(=O)O)c1O
REMARK SMILES IDX 7 1 11 2 6 3 5 4 3 5 4 6 8 7 9 8 10 9 12 11 2 13 1 14
REMARK H PARENT 10 10 12 12
ROOT
ATOM      1  C   UNL     1       0.738   2.128  -6.281  1.00  0.00     0.105 A 
ATOM      2  C   UNL     1       2.078   2.008  -6.034  1.00  0.00     0.172 A 
ATOM      3  C   UNL     1      -0.136   2.483  -5.148  1.00  0.00     0.020 A 
ATOM      4  C   UNL     1       0.446   3.020  -4.045  1.00  0.00     0.005 A 
ATOM      5  C   UNL     1       2.734   2.781  -4.989  1.00  0.00     0.161 A 
ATOM      6  C   UNL     1       1.855   3.190  -3.910  1.00  0.00     0.050 A 
ENDROOT
BRANCH   1   7
ATOM      7  C   UNL     1       0.172   2.003  -7.706  1.00  0.00     0.339 C 
ATOM      8  O   UNL     1       1.102   2.919  -8.682  1.00  0.00    -0.246 OA
BRANCH   7   9
ATOM      9  O   UNL     1      -0.549   1.445  -8.232  1.00  0.00    -0.478 OA
ATOM     10  H   UNL     1      -1.227   0.919  -8.728  1.00  0.00     0.297 HD
ENDBRANCH   7   9
ENDBRANCH   1   7
BRANCH   2  11
ATOM     11  O   UNL     1       2.888   1.147  -6.795  1.00  0.00    -0.504 OA
ATOM     12  H   UNL     1       3.458   0.541  -7.331  1.00  0.00     0.293 HD
ENDBRANCH   2  11
BRANCH   5  13
ATOM     13  O   UNL     1       4.122   2.718  -4.970  1.00  0.00    -0.493 OA
ATOM     14  C   UNL     1       5.350   3.089  -5.128  1.00  0.00     0.278 C 
ENDBRANCH   5  13
TORSDOF 4
ENDMDL
MODEL 7
REMARK VINA RESULT:    -3.787      2.204      4.605
REMARK INTER + INTRA:          -4.934
REMARK INTER:                  -4.681
REMARK INTRA:                  -0.253
REMARK UNBOUND:                -0.483
REMARK SMILES COc1cccc(C(=O)O)c1O
REMARK SMILES IDX 7 1 11 2 6 3 5 4 3 5 4 6 8 7 9 8 10 9 12 11 2 13 1 14
REMARK H PARENT 10 10 12 12
ROOT
ATOM      1  C   UNL     1       3.947   4.448  -5.861  1.00  0.00     0.105 A 
ATOM      2  C   UNL     1       2.688   4.319  -5.341  1.00  0.00     0.172 A 
ATOM      3  C   UNL     1       4.997   3.554  -5.337  1.00  0.00     0.020 A 
ATOM      4  C   UNL     1       4.602   2.441  -4.667  1.00  0.00     0.005 A 
ATOM      5  C   UNL     1       2.195   3.045  -4.840  1.00  0.00     0.161 A 
ATOM      6  C   UNL     1       3.236   2.138  -4.391  1.00  0.00     0.050 A 
ENDROOT
BRANCH   1   7
ATOM      7  C   UNL     1       4.239   5.413  -7.022  1.00  0.00     0.339 C 
ATOM      8  O   UNL     1       3.087   5.181  -8.150  1.00  0.00    -0.246 OA
BRANCH   7   9
ATOM      9  O   UNL     1       4.881   6.217  -7.250  1.00  0.00    -0.478 OA
ATOM     10  H   UNL     1       5.483   6.972  -7.464  1.00  0.00     0.297 HD
ENDBRANCH   7   9
ENDBRANCH   1   7
BRANCH   2  11
ATOM     11  O   UNL     1       1.804   5.411  -5.289  1.00  0.00    -0.504 OA
ATOM     12  H   UNL     1       1.181   6.179  -5.251  1.00  0.00     0.293 HD
ENDBRANCH   2  11
BRANCH   5  13
ATOM     13  O   UNL     1       0.843   3.000  -4.525  1.00  0.00    -0.493 OA
ATOM     14  C   UNL     1      -0.415   2.730  -4.641  1.00  0.00     0.278 C 
ENDBRANCH   5  13
TORSDOF 4
ENDMDL
MODEL 8
REMARK VINA RESULT:    -3.634      7.622      8.480
REMARK INTER + INTRA:          -4.754
REMARK INTER:                  -4.514
REMARK INTRA:                  -0.240
REMARK UNBOUND:                -0.483
REMARK SMILES COc1cccc(C(=O)O)c1O
REMARK SMILES IDX 7 1 11 2 6 3 5 4 3 5 4 6 8 7 9 8 10 9 12 11 2 13 1 14
REMARK H PARENT 10 10 12 12
ROOT
ATOM      1  C   UNL     1       3.960  -3.557  -0.068  1.00  0.00     0.105 A 
ATOM      2  C   UNL     1       3.687  -2.277   0.328  1.00  0.00     0.172 A 
ATOM      3  C   UNL     1       2.825  -4.398  -0.494  1.00  0.00     0.020 A 
ATOM      4  C   UNL     1       1.664  -3.773  -0.818  1.00  0.00     0.005 A 
ATOM      5  C   UNL     1       2.560  -1.533  -0.217  1.00  0.00     0.161 A 
ATOM      6  C   UNL     1       1.475  -2.365  -0.701  1.00  0.00     0.050 A 
ENDROOT
BRANCH   1   7
ATOM      7  C   UNL     1       5.406  -4.073  -0.170  1.00  0.00     0.339 C 
ATOM      8  O   UNL     1       6.341  -2.815  -0.613  1.00  0.00    -0.246 OA
BRANCH   7   9
ATOM      9  O   UNL     1       5.961  -4.940   0.050  1.00  0.00    -0.478 OA
ATOM     10  H   UNL     1       6.483  -5.756   0.258  1.00  0.00     0.297 HD
ENDBRANCH   7   9
ENDBRANCH   1   7
BRANCH   2  11
ATOM     11  O   UNL     1       4.497  -1.613   1.265  1.00  0.00    -0.504 OA
ATOM     12  H   UNL     1       5.067  -1.145   1.925  1.00  0.00     0.293 HD
ENDBRANCH   2  11
BRANCH   5  13
ATOM     13  O   UNL     1       2.508  -0.185   0.115  1.00  0.00    -0.493 OA
ATOM     14  C   UNL     1       2.912   0.979   0.507  1.00  0.00     0.278 C 
ENDBRANCH   5  13
TORSDOF 4
ENDMDL
MODEL 9
REMARK VINA RESULT:    -3.579      7.353      7.816
REMARK INTER + INTRA:          -4.690
REMARK INTER:                  -4.437
REMARK INTRA:                  -0.253
REMARK UNBOUND:                -0.483
REMARK SMILES COc1cccc(C(=O)O)c1O
REMARK SMILES IDX 7 1 11 2 6 3 5 4 3 5 4 6 8 7 9 8 10 9 12 11 2 13 1 14
REMARK H PARENT 10 10 12 12
ROOT
ATOM      1  C   UNL     1       2.783  -3.397  -0.843  1.00  0.00     0.105 A 
ATOM      2  C   UNL     1       2.875  -2.100  -0.422  1.00  0.00     0.172 A 
ATOM      3  C   UNL     1       4.036  -4.159  -0.992  1.00  0.00     0.020 A 
ATOM      4  C   UNL     1       5.144  -3.678  -0.370  1.00  0.00     0.005 A 
ATOM      5  C   UNL     1       3.954  -1.654   0.449  1.00  0.00     0.161 A 
ATOM      6  C   UNL     1       5.164  -2.450   0.353  1.00  0.00     0.050 A 
ENDROOT
BRANCH   1   7
ATOM      7  C   UNL     1       1.418  -4.075  -1.054  1.00  0.00     0.339 C 
ATOM      8  O   UNL     1       0.352  -3.342  -0.063  1.00  0.00    -0.246 OA
BRANCH   7   9
ATOM      9  O   UNL     1       0.966  -4.778  -1.695  1.00  0.00    -0.478 OA
ATOM     10  H   UNL     1       0.542  -5.438  -2.298  1.00  0.00     0.297 HD
ENDBRANCH   7   9
ENDBRANCH   1   7
BRANCH   2  11
ATOM     11  O   UNL     1       1.919  -1.139  -0.794  1.00  0.00    -0.504 OA
ATOM     12  H   UNL     1       1.245  -0.463  -1.056  1.00  0.00     0.293 HD
ENDBRANCH   2  11
BRANCH   5  13
ATOM     13  O   UNL     1       3.826  -0.370   0.963  1.00  0.00    -0.493 OA
ATOM     14  C   UNL     1       3.316   0.796   1.186  1.00  0.00     0.278 C 
ENDBRANCH   5  13
TORSDOF 4
ENDMDL
