MODEL 1
REMARK VINA RESULT:    -4.987      0.000      0.000
REMARK INTER + INTRA:          -6.242
REMARK INTER:                  -5.861
REMARK INTRA:                  -0.380
REMARK UNBOUND:                -0.380
REMARK SMILES COc1cccc(C(=O)O)c1O
REMARK SMILES IDX 7 1 11 2 6 3 5 4 3 5 4 6 8 7 9 8 10 9 12 11 2 13 1 14
REMARK H PARENT 10 10 12 12
ROOT
ATOM      1  C   UNL     1      -3.167   7.605   0.820  1.00  0.00     0.105 A 
ATOM      2  C   UNL     1      -1.834   7.552   1.126  1.00  0.00     0.172 A 
ATOM      3  C   UNL     1      -3.638   8.745   0.013  1.00  0.00     0.020 A 
ATOM      4  C   UNL     1      -2.710   9.457  -0.676  1.00  0.00     0.005 A 
ATOM      5  C   UNL     1      -0.825   8.121   0.244  1.00  0.00     0.161 A 
ATOM      6  C   UNL     1      -1.310   9.197  -0.601  1.00  0.00     0.050 A 
ENDROOT
BRANCH   1   7
ATOM      7  C   UNL     1      -4.123   6.464   1.210  1.00  0.00     0.339 C 
ATOM      8  O   UNL     1      -3.216   5.257   1.822  1.00  0.00    -0.246 OA
BRANCH   7   9
ATOM      9  O   UNL     1      -5.157   6.281   1.287  1.00  0.00    -0.478 OA
ATOM     10  H   UNL     1      -6.129   6.109   1.359  1.00  0.00     0.297 HD
ENDBRANCH   7   9
ENDBRANCH   1   7
BRANCH   2  11
ATOM     11  O   UNL     1      -1.377   6.926   2.298  1.00  0.00    -0.504 OA
ATOM     12  H   UNL     1      -1.055   6.485   3.124  1.00  0.00     0.293 HD
ENDBRANCH   2  11
BRANCH   5  13
ATOM     13  O   UNL     1       0.494   7.830   0.566  1.00  0.00    -0.493 OA
ATOM     14  C   UNL     1       1.658   7.952   1.114  1.00  0.00     0.278 C 
ENDBRANCH   5  13
TORSDOF 4
ENDMDL
MODEL 2
REMARK VINA RESULT:    -4.920      1.797      4.631
REMARK INTER + INTRA:          -6.164
REMARK INTER:                  -5.707
REMARK INTRA:                  -0.457
REMARK UNBOUND:                -0.380
REMARK SMILES COc1cccc(C(=O)O)c1O
REMARK SMILES IDX 7 1 11 2 6 3 5 4 3 5 4 6 8 7 9 8 10 9 12 11 2 13 1 14
REMARK H PARENT 10 10 12 12
ROOT
ATOM      1  C   UNL     1       0.152   8.390   1.541  1.00  0.00     0.105 A 
ATOM      2  C   UNL     1      -1.026   7.797   1.177  1.00  0.00     0.172 A 
ATOM      3  C   UNL     1       0.120   9.334   2.673  1.00  0.00     0.020 A 
ATOM      4  C   UNL     1      -0.952   9.288   3.505  1.00  0.00     0.005 A 
ATOM      5  C   UNL     1      -2.082   7.538   2.146  1.00  0.00     0.161 A 
ATOM      6  C   UNL     1      -2.067   8.424   3.295  1.00  0.00     0.050 A 
ENDROOT
BRANCH   1   7
ATOM      7  C   UNL     1       1.481   8.009   0.867  1.00  0.00     0.339 C 
ATOM      8  O   UNL     1       1.240   6.608   0.071  1.00  0.00    -0.246 OA
BRANCH   7   9
ATOM      9  O   UNL     1       2.435   8.421   0.694  1.00  0.00    -0.478 OA
ATOM     10  H   UNL     1       3.331   8.808   0.531  1.00  0.00     0.297 HD
ENDBRANCH   7   9
ENDBRANCH   1   7
BRANCH   2  11
ATOM     11  O   UNL     1      -1.262   7.391  -0.147  1.00  0.00    -0.504 OA
ATOM     12  H   UNL     1      -1.428   7.105  -1.081  1.00  0.00     0.293 HD
ENDBRANCH   2  11
BRANCH   5  13
ATOM     13  O   UNL     1      -3.139   6.757   1.695  1.00  0.00    -0.493 OA
ATOM     14  C   UNL     1      -4.270   6.457   1.148  1.00  0.00     0.278 C 
ENDBRANCH   5  13
TORSDOF 4
ENDMDL
MODEL 3
REMARK VINA RESULT:    -4.823      2.901      4.364
REMARK INTER + INTRA:          -6.050
REMARK INTER:                  -5.783
REMARK INTRA:                  -0.266
REMARK UNBOUND:                -0.380
REMARK SMILES COc1cccc(C(=O)O)c1O
REMARK SMILES IDX 7 1 11 2 6 3 5 4 3 5 4 6 8 7 9 8 10 9 12 11 2 13 1 14
REMARK H PARENT 10 10 12 12
ROOT
ATOM      1  C   UNL     1      -0.028   8.322   1.324  1.00  0.00     0.105 A 
ATOM      2  C   UNL     1      -0.378   9.428   2.049  1.00  0.00     0.172 A 
ATOM      3  C   UNL     1      -1.092   7.636   0.567  1.00  0.00     0.020 A 
ATOM      4  C   UNL     1      -2.240   8.321   0.331  1.00  0.00     0.005 A 
ATOM      5  C   UNL     1      -1.477  10.292   1.641  1.00  0.00     0.161 A 
ATOM      6  C   UNL     1      -2.487   9.631   0.836  1.00  0.00     0.050 A 
ENDROOT
BRANCH   1   7
ATOM      7  C   UNL     1       1.438   7.868   1.214  1.00  0.00     0.339 C 
ATOM      8  O   UNL     1       1.518   6.767   0.015  1.00  0.00    -0.246 OA
BRANCH   7   9
ATOM      9  O   UNL     1       2.383   8.122   1.602  1.00  0.00    -0.478 OA
ATOM     10  H   UNL     1       3.272   8.360   1.967  1.00  0.00     0.297 HD
ENDBRANCH   7   9
ENDBRANCH   1   7
BRANCH   2  11
ATOM     11  O   UNL     1       0.323   9.793   3.211  1.00  0.00    -0.504 OA
ATOM     12  H   UNL     1       0.817  10.050   4.030  1.00  0.00     0.293 HD
ENDBRANCH   2  11
BRANCH   5  13
ATOM     13  O   UNL     1      -1.604  11.483   2.345  1.00  0.00    -0.493 OA
ATOM     14  C   UNL     1      -1.642  12.755   2.568  1.00  0.00     0.278 C 
ENDBRANCH   5  13
TORSDOF 4
ENDMDL
MODEL 4
REMARK VINA RESULT:    -4.759      2.240      3.270
REMARK INTER + INTRA:          -5.974
REMARK INTER:                  -5.708
REMARK INTRA:                  -0.266
REMARK UNBOUND:                -0.380
REMARK SMILES COc1cccc(C(=O)O)c1O
REMARK SMILES IDX 7 1 11 2 6 3 5 4 3 5 4 6 8 7 9 8 10 9 12 11 2 13 1 14
REMARK H PARENT 10 10 12 12
ROOT
ATOM      1  C   UNL     1      -2.891   7.566   1.055  1.00  0.00     0.105 A 
ATOM      2  C   UNL     1      -3.168   8.853   0.685  1.00  0.00     0.172 A 
ATOM      3  C   UNL     1      -1.525   7.267   1.522  1.00  0.00     0.020 A 
ATOM      4  C   UNL     1      -0.747   8.312   1.905  1.00  0.00     0.005 A 
ATOM      5  C   UNL     1      -2.480   9.986   1.289  1.00  0.00     0.161 A 
ATOM      6  C   UNL     1      -1.163   9.672   1.813  1.00  0.00     0.050 A 
ENDROOT
BRANCH   1   7
ATOM      7  C   UNL     1      -3.989   6.488   1.084  1.00  0.00     0.339 C 
ATOM      8  O   UNL     1      -3.400   5.216   1.913  1.00  0.00    -0.246 OA
BRANCH   7   9
ATOM      9  O   UNL     1      -5.002   6.374   0.823  1.00  0.00    -0.478 OA
ATOM     10  H   UNL     1      -5.956   6.267   0.577  1.00  0.00     0.297 HD
ENDBRANCH   7   9
ENDBRANCH   1   7
BRANCH   2  11
ATOM     11  O   UNL     1      -4.147   9.143  -0.280  1.00  0.00    -0.504 OA
ATOM     12  H   UNL     1      -4.836   9.347  -0.961  1.00  0.00     0.293 HD
ENDBRANCH   2  11
BRANCH   5  13
ATOM     13  O   UNL     1      -2.987  11.240   0.975  1.00  0.00    -0.493 OA
ATOM     14  C   UNL     1      -3.568  12.383   1.138  1.00  0.00     0.278 C 
ENDBRANCH   5  13
TORSDOF 4
ENDMDL
MODEL 5
REMARK VINA RESULT:    -4.172      2.037      3.009
REMARK INTER + INTRA:          -5.284
REMARK INTER:                  -4.839
REMARK INTRA:                  -0.445
REMARK UNBOUND:                -0.380
REMARK SMILES COc1cccc(C(=O)O)c1O
REMARK SMILES IDX 7 1 11 2 6 3 5 4 3 5 4 6 8 7 9 8 10 9 12 11 2 13 1 14
REMARK H PARENT 10 10 12 12
ROOT
ATOM      1  C   UNL     1      -2.194   7.174   0.951  1.00  0.00     0.105 A 
ATOM      2  C   UNL     1      -2.404   8.515   0.787  1.00  0.00     0.172 A 
ATOM      3  C   UNL     1      -0.804   6.686   0.881  1.00  0.00     0.020 A 
ATOM      4  C   UNL     1       0.193   7.597   1.027  1.00  0.00     0.005 A 
ATOM      5  C   UNL     1      -1.403   9.498   1.176  1.00  0.00     0.161 A 
ATOM      6  C   UNL     1      -0.042   8.995   1.175  1.00  0.00     0.050 A 
ENDROOT
BRANCH   1   7
ATOM      7  C   UNL     1      -3.348   6.220   1.302  1.00  0.00     0.339 C 
ATOM      8  O   UNL     1      -4.616   6.623   0.362  1.00  0.00    -0.246 OA
BRANCH   7   9
ATOM      9  O   UNL     1      -3.522   5.354   1.876  1.00  0.00    -0.478 OA
ATOM     10  H   UNL     1      -3.685   4.540   2.416  1.00  0.00     0.297 HD
ENDBRANCH   7   9
ENDBRANCH   1   7
BRANCH   2  11
ATOM     11  O   UNL     1      -3.607   9.007   0.254  1.00  0.00    -0.504 OA
ATOM     12  H   UNL     1      -4.455   9.354  -0.122  1.00  0.00     0.293 HD
ENDBRANCH   2  11
BRANCH   5  13
ATOM     13  O   UNL     1      -1.813  10.825   1.144  1.00  0.00    -0.493 OA
ATOM     14  C   UNL     1      -2.289  11.952   1.559  1.00  0.00     0.278 C 
ENDBRANCH   5  13
TORSDOF 4
ENDMDL
MODEL 6
REMARK VINA RESULT:    -4.048      2.154      3.076
REMARK INTER + INTRA:          -5.138
REMARK INTER:                  -4.850
REMARK INTRA:                  -0.288
REMARK UNBOUND:                -0.380
REMARK SMILES COc1cccc(C(=O)O)c1O
REMARK SMILES IDX 7 1 11 2 6 3 5 4 3 5 4 6 8 7 9 8 10 9 12 11 2 13 1 14
REMARK H PARENT 10 10 12 12
ROOT
ATOM      1  C   UNL     1      -3.306   8.450   0.170  1.00  0.00     0.105 A 
ATOM      2  C   UNL     1      -1.944   8.451   0.039  1.00  0.00     0.172 A 
ATOM      3  C   UNL     1      -3.935   7.256   0.763  1.00  0.00     0.020 A 
ATOM      4  C   UNL     1      -3.141   6.408   1.467  1.00  0.00     0.005 A 
ATOM      5  C   UNL     1      -1.088   7.717   0.960  1.00  0.00     0.161 A 
ATOM      6  C   UNL     1      -1.732   6.584   1.597  1.00  0.00     0.050 A 
ENDROOT
BRANCH   1   7
ATOM      7  C   UNL     1      -4.145   9.689  -0.189  1.00  0.00     0.339 C 
ATOM      8  O   UNL     1      -3.390  10.988   0.441  1.00  0.00    -0.246 OA
BRANCH   7   9
ATOM      9  O   UNL     1      -4.977   9.945  -0.782  1.00  0.00    -0.478 OA
ATOM     10  H   UNL     1      -5.759  10.185  -1.339  1.00  0.00     0.297 HD
ENDBRANCH   7   9
ENDBRANCH   1   7
BRANCH   2  11
ATOM     11  O   UNL     1      -1.308   9.179  -0.981  1.00  0.00    -0.504 OA
ATOM     12  H   UNL     1      -0.859   9.692  -1.699  1.00  0.00     0.293 HD
ENDBRANCH   2  11
BRANCH   5  13
ATOM     13  O   UNL     1       0.275   7.957   0.841  1.00  0.00    -0.493 OA
ATOM     14  C   UNL     1       1.512   8.092   1.189  1.00  0.00     0.278 C 
ENDBRANCH   5  13
TORSDOF 4
ENDMDL
MODEL 7
REMARK VINA RESULT:    -3.879      2.456      4.622
REMARK INTER + INTRA:          -4.940
REMARK INTER:                  -4.647
REMARK INTRA:                  -0.293
REMARK UNBOUND:                -0.380
REMARK SMILES COc1cccc(C(=O)O)c1O
REMARK SMILES IDX 7 1 11 2 6 3 5 4 3 5 4 6 8 7 9 8 10 9 12 11 2 13 1 14
REMARK H PARENT 10 10 12 12
ROOT
ATOM      1  C   UNL     1      -0.125   9.011   2.411  1.00  0.00     0.105 A 
ATOM      2  C   UNL     1      -1.351   8.421   2.271  1.00  0.00     0.172 A 
ATOM      3  C   UNL     1       1.015   8.393   1.709  1.00  0.00     0.020 A 
ATOM      4  C   UNL     1       0.740   7.528   0.699  1.00  0.00     0.005 A 
ATOM      5  C   UNL     1      -1.714   7.690   1.066  1.00  0.00     0.161 A 
ATOM      6  C   UNL     1      -0.585   7.143   0.338  1.00  0.00     0.050 A 
ENDROOT
BRANCH   1   7
ATOM      7  C   UNL     1       0.045  10.331   3.183  1.00  0.00     0.339 C 
ATOM      8  O   UNL     1      -1.206  11.295   2.781  1.00  0.00    -0.246 OA
BRANCH   7   9
ATOM      9  O   UNL     1       0.652  10.741   3.939  1.00  0.00    -0.478 OA
ATOM     10  H   UNL     1       1.223  11.126   4.650  1.00  0.00     0.297 HD
ENDBRANCH   7   9
ENDBRANCH   1   7
BRANCH   2  11
ATOM     11  O   UNL     1      -2.326   8.513   3.280  1.00  0.00    -0.504 OA
ATOM     12  H   UNL     1      -3.013   8.577   3.990  1.00  0.00     0.293 HD
ENDBRANCH   2  11
BRANCH   5  13
ATOM     13  O   UNL     1      -3.047   7.311   0.966  1.00  0.00    -0.493 OA
ATOM     14  C   UNL     1      -4.126   6.627   1.163  1.00  0.00     0.278 C 
ENDBRANCH   5  13
TORSDOF 4
ENDMDL
MODEL 8
REMARK VINA RESULT:    -3.765      7.193      7.712
REMARK INTER + INTRA:          -4.806
REMARK INTER:                  -4.551
REMARK INTRA:                  -0.254
REMARK UNBOUND:                -0.380
REMARK SMILES COc1cccc(C(=O)O)c1O
REMARK SMILES IDX 7 1 11 2 6 3 5 4 3 5 4 6 8 7 9 8 10 9 12 11 2 13 1 14
REMARK H PARENT 10 10 12 12
ROOT
ATOM      1  C   UNL     1      -0.443   2.420  -4.279  1.00  0.00     0.105 A 
ATOM      2  C   UNL     1      -0.246   2.262  -2.934  1.00  0.00     0.172 A 
ATOM      3  C   UNL     1       0.749   2.608  -5.126  1.00  0.00     0.020 A 
ATOM      4  C   UNL     1       1.954   2.255  -4.609  1.00  0.00     0.005 A 
ATOM      5  C   UNL     1       0.968   1.656  -2.406  1.00  0.00     0.161 A 
ATOM      6  C   UNL     1       2.123   1.780  -3.275  1.00  0.00     0.050 A 
ENDROOT
BRANCH   1   7
ATOM      7  C   UNL     1      -1.844   2.300  -4.902  1.00  0.00     0.339 C 
ATOM      8  O   UNL     1      -2.687   1.233  -4.004  1.00  0.00    -0.246 OA
BRANCH   7   9
ATOM      9  O   UNL     1      -2.428   2.760  -5.648  1.00  0.00    -0.478 OA
ATOM     10  H   UNL     1      -2.977   3.192  -6.349  1.00  0.00     0.297 HD
ENDBRANCH   7   9
ENDBRANCH   1   7
BRANCH   2  11
ATOM     11  O   UNL     1      -1.218   2.659  -2.001  1.00  0.00    -0.504 OA
ATOM     12  H   UNL     1      -1.904   2.939  -1.343  1.00  0.00     0.293 HD
ENDBRANCH   2  11
BRANCH   5  13
ATOM     13  O   UNL     1       0.961   1.373  -1.046  1.00  0.00    -0.493 OA
ATOM     14  C   UNL     1       0.495   1.155   0.139  1.00  0.00     0.278 C 
ENDBRANCH   5  13
TORSDOF 4
ENDMDL
MODEL 9
REMARK VINA RESULT:    -3.737      7.403      8.381
REMARK INTER + INTRA:          -4.773
REMARK INTER:                  -4.514
REMARK INTRA:                  -0.259
REMARK UNBOUND:                -0.380
REMARK SMILES COc1cccc(C(=O)O)c1O
REMARK SMILES IDX 7 1 11 2 6 3 5 4 3 5 4 6 8 7 9 8 10 9 12 11 2 13 1 14
REMARK H PARENT 10 10 12 12
ROOT
ATOM      1  C   UNL     1       0.875   1.790  -4.355  1.00  0.00     0.105 A 
ATOM      2  C   UNL     1       0.651   1.603  -3.018  1.00  0.00     0.172 A 
ATOM      3  C   UNL     1      -0.302   1.890  -5.237  1.00  0.00     0.020 A 
ATOM      4  C   UNL     1      -1.502   2.158  -4.661  1.00  0.00     0.005 A 
ATOM      5  C   UNL     1      -0.547   2.113  -2.366  1.00  0.00     0.161 A 
ATOM      6  C   UNL     1      -1.684   2.278  -3.252  1.00  0.00     0.050 A 
ENDROOT
BRANCH   1   7
ATOM      7  C   UNL     1       2.296   1.995  -4.907  1.00  0.00     0.339 C 
ATOM      8  O   UNL     1       3.148   2.796  -3.773  1.00  0.00    -0.246 OA
BRANCH   7   9
ATOM      9  O   UNL     1       2.884   1.696  -5.728  1.00  0.00    -0.478 OA
ATOM     10  H   UNL     1       3.436   1.415  -6.500  1.00  0.00     0.297 HD
ENDBRANCH   7   9
ENDBRANCH   1   7
BRANCH   2  11
ATOM     11  O   UNL     1       1.580   0.927  -2.209  1.00  0.00    -0.504 OA
ATOM     12  H   UNL     1       2.234   0.451  -1.638  1.00  0.00     0.293 HD
ENDBRANCH   2  11
BRANCH   5  13
ATOM     13  O   UNL     1      -0.562   2.032  -0.979  1.00  0.00    -0.493 OA
ATOM     14  C   UNL     1      -0.114   1.985   0.232  1.00  0.00     0.278 C 
ENDBRANCH   5  13
TORSDOF 4
ENDMDL
