MODEL 1
REMARK VINA RESULT:    -4.877      0.000      0.000
REMARK INTER + INTRA:          -6.206
REMARK INTER:                  -5.732
REMARK INTRA:                  -0.474
REMARK UNBOUND:                -0.474
REMARK SMILES COc1cccc(C(=O)O)c1O
REMARK SMILES IDX 7 1 11 2 6 3 5 4 3 5 4 6 8 7 9 8 10 9 12 11 2 13 1 14
REMARK H PARENT 10 10 12 12
ROOT
ATOM      1  C   UNL     1       5.238   3.932   0.548  1.00  0.00     0.105 A 
ATOM      2  C   UNL     1       4.151   4.504  -0.054  1.00  0.00     0.172 A 
ATOM      3  C   UNL     1       6.016   4.761   1.486  1.00  0.00     0.020 A 
ATOM      4  C   UNL     1       5.426   5.882   1.976  1.00  0.00     0.005 A 
ATOM      5  C   UNL     1       3.382   5.554   0.599  1.00  0.00     0.161 A 
ATOM      6  C   UNL     1       4.131   6.323   1.574  1.00  0.00     0.050 A 
ENDROOT
BRANCH   1   7
ATOM      7  C   UNL     1       5.578   2.446   0.339  1.00  0.00     0.339 C 
ATOM      8  O   UNL     1       4.292   1.748  -0.377  1.00  0.00    -0.246 OA
BRANCH   7   9
ATOM      9  O   UNL     1       6.402   1.796   0.428  1.00  0.00    -0.478 OA
ATOM     10  H   UNL     1       7.176   1.184   0.512  1.00  0.00     0.297 HD
ENDBRANCH   7   9
ENDBRANCH   1   7
BRANCH   2  11
ATOM     11  O   UNL     1       3.715   4.090  -1.324  1.00  0.00    -0.504 OA
ATOM     12  H   UNL     1       3.408   3.798  -2.219  1.00  0.00     0.293 HD
ENDBRANCH   2  11
BRANCH   5  13
ATOM     13  O   UNL     1       2.193   5.911  -0.026  1.00  0.00    -0.493 OA
ATOM     14  C   UNL     1       1.214   6.655  -0.423  1.00  0.00     0.278 C 
ENDBRANCH   5  13
TORSDOF 4
ENDMDL
MODEL 2
REMARK VINA RESULT:    -4.747      2.289      3.286
REMARK INTER + INTRA:          -6.053
REMARK INTER:                  -5.789
REMARK INTRA:                  -0.265
REMARK UNBOUND:                -0.474
REMARK SMILES COc1cccc(C(=O)O)c1O
REMARK SMILES IDX 7 1 11 2 6 3 5 4 3 5 4 6 8 7 9 8 10 9 12 11 2 13 1 14
REMARK H PARENT 10 10 12 12
ROOT
ATOM      1  C   UNL     1       5.029   4.064   0.306  1.00  0.00     0.105 A 
ATOM      2  C   UNL     1       5.854   5.085   0.692  1.00  0.00     0.172 A 
ATOM      3  C   UNL     1       3.798   4.418  -0.424  1.00  0.00     0.020 A 
ATOM      4  C   UNL     1       3.731   5.653  -0.985  1.00  0.00     0.005 A 
ATOM      5  C   UNL     1       5.943   6.323  -0.068  1.00  0.00     0.161 A 
ATOM      6  C   UNL     1       4.756   6.634  -0.843  1.00  0.00     0.050 A 
ENDROOT
BRANCH   1   7
ATOM      7  C   UNL     1       5.419   2.592   0.530  1.00  0.00     0.339 C 
ATOM      8  O   UNL     1       4.450   1.683  -0.414  1.00  0.00    -0.246 OA
BRANCH   7   9
ATOM      9  O   UNL     1       6.163   2.029   1.018  1.00  0.00    -0.478 OA
ATOM     10  H   UNL     1       6.863   1.500   1.476  1.00  0.00     0.297 HD
ENDBRANCH   7   9
ENDBRANCH   1   7
BRANCH   2  11
ATOM     11  O   UNL     1       6.670   4.975   1.831  1.00  0.00    -0.504 OA
ATOM     12  H   UNL     1       7.246   4.898   2.633  1.00  0.00     0.293 HD
ENDBRANCH   2  11
BRANCH   5  13
ATOM     13  O   UNL     1       6.955   7.195   0.312  1.00  0.00    -0.493 OA
ATOM     14  C   UNL     1       7.877   8.095   0.205  1.00  0.00     0.278 C 
ENDBRANCH   5  13
TORSDOF 4
ENDMDL
MODEL 3
REMARK VINA RESULT:    -4.710      1.798      4.681
REMARK INTER + INTRA:          -6.010
REMARK INTER:                  -5.526
REMARK INTRA:                  -0.484
REMARK UNBOUND:                -0.474
REMARK SMILES COc1cccc(C(=O)O)c1O
REMARK SMILES IDX 7 1 11 2 6 3 5 4 3 5 4 6 8 7 9 8 10 9 12 11 2 13 1 14
REMARK H PARENT 10 10 12 12
ROOT
ATOM      1  C   UNL     1       2.673   6.367  -0.575  1.00  0.00     0.105 A 
ATOM      2  C   UNL     1       3.448   5.478   0.118  1.00  0.00     0.172 A 
ATOM      3  C   UNL     1       3.281   7.044  -1.735  1.00  0.00     0.020 A 
ATOM      4  C   UNL     1       4.406   6.500  -2.266  1.00  0.00     0.005 A 
ATOM      5  C   UNL     1       4.507   4.719  -0.532  1.00  0.00     0.161 A 
ATOM      6  C   UNL     1       5.055   5.355  -1.715  1.00  0.00     0.050 A 
ENDROOT
BRANCH   1   7
ATOM      7  C   UNL     1       1.189   6.577  -0.227  1.00  0.00     0.339 C 
ATOM      8  O   UNL     1       0.747   5.367   0.771  1.00  0.00    -0.246 OA
BRANCH   7   9
ATOM      9  O   UNL     1       0.433   7.298  -0.358  1.00  0.00    -0.478 OA
ATOM     10  H   UNL     1      -0.278   7.976  -0.482  1.00  0.00     0.297 HD
ENDBRANCH   7   9
ENDBRANCH   1   7
BRANCH   2  11
ATOM     11  O   UNL     1       3.241   5.240   1.488  1.00  0.00    -0.504 OA
ATOM     12  H   UNL     1       3.096   5.073   2.453  1.00  0.00     0.293 HD
ENDBRANCH   2  11
BRANCH   5  13
ATOM     13  O   UNL     1       5.085   3.712   0.230  1.00  0.00    -0.493 OA
ATOM     14  C   UNL     1       5.537   2.542   0.541  1.00  0.00     0.278 C 
ENDBRANCH   5  13
TORSDOF 4
ENDMDL
MODEL 4
REMARK VINA RESULT:    -4.695      2.936      4.395
REMARK INTER + INTRA:          -5.992
REMARK INTER:                  -5.726
REMARK INTRA:                  -0.266
REMARK UNBOUND:                -0.474
REMARK SMILES COc1cccc(C(=O)O)c1O
REMARK SMILES IDX 7 1 11 2 6 3 5 4 3 5 4 6 8 7 9 8 10 9 12 11 2 13 1 14
REMARK H PARENT 10 10 12 12
ROOT
ATOM      1  C   UNL     1       2.816   6.036  -0.357  1.00  0.00     0.105 A 
ATOM      2  C   UNL     1       3.738   6.819  -0.995  1.00  0.00     0.172 A 
ATOM      3  C   UNL     1       3.313   4.863   0.386  1.00  0.00     0.020 A 
ATOM      4  C   UNL     1       4.633   4.829   0.702  1.00  0.00     0.005 A 
ATOM      5  C   UNL     1       5.099   6.957  -0.496  1.00  0.00     0.161 A 
ATOM      6  C   UNL     1       5.561   5.832   0.294  1.00  0.00     0.050 A 
ENDROOT
BRANCH   1   7
ATOM      7  C   UNL     1       1.327   6.419  -0.322  1.00  0.00     0.339 C 
ATOM      8  O   UNL     1       0.613   5.498   0.817  1.00  0.00    -0.246 OA
BRANCH   7   9
ATOM      9  O   UNL     1       0.679   7.141  -0.732  1.00  0.00    -0.478 OA
ATOM     10  H   UNL     1       0.070   7.820  -1.117  1.00  0.00     0.297 HD
ENDBRANCH   7   9
ENDBRANCH   1   7
BRANCH   2  11
ATOM     11  O   UNL     1       3.406   7.545  -2.151  1.00  0.00    -0.504 OA
ATOM     12  H   UNL     1       3.171   8.056  -2.966  1.00  0.00     0.293 HD
ENDBRANCH   2  11
BRANCH   5  13
ATOM     13  O   UNL     1       5.875   7.930  -1.115  1.00  0.00    -0.493 OA
ATOM     14  C   UNL     1       6.556   9.018  -1.262  1.00  0.00     0.278 C 
ENDBRANCH   5  13
TORSDOF 4
ENDMDL
MODEL 5
REMARK VINA RESULT:    -4.275      3.021      4.508
REMARK INTER + INTRA:          -5.498
REMARK INTER:                  -5.312
REMARK INTRA:                  -0.186
REMARK UNBOUND:                -0.474
REMARK SMILES COc1cccc(C(=O)O)c1O
REMARK SMILES IDX 7 1 11 2 6 3 5 4 3 5 4 6 8 7 9 8 10 9 12 11 2 13 1 14
REMARK H PARENT 10 10 12 12
ROOT
ATOM      1  C   UNL     1       2.966   5.986  -0.588  1.00  0.00     0.105 A 
ATOM      2  C   UNL     1       3.926   6.795  -1.131  1.00  0.00     0.172 A 
ATOM      3  C   UNL     1       3.410   4.739   0.063  1.00  0.00     0.020 A 
ATOM      4  C   UNL     1       4.720   4.641   0.410  1.00  0.00     0.005 A 
ATOM      5  C   UNL     1       5.275   6.850  -0.587  1.00  0.00     0.161 A 
ATOM      6  C   UNL     1       5.685   5.648   0.115  1.00  0.00     0.050 A 
ENDROOT
BRANCH   1   7
ATOM      7  C   UNL     1       1.487   6.407  -0.560  1.00  0.00     0.339 C 
ATOM      8  O   UNL     1       1.329   7.558   0.582  1.00  0.00    -0.246 OA
BRANCH   7   9
ATOM      9  O   UNL     1       0.601   6.248  -1.108  1.00  0.00    -0.478 OA
ATOM     10  H   UNL     1      -0.231   6.098  -1.623  1.00  0.00     0.297 HD
ENDBRANCH   7   9
ENDBRANCH   1   7
BRANCH   2  11
ATOM     11  O   UNL     1       3.646   7.627  -2.229  1.00  0.00    -0.504 OA
ATOM     12  H   UNL     1       3.449   8.213  -3.002  1.00  0.00     0.293 HD
ENDBRANCH   2  11
BRANCH   5  13
ATOM     13  O   UNL     1       6.094   7.850  -1.098  1.00  0.00    -0.493 OA
ATOM     14  C   UNL     1       6.657   9.007  -1.214  1.00  0.00     0.278 C 
ENDBRANCH   5  13
TORSDOF 4
ENDMDL
MODEL 6
REMARK VINA RESULT:    -4.104      2.079      2.966
REMARK INTER + INTRA:          -5.298
REMARK INTER:                  -4.832
REMARK INTRA:                  -0.466
REMARK UNBOUND:                -0.474
REMARK SMILES COc1cccc(C(=O)O)c1O
REMARK SMILES IDX 7 1 11 2 6 3 5 4 3 5 4 6 8 7 9 8 10 9 12 11 2 13 1 14
REMARK H PARENT 10 10 12 12
ROOT
ATOM      1  C   UNL     1       4.177   4.091   0.267  1.00  0.00     0.105 A 
ATOM      2  C   UNL     1       5.005   5.171   0.398  1.00  0.00     0.172 A 
ATOM      3  C   UNL     1       2.727   4.347   0.177  1.00  0.00     0.020 A 
ATOM      4  C   UNL     1       2.328   5.606  -0.138  1.00  0.00     0.005 A 
ATOM      5  C   UNL     1       4.660   6.470  -0.162  1.00  0.00     0.161 A 
ATOM      6  C   UNL     1       3.234   6.693  -0.316  1.00  0.00     0.050 A 
ENDROOT
BRANCH   1   7
ATOM      7  C   UNL     1       4.737   2.666   0.113  1.00  0.00     0.339 C 
ATOM      8  O   UNL     1       5.935   2.494   1.204  1.00  0.00    -0.246 OA
BRANCH   7   9
ATOM      9  O   UNL     1       4.518   1.774  -0.401  1.00  0.00    -0.478 OA
ATOM     10  H   UNL     1       4.312   0.934  -0.884  1.00  0.00     0.297 HD
ENDBRANCH   7   9
ENDBRANCH   1   7
BRANCH   2  11
ATOM     11  O   UNL     1       6.240   5.071   1.061  1.00  0.00    -0.504 OA
ATOM     12  H   UNL     1       7.110   5.000   1.529  1.00  0.00     0.293 HD
ENDBRANCH   2  11
BRANCH   5  13
ATOM     13  O   UNL     1       5.665   7.428  -0.135  1.00  0.00    -0.493 OA
ATOM     14  C   UNL     1       6.454   8.363  -0.553  1.00  0.00     0.278 C 
ENDBRANCH   5  13
TORSDOF 4
ENDMDL
MODEL 7
REMARK VINA RESULT:    -3.970      2.140      3.081
REMARK INTER + INTRA:          -5.141
REMARK INTER:                  -4.936
REMARK INTRA:                  -0.205
REMARK UNBOUND:                -0.474
REMARK SMILES COc1cccc(C(=O)O)c1O
REMARK SMILES IDX 7 1 11 2 6 3 5 4 3 5 4 6 8 7 9 8 10 9 12 11 2 13 1 14
REMARK H PARENT 10 10 12 12
ROOT
ATOM      1  C   UNL     1       5.563   4.711   1.217  1.00  0.00     0.105 A 
ATOM      2  C   UNL     1       4.332   5.306   1.170  1.00  0.00     0.172 A 
ATOM      3  C   UNL     1       5.671   3.325   0.724  1.00  0.00     0.020 A 
ATOM      4  C   UNL     1       4.671   2.857  -0.067  1.00  0.00     0.005 A 
ATOM      5  C   UNL     1       3.352   4.954   0.153  1.00  0.00     0.161 A 
ATOM      6  C   UNL     1       3.504   3.614  -0.383  1.00  0.00     0.050 A 
ENDROOT
BRANCH   1   7
ATOM      7  C   UNL     1       6.811   5.488   1.669  1.00  0.00     0.339 C 
ATOM      8  O   UNL     1       6.936   6.804   0.717  1.00  0.00    -0.246 OA
BRANCH   7   9
ATOM      9  O   UNL     1       7.524   5.472   2.444  1.00  0.00    -0.478 OA
ATOM     10  H   UNL     1       8.194   5.458   3.173  1.00  0.00     0.297 HD
ENDBRANCH   7   9
ENDBRANCH   1   7
BRANCH   2  11
ATOM     11  O   UNL     1       3.967   6.304   2.089  1.00  0.00    -0.504 OA
ATOM     12  H   UNL     1       3.709   7.007   2.737  1.00  0.00     0.293 HD
ENDBRANCH   2  11
BRANCH   5  13
ATOM     13  O   UNL     1       2.226   5.765   0.090  1.00  0.00    -0.493 OA
ATOM     14  C   UNL     1       1.403   6.656  -0.356  1.00  0.00     0.278 C 
ENDBRANCH   5  13
TORSDOF 4
ENDMDL
MODEL 8
REMARK VINA RESULT:    -3.926      2.355      4.679
REMARK INTER + INTRA:          -5.089
REMARK INTER:                  -4.801
REMARK INTRA:                  -0.288
REMARK UNBOUND:                -0.474
REMARK SMILES COc1cccc(C(=O)O)c1O
REMARK SMILES IDX 7 1 11 2 6 3 5 4 3 5 4 6 8 7 9 8 10 9 12 11 2 13 1 14
REMARK H PARENT 10 10 12 12
ROOT
ATOM      1  C   UNL     1       3.419   6.583  -1.441  1.00  0.00     0.105 A 
ATOM      2  C   UNL     1       4.189   5.462  -1.300  1.00  0.00     0.172 A 
ATOM      3  C   UNL     1       2.110   6.602  -0.763  1.00  0.00     0.020 A 
ATOM      4  C   UNL     1       1.901   5.702   0.233  1.00  0.00     0.005 A 
ATOM      5  C   UNL     1       4.121   4.633  -0.105  1.00  0.00     0.161 A 
ATOM      6  C   UNL     1       2.855   4.708   0.601  1.00  0.00     0.050 A 
ENDROOT
BRANCH   1   7
ATOM      7  C   UNL     1       3.939   7.823  -2.189  1.00  0.00     0.339 C 
ATOM      8  O   UNL     1       5.464   8.092  -1.685  1.00  0.00    -0.246 OA
BRANCH   7   9
ATOM      9  O   UNL     1       3.646   8.463  -2.972  1.00  0.00    -0.478 OA
ATOM     10  H   UNL     1       3.371   9.065  -3.708  1.00  0.00     0.297 HD
ENDBRANCH   7   9
ENDBRANCH   1   7
BRANCH   2  11
ATOM     11  O   UNL     1       5.100   5.070  -2.296  1.00  0.00    -0.504 OA
ATOM     12  H   UNL     1       5.742   4.795  -2.998  1.00  0.00     0.293 HD
ENDBRANCH   2  11
BRANCH   5  13
ATOM     13  O   UNL     1       5.089   3.642   0.001  1.00  0.00    -0.493 OA
ATOM     14  C   UNL     1       5.700   2.594   0.446  1.00  0.00     0.278 C 
ENDBRANCH   5  13
TORSDOF 4
ENDMDL
MODEL 9
REMARK VINA RESULT:    -3.621      7.086      8.211
REMARK INTER + INTRA:          -4.730
REMARK INTER:                  -4.419
REMARK INTRA:                  -0.311
REMARK UNBOUND:                -0.474
REMARK SMILES COc1cccc(C(=O)O)c1O
REMARK SMILES IDX 7 1 11 2 6 3 5 4 3 5 4 6 8 7 9 8 10 9 12 11 2 13 1 14
REMARK H PARENT 10 10 12 12
ROOT
ATOM      1  C   UNL     1      -0.273  -1.399  -3.718  1.00  0.00     0.105 A 
ATOM      2  C   UNL     1      -0.521  -0.972  -2.443  1.00  0.00     0.172 A 
ATOM      3  C   UNL     1      -0.901  -0.652  -4.824  1.00  0.00     0.020 A 
ATOM      4  C   UNL     1      -1.370   0.594  -4.557  1.00  0.00     0.005 A 
ATOM      5  C   UNL     1      -0.791   0.428  -2.145  1.00  0.00     0.161 A 
ATOM      6  C   UNL     1      -1.343   1.178  -3.257  1.00  0.00     0.050 A 
ENDROOT
BRANCH   1   7
ATOM      7  C   UNL     1       0.710  -2.548  -4.000  1.00  0.00     0.339 C 
ATOM      8  O   UNL     1       1.817  -2.548  -2.804  1.00  0.00    -0.246 OA
BRANCH   7   9
ATOM      9  O   UNL     1       0.817  -3.364  -4.658  1.00  0.00    -0.478 OA
ATOM     10  H   UNL     1       0.917  -4.131  -5.276  1.00  0.00     0.297 HD
ENDBRANCH   7   9
ENDBRANCH   1   7
BRANCH   2  11
ATOM     11  O   UNL     1      -0.507  -1.864  -1.357  1.00  0.00    -0.504 OA
ATOM     12  H   UNL     1      -0.497  -2.492  -0.592  1.00  0.00     0.293 HD
ENDBRANCH   2  11
BRANCH   5  13
ATOM     13  O   UNL     1      -0.830   0.763  -0.797  1.00  0.00    -0.493 OA
ATOM     14  C   UNL     1      -0.527   0.752   0.459  1.00  0.00     0.278 C 
ENDBRANCH   5  13
TORSDOF 4
ENDMDL
