MODEL 1
REMARK VINA RESULT:    -4.834      0.000      0.000
REMARK INTER + INTRA:          -6.167
REMARK INTER:                  -5.682
REMARK INTRA:                  -0.485
REMARK UNBOUND:                -0.485
REMARK SMILES COc1cccc(C(=O)O)c1O
REMARK SMILES IDX 7 1 11 2 6 3 5 4 3 5 4 6 8 7 9 8 10 9 12 11 2 13 1 14
REMARK H PARENT 10 10 12 12
ROOT
ATOM      1  C   UNL     1      -0.278   1.832   6.111  1.00  0.00     0.105 A 
ATOM      2  C   UNL     1       0.658   2.314   5.238  1.00  0.00     0.172 A 
ATOM      3  C   UNL     1      -1.053   2.812   6.894  1.00  0.00     0.020 A 
ATOM      4  C   UNL     1      -1.068   4.098   6.457  1.00  0.00     0.005 A 
ATOM      5  C   UNL     1       0.502   3.609   4.591  1.00  0.00     0.161 A 
ATOM      6  C   UNL     1      -0.321   4.549   5.330  1.00  0.00     0.050 A 
ENDROOT
BRANCH   1   7
ATOM      7  C   UNL     1      -0.588   0.327   6.201  1.00  0.00     0.339 C 
ATOM      8  O   UNL     1       0.086  -0.387   4.902  1.00  0.00    -0.246 OA
BRANCH   7   9
ATOM      9  O   UNL     1      -1.006  -0.362   6.878  1.00  0.00    -0.478 OA
ATOM     10  H   UNL     1      -1.399  -1.011   7.515  1.00  0.00     0.297 HD
ENDBRANCH   7   9
ENDBRANCH   1   7
BRANCH   2  11
ATOM     11  O   UNL     1       1.804   1.571   4.909  1.00  0.00    -0.504 OA
ATOM     12  H   UNL     1       2.611   1.047   4.677  1.00  0.00     0.293 HD
ENDBRANCH   2  11
BRANCH   5  13
ATOM     13  O   UNL     1       1.414   3.896   3.583  1.00  0.00    -0.493 OA
ATOM     14  C   UNL     1       1.859   4.256   2.425  1.00  0.00     0.278 C 
ENDBRANCH   5  13
TORSDOF 4
ENDMDL
MODEL 2
REMARK VINA RESULT:    -4.834      1.786      4.670
REMARK INTER + INTRA:          -6.167
REMARK INTER:                  -5.687
REMARK INTRA:                  -0.480
REMARK UNBOUND:                -0.485
REMARK SMILES COc1cccc(C(=O)O)c1O
REMARK SMILES IDX 7 1 11 2 6 3 5 4 3 5 4 6 8 7 9 8 10 9 12 11 2 13 1 14
REMARK H PARENT 10 10 12 12
ROOT
ATOM      1  C   UNL     1       1.742   3.877   3.906  1.00  0.00     0.105 A 
ATOM      2  C   UNL     1       0.778   3.042   4.400  1.00  0.00     0.172 A 
ATOM      3  C   UNL     1       2.955   4.078   4.720  1.00  0.00     0.020 A 
ATOM      4  C   UNL     1       3.216   3.173   5.698  1.00  0.00     0.005 A 
ATOM      5  C   UNL     1       1.111   1.921   5.267  1.00  0.00     0.161 A 
ATOM      6  C   UNL     1       2.344   2.090   6.014  1.00  0.00     0.050 A 
ENDROOT
BRANCH   1   7
ATOM      7  C   UNL     1       1.618   4.504   2.506  1.00  0.00     0.339 C 
ATOM      8  O   UNL     1       0.414   3.727   1.730  1.00  0.00    -0.246 OA
BRANCH   7   9
ATOM      9  O   UNL     1       1.999   5.319   1.960  1.00  0.00    -0.478 OA
ATOM     10  H   UNL     1       2.359   6.086   1.447  1.00  0.00     0.297 HD
ENDBRANCH   7   9
ENDBRANCH   1   7
BRANCH   2  11
ATOM     11  O   UNL     1      -0.578   3.216   4.074  1.00  0.00    -0.504 OA
ATOM     12  H   UNL     1      -1.533   3.338   3.845  1.00  0.00     0.293 HD
ENDBRANCH   2  11
BRANCH   5  13
ATOM     13  O   UNL     1       0.074   1.037   5.538  1.00  0.00    -0.493 OA
ATOM     14  C   UNL     1      -0.820   0.396   6.216  1.00  0.00     0.278 C 
ENDBRANCH   5  13
TORSDOF 4
ENDMDL
MODEL 3
REMARK VINA RESULT:    -4.735      2.181      3.177
REMARK INTER + INTRA:          -6.050
REMARK INTER:                  -5.781
REMARK INTRA:                  -0.270
REMARK UNBOUND:                -0.485
REMARK SMILES COc1cccc(C(=O)O)c1O
REMARK SMILES IDX 7 1 11 2 6 3 5 4 3 5 4 6 8 7 9 8 10 9 12 11 2 13 1 14
REMARK H PARENT 10 10 12 12
ROOT
ATOM      1  C   UNL     1      -0.084   1.921   5.771  1.00  0.00     0.105 A 
ATOM      2  C   UNL     1      -0.200   2.935   6.682  1.00  0.00     0.172 A 
ATOM      3  C   UNL     1       0.792   2.147   4.606  1.00  0.00     0.020 A 
ATOM      4  C   UNL     1       1.696   3.157   4.682  1.00  0.00     0.005 A 
ATOM      5  C   UNL     1       0.886   3.875   6.921  1.00  0.00     0.161 A 
ATOM      6  C   UNL     1       1.788   4.041   5.797  1.00  0.00     0.050 A 
ENDROOT
BRANCH   1   7
ATOM      7  C   UNL     1      -0.756   0.557   6.001  1.00  0.00     0.339 C 
ATOM      8  O   UNL     1      -0.009  -0.523   5.036  1.00  0.00    -0.246 OA
BRANCH   7   9
ATOM      9  O   UNL     1      -1.461   0.113   6.646  1.00  0.00    -0.478 OA
ATOM     10  H   UNL     1      -2.124  -0.304   7.251  1.00  0.00     0.297 HD
ENDBRANCH   7   9
ENDBRANCH   1   7
BRANCH   2  11
ATOM     11  O   UNL     1      -1.368   3.101   7.446  1.00  0.00    -0.504 OA
ATOM     12  H   UNL     1      -2.190   3.218   7.985  1.00  0.00     0.293 HD
ENDBRANCH   2  11
BRANCH   5  13
ATOM     13  O   UNL     1       0.720   4.729   8.004  1.00  0.00    -0.493 OA
ATOM     14  C   UNL     1       1.009   5.388   9.077  1.00  0.00     0.278 C 
ENDBRANCH   5  13
TORSDOF 4
ENDMDL
MODEL 4
REMARK VINA RESULT:    -4.732      2.958      4.344
REMARK INTER + INTRA:          -6.047
REMARK INTER:                  -5.778
REMARK INTRA:                  -0.268
REMARK UNBOUND:                -0.485
REMARK SMILES COc1cccc(C(=O)O)c1O
REMARK SMILES IDX 7 1 11 2 6 3 5 4 3 5 4 6 8 7 9 8 10 9 12 11 2 13 1 14
REMARK H PARENT 10 10 12 12
ROOT
ATOM      1  C   UNL     1       1.462   3.749   3.989  1.00  0.00     0.105 A 
ATOM      2  C   UNL     1       2.190   4.221   5.046  1.00  0.00     0.172 A 
ATOM      3  C   UNL     1       0.293   2.902   4.287  1.00  0.00     0.020 A 
ATOM      4  C   UNL     1      -0.206   2.937   5.549  1.00  0.00     0.005 A 
ATOM      5  C   UNL     1       1.576   4.480   6.341  1.00  0.00     0.161 A 
ATOM      6  C   UNL     1       0.384   3.695   6.603  1.00  0.00     0.050 A 
ENDROOT
BRANCH   1   7
ATOM      7  C   UNL     1       1.783   4.171   2.544  1.00  0.00     0.339 C 
ATOM      8  O   UNL     1       0.462   3.864   1.642  1.00  0.00    -0.246 OA
BRANCH   7   9
ATOM      9  O   UNL     1       2.539   4.672   2.009  1.00  0.00    -0.478 OA
ATOM     10  H   UNL     1       3.251   5.142   1.505  1.00  0.00     0.297 HD
ENDBRANCH   7   9
ENDBRANCH   1   7
BRANCH   2  11
ATOM     11  O   UNL     1       3.562   4.498   4.924  1.00  0.00    -0.504 OA
ATOM     12  H   UNL     1       4.529   4.693   4.838  1.00  0.00     0.293 HD
ENDBRANCH   2  11
BRANCH   5  13
ATOM     13  O   UNL     1       2.373   5.140   7.268  1.00  0.00    -0.493 OA
ATOM     14  C   UNL     1       2.691   5.823   8.318  1.00  0.00     0.278 C 
ENDBRANCH   5  13
TORSDOF 4
ENDMDL
MODEL 5
REMARK VINA RESULT:    -4.360      1.904      2.895
REMARK INTER + INTRA:          -5.609
REMARK INTER:                  -5.164
REMARK INTRA:                  -0.446
REMARK UNBOUND:                -0.485
REMARK SMILES COc1cccc(C(=O)O)c1O
REMARK SMILES IDX 7 1 11 2 6 3 5 4 3 5 4 6 8 7 9 8 10 9 12 11 2 13 1 14
REMARK H PARENT 10 10 12 12
ROOT
ATOM      1  C   UNL     1       0.073   1.951   4.772  1.00  0.00     0.105 A 
ATOM      2  C   UNL     1       0.181   3.018   5.621  1.00  0.00     0.172 A 
ATOM      3  C   UNL     1       0.382   2.177   3.348  1.00  0.00     0.020 A 
ATOM      4  C   UNL     1       1.091   3.289   3.025  1.00  0.00     0.005 A 
ATOM      5  C   UNL     1       1.129   4.096   5.377  1.00  0.00     0.161 A 
ATOM      6  C   UNL     1       1.486   4.270   3.981  1.00  0.00     0.050 A 
ENDROOT
BRANCH   1   7
ATOM      7  C   UNL     1      -0.254   0.541   5.295  1.00  0.00     0.339 C 
ATOM      8  O   UNL     1      -1.462   0.692   6.378  1.00  0.00    -0.246 OA
BRANCH   7   9
ATOM      9  O   UNL     1      -0.005  -0.462   5.094  1.00  0.00    -0.478 OA
ATOM     10  H   UNL     1       0.229  -1.405   4.905  1.00  0.00     0.297 HD
ENDBRANCH   7   9
ENDBRANCH   1   7
BRANCH   2  11
ATOM     11  O   UNL     1      -0.605   3.111   6.783  1.00  0.00    -0.504 OA
ATOM     12  H   UNL     1      -1.158   3.176   7.601  1.00  0.00     0.293 HD
ENDBRANCH   2  11
BRANCH   5  13
ATOM     13  O   UNL     1       1.281   5.014   6.408  1.00  0.00    -0.493 OA
ATOM     14  C   UNL     1       1.736   5.544   7.495  1.00  0.00     0.278 C 
ENDBRANCH   5  13
TORSDOF 4
ENDMDL
MODEL 6
REMARK VINA RESULT:    -4.345      2.488      4.189
REMARK INTER + INTRA:          -5.592
REMARK INTER:                  -5.153
REMARK INTRA:                  -0.440
REMARK UNBOUND:                -0.485
REMARK SMILES COc1cccc(C(=O)O)c1O
REMARK SMILES IDX 7 1 11 2 6 3 5 4 3 5 4 6 8 7 9 8 10 9 12 11 2 13 1 14
REMARK H PARENT 10 10 12 12
ROOT
ATOM      1  C   UNL     1       0.975   2.838   3.835  1.00  0.00     0.105 A 
ATOM      2  C   UNL     1       1.487   3.282   5.023  1.00  0.00     0.172 A 
ATOM      3  C   UNL     1       0.232   1.564   3.845  1.00  0.00     0.020 A 
ATOM      4  C   UNL     1      -0.212   1.102   5.043  1.00  0.00     0.005 A 
ATOM      5  C   UNL     1       0.851   2.969   6.295  1.00  0.00     0.161 A 
ATOM      6  C   UNL     1       0.062   1.751   6.282  1.00  0.00     0.050 A 
ENDROOT
BRANCH   1   7
ATOM      7  C   UNL     1       1.074   3.684   2.554  1.00  0.00     0.339 C 
ATOM      8  O   UNL     1       2.590   4.276   2.478  1.00  0.00    -0.246 OA
BRANCH   7   9
ATOM      9  O   UNL     1       0.504   3.903   1.696  1.00  0.00    -0.478 OA
ATOM     10  H   UNL     1      -0.033   4.109   0.890  1.00  0.00     0.297 HD
ENDBRANCH   7   9
ENDBRANCH   1   7
BRANCH   2  11
ATOM     11  O   UNL     1       2.642   4.082   5.068  1.00  0.00    -0.504 OA
ATOM     12  H   UNL     1       3.456   4.645   5.099  1.00  0.00     0.293 HD
ENDBRANCH   2  11
BRANCH   5  13
ATOM     13  O   UNL     1       1.352   3.639   7.404  1.00  0.00    -0.493 OA
ATOM     14  C   UNL     1       1.521   4.585   8.268  1.00  0.00     0.278 C 
ENDBRANCH   5  13
TORSDOF 4
ENDMDL
MODEL 7
REMARK VINA RESULT:    -4.072      2.269      4.368
REMARK INTER + INTRA:          -5.271
REMARK INTER:                  -4.830
REMARK INTRA:                  -0.441
REMARK UNBOUND:                -0.485
REMARK SMILES COc1cccc(C(=O)O)c1O
REMARK SMILES IDX 7 1 11 2 6 3 5 4 3 5 4 6 8 7 9 8 10 9 12 11 2 13 1 14
REMARK H PARENT 10 10 12 12
ROOT
ATOM      1  C   UNL     1       0.561   2.854   4.248  1.00  0.00     0.105 A 
ATOM      2  C   UNL     1       0.331   3.436   5.464  1.00  0.00     0.172 A 
ATOM      3  C   UNL     1       0.456   1.386   4.162  1.00  0.00     0.020 A 
ATOM      4  C   UNL     1      -0.205   0.741   5.159  1.00  0.00     0.005 A 
ATOM      5  C   UNL     1      -0.577   2.843   6.435  1.00  0.00     0.161 A 
ATOM      6  C   UNL     1      -0.735   1.406   6.303  1.00  0.00     0.050 A 
ENDROOT
BRANCH   1   7
ATOM      7  C   UNL     1       0.818   3.702   2.990  1.00  0.00     0.339 C 
ATOM      8  O   UNL     1       2.099   4.658   3.301  1.00  0.00    -0.246 OA
BRANCH   7   9
ATOM      9  O   UNL     1       0.484   3.772   1.994  1.00  0.00    -0.478 OA
ATOM     10  H   UNL     1       0.171   3.839   1.057  1.00  0.00     0.297 HD
ENDBRANCH   7   9
ENDBRANCH   1   7
BRANCH   2  11
ATOM     11  O   UNL     1       0.945   4.648   5.823  1.00  0.00    -0.504 OA
ATOM     12  H   UNL     1       1.378   5.502   6.076  1.00  0.00     0.293 HD
ENDBRANCH   2  11
BRANCH   5  13
ATOM     13  O   UNL     1      -0.877   3.627   7.542  1.00  0.00    -0.493 OA
ATOM     14  C   UNL     1      -1.361   3.953   8.695  1.00  0.00     0.278 C 
ENDBRANCH   5  13
TORSDOF 4
ENDMDL
MODEL 8
REMARK VINA RESULT:    -4.065      2.122      4.613
REMARK INTER + INTRA:          -5.263
REMARK INTER:                  -5.058
REMARK INTRA:                  -0.205
REMARK UNBOUND:                -0.485
REMARK SMILES COc1cccc(C(=O)O)c1O
REMARK SMILES IDX 7 1 11 2 6 3 5 4 3 5 4 6 8 7 9 8 10 9 12 11 2 13 1 14
REMARK H PARENT 10 10 12 12
ROOT
ATOM      1  C   UNL     1       2.563   3.785   4.595  1.00  0.00     0.105 A 
ATOM      2  C   UNL     1       1.999   2.642   5.092  1.00  0.00     0.172 A 
ATOM      3  C   UNL     1       2.148   4.223   3.250  1.00  0.00     0.020 A 
ATOM      4  C   UNL     1       0.998   3.705   2.744  1.00  0.00     0.005 A 
ATOM      5  C   UNL     1       0.656   2.226   4.714  1.00  0.00     0.161 A 
ATOM      6  C   UNL     1       0.222   2.718   3.419  1.00  0.00     0.050 A 
ENDROOT
BRANCH   1   7
ATOM      7  C   UNL     1       3.515   4.643   5.446  1.00  0.00     0.339 C 
ATOM      8  O   UNL     1       2.727   5.029   6.819  1.00  0.00    -0.246 OA
BRANCH   7   9
ATOM      9  O   UNL     1       4.519   4.958   5.446  1.00  0.00    -0.478 OA
ATOM     10  H   UNL     1       5.464   5.255   5.446  1.00  0.00     0.297 HD
ENDBRANCH   7   9
ENDBRANCH   1   7
BRANCH   2  11
ATOM     11  O   UNL     1       2.684   1.827   6.009  1.00  0.00    -0.504 OA
ATOM     12  H   UNL     1       3.167   1.253   6.656  1.00  0.00     0.293 HD
ENDBRANCH   2  11
BRANCH   5  13
ATOM     13  O   UNL     1       0.126   1.163   5.434  1.00  0.00    -0.493 OA
ATOM     14  C   UNL     1      -0.694   0.502   6.183  1.00  0.00     0.278 C 
ENDBRANCH   5  13
TORSDOF 4
ENDMDL
MODEL 9
REMARK VINA RESULT:    -4.010      2.134      3.081
REMARK INTER + INTRA:          -5.198
REMARK INTER:                  -4.839
REMARK INTRA:                  -0.359
REMARK UNBOUND:                -0.485
REMARK SMILES COc1cccc(C(=O)O)c1O
REMARK SMILES IDX 7 1 11 2 6 3 5 4 3 5 4 6 8 7 9 8 10 9 12 11 2 13 1 14
REMARK H PARENT 10 10 12 12
ROOT
ATOM      1  C   UNL     1      -0.746   2.779   6.472  1.00  0.00     0.105 A 
ATOM      2  C   UNL     1      -0.229   3.495   5.427  1.00  0.00     0.172 A 
ATOM      3  C   UNL     1      -0.831   1.315   6.322  1.00  0.00     0.020 A 
ATOM      4  C   UNL     1      -0.078   0.735   5.351  1.00  0.00     0.005 A 
ATOM      5  C   UNL     1       0.766   2.925   4.530  1.00  0.00     0.161 A 
ATOM      6  C   UNL     1       0.727   1.477   4.438  1.00  0.00     0.050 A 
ENDROOT
BRANCH   1   7
ATOM      7  C   UNL     1      -1.128   3.460   7.798  1.00  0.00     0.339 C 
ATOM      8  O   UNL     1       0.015   4.576   8.118  1.00  0.00    -0.246 OA
BRANCH   7   9
ATOM      9  O   UNL     1      -1.929   3.486   8.480  1.00  0.00    -0.478 OA
ATOM     10  H   UNL     1      -2.683   3.509   9.122  1.00  0.00     0.297 HD
ENDBRANCH   7   9
ENDBRANCH   1   7
BRANCH   2  11
ATOM     11  O   UNL     1      -0.620   4.823   5.186  1.00  0.00    -0.504 OA
ATOM     12  H   UNL     1      -0.895   5.758   5.015  1.00  0.00     0.293 HD
ENDBRANCH   2  11
BRANCH   5  13
ATOM     13  O   UNL     1       1.354   3.812   3.637  1.00  0.00    -0.493 OA
ATOM     14  C   UNL     1       1.743   4.310   2.510  1.00  0.00     0.278 C 
ENDBRANCH   5  13
TORSDOF 4
ENDMDL
