MODEL 1
REMARK VINA RESULT:    -4.942      0.000      0.000
REMARK INTER + INTRA:          -6.080
REMARK INTER:                  -5.809
REMARK INTRA:                  -0.271
REMARK UNBOUND:                -0.271
REMARK SMILES COc1cccc(C(=O)O)c1O
REMARK SMILES IDX 7 1 11 2 6 3 5 4 3 5 4 6 8 7 9 8 10 9 12 11 2 13 1 14
REMARK H PARENT 10 10 12 12
ROOT
ATOM      1  C   UNL     1       5.649  -1.030   3.930  1.00  0.00     0.105 A 
ATOM      2  C   UNL     1       6.914  -1.268   4.394  1.00  0.00     0.172 A 
ATOM      3  C   UNL     1       5.078  -1.999   2.977  1.00  0.00     0.020 A 
ATOM      4  C   UNL     1       5.658  -3.224   2.898  1.00  0.00     0.005 A 
ATOM      5  C   UNL     1       7.437  -2.621   4.527  1.00  0.00     0.161 A 
ATOM      6  C   UNL     1       6.822  -3.587   3.637  1.00  0.00     0.050 A 
ENDROOT
BRANCH   1   7
ATOM      7  C   UNL     1       4.810   0.145   4.460  1.00  0.00     0.339 C 
ATOM      8  O   UNL     1       3.242  -0.232   4.227  1.00  0.00    -0.246 OA
BRANCH   7   9
ATOM      9  O   UNL     1       4.942   1.041   4.998  1.00  0.00    -0.478 OA
ATOM     10  H   UNL     1       5.065   1.883   5.503  1.00  0.00     0.297 HD
ENDBRANCH   7   9
ENDBRANCH   1   7
BRANCH   2  11
ATOM     11  O   UNL     1       7.760  -0.216   4.785  1.00  0.00    -0.504 OA
ATOM     12  H   UNL     1       8.356   0.525   5.060  1.00  0.00     0.293 HD
ENDBRANCH   2  11
BRANCH   5  13
ATOM     13  O   UNL     1       8.651  -2.738   5.192  1.00  0.00    -0.493 OA
ATOM     14  C   UNL     1       9.495  -3.057   6.117  1.00  0.00     0.278 C 
ENDBRANCH   5  13
TORSDOF 4
ENDMDL
MODEL 2
REMARK VINA RESULT:    -4.915      2.884      3.957
REMARK INTER + INTRA:          -6.048
REMARK INTER:                  -5.779
REMARK INTRA:                  -0.270
REMARK UNBOUND:                -0.271
REMARK SMILES COc1cccc(C(=O)O)c1O
REMARK SMILES IDX 7 1 11 2 6 3 5 4 3 5 4 6 8 7 9 8 10 9 12 11 2 13 1 14
REMARK H PARENT 10 10 12 12
ROOT
ATOM      1  C   UNL     1       5.800  -3.455   2.176  1.00  0.00     0.105 A 
ATOM      2  C   UNL     1       6.444  -4.113   3.187  1.00  0.00     0.172 A 
ATOM      3  C   UNL     1       5.352  -2.074   2.435  1.00  0.00     0.020 A 
ATOM      4  C   UNL     1       5.908  -1.418   3.486  1.00  0.00     0.005 A 
ATOM      5  C   UNL     1       7.239  -3.401   4.177  1.00  0.00     0.161 A 
ATOM      6  C   UNL     1       6.842  -2.020   4.379  1.00  0.00     0.050 A 
ENDROOT
BRANCH   1   7
ATOM      7  C   UNL     1       5.640  -4.088   0.783  1.00  0.00     0.339 C 
ATOM      8  O   UNL     1       5.356  -2.879  -0.272  1.00  0.00    -0.246 OA
BRANCH   7   9
ATOM      9  O   UNL     1       5.754  -5.024   0.314  1.00  0.00    -0.478 OA
ATOM     10  H   UNL     1       5.861  -5.904  -0.127  1.00  0.00     0.297 HD
ENDBRANCH   7   9
ENDBRANCH   1   7
BRANCH   2  11
ATOM     11  O   UNL     1       6.385  -5.513   3.303  1.00  0.00    -0.504 OA
ATOM     12  H   UNL     1       6.343  -6.498   3.385  1.00  0.00     0.293 HD
ENDBRANCH   2  11
BRANCH   5  13
ATOM     13  O   UNL     1       7.999  -4.194   5.028  1.00  0.00    -0.493 OA
ATOM     14  C   UNL     1       9.043  -4.752   5.548  1.00  0.00     0.278 C 
ENDBRANCH   5  13
TORSDOF 4
ENDMDL
MODEL 3
REMARK VINA RESULT:    -4.724      2.846      4.427
REMARK INTER + INTRA:          -5.823
REMARK INTER:                  -5.438
REMARK INTRA:                  -0.385
REMARK UNBOUND:                -0.271
REMARK SMILES COc1cccc(C(=O)O)c1O
REMARK SMILES IDX 7 1 11 2 6 3 5 4 3 5 4 6 8 7 9 8 10 9 12 11 2 13 1 14
REMARK H PARENT 10 10 12 12
ROOT
ATOM      1  C   UNL     1       6.299  -3.090   1.792  1.00  0.00     0.105 A 
ATOM      2  C   UNL     1       5.618  -2.086   2.424  1.00  0.00     0.172 A 
ATOM      3  C   UNL     1       7.667  -3.385   2.257  1.00  0.00     0.020 A 
ATOM      4  C   UNL     1       8.031  -2.923   3.481  1.00  0.00     0.005 A 
ATOM      5  C   UNL     1       5.860  -1.761   3.823  1.00  0.00     0.161 A 
ATOM      6  C   UNL     1       7.184  -2.118   4.297  1.00  0.00     0.050 A 
ENDROOT
BRANCH   1   7
ATOM      7  C   UNL     1       5.630  -3.952   0.708  1.00  0.00     0.339 C 
ATOM      8  O   UNL     1       5.263  -2.970  -0.538  1.00  0.00    -0.246 OA
BRANCH   7   9
ATOM      9  O   UNL     1       5.437  -4.967   0.502  1.00  0.00    -0.478 OA
ATOM     10  H   UNL     1       5.256  -5.921   0.309  1.00  0.00     0.297 HD
ENDBRANCH   7   9
ENDBRANCH   1   7
BRANCH   2  11
ATOM     11  O   UNL     1       4.636  -1.335   1.755  1.00  0.00    -0.504 OA
ATOM     12  H   UNL     1       3.944  -0.806   1.284  1.00  0.00     0.293 HD
ENDBRANCH   2  11
BRANCH   5  13
ATOM     13  O   UNL     1       4.971  -0.862   4.398  1.00  0.00    -0.493 OA
ATOM     14  C   UNL     1       4.489   0.265   4.808  1.00  0.00     0.278 C 
ENDBRANCH   5  13
TORSDOF 4
ENDMDL
MODEL 4
REMARK VINA RESULT:    -4.706      1.885      3.098
REMARK INTER + INTRA:          -5.803
REMARK INTER:                  -5.381
REMARK INTRA:                  -0.421
REMARK UNBOUND:                -0.271
REMARK SMILES COc1cccc(C(=O)O)c1O
REMARK SMILES IDX 7 1 11 2 6 3 5 4 3 5 4 6 8 7 9 8 10 9 12 11 2 13 1 14
REMARK H PARENT 10 10 12 12
ROOT
ATOM      1  C   UNL     1       5.256  -1.359   4.375  1.00  0.00     0.105 A 
ATOM      2  C   UNL     1       5.151  -2.038   3.192  1.00  0.00     0.172 A 
ATOM      3  C   UNL     1       6.038  -1.987   5.456  1.00  0.00     0.020 A 
ATOM      4  C   UNL     1       6.894  -2.986   5.118  1.00  0.00     0.005 A 
ATOM      5  C   UNL     1       6.202  -2.933   2.729  1.00  0.00     0.161 A 
ATOM      6  C   UNL     1       7.017  -3.494   3.791  1.00  0.00     0.050 A 
ENDROOT
BRANCH   1   7
ATOM      7  C   UNL     1       4.671   0.054   4.542  1.00  0.00     0.339 C 
ATOM      8  O   UNL     1       3.072  -0.043   4.246  1.00  0.00    -0.246 OA
BRANCH   7   9
ATOM      9  O   UNL     1       4.970   1.007   4.874  1.00  0.00    -0.478 OA
ATOM     10  H   UNL     1       5.250   1.904   5.187  1.00  0.00     0.297 HD
ENDBRANCH   7   9
ENDBRANCH   1   7
BRANCH   2  11
ATOM     11  O   UNL     1       4.032  -1.884   2.357  1.00  0.00    -0.504 OA
ATOM     12  H   UNL     1       3.243  -1.775   1.769  1.00  0.00     0.293 HD
ENDBRANCH   2  11
BRANCH   5  13
ATOM     13  O   UNL     1       6.068  -3.405   1.430  1.00  0.00    -0.493 OA
ATOM     14  C   UNL     1       5.783  -4.212   0.462  1.00  0.00     0.278 C 
ENDBRANCH   5  13
TORSDOF 4
ENDMDL
MODEL 5
REMARK VINA RESULT:    -4.365      0.454      1.009
REMARK INTER + INTRA:          -5.402
REMARK INTER:                  -4.937
REMARK INTRA:                  -0.465
REMARK UNBOUND:                -0.271
REMARK SMILES COc1cccc(C(=O)O)c1O
REMARK SMILES IDX 7 1 11 2 6 3 5 4 3 5 4 6 8 7 9 8 10 9 12 11 2 13 1 14
REMARK H PARENT 10 10 12 12
ROOT
ATOM      1  C   UNL     1       5.431  -1.394   3.671  1.00  0.00     0.105 A 
ATOM      2  C   UNL     1       6.648  -1.432   4.294  1.00  0.00     0.172 A 
ATOM      3  C   UNL     1       5.164  -2.406   2.632  1.00  0.00     0.020 A 
ATOM      4  C   UNL     1       5.954  -3.510   2.608  1.00  0.00     0.005 A 
ATOM      5  C   UNL     1       7.378  -2.679   4.470  1.00  0.00     0.161 A 
ATOM      6  C   UNL     1       7.060  -3.699   3.488  1.00  0.00     0.050 A 
ENDROOT
BRANCH   1   7
ATOM      7  C   UNL     1       4.338  -0.403   4.107  1.00  0.00     0.339 C 
ATOM      8  O   UNL     1       5.052   1.046   4.319  1.00  0.00    -0.246 OA
BRANCH   7   9
ATOM      9  O   UNL     1       3.291  -0.364   4.209  1.00  0.00    -0.478 OA
ATOM     10  H   UNL     1       2.306  -0.326   4.305  1.00  0.00     0.297 HD
ENDBRANCH   7   9
ENDBRANCH   1   7
BRANCH   2  11
ATOM     11  O   UNL     1       7.240  -0.268   4.814  1.00  0.00    -0.504 OA
ATOM     12  H   UNL     1       7.657   0.552   5.179  1.00  0.00     0.293 HD
ENDBRANCH   2  11
BRANCH   5  13
ATOM     13  O   UNL     1       8.499  -2.615   5.288  1.00  0.00    -0.493 OA
ATOM     14  C   UNL     1       9.415  -3.001   6.113  1.00  0.00     0.278 C 
ENDBRANCH   5  13
TORSDOF 4
ENDMDL
MODEL 6
REMARK VINA RESULT:    -4.198      2.245      3.741
REMARK INTER + INTRA:          -5.205
REMARK INTER:                  -4.887
REMARK INTRA:                  -0.318
REMARK UNBOUND:                -0.271
REMARK SMILES COc1cccc(C(=O)O)c1O
REMARK SMILES IDX 7 1 11 2 6 3 5 4 3 5 4 6 8 7 9 8 10 9 12 11 2 13 1 14
REMARK H PARENT 10 10 12 12
ROOT
ATOM      1  C   UNL     1       6.965  -0.768   4.190  1.00  0.00     0.105 A 
ATOM      2  C   UNL     1       6.985  -1.619   3.119  1.00  0.00     0.172 A 
ATOM      3  C   UNL     1       5.669  -0.172   4.564  1.00  0.00     0.020 A 
ATOM      4  C   UNL     1       4.542  -0.760   4.087  1.00  0.00     0.005 A 
ATOM      5  C   UNL     1       5.828  -2.428   2.764  1.00  0.00     0.161 A 
ATOM      6  C   UNL     1       4.559  -1.874   3.196  1.00  0.00     0.050 A 
ENDROOT
BRANCH   1   7
ATOM      7  C   UNL     1       8.223  -0.522   5.041  1.00  0.00     0.339 C 
ATOM      8  O   UNL     1       8.940  -1.965   5.279  1.00  0.00    -0.246 OA
BRANCH   7   9
ATOM      9  O   UNL     1       8.787   0.284   5.416  1.00  0.00    -0.478 OA
ATOM     10  H   UNL     1       9.318   1.042   5.768  1.00  0.00     0.297 HD
ENDBRANCH   7   9
ENDBRANCH   1   7
BRANCH   2  11
ATOM     11  O   UNL     1       8.135  -1.767   2.325  1.00  0.00    -0.504 OA
ATOM     12  H   UNL     1       8.945  -1.872   1.765  1.00  0.00     0.293 HD
ENDBRANCH   2  11
BRANCH   5  13
ATOM     13  O   UNL     1       6.040  -3.391   1.785  1.00  0.00    -0.493 OA
ATOM     14  C   UNL     1       5.794  -4.165   0.780  1.00  0.00     0.278 C 
ENDBRANCH   5  13
TORSDOF 4
ENDMDL
MODEL 7
REMARK VINA RESULT:    -4.188      2.214      4.640
REMARK INTER + INTRA:          -5.193
REMARK INTER:                  -4.900
REMARK INTRA:                  -0.293
REMARK UNBOUND:                -0.271
REMARK SMILES COc1cccc(C(=O)O)c1O
REMARK SMILES IDX 7 1 11 2 6 3 5 4 3 5 4 6 8 7 9 8 10 9 12 11 2 13 1 14
REMARK H PARENT 10 10 12 12
ROOT
ATOM      1  C   UNL     1       5.979  -4.443   3.085  1.00  0.00     0.105 A 
ATOM      2  C   UNL     1       5.411  -3.409   3.777  1.00  0.00     0.172 A 
ATOM      3  C   UNL     1       5.917  -4.397   1.613  1.00  0.00     0.020 A 
ATOM      4  C   UNL     1       5.646  -3.200   1.030  1.00  0.00     0.005 A 
ATOM      5  C   UNL     1       5.344  -2.065   3.222  1.00  0.00     0.161 A 
ATOM      6  C   UNL     1       5.355  -2.018   1.771  1.00  0.00     0.050 A 
ENDROOT
BRANCH   1   7
ATOM      7  C   UNL     1       6.747  -5.563   3.808  1.00  0.00     0.339 C 
ATOM      8  O   UNL     1       7.709  -4.856   4.916  1.00  0.00    -0.246 OA
BRANCH   7   9
ATOM      9  O   UNL     1       6.761  -6.614   3.863  1.00  0.00    -0.478 OA
ATOM     10  H   UNL     1       6.774  -7.603   3.916  1.00  0.00     0.297 HD
ENDBRANCH   7   9
ENDBRANCH   1   7
BRANCH   2  11
ATOM     11  O   UNL     1       4.884  -3.593   5.066  1.00  0.00    -0.504 OA
ATOM     12  H   UNL     1       4.512  -3.723   5.975  1.00  0.00     0.293 HD
ENDBRANCH   2  11
BRANCH   5  13
ATOM     13  O   UNL     1       4.927  -1.069   4.095  1.00  0.00    -0.493 OA
ATOM     14  C   UNL     1       4.898   0.073   4.699  1.00  0.00     0.278 C 
ENDBRANCH   5  13
TORSDOF 4
ENDMDL
MODEL 8
REMARK VINA RESULT:    -3.940      1.955      2.532
REMARK INTER + INTRA:          -4.902
REMARK INTER:                  -4.418
REMARK INTRA:                  -0.485
REMARK UNBOUND:                -0.271
REMARK SMILES COc1cccc(C(=O)O)c1O
REMARK SMILES IDX 7 1 11 2 6 3 5 4 3 5 4 6 8 7 9 8 10 9 12 11 2 13 1 14
REMARK H PARENT 10 10 12 12
ROOT
ATOM      1  C   UNL     1       5.496  -2.087   3.132  1.00  0.00     0.105 A 
ATOM      2  C   UNL     1       6.091  -3.163   3.730  1.00  0.00     0.172 A 
ATOM      3  C   UNL     1       5.438  -2.068   1.659  1.00  0.00     0.020 A 
ATOM      4  C   UNL     1       5.631  -3.242   1.005  1.00  0.00     0.005 A 
ATOM      5  C   UNL     1       6.079  -4.482   3.113  1.00  0.00     0.161 A 
ATOM      6  C   UNL     1       5.951  -4.463   1.668  1.00  0.00     0.050 A 
ENDROOT
BRANCH   1   7
ATOM      7  C   UNL     1       4.815  -0.985   3.963  1.00  0.00     0.339 C 
ATOM      8  O   UNL     1       4.661  -1.547   5.484  1.00  0.00    -0.246 OA
BRANCH   7   9
ATOM      9  O   UNL     1       4.522   0.022   3.865  1.00  0.00    -0.478 OA
ATOM     10  H   UNL     1       4.247   0.968   3.773  1.00  0.00     0.297 HD
ENDBRANCH   7   9
ENDBRANCH   1   7
BRANCH   2  11
ATOM     11  O   UNL     1       6.724  -3.049   4.979  1.00  0.00    -0.504 OA
ATOM     12  H   UNL     1       7.170  -2.968   5.860  1.00  0.00     0.293 HD
ENDBRANCH   2  11
BRANCH   5  13
ATOM     13  O   UNL     1       6.540  -5.525   3.906  1.00  0.00    -0.493 OA
ATOM     14  C   UNL     1       7.297  -6.492   4.309  1.00  0.00     0.278 C 
ENDBRANCH   5  13
TORSDOF 4
ENDMDL
MODEL 9
REMARK VINA RESULT:    -3.923      2.435      3.577
REMARK INTER + INTRA:          -4.882
REMARK INTER:                  -4.631
REMARK INTRA:                  -0.251
REMARK UNBOUND:                -0.271
REMARK SMILES COc1cccc(C(=O)O)c1O
REMARK SMILES IDX 7 1 11 2 6 3 5 4 3 5 4 6 8 7 9 8 10 9 12 11 2 13 1 14
REMARK H PARENT 10 10 12 12
ROOT
ATOM      1  C   UNL     1       5.941  -2.693   2.513  1.00  0.00     0.105 A 
ATOM      2  C   UNL     1       6.979  -2.411   3.357  1.00  0.00     0.172 A 
ATOM      3  C   UNL     1       4.640  -2.057   2.792  1.00  0.00     0.020 A 
ATOM      4  C   UNL     1       4.631  -0.975   3.613  1.00  0.00     0.005 A 
ATOM      5  C   UNL     1       7.073  -1.135   4.052  1.00  0.00     0.161 A 
ATOM      6  C   UNL     1       5.798  -0.476   4.263  1.00  0.00     0.050 A 
ENDROOT
BRANCH   1   7
ATOM      7  C   UNL     1       6.143  -3.557   1.256  1.00  0.00     0.339 C 
ATOM      8  O   UNL     1       5.310  -2.857   0.044  1.00  0.00    -0.246 OA
BRANCH   7   9
ATOM      9  O   UNL     1       6.718  -4.380   0.937  1.00  0.00    -0.478 OA
ATOM     10  H   UNL     1       7.259  -5.154   0.638  1.00  0.00     0.297 HD
ENDBRANCH   7   9
ENDBRANCH   1   7
BRANCH   2  11
ATOM     11  O   UNL     1       8.017  -3.334   3.575  1.00  0.00    -0.504 OA
ATOM     12  H   UNL     1       8.747  -3.984   3.728  1.00  0.00     0.293 HD
ENDBRANCH   2  11
BRANCH   5  13
ATOM     13  O   UNL     1       8.268  -0.896   4.720  1.00  0.00    -0.493 OA
ATOM     14  C   UNL     1       9.079  -0.442   5.617  1.00  0.00     0.278 C 
ENDBRANCH   5  13
TORSDOF 4
ENDMDL
