MODEL 1
REMARK VINA RESULT:    -4.902      0.000      0.000
REMARK INTER + INTRA:          -6.032
REMARK INTER:                  -5.762
REMARK INTRA:                  -0.270
REMARK UNBOUND:                -0.270
REMARK SMILES COc1cccc(C(=O)O)c1O
REMARK SMILES IDX 7 1 11 2 6 3 5 4 3 5 4 6 8 7 9 8 10 9 12 11 2 13 1 14
REMARK H PARENT 10 10 12 12
ROOT
ATOM      1  C   UNL     1       7.500   0.066  -1.702  1.00  0.00     0.105 A 
ATOM      2  C   UNL     1       8.604   0.676  -1.172  1.00  0.00     0.172 A 
ATOM      3  C   UNL     1       6.286   0.884  -1.879  1.00  0.00     0.020 A 
ATOM      4  C   UNL     1       6.427   2.235  -1.862  1.00  0.00     0.005 A 
ATOM      5  C   UNL     1       8.861   2.096  -1.370  1.00  0.00     0.161 A 
ATOM      6  C   UNL     1       7.670   2.888  -1.615  1.00  0.00     0.050 A 
ENDROOT
BRANCH   1   7
ATOM      7  C   UNL     1       7.550  -1.390  -2.195  1.00  0.00     0.339 C 
ATOM      8  O   UNL     1       6.285  -1.608  -3.198  1.00  0.00    -0.246 OA
BRANCH   7   9
ATOM      9  O   UNL     1       8.190  -2.225  -2.154  1.00  0.00    -0.478 OA
ATOM     10  H   UNL     1       8.793  -3.010  -2.116  1.00  0.00     0.297 HD
ENDBRANCH   7   9
ENDBRANCH   1   7
BRANCH   2  11
ATOM     11  O   UNL     1       9.554  -0.046  -0.430  1.00  0.00    -0.504 OA
ATOM     12  H   UNL     1      10.223  -0.555   0.093  1.00  0.00     0.293 HD
ENDBRANCH   2  11
BRANCH   5  13
ATOM     13  O   UNL     1      10.106   2.549  -0.954  1.00  0.00    -0.493 OA
ATOM     14  C   UNL     1      11.272   3.103  -1.017  1.00  0.00     0.278 C 
ENDBRANCH   5  13
TORSDOF 4
ENDMDL
MODEL 2
REMARK VINA RESULT:    -4.858      3.040      4.090
REMARK INTER + INTRA:          -5.981
REMARK INTER:                  -5.712
REMARK INTRA:                  -0.269
REMARK UNBOUND:                -0.270
REMARK SMILES COc1cccc(C(=O)O)c1O
REMARK SMILES IDX 7 1 11 2 6 3 5 4 3 5 4 6 8 7 9 8 10 9 12 11 2 13 1 14
REMARK H PARENT 10 10 12 12
ROOT
ATOM      1  C   UNL     1       5.827   2.741  -1.247  1.00  0.00     0.105 A 
ATOM      2  C   UNL     1       6.881   3.484  -1.703  1.00  0.00     0.172 A 
ATOM      3  C   UNL     1       6.031   1.290  -1.090  1.00  0.00     0.020 A 
ATOM      4  C   UNL     1       7.309   0.833  -1.045  1.00  0.00     0.005 A 
ATOM      5  C   UNL     1       8.259   3.098  -1.436  1.00  0.00     0.161 A 
ATOM      6  C   UNL     1       8.447   1.677  -1.211  1.00  0.00     0.050 A 
ENDROOT
BRANCH   1   7
ATOM      7  C   UNL     1       4.509   3.405  -0.813  1.00  0.00     0.339 C 
ATOM      8  O   UNL     1       3.729   2.352   0.156  1.00  0.00    -0.246 OA
BRANCH   7   9
ATOM      9  O   UNL     1       4.028   4.340  -0.874  1.00  0.00    -0.478 OA
ATOM     10  H   UNL     1       3.575   5.219  -0.932  1.00  0.00     0.297 HD
ENDBRANCH   7   9
ENDBRANCH   1   7
BRANCH   2  11
ATOM     11  O   UNL     1       6.681   4.669  -2.432  1.00  0.00    -0.504 OA
ATOM     12  H   UNL     1       6.539   5.503  -2.946  1.00  0.00     0.293 HD
ENDBRANCH   2  11
BRANCH   5  13
ATOM     13  O   UNL     1       9.228   4.033  -1.779  1.00  0.00    -0.493 OA
ATOM     14  C   UNL     1      10.369   4.639  -1.794  1.00  0.00     0.278 C 
ENDBRANCH   5  13
TORSDOF 4
ENDMDL
MODEL 3
REMARK VINA RESULT:    -4.700      1.985      3.168
REMARK INTER + INTRA:          -5.794
REMARK INTER:                  -5.478
REMARK INTRA:                  -0.317
REMARK UNBOUND:                -0.270
REMARK SMILES COc1cccc(C(=O)O)c1O
REMARK SMILES IDX 7 1 11 2 6 3 5 4 3 5 4 6 8 7 9 8 10 9 12 11 2 13 1 14
REMARK H PARENT 10 10 12 12
ROOT
ATOM      1  C   UNL     1       7.222   0.270  -2.324  1.00  0.00     0.105 A 
ATOM      2  C   UNL     1       6.216   1.072  -1.859  1.00  0.00     0.172 A 
ATOM      3  C   UNL     1       8.458   0.925  -2.790  1.00  0.00     0.020 A 
ATOM      4  C   UNL     1       8.676   2.209  -2.404  1.00  0.00     0.005 A 
ATOM      5  C   UNL     1       6.491   2.353  -1.226  1.00  0.00     0.161 A 
ATOM      6  C   UNL     1       7.743   2.963  -1.634  1.00  0.00     0.050 A 
ENDROOT
BRANCH   1   7
ATOM      7  C   UNL     1       7.116  -1.264  -2.264  1.00  0.00     0.339 C 
ATOM      8  O   UNL     1       5.948  -1.712  -3.308  1.00  0.00    -0.246 OA
BRANCH   7   9
ATOM      9  O   UNL     1       7.622  -2.083  -1.839  1.00  0.00    -0.478 OA
ATOM     10  H   UNL     1       8.099  -2.853  -1.439  1.00  0.00     0.297 HD
ENDBRANCH   7   9
ENDBRANCH   1   7
BRANCH   2  11
ATOM     11  O   UNL     1       4.869   0.683  -1.954  1.00  0.00    -0.504 OA
ATOM     12  H   UNL     1       3.919   0.409  -2.020  1.00  0.00     0.293 HD
ENDBRANCH   2  11
BRANCH   5  13
ATOM     13  O   UNL     1       5.406   2.976  -0.623  1.00  0.00    -0.493 OA
ATOM     14  C   UNL     1       4.314   3.659  -0.512  1.00  0.00     0.278 C 
ENDBRANCH   5  13
TORSDOF 4
ENDMDL
MODEL 4
REMARK VINA RESULT:    -4.305      2.933      3.799
REMARK INTER + INTRA:          -5.330
REMARK INTER:                  -4.864
REMARK INTRA:                  -0.466
REMARK UNBOUND:                -0.270
REMARK SMILES COc1cccc(C(=O)O)c1O
REMARK SMILES IDX 7 1 11 2 6 3 5 4 3 5 4 6 8 7 9 8 10 9 12 11 2 13 1 14
REMARK H PARENT 10 10 12 12
ROOT
ATOM      1  C   UNL     1       5.808   2.090  -1.339  1.00  0.00     0.105 A 
ATOM      2  C   UNL     1       6.780   2.979  -1.705  1.00  0.00     0.172 A 
ATOM      3  C   UNL     1       6.067   0.658  -1.576  1.00  0.00     0.020 A 
ATOM      4  C   UNL     1       7.353   0.276  -1.788  1.00  0.00     0.005 A 
ATOM      5  C   UNL     1       8.190   2.616  -1.697  1.00  0.00     0.161 A 
ATOM      6  C   UNL     1       8.440   1.196  -1.859  1.00  0.00     0.050 A 
ENDROOT
BRANCH   1   7
ATOM      7  C   UNL     1       4.534   2.552  -0.610  1.00  0.00     0.339 C 
ATOM      8  O   UNL     1       3.996   3.889  -1.369  1.00  0.00    -0.246 OA
BRANCH   7   9
ATOM      9  O   UNL     1       3.880   2.216   0.143  1.00  0.00    -0.478 OA
ATOM     10  H   UNL     1       3.263   1.899   0.851  1.00  0.00     0.297 HD
ENDBRANCH   7   9
ENDBRANCH   1   7
BRANCH   2  11
ATOM     11  O   UNL     1       6.463   4.295  -2.086  1.00  0.00    -0.504 OA
ATOM     12  H   UNL     1       6.240   5.221  -2.354  1.00  0.00     0.293 HD
ENDBRANCH   2  11
BRANCH   5  13
ATOM     13  O   UNL     1       9.086   3.659  -1.897  1.00  0.00    -0.493 OA
ATOM     14  C   UNL     1       9.984   4.548  -1.626  1.00  0.00     0.278 C 
ENDBRANCH   5  13
TORSDOF 4
ENDMDL
MODEL 5
REMARK VINA RESULT:    -4.154      2.254      3.763
REMARK INTER + INTRA:          -5.152
REMARK INTER:                  -4.853
REMARK INTRA:                  -0.300
REMARK UNBOUND:                -0.270
REMARK SMILES COc1cccc(C(=O)O)c1O
REMARK SMILES IDX 7 1 11 2 6 3 5 4 3 5 4 6 8 7 9 8 10 9 12 11 2 13 1 14
REMARK H PARENT 10 10 12 12
ROOT
ATOM      1  C   UNL     1       8.415   0.335  -0.847  1.00  0.00     0.105 A 
ATOM      2  C   UNL     1       7.472   1.217  -0.397  1.00  0.00     0.172 A 
ATOM      3  C   UNL     1       7.981  -0.704  -1.799  1.00  0.00     0.020 A 
ATOM      4  C   UNL     1       6.803  -0.514  -2.446  1.00  0.00     0.005 A 
ATOM      5  C   UNL     1       6.326   1.593  -1.214  1.00  0.00     0.161 A 
ATOM      6  C   UNL     1       5.945   0.598  -2.198  1.00  0.00     0.050 A 
ENDROOT
BRANCH   1   7
ATOM      7  C   UNL     1       9.897   0.483  -0.461  1.00  0.00     0.339 C 
ATOM      8  O   UNL     1      10.283   2.059  -0.601  1.00  0.00    -0.246 OA
BRANCH   7   9
ATOM      9  O   UNL     1      10.677  -0.096  -0.053  1.00  0.00    -0.478 OA
ATOM     10  H   UNL     1      11.410  -0.641   0.330  1.00  0.00     0.297 HD
ENDBRANCH   7   9
ENDBRANCH   1   7
BRANCH   2  11
ATOM     11  O   UNL     1       7.577   1.819   0.869  1.00  0.00    -0.504 OA
ATOM     12  H   UNL     1       7.651   2.242   1.761  1.00  0.00     0.293 HD
ENDBRANCH   2  11
BRANCH   5  13
ATOM     13  O   UNL     1       5.553   2.639  -0.727  1.00  0.00    -0.493 OA
ATOM     14  C   UNL     1       4.644   3.557  -0.700  1.00  0.00     0.278 C 
ENDBRANCH   5  13
TORSDOF 4
ENDMDL
MODEL 6
REMARK VINA RESULT:    -4.131      2.251      4.677
REMARK INTER + INTRA:          -5.126
REMARK INTER:                  -4.849
REMARK INTRA:                  -0.277
REMARK UNBOUND:                -0.270
REMARK SMILES COc1cccc(C(=O)O)c1O
REMARK SMILES IDX 7 1 11 2 6 3 5 4 3 5 4 6 8 7 9 8 10 9 12 11 2 13 1 14
REMARK H PARENT 10 10 12 12
ROOT
ATOM      1  C   UNL     1       6.429   3.435  -2.110  1.00  0.00     0.105 A 
ATOM      2  C   UNL     1       6.718   2.174  -2.554  1.00  0.00     0.172 A 
ATOM      3  C   UNL     1       5.284   3.591  -1.193  1.00  0.00     0.020 A 
ATOM      4  C   UNL     1       4.825   2.479  -0.562  1.00  0.00     0.005 A 
ATOM      5  C   UNL     1       6.429   0.995  -1.749  1.00  0.00     0.161 A 
ATOM      6  C   UNL     1       5.349   1.174  -0.797  1.00  0.00     0.050 A 
ENDROOT
BRANCH   1   7
ATOM      7  C   UNL     1       7.325   4.634  -2.466  1.00  0.00     0.339 C 
ATOM      8  O   UNL     1       8.870   4.173  -2.232  1.00  0.00    -0.246 OA
BRANCH   7   9
ATOM      9  O   UNL     1       7.242   5.592  -2.893  1.00  0.00    -0.478 OA
ATOM     10  H   UNL     1       7.164   6.494  -3.294  1.00  0.00     0.297 HD
ENDBRANCH   7   9
ENDBRANCH   1   7
BRANCH   2  11
ATOM     11  O   UNL     1       7.327   1.960  -3.802  1.00  0.00    -0.504 OA
ATOM     12  H   UNL     1       7.757   1.809  -4.682  1.00  0.00     0.293 HD
ENDBRANCH   2  11
BRANCH   5  13
ATOM     13  O   UNL     1       6.948  -0.203  -2.223  1.00  0.00    -0.493 OA
ATOM     14  C   UNL     1       7.713  -1.242  -2.297  1.00  0.00     0.278 C 
ENDBRANCH   5  13
TORSDOF 4
ENDMDL
MODEL 7
REMARK VINA RESULT:    -3.981      2.488      3.536
REMARK INTER + INTRA:          -4.949
REMARK INTER:                  -4.585
REMARK INTRA:                  -0.364
REMARK UNBOUND:                -0.270
REMARK SMILES COc1cccc(C(=O)O)c1O
REMARK SMILES IDX 7 1 11 2 6 3 5 4 3 5 4 6 8 7 9 8 10 9 12 11 2 13 1 14
REMARK H PARENT 10 10 12 12
ROOT
ATOM      1  C   UNL     1       6.167   1.460  -1.307  1.00  0.00     0.105 A 
ATOM      2  C   UNL     1       7.496   1.620  -1.028  1.00  0.00     0.172 A 
ATOM      3  C   UNL     1       5.784   0.343  -2.191  1.00  0.00     0.020 A 
ATOM      4  C   UNL     1       6.686  -0.655  -2.374  1.00  0.00     0.005 A 
ATOM      5  C   UNL     1       8.412   0.489  -0.996  1.00  0.00     0.161 A 
ATOM      6  C   UNL     1       7.996  -0.637  -1.812  1.00  0.00     0.050 A 
ENDROOT
BRANCH   1   7
ATOM      7  C   UNL     1       5.097   2.343  -0.641  1.00  0.00     0.339 C 
ATOM      8  O   UNL     1       5.286   3.855  -1.218  1.00  0.00    -0.246 OA
BRANCH   7   9
ATOM      9  O   UNL     1       4.251   2.242  -0.024  1.00  0.00    -0.478 OA
ATOM     10  H   UNL     1       3.454   2.146   0.557  1.00  0.00     0.297 HD
ENDBRANCH   7   9
ENDBRANCH   1   7
BRANCH   2  11
ATOM     11  O   UNL     1       8.035   2.885  -0.738  1.00  0.00    -0.504 OA
ATOM     12  H   UNL     1       8.415   3.777  -0.534  1.00  0.00     0.293 HD
ENDBRANCH   2  11
BRANCH   5  13
ATOM     13  O   UNL     1       9.686   0.754  -0.510  1.00  0.00    -0.493 OA
ATOM     14  C   UNL     1      10.900   0.538  -0.123  1.00  0.00     0.278 C 
ENDBRANCH   5  13
TORSDOF 4
ENDMDL
MODEL 8
REMARK VINA RESULT:    -3.902      1.852      2.558
REMARK INTER + INTRA:          -4.857
REMARK INTER:                  -4.393
REMARK INTRA:                  -0.464
REMARK UNBOUND:                -0.270
REMARK SMILES COc1cccc(C(=O)O)c1O
REMARK SMILES IDX 7 1 11 2 6 3 5 4 3 5 4 6 8 7 9 8 10 9 12 11 2 13 1 14
REMARK H PARENT 10 10 12 12
ROOT
ATOM      1  C   UNL     1       6.493   0.952  -1.779  1.00  0.00     0.105 A 
ATOM      2  C   UNL     1       7.252   2.083  -1.905  1.00  0.00     0.172 A 
ATOM      3  C   UNL     1       5.242   1.051  -1.005  1.00  0.00     0.020 A 
ATOM      4  C   UNL     1       4.734   2.290  -0.782  1.00  0.00     0.005 A 
ATOM      5  C   UNL     1       6.652   3.409  -1.902  1.00  0.00     0.161 A 
ATOM      6  C   UNL     1       5.384   3.488  -1.200  1.00  0.00     0.050 A 
ENDROOT
BRANCH   1   7
ATOM      7  C   UNL     1       6.872  -0.351  -2.505  1.00  0.00     0.339 C 
ATOM      8  O   UNL     1       8.458  -0.611  -2.243  1.00  0.00    -0.246 OA
BRANCH   7   9
ATOM      9  O   UNL     1       6.405  -1.144  -3.017  1.00  0.00    -0.478 OA
ATOM     10  H   UNL     1       5.966  -1.889  -3.498  1.00  0.00     0.297 HD
ENDBRANCH   7   9
ENDBRANCH   1   7
BRANCH   2  11
ATOM     11  O   UNL     1       8.646   2.014  -2.066  1.00  0.00    -0.504 OA
ATOM     12  H   UNL     1       9.629   1.966  -2.179  1.00  0.00     0.293 HD
ENDBRANCH   2  11
BRANCH   5  13
ATOM     13  O   UNL     1       7.499   4.458  -2.235  1.00  0.00    -0.493 OA
ATOM     14  C   UNL     1       7.875   5.615  -2.672  1.00  0.00     0.278 C 
ENDBRANCH   5  13
TORSDOF 4
ENDMDL
MODEL 9
REMARK VINA RESULT:    -3.669      2.651      3.498
REMARK INTER + INTRA:          -4.583
REMARK INTER:                  -4.381
REMARK INTRA:                  -0.202
REMARK UNBOUND:                -0.270
REMARK SMILES COc1cccc(C(=O)O)c1O
REMARK SMILES IDX 7 1 11 2 6 3 5 4 3 5 4 6 8 7 9 8 10 9 12 11 2 13 1 14
REMARK H PARENT 10 10 12 12
ROOT
ATOM      1  C   UNL     1       5.985   2.916  -0.834  1.00  0.00     0.105 A 
ATOM      2  C   UNL     1       7.065   2.284  -0.281  1.00  0.00     0.172 A 
ATOM      3  C   UNL     1       6.247   3.971  -1.830  1.00  0.00     0.020 A 
ATOM      4  C   UNL     1       7.477   4.006  -2.404  1.00  0.00     0.005 A 
ATOM      5  C   UNL     1       8.312   2.121  -1.014  1.00  0.00     0.161 A 
ATOM      6  C   UNL     1       8.534   3.121  -2.042  1.00  0.00     0.050 A 
ENDROOT
BRANCH   1   7
ATOM      7  C   UNL     1       4.547   2.473  -0.513  1.00  0.00     0.339 C 
ATOM      8  O   UNL     1       4.350   0.976  -1.124  1.00  0.00    -0.246 OA
BRANCH   7   9
ATOM      9  O   UNL     1       3.719   2.799   0.049  1.00  0.00    -0.478 OA
ATOM     10  H   UNL     1       2.940   3.106   0.578  1.00  0.00     0.297 HD
ENDBRANCH   7   9
ENDBRANCH   1   7
BRANCH   2  11
ATOM     11  O   UNL     1       7.011   1.743   1.015  1.00  0.00    -0.504 OA
ATOM     12  H   UNL     1       6.973   1.362   1.928  1.00  0.00     0.293 HD
ENDBRANCH   2  11
BRANCH   5  13
ATOM     13  O   UNL     1       9.259   1.294  -0.422  1.00  0.00    -0.493 OA
ATOM     14  C   UNL     1      10.240   0.458  -0.324  1.00  0.00     0.278 C 
ENDBRANCH   5  13
TORSDOF 4
ENDMDL
