MODEL 1
REMARK VINA RESULT:    -4.983      0.000      0.000
REMARK INTER + INTRA:          -6.128
REMARK INTER:                  -5.857
REMARK INTRA:                  -0.271
REMARK UNBOUND:                -0.271
REMARK SMILES COc1cccc(C(=O)O)c1O
REMARK SMILES IDX 7 1 11 2 6 3 5 4 3 5 4 6 8 7 9 8 10 9 12 11 2 13 1 14
REMARK H PARENT 10 10 12 12
ROOT
ATOM      1  C   UNL     1       3.897  -2.470  -7.228  1.00  0.00     0.105 A 
ATOM      2  C   UNL     1       4.939  -2.671  -8.091  1.00  0.00     0.172 A 
ATOM      3  C   UNL     1       3.283  -1.130  -7.196  1.00  0.00     0.020 A 
ATOM      4  C   UNL     1       3.521  -0.302  -8.246  1.00  0.00     0.005 A 
ATOM      5  C   UNL     1       5.048  -1.931  -9.341  1.00  0.00     0.161 A 
ATOM      6  C   UNL     1       4.382  -0.642  -9.331  1.00  0.00     0.050 A 
ENDROOT
BRANCH   1   7
ATOM      7  C   UNL     1       3.313  -3.625  -6.396  1.00  0.00     0.339 C 
ATOM      8  O   UNL     1       1.814  -3.185  -5.934  1.00  0.00    -0.246 OA
BRANCH   7   9
ATOM      9  O   UNL     1       3.550  -4.617  -6.131  1.00  0.00    -0.478 OA
ATOM     10  H   UNL     1       3.772  -5.549  -5.882  1.00  0.00     0.297 HD
ENDBRANCH   7   9
ENDBRANCH   1   7
BRANCH   2  11
ATOM     11  O   UNL     1       5.942  -3.617  -7.820  1.00  0.00    -0.504 OA
ATOM     12  H   UNL     1       6.648  -4.284  -7.629  1.00  0.00     0.293 HD
ENDBRANCH   2  11
BRANCH   5  13
ATOM     13  O   UNL     1       6.036  -2.365 -10.216  1.00  0.00    -0.493 OA
ATOM     14  C   UNL     1       6.574  -2.828 -11.296  1.00  0.00     0.278 C 
ENDBRANCH   5  13
TORSDOF 4
ENDMDL
MODEL 2
REMARK VINA RESULT:    -4.962      3.034      4.037
REMARK INTER + INTRA:          -6.102
REMARK INTER:                  -5.832
REMARK INTRA:                  -0.270
REMARK UNBOUND:                -0.271
REMARK SMILES COc1cccc(C(=O)O)c1O
REMARK SMILES IDX 7 1 11 2 6 3 5 4 3 5 4 6 8 7 9 8 10 9 12 11 2 13 1 14
REMARK H PARENT 10 10 12 12
ROOT
ATOM      1  C   UNL     1       3.811   0.531  -7.888  1.00  0.00     0.105 A 
ATOM      2  C   UNL     1       3.960   0.258  -9.220  1.00  0.00     0.172 A 
ATOM      3  C   UNL     1       3.880  -0.601  -6.946  1.00  0.00     0.020 A 
ATOM      4  C   UNL     1       4.440  -1.757  -7.388  1.00  0.00     0.005 A 
ATOM      5  C   UNL     1       4.770  -0.860  -9.684  1.00  0.00     0.161 A 
ATOM      6  C   UNL     1       4.895  -1.943  -8.726  1.00  0.00     0.050 A 
ENDROOT
BRANCH   1   7
ATOM      7  C   UNL     1       3.682   1.977  -7.377  1.00  0.00     0.339 C 
ATOM      8  O   UNL     1       4.114   1.978  -5.806  1.00  0.00    -0.246 OA
BRANCH   7   9
ATOM      9  O   UNL     1       3.500   2.943  -7.754  1.00  0.00    -0.478 OA
ATOM     10  H   UNL     1       3.329   3.852  -8.108  1.00  0.00     0.297 HD
ENDBRANCH   7   9
ENDBRANCH   1   7
BRANCH   2  11
ATOM     11  O   UNL     1       3.355   1.059 -10.203  1.00  0.00    -0.504 OA
ATOM     12  H   UNL     1       2.929   1.624 -10.896  1.00  0.00     0.293 HD
ENDBRANCH   2  11
BRANCH   5  13
ATOM     13  O   UNL     1       5.002  -0.912 -11.052  1.00  0.00    -0.493 OA
ATOM     14  C   UNL     1       5.657  -1.000 -12.163  1.00  0.00     0.278 C 
ENDBRANCH   5  13
TORSDOF 4
ENDMDL
MODEL 3
REMARK VINA RESULT:    -4.709      1.901      3.144
REMARK INTER + INTRA:          -5.806
REMARK INTER:                  -5.390
REMARK INTRA:                  -0.416
REMARK UNBOUND:                -0.271
REMARK SMILES COc1cccc(C(=O)O)c1O
REMARK SMILES IDX 7 1 11 2 6 3 5 4 3 5 4 6 8 7 9 8 10 9 12 11 2 13 1 14
REMARK H PARENT 10 10 12 12
ROOT
ATOM      1  C   UNL     1       3.435  -2.528  -7.533  1.00  0.00     0.105 A 
ATOM      2  C   UNL     1       3.400  -1.193  -7.236  1.00  0.00     0.172 A 
ATOM      3  C   UNL     1       3.814  -2.913  -8.904  1.00  0.00     0.020 A 
ATOM      4  C   UNL     1       4.447  -1.986  -9.669  1.00  0.00     0.005 A 
ATOM      5  C   UNL     1       4.268  -0.237  -7.909  1.00  0.00     0.161 A 
ATOM      6  C   UNL     1       4.697  -0.652  -9.232  1.00  0.00     0.050 A 
ENDROOT
BRANCH   1   7
ATOM      7  C   UNL     1       3.194  -3.595  -6.451  1.00  0.00     0.339 C 
ATOM      8  O   UNL     1       1.725  -3.310  -5.805  1.00  0.00    -0.246 OA
BRANCH   7   9
ATOM      9  O   UNL     1       3.638  -4.478  -6.088  1.00  0.00    -0.478 OA
ATOM     10  H   UNL     1       4.055  -5.309  -5.747  1.00  0.00     0.297 HD
ENDBRANCH   7   9
ENDBRANCH   1   7
BRANCH   2  11
ATOM     11  O   UNL     1       2.537  -0.685  -6.250  1.00  0.00    -0.504 OA
ATOM     12  H   UNL     1       1.928  -0.327  -5.555  1.00  0.00     0.293 HD
ENDBRANCH   2  11
BRANCH   5  13
ATOM     13  O   UNL     1       4.277   1.048  -7.383  1.00  0.00    -0.493 OA
ATOM     14  C   UNL     1       3.943   2.284  -7.210  1.00  0.00     0.278 C 
ENDBRANCH   5  13
TORSDOF 4
ENDMDL
MODEL 4
REMARK VINA RESULT:    -4.676      2.894      4.434
REMARK INTER + INTRA:          -5.767
REMARK INTER:                  -5.305
REMARK INTRA:                  -0.462
REMARK UNBOUND:                -0.271
REMARK SMILES COc1cccc(C(=O)O)c1O
REMARK SMILES IDX 7 1 11 2 6 3 5 4 3 5 4 6 8 7 9 8 10 9 12 11 2 13 1 14
REMARK H PARENT 10 10 12 12
ROOT
ATOM      1  C   UNL     1       4.063   0.638  -7.920  1.00  0.00     0.105 A 
ATOM      2  C   UNL     1       3.783  -0.509  -7.229  1.00  0.00     0.172 A 
ATOM      3  C   UNL     1       4.673   0.500  -9.255  1.00  0.00     0.020 A 
ATOM      4  C   UNL     1       4.585  -0.709  -9.867  1.00  0.00     0.005 A 
ATOM      5  C   UNL     1       3.454  -1.751  -7.913  1.00  0.00     0.161 A 
ATOM      6  C   UNL     1       3.997  -1.854  -9.255  1.00  0.00     0.050 A 
ENDROOT
BRANCH   1   7
ATOM      7  C   UNL     1       3.661   2.020  -7.374  1.00  0.00     0.339 C 
ATOM      8  O   UNL     1       4.088   2.066  -5.803  1.00  0.00    -0.246 OA
BRANCH   7   9
ATOM      9  O   UNL     1       3.296   2.942  -7.728  1.00  0.00    -0.478 OA
ATOM     10  H   UNL     1       2.953   3.809  -8.060  1.00  0.00     0.297 HD
ENDBRANCH   7   9
ENDBRANCH   1   7
BRANCH   2  11
ATOM     11  O   UNL     1       3.778  -0.534  -5.824  1.00  0.00    -0.504 OA
ATOM     12  H   UNL     1       3.775  -0.552  -4.834  1.00  0.00     0.293 HD
ENDBRANCH   2  11
BRANCH   5  13
ATOM     13  O   UNL     1       2.998  -2.785  -7.105  1.00  0.00    -0.493 OA
ATOM     14  C   UNL     1       3.005  -3.901  -6.454  1.00  0.00     0.278 C 
ENDBRANCH   5  13
TORSDOF 4
ENDMDL
MODEL 5
REMARK VINA RESULT:    -4.346      0.708      1.152
REMARK INTER + INTRA:          -5.379
REMARK INTER:                  -4.911
REMARK INTRA:                  -0.468
REMARK UNBOUND:                -0.271
REMARK SMILES COc1cccc(C(=O)O)c1O
REMARK SMILES IDX 7 1 11 2 6 3 5 4 3 5 4 6 8 7 9 8 10 9 12 11 2 13 1 14
REMARK H PARENT 10 10 12 12
ROOT
ATOM      1  C   UNL     1       3.644  -1.864  -7.007  1.00  0.00     0.105 A 
ATOM      2  C   UNL     1       4.604  -2.197  -7.923  1.00  0.00     0.172 A 
ATOM      3  C   UNL     1       3.392  -0.430  -6.772  1.00  0.00     0.020 A 
ATOM      4  C   UNL     1       3.836   0.450  -7.706  1.00  0.00     0.005 A 
ATOM      5  C   UNL     1       4.901  -1.340  -9.063  1.00  0.00     0.161 A 
ATOM      6  C   UNL     1       4.585   0.060  -8.854  1.00  0.00     0.050 A 
ENDROOT
BRANCH   1   7
ATOM      7  C   UNL     1       2.784  -2.940  -6.322  1.00  0.00     0.339 C 
ATOM      8  O   UNL     1       3.783  -4.142  -5.863  1.00  0.00    -0.246 OA
BRANCH   7   9
ATOM      9  O   UNL     1       1.795  -3.078  -5.988  1.00  0.00    -0.478 OA
ATOM     10  H   UNL     1       0.865  -3.207  -5.674  1.00  0.00     0.297 HD
ENDBRANCH   7   9
ENDBRANCH   1   7
BRANCH   2  11
ATOM     11  O   UNL     1       5.332  -3.394  -7.818  1.00  0.00    -0.504 OA
ATOM     12  H   UNL     1       5.846  -4.237  -7.744  1.00  0.00     0.293 HD
ENDBRANCH   2  11
BRANCH   5  13
ATOM     13  O   UNL     1       5.749  -1.881 -10.021  1.00  0.00    -0.493 OA
ATOM     14  C   UNL     1       6.137  -2.364 -11.155  1.00  0.00     0.278 C 
ENDBRANCH   5  13
TORSDOF 4
ENDMDL
MODEL 6
REMARK VINA RESULT:    -4.333      2.930      3.794
REMARK INTER + INTRA:          -5.363
REMARK INTER:                  -4.947
REMARK INTRA:                  -0.416
REMARK UNBOUND:                -0.271
REMARK SMILES COc1cccc(C(=O)O)c1O
REMARK SMILES IDX 7 1 11 2 6 3 5 4 3 5 4 6 8 7 9 8 10 9 12 11 2 13 1 14
REMARK H PARENT 10 10 12 12
ROOT
ATOM      1  C   UNL     1       3.664   0.165  -7.412  1.00  0.00     0.105 A 
ATOM      2  C   UNL     1       3.905  -0.047  -8.741  1.00  0.00     0.172 A 
ATOM      3  C   UNL     1       3.327  -1.008  -6.583  1.00  0.00     0.020 A 
ATOM      4  C   UNL     1       3.628  -2.236  -7.077  1.00  0.00     0.005 A 
ATOM      5  C   UNL     1       4.458  -1.303  -9.227  1.00  0.00     0.161 A 
ATOM      6  C   UNL     1       4.186  -2.443  -8.373  1.00  0.00     0.050 A 
ENDROOT
BRANCH   1   7
ATOM      7  C   UNL     1       3.840   1.555  -6.777  1.00  0.00     0.339 C 
ATOM      8  O   UNL     1       3.228   2.647  -7.820  1.00  0.00    -0.246 OA
BRANCH   7   9
ATOM      9  O   UNL     1       4.137   1.983  -5.862  1.00  0.00    -0.478 OA
ATOM     10  H   UNL     1       4.417   2.385  -5.002  1.00  0.00     0.297 HD
ENDBRANCH   7   9
ENDBRANCH   1   7
BRANCH   2  11
ATOM     11  O   UNL     1       3.649   0.950  -9.699  1.00  0.00    -0.504 OA
ATOM     12  H   UNL     1       3.470   1.652 -10.373  1.00  0.00     0.293 HD
ENDBRANCH   2  11
BRANCH   5  13
ATOM     13  O   UNL     1       4.840  -1.320 -10.562  1.00  0.00    -0.493 OA
ATOM     14  C   UNL     1       5.590  -1.182 -11.606  1.00  0.00     0.278 C 
ENDBRANCH   5  13
TORSDOF 4
ENDMDL
MODEL 7
REMARK VINA RESULT:    -4.157      2.269      3.865
REMARK INTER + INTRA:          -5.157
REMARK INTER:                  -4.952
REMARK INTRA:                  -0.205
REMARK UNBOUND:                -0.271
REMARK SMILES COc1cccc(C(=O)O)c1O
REMARK SMILES IDX 7 1 11 2 6 3 5 4 3 5 4 6 8 7 9 8 10 9 12 11 2 13 1 14
REMARK H PARENT 10 10 12 12
ROOT
ATOM      1  C   UNL     1       5.071  -2.681  -7.565  1.00  0.00     0.105 A 
ATOM      2  C   UNL     1       5.082  -1.334  -7.325  1.00  0.00     0.172 A 
ATOM      3  C   UNL     1       3.952  -3.465  -7.011  1.00  0.00     0.020 A 
ATOM      4  C   UNL     1       2.837  -2.790  -6.628  1.00  0.00     0.005 A 
ATOM      5  C   UNL     1       3.849  -0.579  -7.151  1.00  0.00     0.161 A 
ATOM      6  C   UNL     1       2.729  -1.369  -6.673  1.00  0.00     0.050 A 
ENDROOT
BRANCH   1   7
ATOM      7  C   UNL     1       6.126  -3.341  -8.469  1.00  0.00     0.339 C 
ATOM      8  O   UNL     1       6.037  -2.623  -9.928  1.00  0.00    -0.246 OA
BRANCH   7   9
ATOM      9  O   UNL     1       6.925  -4.024  -8.395  1.00  0.00    -0.478 OA
ATOM     10  H   UNL     1       7.675  -4.666  -8.326  1.00  0.00     0.297 HD
ENDBRANCH   7   9
ENDBRANCH   1   7
BRANCH   2  11
ATOM     11  O   UNL     1       6.286  -0.613  -7.257  1.00  0.00    -0.504 OA
ATOM     12  H   UNL     1       7.134  -0.105  -7.210  1.00  0.00     0.293 HD
ENDBRANCH   2  11
BRANCH   5  13
ATOM     13  O   UNL     1       3.985   0.803  -7.112  1.00  0.00    -0.493 OA
ATOM     14  C   UNL     1       3.913   2.034  -7.497  1.00  0.00     0.278 C 
ENDBRANCH   5  13
TORSDOF 4
ENDMDL
MODEL 8
REMARK VINA RESULT:    -4.120      2.275      4.678
REMARK INTER + INTRA:          -5.113
REMARK INTER:                  -4.871
REMARK INTRA:                  -0.242
REMARK UNBOUND:                -0.271
REMARK SMILES COc1cccc(C(=O)O)c1O
REMARK SMILES IDX 7 1 11 2 6 3 5 4 3 5 4 6 8 7 9 8 10 9 12 11 2 13 1 14
REMARK H PARENT 10 10 12 12
ROOT
ATOM      1  C   UNL     1       3.427   0.486  -9.096  1.00  0.00     0.105 A 
ATOM      2  C   UNL     1       3.018  -0.704  -8.559  1.00  0.00     0.172 A 
ATOM      3  C   UNL     1       3.743   1.584  -8.164  1.00  0.00     0.020 A 
ATOM      4  C   UNL     1       3.967   1.263  -6.864  1.00  0.00     0.005 A 
ATOM      5  C   UNL     1       3.465  -1.142  -7.245  1.00  0.00     0.161 A 
ATOM      6  C   UNL     1       3.844  -0.062  -6.353  1.00  0.00     0.050 A 
ENDROOT
BRANCH   1   7
ATOM      7  C   UNL     1       3.653   0.645 -10.609  1.00  0.00     0.339 C 
ATOM      8  O   UNL     1       4.549  -0.623 -11.104  1.00  0.00    -0.246 OA
BRANCH   7   9
ATOM      9  O   UNL     1       3.329   1.254 -11.405  1.00  0.00    -0.478 OA
ATOM     10  H   UNL     1       3.024   1.826 -12.153  1.00  0.00     0.297 HD
ENDBRANCH   7   9
ENDBRANCH   1   7
BRANCH   2  11
ATOM     11  O   UNL     1       2.162  -1.568  -9.262  1.00  0.00    -0.504 OA
ATOM     12  H   UNL     1       1.559  -2.177  -9.758  1.00  0.00     0.293 HD
ENDBRANCH   2  11
BRANCH   5  13
ATOM     13  O   UNL     1       3.141  -2.448  -6.899  1.00  0.00    -0.493 OA
ATOM     14  C   UNL     1       3.302  -3.703  -6.637  1.00  0.00     0.278 C 
ENDBRANCH   5  13
TORSDOF 4
ENDMDL
MODEL 9
REMARK VINA RESULT:    -3.899      2.421      3.480
REMARK INTER + INTRA:          -4.853
REMARK INTER:                  -4.584
REMARK INTRA:                  -0.270
REMARK UNBOUND:                -0.271
REMARK SMILES COc1cccc(C(=O)O)c1O
REMARK SMILES IDX 7 1 11 2 6 3 5 4 3 5 4 6 8 7 9 8 10 9 12 11 2 13 1 14
REMARK H PARENT 10 10 12 12
ROOT
ATOM      1  C   UNL     1       4.118  -0.443  -7.486  1.00  0.00     0.105 A 
ATOM      2  C   UNL     1       4.894  -1.243  -8.278  1.00  0.00     0.172 A 
ATOM      3  C   UNL     1       3.017  -1.081  -6.740  1.00  0.00     0.020 A 
ATOM      4  C   UNL     1       3.058  -2.429  -6.585  1.00  0.00     0.005 A 
ATOM      5  C   UNL     1       5.120  -2.646  -7.959  1.00  0.00     0.161 A 
ATOM      6  C   UNL     1       4.068  -3.252  -7.164  1.00  0.00     0.050 A 
ENDROOT
BRANCH   1   7
ATOM      7  C   UNL     1       4.442   1.049  -7.294  1.00  0.00     0.339 C 
ATOM      8  O   UNL     1       3.874   1.486  -5.831  1.00  0.00    -0.246 OA
BRANCH   7   9
ATOM      9  O   UNL     1       4.988   1.814  -7.768  1.00  0.00    -0.478 OA
ATOM     10  H   UNL     1       5.501   2.534  -8.214  1.00  0.00     0.297 HD
ENDBRANCH   7   9
ENDBRANCH   1   7
BRANCH   2  11
ATOM     11  O   UNL     1       5.528  -0.741  -9.427  1.00  0.00    -0.504 OA
ATOM     12  H   UNL     1       5.975  -0.387 -10.237  1.00  0.00     0.293 HD
ENDBRANCH   2  11
BRANCH   5  13
ATOM     13  O   UNL     1       6.079  -3.295  -8.725  1.00  0.00    -0.493 OA
ATOM     14  C   UNL     1       7.047  -4.099  -9.021  1.00  0.00     0.278 C 
ENDBRANCH   5  13
TORSDOF 4
ENDMDL
