MODEL 1
REMARK VINA RESULT:    -4.801      0.000      0.000
REMARK INTER + INTRA:          -6.129
REMARK INTER:                  -5.644
REMARK INTRA:                  -0.485
REMARK UNBOUND:                -0.485
REMARK SMILES COc1cccc(C(=O)O)c1O
REMARK SMILES IDX 7 1 11 2 6 3 5 4 3 5 4 6 8 7 9 8 10 9 12 11 2 13 1 14
REMARK H PARENT 10 10 12 12
ROOT
ATOM      1  C   UNL     1      -0.020   2.186  -4.847  1.00  0.00     0.105 A 
ATOM      2  C   UNL     1      -0.332   0.855  -4.797  1.00  0.00     0.172 A 
ATOM      3  C   UNL     1      -0.980   3.088  -5.509  1.00  0.00     0.020 A 
ATOM      4  C   UNL     1      -2.247   2.636  -5.694  1.00  0.00     0.005 A 
ATOM      5  C   UNL     1      -1.713   0.396  -4.756  1.00  0.00     0.161 A 
ATOM      6  C   UNL     1      -2.666   1.319  -5.344  1.00  0.00     0.050 A 
ENDROOT
BRANCH   1   7
ATOM      7  C   UNL     1       1.234   2.741  -4.149  1.00  0.00     0.339 C 
ATOM      8  O   UNL     1       1.788   1.580  -3.149  1.00  0.00    -0.246 OA
BRANCH   7   9
ATOM      9  O   UNL     1       1.870   3.578  -4.199  1.00  0.00    -0.478 OA
ATOM     10  H   UNL     1       2.468   4.366  -4.247  1.00  0.00     0.297 HD
ENDBRANCH   7   9
ENDBRANCH   1   7
BRANCH   2  11
ATOM     11  O   UNL     1       0.669  -0.131  -4.760  1.00  0.00    -0.504 OA
ATOM     12  H   UNL     1       1.374  -0.825  -4.734  1.00  0.00     0.293 HD
ENDBRANCH   2  11
BRANCH   5  13
ATOM     13  O   UNL     1      -1.894  -0.959  -4.506  1.00  0.00    -0.493 OA
ATOM     14  C   UNL     1      -2.345  -2.162  -4.644  1.00  0.00     0.278 C 
ENDBRANCH   5  13
TORSDOF 4
ENDMDL
MODEL 2
REMARK VINA RESULT:    -4.795      1.749      4.660
REMARK INTER + INTRA:          -6.121
REMARK INTER:                  -5.637
REMARK INTRA:                  -0.484
REMARK UNBOUND:                -0.485
REMARK SMILES COc1cccc(C(=O)O)c1O
REMARK SMILES IDX 7 1 11 2 6 3 5 4 3 5 4 6 8 7 9 8 10 9 12 11 2 13 1 14
REMARK H PARENT 10 10 12 12
ROOT
ATOM      1  C   UNL     1      -1.499  -0.989  -5.375  1.00  0.00     0.105 A 
ATOM      2  C   UNL     1      -1.027   0.171  -4.823  1.00  0.00     0.172 A 
ATOM      3  C   UNL     1      -0.993  -1.367  -6.707  1.00  0.00     0.020 A 
ATOM      4  C   UNL     1       0.148  -0.773  -7.141  1.00  0.00     0.005 A 
ATOM      5  C   UNL     1       0.307   0.671  -5.123  1.00  0.00     0.161 A 
ATOM      6  C   UNL     1       0.832   0.238  -6.404  1.00  0.00     0.050 A 
ENDROOT
BRANCH   1   7
ATOM      7  C   UNL     1      -2.441  -1.921  -4.594  1.00  0.00     0.339 C 
ATOM      8  O   UNL     1      -2.418  -1.444  -3.036  1.00  0.00    -0.246 OA
BRANCH   7   9
ATOM      9  O   UNL     1      -3.144  -2.683  -4.779  1.00  0.00    -0.478 OA
ATOM     10  H   UNL     1      -3.805  -3.399  -4.953  1.00  0.00     0.297 HD
ENDBRANCH   7   9
ENDBRANCH   1   7
BRANCH   2  11
ATOM     11  O   UNL     1      -1.803   0.921  -3.924  1.00  0.00    -0.504 OA
ATOM     12  H   UNL     1      -2.349   1.451  -3.290  1.00  0.00     0.293 HD
ENDBRANCH   2  11
BRANCH   5  13
ATOM     13  O   UNL     1       0.739   1.743  -4.352  1.00  0.00    -0.493 OA
ATOM     14  C   UNL     1       1.116   2.943  -4.057  1.00  0.00     0.278 C 
ENDBRANCH   5  13
TORSDOF 4
ENDMDL
MODEL 3
REMARK VINA RESULT:    -4.743      2.904      4.403
REMARK INTER + INTRA:          -6.060
REMARK INTER:                  -5.790
REMARK INTRA:                  -0.270
REMARK UNBOUND:                -0.485
REMARK SMILES COc1cccc(C(=O)O)c1O
REMARK SMILES IDX 7 1 11 2 6 3 5 4 3 5 4 6 8 7 9 8 10 9 12 11 2 13 1 14
REMARK H PARENT 10 10 12 12
ROOT
ATOM      1  C   UNL     1      -1.436  -0.769  -5.189  1.00  0.00     0.105 A 
ATOM      2  C   UNL     1      -1.275  -0.653  -6.542  1.00  0.00     0.172 A 
ATOM      3  C   UNL     1      -1.024   0.372  -4.351  1.00  0.00     0.020 A 
ATOM      4  C   UNL     1      -0.864   1.576  -4.959  1.00  0.00     0.005 A 
ATOM      5  C   UNL     1      -1.344   0.638  -7.211  1.00  0.00     0.161 A 
ATOM      6  C   UNL     1      -1.007   1.767  -6.364  1.00  0.00     0.050 A 
ENDROOT
BRANCH   1   7
ATOM      7  C   UNL     1      -2.118  -2.000  -4.567  1.00  0.00     0.339 C 
ATOM      8  O   UNL     1      -2.617  -1.577  -3.075  1.00  0.00    -0.246 OA
BRANCH   7   9
ATOM      9  O   UNL     1      -2.433  -2.964  -4.847  1.00  0.00    -0.478 OA
ATOM     10  H   UNL     1      -2.730  -3.872  -5.111  1.00  0.00     0.297 HD
ENDBRANCH   7   9
ENDBRANCH   1   7
BRANCH   2  11
ATOM     11  O   UNL     1      -1.056  -1.780  -7.352  1.00  0.00    -0.504 OA
ATOM     12  H   UNL     1      -0.901  -2.574  -7.923  1.00  0.00     0.293 HD
ENDBRANCH   2  11
BRANCH   5  13
ATOM     13  O   UNL     1      -1.363   0.601  -8.600  1.00  0.00    -0.493 OA
ATOM     14  C   UNL     1      -1.743   0.851  -9.809  1.00  0.00     0.278 C 
ENDBRANCH   5  13
TORSDOF 4
ENDMDL
MODEL 4
REMARK VINA RESULT:    -4.710      2.145      3.166
REMARK INTER + INTRA:          -6.022
REMARK INTER:                  -5.753
REMARK INTRA:                  -0.269
REMARK UNBOUND:                -0.485
REMARK SMILES COc1cccc(C(=O)O)c1O
REMARK SMILES IDX 7 1 11 2 6 3 5 4 3 5 4 6 8 7 9 8 10 9 12 11 2 13 1 14
REMARK H PARENT 10 10 12 12
ROOT
ATOM      1  C   UNL     1      -0.026   1.887  -4.712  1.00  0.00     0.105 A 
ATOM      2  C   UNL     1      -0.708   2.388  -5.787  1.00  0.00     0.172 A 
ATOM      3  C   UNL     1      -0.285   0.487  -4.331  1.00  0.00     0.020 A 
ATOM      4  C   UNL     1      -0.878  -0.318  -5.250  1.00  0.00     0.005 A 
ATOM      5  C   UNL     1      -1.131   1.536  -6.888  1.00  0.00     0.161 A 
ATOM      6  C   UNL     1      -1.317   0.143  -6.526  1.00  0.00     0.050 A 
ENDROOT
BRANCH   1   7
ATOM      7  C   UNL     1       1.051   2.715  -3.990  1.00  0.00     0.339 C 
ATOM      8  O   UNL     1       1.967   1.679  -3.130  1.00  0.00    -0.246 OA
BRANCH   7   9
ATOM      9  O   UNL     1       1.416   3.703  -3.967  1.00  0.00    -0.478 OA
ATOM     10  H   UNL     1       1.759   4.631  -3.946  1.00  0.00     0.297 HD
ENDBRANCH   7   9
ENDBRANCH   1   7
BRANCH   2  11
ATOM     11  O   UNL     1      -1.012   3.757  -5.886  1.00  0.00    -0.504 OA
ATOM     12  H   UNL     1      -1.227   4.721  -5.956  1.00  0.00     0.293 HD
ENDBRANCH   2  11
BRANCH   5  13
ATOM     13  O   UNL     1      -1.635   2.192  -8.004  1.00  0.00    -0.493 OA
ATOM     14  C   UNL     1      -1.681   2.680  -9.199  1.00  0.00     0.278 C 
ENDBRANCH   5  13
TORSDOF 4
ENDMDL
MODEL 5
REMARK VINA RESULT:    -4.031      2.630      4.248
REMARK INTER + INTRA:          -5.223
REMARK INTER:                  -4.757
REMARK INTRA:                  -0.466
REMARK UNBOUND:                -0.485
REMARK SMILES COc1cccc(C(=O)O)c1O
REMARK SMILES IDX 7 1 11 2 6 3 5 4 3 5 4 6 8 7 9 8 10 9 12 11 2 13 1 14
REMARK H PARENT 10 10 12 12
ROOT
ATOM      1  C   UNL     1      -1.132  -0.285  -4.634  1.00  0.00     0.105 A 
ATOM      2  C   UNL     1      -1.197   0.037  -5.962  1.00  0.00     0.172 A 
ATOM      3  C   UNL     1      -0.241   0.520  -3.778  1.00  0.00     0.020 A 
ATOM      4  C   UNL     1       0.166   1.727  -4.250  1.00  0.00     0.005 A 
ATOM      5  C   UNL     1      -0.989   1.400  -6.428  1.00  0.00     0.161 A 
ATOM      6  C   UNL     1      -0.170   2.213  -5.548  1.00  0.00     0.050 A 
ENDROOT
BRANCH   1   7
ATOM      7  C   UNL     1      -2.032  -1.377  -4.030  1.00  0.00     0.339 C 
ATOM      8  O   UNL     1      -1.916  -2.689  -4.989  1.00  0.00    -0.246 OA
BRANCH   7   9
ATOM      9  O   UNL     1      -2.600  -1.552  -3.161  1.00  0.00    -0.478 OA
ATOM     10  H   UNL     1      -3.135  -1.717  -2.344  1.00  0.00     0.297 HD
ENDBRANCH   7   9
ENDBRANCH   1   7
BRANCH   2  11
ATOM     11  O   UNL     1      -1.490  -0.933  -6.936  1.00  0.00    -0.504 OA
ATOM     12  H   UNL     1      -1.696  -1.615  -7.623  1.00  0.00     0.293 HD
ENDBRANCH   2  11
BRANCH   5  13
ATOM     13  O   UNL     1      -1.276   1.633  -7.767  1.00  0.00    -0.493 OA
ATOM     14  C   UNL     1      -1.115   2.039  -8.983  1.00  0.00     0.278 C 
ENDBRANCH   5  13
TORSDOF 4
ENDMDL
MODEL 6
REMARK VINA RESULT:    -4.011      2.150      3.000
REMARK INTER + INTRA:          -5.200
REMARK INTER:                  -4.740
REMARK INTRA:                  -0.461
REMARK UNBOUND:                -0.485
REMARK SMILES COc1cccc(C(=O)O)c1O
REMARK SMILES IDX 7 1 11 2 6 3 5 4 3 5 4 6 8 7 9 8 10 9 12 11 2 13 1 14
REMARK H PARENT 10 10 12 12
ROOT
ATOM      1  C   UNL     1      -0.165   1.133  -4.519  1.00  0.00     0.105 A 
ATOM      2  C   UNL     1      -0.582   1.400  -5.793  1.00  0.00     0.172 A 
ATOM      3  C   UNL     1      -0.782  -0.012  -3.823  1.00  0.00     0.020 A 
ATOM      4  C   UNL     1      -1.430  -0.935  -4.580  1.00  0.00     0.005 A 
ATOM      5  C   UNL     1      -1.056   0.346  -6.679  1.00  0.00     0.161 A 
ATOM      6  C   UNL     1      -1.598  -0.811  -5.990  1.00  0.00     0.050 A 
ENDROOT
BRANCH   1   7
ATOM      7  C   UNL     1       0.980   1.928  -3.868  1.00  0.00     0.339 C 
ATOM      8  O   UNL     1       0.631   3.510  -4.035  1.00  0.00    -0.246 OA
BRANCH   7   9
ATOM      9  O   UNL     1       1.839   1.756  -3.283  1.00  0.00    -0.478 OA
ATOM     10  H   UNL     1       2.646   1.595  -2.733  1.00  0.00     0.297 HD
ENDBRANCH   7   9
ENDBRANCH   1   7
BRANCH   2  11
ATOM     11  O   UNL     1      -0.551   2.705  -6.315  1.00  0.00    -0.504 OA
ATOM     12  H   UNL     1      -0.529   3.624  -6.682  1.00  0.00     0.293 HD
ENDBRANCH   2  11
BRANCH   5  13
ATOM     13  O   UNL     1      -1.262   0.713  -8.002  1.00  0.00    -0.493 OA
ATOM     14  C   UNL     1      -1.893   0.961  -9.103  1.00  0.00     0.278 C 
ENDBRANCH   5  13
TORSDOF 4
ENDMDL
MODEL 7
REMARK VINA RESULT:    -3.975      2.374      4.640
REMARK INTER + INTRA:          -5.158
REMARK INTER:                  -4.866
REMARK INTRA:                  -0.292
REMARK UNBOUND:                -0.485
REMARK SMILES COc1cccc(C(=O)O)c1O
REMARK SMILES IDX 7 1 11 2 6 3 5 4 3 5 4 6 8 7 9 8 10 9 12 11 2 13 1 14
REMARK H PARENT 10 10 12 12
ROOT
ATOM      1  C   UNL     1      -0.954  -1.125  -6.354  1.00  0.00     0.105 A 
ATOM      2  C   UNL     1      -0.050  -0.190  -5.932  1.00  0.00     0.172 A 
ATOM      3  C   UNL     1      -1.854  -1.712  -5.344  1.00  0.00     0.020 A 
ATOM      4  C   UNL     1      -1.994  -1.052  -4.165  1.00  0.00     0.005 A 
ATOM      5  C   UNL     1      -0.326   0.680  -4.797  1.00  0.00     0.161 A 
ATOM      6  C   UNL     1      -1.267   0.130  -3.839  1.00  0.00     0.050 A 
ENDROOT
BRANCH   1   7
ATOM      7  C   UNL     1      -1.103  -1.479  -7.844  1.00  0.00     0.339 C 
ATOM      8  O   UNL     1      -1.114  -0.080  -8.678  1.00  0.00    -0.246 OA
BRANCH   7   9
ATOM      9  O   UNL     1      -1.100  -2.328  -8.467  1.00  0.00    -0.478 OA
ATOM     10  H   UNL     1      -1.096  -3.127  -9.052  1.00  0.00     0.297 HD
ENDBRANCH   7   9
ENDBRANCH   1   7
BRANCH   2  11
ATOM     11  O   UNL     1       1.179  -0.010  -6.589  1.00  0.00    -0.504 OA
ATOM     12  H   UNL     1       2.045   0.116  -7.052  1.00  0.00     0.293 HD
ENDBRANCH   2  11
BRANCH   5  13
ATOM     13  O   UNL     1       0.580   1.714  -4.593  1.00  0.00    -0.493 OA
ATOM     14  C   UNL     1       1.043   2.850  -4.188  1.00  0.00     0.278 C 
ENDBRANCH   5  13
TORSDOF 4
ENDMDL
MODEL 8
REMARK VINA RESULT:    -3.927      2.197      3.103
REMARK INTER + INTRA:          -5.101
REMARK INTER:                  -4.896
REMARK INTRA:                  -0.205
REMARK UNBOUND:                -0.485
REMARK SMILES COc1cccc(C(=O)O)c1O
REMARK SMILES IDX 7 1 11 2 6 3 5 4 3 5 4 6 8 7 9 8 10 9 12 11 2 13 1 14
REMARK H PARENT 10 10 12 12
ROOT
ATOM      1  C   UNL     1      -0.958   2.670  -5.419  1.00  0.00     0.105 A 
ATOM      2  C   UNL     1      -1.693   1.534  -5.215  1.00  0.00     0.172 A 
ATOM      3  C   UNL     1       0.321   2.796  -4.695  1.00  0.00     0.020 A 
ATOM      4  C   UNL     1       0.866   1.665  -4.176  1.00  0.00     0.005 A 
ATOM      5  C   UNL     1      -1.060   0.264  -4.889  1.00  0.00     0.161 A 
ATOM      6  C   UNL     1       0.232   0.390  -4.240  1.00  0.00     0.050 A 
ENDROOT
BRANCH   1   7
ATOM      7  C   UNL     1      -1.393   3.731  -6.444  1.00  0.00     0.339 C 
ATOM      8  O   UNL     1      -1.521   2.989  -7.889  1.00  0.00    -0.246 OA
BRANCH   7   9
ATOM      9  O   UNL     1      -1.714   4.733  -6.468  1.00  0.00    -0.478 OA
ATOM     10  H   UNL     1      -2.017   5.676  -6.489  1.00  0.00     0.297 HD
ENDBRANCH   7   9
ENDBRANCH   1   7
BRANCH   2  11
ATOM     11  O   UNL     1      -3.093   1.538  -5.333  1.00  0.00    -0.504 OA
ATOM     12  H   UNL     1      -4.080   1.540  -5.416  1.00  0.00     0.293 HD
ENDBRANCH   2  11
BRANCH   5  13
ATOM     13  O   UNL     1      -1.893  -0.848  -4.902  1.00  0.00    -0.493 OA
ATOM     14  C   UNL     1      -2.330  -2.033  -4.627  1.00  0.00     0.278 C 
ENDBRANCH   5  13
TORSDOF 4
ENDMDL
MODEL 9
REMARK VINA RESULT:    -3.737      7.161      8.539
REMARK INTER + INTRA:          -4.878
REMARK INTER:                  -4.626
REMARK INTRA:                  -0.253
REMARK UNBOUND:                -0.485
REMARK SMILES COc1cccc(C(=O)O)c1O
REMARK SMILES IDX 7 1 11 2 6 3 5 4 3 5 4 6 8 7 9 8 10 9 12 11 2 13 1 14
REMARK H PARENT 10 10 12 12
ROOT
ATOM      1  C   UNL     1       4.045  -3.635  -0.530  1.00  0.00     0.105 A 
ATOM      2  C   UNL     1       3.037  -2.827  -0.080  1.00  0.00     0.172 A 
ATOM      3  C   UNL     1       5.423  -3.115  -0.455  1.00  0.00     0.020 A 
ATOM      4  C   UNL     1       5.656  -2.060   0.368  1.00  0.00     0.005 A 
ATOM      5  C   UNL     1       3.255  -1.855   0.983  1.00  0.00     0.161 A 
ATOM      6  C   UNL     1       4.627  -1.398   1.100  1.00  0.00     0.050 A 
ENDROOT
BRANCH   1   7
ATOM      7  C   UNL     1       3.768  -5.073  -1.000  1.00  0.00     0.339 C 
ATOM      8  O   UNL     1       2.529  -5.646  -0.111  1.00  0.00    -0.246 OA
BRANCH   7   9
ATOM      9  O   UNL     1       4.066  -5.734  -1.764  1.00  0.00    -0.478 OA
ATOM     10  H   UNL     1       4.346  -6.356  -2.482  1.00  0.00     0.297 HD
ENDBRANCH   7   9
ENDBRANCH   1   7
BRANCH   2  11
ATOM     11  O   UNL     1       1.738  -2.914  -0.608  1.00  0.00    -0.504 OA
ATOM     12  H   UNL     1       0.823  -2.976  -0.980  1.00  0.00     0.293 HD
ENDBRANCH   2  11
BRANCH   5  13
ATOM     13  O   UNL     1       2.114  -1.240   1.484  1.00  0.00    -0.493 OA
ATOM     14  C   UNL     1       0.868  -1.061   1.774  1.00  0.00     0.278 C 
ENDBRANCH   5  13
TORSDOF 4
ENDMDL
