MODEL 1
REMARK VINA RESULT:    -4.975      0.000      0.000
REMARK INTER + INTRA:          -6.114
REMARK INTER:                  -5.848
REMARK INTRA:                  -0.266
REMARK UNBOUND:                -0.266
REMARK SMILES COc1cccc(C(=O)O)c1O
REMARK SMILES IDX 7 1 11 2 6 3 5 4 3 5 4 6 8 7 9 8 10 9 12 11 2 13 1 14
REMARK H PARENT 10 10 12 12
ROOT
ATOM      1  C   UNL     1       2.652  -2.369  -6.800  1.00  0.00     0.105 A 
ATOM      2  C   UNL     1       3.513  -2.836  -7.756  1.00  0.00     0.172 A 
ATOM      3  C   UNL     1       3.103  -1.239  -5.968  1.00  0.00     0.020 A 
ATOM      4  C   UNL     1       4.152  -0.502  -6.418  1.00  0.00     0.005 A 
ATOM      5  C   UNL     1       4.480  -1.962  -8.404  1.00  0.00     0.161 A 
ATOM      6  C   UNL     1       4.869  -0.811  -7.611  1.00  0.00     0.050 A 
ENDROOT
BRANCH   1   7
ATOM      7  C   UNL     1       1.226  -2.929  -6.665  1.00  0.00     0.339 C 
ATOM      8  O   UNL     1       0.371  -1.873  -5.767  1.00  0.00    -0.246 OA
BRANCH   7   9
ATOM      9  O   UNL     1       0.637  -3.713  -7.049  1.00  0.00    -0.478 OA
ATOM     10  H   UNL     1       0.083  -4.450  -7.411  1.00  0.00     0.297 HD
ENDBRANCH   7   9
ENDBRANCH   1   7
BRANCH   2  11
ATOM     11  O   UNL     1       3.486  -4.178  -8.172  1.00  0.00    -0.504 OA
ATOM     12  H   UNL     1       3.468  -5.123  -8.465  1.00  0.00     0.293 HD
ENDBRANCH   2  11
BRANCH   5  13
ATOM     13  O   UNL     1       5.155  -2.506  -9.490  1.00  0.00    -0.493 OA
ATOM     14  C   UNL     1       5.584  -2.638 -10.702  1.00  0.00     0.278 C 
ENDBRANCH   5  13
TORSDOF 4
ENDMDL
MODEL 2
REMARK VINA RESULT:    -4.939      3.090      4.037
REMARK INTER + INTRA:          -6.072
REMARK INTER:                  -5.807
REMARK INTRA:                  -0.264
REMARK UNBOUND:                -0.266
REMARK SMILES COc1cccc(C(=O)O)c1O
REMARK SMILES IDX 7 1 11 2 6 3 5 4 3 5 4 6 8 7 9 8 10 9 12 11 2 13 1 14
REMARK H PARENT 10 10 12 12
ROOT
ATOM      1  C   UNL     1       4.857  -0.587  -5.647  1.00  0.00     0.105 A 
ATOM      2  C   UNL     1       5.199  -0.147  -6.897  1.00  0.00     0.172 A 
ATOM      3  C   UNL     1       3.953  -1.748  -5.555  1.00  0.00     0.020 A 
ATOM      4  C   UNL     1       3.810  -2.526  -6.659  1.00  0.00     0.005 A 
ATOM      5  C   UNL     1       5.271  -1.055  -8.033  1.00  0.00     0.161 A 
ATOM      6  C   UNL     1       4.434  -2.234  -7.907  1.00  0.00     0.050 A 
ENDROOT
BRANCH   1   7
ATOM      7  C   UNL     1       5.474   0.036  -4.383  1.00  0.00     0.339 C 
ATOM      8  O   UNL     1       5.186  -0.985  -3.147  1.00  0.00    -0.246 OA
BRANCH   7   9
ATOM      9  O   UNL     1       6.088   0.847  -4.111  1.00  0.00    -0.478 OA
ATOM     10  H   UNL     1       6.666   1.610  -3.856  1.00  0.00     0.297 HD
ENDBRANCH   7   9
ENDBRANCH   1   7
BRANCH   2  11
ATOM     11  O   UNL     1       5.519   1.200  -7.136  1.00  0.00    -0.504 OA
ATOM     12  H   UNL     1       5.744   2.150  -7.305  1.00  0.00     0.293 HD
ENDBRANCH   2  11
BRANCH   5  13
ATOM     13  O   UNL     1       5.819  -0.528  -9.195  1.00  0.00    -0.493 OA
ATOM     14  C   UNL     1       6.423  -0.493 -10.337  1.00  0.00     0.278 C 
ENDBRANCH   5  13
TORSDOF 4
ENDMDL
MODEL 3
REMARK VINA RESULT:    -4.865      2.990      4.343
REMARK INTER + INTRA:          -5.985
REMARK INTER:                  -5.506
REMARK INTRA:                  -0.479
REMARK UNBOUND:                -0.266
REMARK SMILES COc1cccc(C(=O)O)c1O
REMARK SMILES IDX 7 1 11 2 6 3 5 4 3 5 4 6 8 7 9 8 10 9 12 11 2 13 1 14
REMARK H PARENT 10 10 12 12
ROOT
ATOM      1  C   UNL     1       5.054  -0.264  -5.593  1.00  0.00     0.105 A 
ATOM      2  C   UNL     1       4.240  -1.332  -5.853  1.00  0.00     0.172 A 
ATOM      3  C   UNL     1       5.208   0.750  -6.652  1.00  0.00     0.020 A 
ATOM      4  C   UNL     1       4.283   0.771  -7.646  1.00  0.00     0.005 A 
ATOM      5  C   UNL     1       3.098  -1.223  -6.750  1.00  0.00     0.161 A 
ATOM      6  C   UNL     1       3.222  -0.176  -7.747  1.00  0.00     0.050 A 
ENDROOT
BRANCH   1   7
ATOM      7  C   UNL     1       5.702  -0.069  -4.212  1.00  0.00     0.339 C 
ATOM      8  O   UNL     1       4.972  -1.098  -3.181  1.00  0.00    -0.246 OA
BRANCH   7   9
ATOM      9  O   UNL     1       6.512   0.443  -3.776  1.00  0.00    -0.478 OA
ATOM     10  H   UNL     1       7.274   0.924  -3.365  1.00  0.00     0.297 HD
ENDBRANCH   7   9
ENDBRANCH   1   7
BRANCH   2  11
ATOM     11  O   UNL     1       4.457  -2.582  -5.247  1.00  0.00    -0.504 OA
ATOM     12  H   UNL     1       4.610  -3.462  -4.820  1.00  0.00     0.293 HD
ENDBRANCH   2  11
BRANCH   5  13
ATOM     13  O   UNL     1       2.241  -2.315  -6.775  1.00  0.00    -0.493 OA
ATOM     14  C   UNL     1       1.135  -2.981  -6.842  1.00  0.00     0.278 C 
ENDBRANCH   5  13
TORSDOF 4
ENDMDL
MODEL 4
REMARK VINA RESULT:    -4.845      2.269      3.326
REMARK INTER + INTRA:          -5.960
REMARK INTER:                  -5.542
REMARK INTRA:                  -0.418
REMARK UNBOUND:                -0.266
REMARK SMILES COc1cccc(C(=O)O)c1O
REMARK SMILES IDX 7 1 11 2 6 3 5 4 3 5 4 6 8 7 9 8 10 9 12 11 2 13 1 14
REMARK H PARENT 10 10 12 12
ROOT
ATOM      1  C   UNL     1       2.602  -2.523  -6.921  1.00  0.00     0.105 A 
ATOM      2  C   UNL     1       3.314  -1.636  -6.162  1.00  0.00     0.172 A 
ATOM      3  C   UNL     1       3.362  -3.485  -7.741  1.00  0.00     0.020 A 
ATOM      4  C   UNL     1       4.668  -3.686  -7.430  1.00  0.00     0.005 A 
ATOM      5  C   UNL     1       4.630  -1.966  -5.634  1.00  0.00     0.161 A 
ATOM      6  C   UNL     1       5.347  -2.966  -6.403  1.00  0.00     0.050 A 
ENDROOT
BRANCH   1   7
ATOM      7  C   UNL     1       1.067  -2.590  -6.845  1.00  0.00     0.339 C 
ATOM      8  O   UNL     1       0.606  -1.735  -5.538  1.00  0.00    -0.246 OA
BRANCH   7   9
ATOM      9  O   UNL     1       0.253  -2.929  -7.422  1.00  0.00    -0.478 OA
ATOM     10  H   UNL     1      -0.511  -3.248  -7.964  1.00  0.00     0.297 HD
ENDBRANCH   7   9
ENDBRANCH   1   7
BRANCH   2  11
ATOM     11  O   UNL     1       2.797  -0.369  -5.840  1.00  0.00    -0.504 OA
ATOM     12  H   UNL     1       2.432   0.523  -5.612  1.00  0.00     0.293 HD
ENDBRANCH   2  11
BRANCH   5  13
ATOM     13  O   UNL     1       5.159  -1.064  -4.720  1.00  0.00    -0.493 OA
ATOM     14  C   UNL     1       5.687   0.025  -4.266  1.00  0.00     0.278 C 
ENDBRANCH   5  13
TORSDOF 4
ENDMDL
MODEL 5
REMARK VINA RESULT:    -4.158      2.276      3.856
REMARK INTER + INTRA:          -5.154
REMARK INTER:                  -4.950
REMARK INTRA:                  -0.203
REMARK UNBOUND:                -0.266
REMARK SMILES COc1cccc(C(=O)O)c1O
REMARK SMILES IDX 7 1 11 2 6 3 5 4 3 5 4 6 8 7 9 8 10 9 12 11 2 13 1 14
REMARK H PARENT 10 10 12 12
ROOT
ATOM      1  C   UNL     1       3.470  -3.204  -7.389  1.00  0.00     0.105 A 
ATOM      2  C   UNL     1       4.336  -2.641  -6.492  1.00  0.00     0.172 A 
ATOM      3  C   UNL     1       2.027  -3.003  -7.164  1.00  0.00     0.020 A 
ATOM      4  C   UNL     1       1.652  -1.999  -6.330  1.00  0.00     0.005 A 
ATOM      5  C   UNL     1       4.006  -1.417  -5.776  1.00  0.00     0.161 A 
ATOM      6  C   UNL     1       2.582  -1.185  -5.618  1.00  0.00     0.050 A 
ENDROOT
BRANCH   1   7
ATOM      7  C   UNL     1       3.979  -3.931  -8.645  1.00  0.00     0.339 C 
ATOM      8  O   UNL     1       4.889  -2.872  -9.485  1.00  0.00    -0.246 OA
BRANCH   7   9
ATOM      9  O   UNL     1       3.994  -4.901  -9.055  1.00  0.00    -0.478 OA
ATOM     10  H   UNL     1       4.008  -5.813  -9.440  1.00  0.00     0.297 HD
ENDBRANCH   7   9
ENDBRANCH   1   7
BRANCH   2  11
ATOM     11  O   UNL     1       5.596  -3.209  -6.237  1.00  0.00    -0.504 OA
ATOM     12  H   UNL     1       6.484  -3.609  -6.057  1.00  0.00     0.293 HD
ENDBRANCH   2  11
BRANCH   5  13
ATOM     13  O   UNL     1       5.040  -0.843  -5.049  1.00  0.00    -0.493 OA
ATOM     14  C   UNL     1       5.690   0.040  -4.365  1.00  0.00     0.278 C 
ENDBRANCH   5  13
TORSDOF 4
ENDMDL
MODEL 6
REMARK VINA RESULT:    -4.057      2.329      4.615
REMARK INTER + INTRA:          -5.035
REMARK INTER:                  -4.719
REMARK INTRA:                  -0.316
REMARK UNBOUND:                -0.266
REMARK SMILES COc1cccc(C(=O)O)c1O
REMARK SMILES IDX 7 1 11 2 6 3 5 4 3 5 4 6 8 7 9 8 10 9 12 11 2 13 1 14
REMARK H PARENT 10 10 12 12
ROOT
ATOM      1  C   UNL     1       4.914   0.273  -6.653  1.00  0.00     0.105 A 
ATOM      2  C   UNL     1       3.788  -0.452  -6.929  1.00  0.00     0.172 A 
ATOM      3  C   UNL     1       5.430   0.237  -5.273  1.00  0.00     0.020 A 
ATOM      4  C   UNL     1       5.002  -0.768  -4.465  1.00  0.00     0.005 A 
ATOM      5  C   UNL     1       3.468  -1.672  -6.201  1.00  0.00     0.161 A 
ATOM      6  C   UNL     1       4.036  -1.737  -4.868  1.00  0.00     0.050 A 
ENDROOT
BRANCH   1   7
ATOM      7  C   UNL     1       5.679   1.016  -7.763  1.00  0.00     0.339 C 
ATOM      8  O   UNL     1       5.731   0.033  -9.061  1.00  0.00    -0.246 OA
BRANCH   7   9
ATOM      9  O   UNL     1       6.076   1.972  -7.956  1.00  0.00    -0.478 OA
ATOM     10  H   UNL     1       6.449   2.871  -8.137  1.00  0.00     0.297 HD
ENDBRANCH   7   9
ENDBRANCH   1   7
BRANCH   2  11
ATOM     11  O   UNL     1       2.897  -0.063  -7.944  1.00  0.00    -0.504 OA
ATOM     12  H   UNL     1       2.270   0.211  -8.659  1.00  0.00     0.293 HD
ENDBRANCH   2  11
BRANCH   5  13
ATOM     13  O   UNL     1       2.410  -2.418  -6.705  1.00  0.00    -0.493 OA
ATOM     14  C   UNL     1       1.203  -2.858  -6.849  1.00  0.00     0.278 C 
ENDBRANCH   5  13
TORSDOF 4
ENDMDL
MODEL 7
REMARK VINA RESULT:    -3.899      2.993      3.854
REMARK INTER + INTRA:          -4.849
REMARK INTER:                  -4.367
REMARK INTRA:                  -0.482
REMARK UNBOUND:                -0.266
REMARK SMILES COc1cccc(C(=O)O)c1O
REMARK SMILES IDX 7 1 11 2 6 3 5 4 3 5 4 6 8 7 9 8 10 9 12 11 2 13 1 14
REMARK H PARENT 10 10 12 12
ROOT
ATOM      1  C   UNL     1       4.543  -1.115  -5.617  1.00  0.00     0.105 A 
ATOM      2  C   UNL     1       5.098  -0.466  -6.686  1.00  0.00     0.172 A 
ATOM      3  C   UNL     1       3.449  -2.065  -5.888  1.00  0.00     0.020 A 
ATOM      4  C   UNL     1       3.303  -2.514  -7.161  1.00  0.00     0.005 A 
ATOM      5  C   UNL     1       5.145  -1.073  -8.008  1.00  0.00     0.161 A 
ATOM      6  C   UNL     1       4.109  -2.061  -8.247  1.00  0.00     0.050 A 
ENDROOT
BRANCH   1   7
ATOM      7  C   UNL     1       5.107  -0.943  -4.196  1.00  0.00     0.339 C 
ATOM      8  O   UNL     1       6.557  -0.214  -4.332  1.00  0.00    -0.246 OA
BRANCH   7   9
ATOM      9  O   UNL     1       4.799  -1.063  -3.196  1.00  0.00    -0.478 OA
ATOM     10  H   UNL     1       4.511  -1.176  -2.255  1.00  0.00     0.297 HD
ENDBRANCH   7   9
ENDBRANCH   1   7
BRANCH   2  11
ATOM     11  O   UNL     1       5.669   0.811  -6.550  1.00  0.00    -0.504 OA
ATOM     12  H   UNL     1       6.072   1.711  -6.454  1.00  0.00     0.293 HD
ENDBRANCH   2  11
BRANCH   5  13
ATOM     13  O   UNL     1       5.906  -0.401  -8.956  1.00  0.00    -0.493 OA
ATOM     14  C   UNL     1       6.496  -0.161 -10.080  1.00  0.00     0.278 C 
ENDBRANCH   5  13
TORSDOF 4
ENDMDL
