MODEL 1
REMARK VINA RESULT:    -4.969      0.000      0.000
REMARK INTER + INTRA:          -6.109
REMARK INTER:                  -5.840
REMARK INTRA:                  -0.269
REMARK UNBOUND:                -0.269
REMARK SMILES COc1cccc(C(=O)O)c1O
REMARK SMILES IDX 7 1 11 2 6 3 5 4 3 5 4 6 8 7 9 8 10 9 12 11 2 13 1 14
REMARK H PARENT 10 10 12 12
ROOT
ATOM      1  C   UNL     1       2.248   4.647   6.590  1.00  0.00     0.105 A 
ATOM      2  C   UNL     1       2.445   5.406   7.710  1.00  0.00     0.172 A 
ATOM      3  C   UNL     1       2.581   5.252   5.287  1.00  0.00     0.020 A 
ATOM      4  C   UNL     1       3.385   6.346   5.286  1.00  0.00     0.005 A 
ATOM      5  C   UNL     1       3.483   6.425   7.770  1.00  0.00     0.161 A 
ATOM      6  C   UNL     1       3.859   6.969   6.478  1.00  0.00     0.050 A 
ENDROOT
BRANCH   1   7
ATOM      7  C   UNL     1       1.798   3.179   6.687  1.00  0.00     0.339 C 
ATOM      8  O   UNL     1       2.136   2.470   5.260  1.00  0.00    -0.246 OA
BRANCH   7   9
ATOM      9  O   UNL     1       1.442   2.500   7.409  1.00  0.00    -0.478 OA
ATOM     10  H   UNL     1       1.107   1.860   8.087  1.00  0.00     0.297 HD
ENDBRANCH   7   9
ENDBRANCH   1   7
BRANCH   2  11
ATOM     11  O   UNL     1       1.665   5.222   8.865  1.00  0.00    -0.504 OA
ATOM     12  H   UNL     1       1.116   5.092   9.679  1.00  0.00     0.293 HD
ENDBRANCH   2  11
BRANCH   5  13
ATOM     13  O   UNL     1       3.710   6.986   9.020  1.00  0.00    -0.493 OA
ATOM     14  C   UNL     1       4.360   7.487  10.019  1.00  0.00     0.278 C 
ENDBRANCH   5  13
TORSDOF 4
ENDMDL
MODEL 2
REMARK VINA RESULT:    -4.948      2.948      3.924
REMARK INTER + INTRA:          -6.085
REMARK INTER:                  -5.816
REMARK INTRA:                  -0.268
REMARK UNBOUND:                -0.269
REMARK SMILES COc1cccc(C(=O)O)c1O
REMARK SMILES IDX 7 1 11 2 6 3 5 4 3 5 4 6 8 7 9 8 10 9 12 11 2 13 1 14
REMARK H PARENT 10 10 12 12
ROOT
ATOM      1  C   UNL     1       2.775   6.962   4.877  1.00  0.00     0.105 A 
ATOM      2  C   UNL     1       3.835   7.333   5.658  1.00  0.00     0.172 A 
ATOM      3  C   UNL     1       1.918   5.865   5.363  1.00  0.00     0.020 A 
ATOM      4  C   UNL     1       1.993   5.542   6.680  1.00  0.00     0.005 A 
ATOM      5  C   UNL     1       3.800   7.196   7.107  1.00  0.00     0.161 A 
ATOM      6  C   UNL     1       2.902   6.163   7.587  1.00  0.00     0.050 A 
ENDROOT
BRANCH   1   7
ATOM      7  C   UNL     1       2.422   7.727   3.590  1.00  0.00     0.339 C 
ATOM      8  O   UNL     1       0.874   7.376   3.222  1.00  0.00    -0.246 OA
BRANCH   7   9
ATOM      9  O   UNL     1       2.838   8.459   2.957  1.00  0.00    -0.478 OA
ATOM     10  H   UNL     1       3.229   9.147   2.362  1.00  0.00     0.297 HD
ENDBRANCH   7   9
ENDBRANCH   1   7
BRANCH   2  11
ATOM     11  O   UNL     1       4.999   7.884   5.096  1.00  0.00    -0.504 OA
ATOM     12  H   UNL     1       5.820   8.272   4.701  1.00  0.00     0.293 HD
ENDBRANCH   2  11
BRANCH   5  13
ATOM     13  O   UNL     1       4.851   7.788   7.796  1.00  0.00    -0.493 OA
ATOM     14  C   UNL     1       5.529   8.262   8.788  1.00  0.00     0.278 C 
ENDBRANCH   5  13
TORSDOF 4
ENDMDL
MODEL 3
REMARK VINA RESULT:    -4.828      2.904      4.282
REMARK INTER + INTRA:          -5.943
REMARK INTER:                  -5.465
REMARK INTRA:                  -0.478
REMARK UNBOUND:                -0.269
REMARK SMILES COc1cccc(C(=O)O)c1O
REMARK SMILES IDX 7 1 11 2 6 3 5 4 3 5 4 6 8 7 9 8 10 9 12 11 2 13 1 14
REMARK H PARENT 10 10 12 12
ROOT
ATOM      1  C   UNL     1       2.960   7.181   4.717  1.00  0.00     0.105 A 
ATOM      2  C   UNL     1       2.332   6.232   5.476  1.00  0.00     0.172 A 
ATOM      3  C   UNL     1       4.403   7.389   4.938  1.00  0.00     0.020 A 
ATOM      4  C   UNL     1       5.089   6.413   5.587  1.00  0.00     0.005 A 
ATOM      5  C   UNL     1       3.039   5.058   5.967  1.00  0.00     0.161 A 
ATOM      6  C   UNL     1       4.471   5.243   6.116  1.00  0.00     0.050 A 
ENDROOT
BRANCH   1   7
ATOM      7  C   UNL     1       2.216   7.933   3.600  1.00  0.00     0.339 C 
ATOM      8  O   UNL     1       0.811   7.151   3.339  1.00  0.00    -0.246 OA
BRANCH   7   9
ATOM      9  O   UNL     1       2.298   8.824   3.046  1.00  0.00    -0.478 OA
ATOM     10  H   UNL     1       2.377   9.663   2.524  1.00  0.00     0.297 HD
ENDBRANCH   7   9
ENDBRANCH   1   7
BRANCH   2  11
ATOM     11  O   UNL     1       0.968   6.336   5.798  1.00  0.00    -0.504 OA
ATOM     12  H   UNL     1       0.007   6.410   6.024  1.00  0.00     0.293 HD
ENDBRANCH   2  11
BRANCH   5  13
ATOM     13  O   UNL     1       2.249   4.076   6.553  1.00  0.00    -0.493 OA
ATOM     14  C   UNL     1       1.865   2.902   6.930  1.00  0.00     0.278 C 
ENDBRANCH   5  13
TORSDOF 4
ENDMDL
MODEL 4
REMARK VINA RESULT:    -4.788      2.296      3.291
REMARK INTER + INTRA:          -5.897
REMARK INTER:                  -5.536
REMARK INTRA:                  -0.361
REMARK UNBOUND:                -0.269
REMARK SMILES COc1cccc(C(=O)O)c1O
REMARK SMILES IDX 7 1 11 2 6 3 5 4 3 5 4 6 8 7 9 8 10 9 12 11 2 13 1 14
REMARK H PARENT 10 10 12 12
ROOT
ATOM      1  C   UNL     1       2.106   4.518   6.821  1.00  0.00     0.105 A 
ATOM      2  C   UNL     1       2.311   5.374   5.775  1.00  0.00     0.172 A 
ATOM      3  C   UNL     1       1.810   5.108   8.140  1.00  0.00     0.020 A 
ATOM      4  C   UNL     1       1.401   6.403   8.174  1.00  0.00     0.005 A 
ATOM      5  C   UNL     1       1.666   6.678   5.717  1.00  0.00     0.161 A 
ATOM      6  C   UNL     1       1.311   7.225   7.013  1.00  0.00     0.050 A 
ENDROOT
BRANCH   1   7
ATOM      7  C   UNL     1       2.078   2.994   6.615  1.00  0.00     0.339 C 
ATOM      8  O   UNL     1       2.096   2.719   5.009  1.00  0.00    -0.246 OA
BRANCH   7   9
ATOM      9  O   UNL     1       2.149   2.110   7.183  1.00  0.00    -0.478 OA
ATOM     10  H   UNL     1       2.214   1.279   7.718  1.00  0.00     0.297 HD
ENDBRANCH   7   9
ENDBRANCH   1   7
BRANCH   2  11
ATOM     11  O   UNL     1       3.140   5.024   4.695  1.00  0.00    -0.504 OA
ATOM     12  H   UNL     1       3.723   4.777   3.934  1.00  0.00     0.293 HD
ENDBRANCH   2  11
BRANCH   5  13
ATOM     13  O   UNL     1       1.797   7.366   4.517  1.00  0.00    -0.493 OA
ATOM     14  C   UNL     1       2.359   8.024   3.558  1.00  0.00     0.278 C 
ENDBRANCH   5  13
TORSDOF 4
ENDMDL
MODEL 5
REMARK VINA RESULT:    -3.988      2.294      3.792
REMARK INTER + INTRA:          -4.957
REMARK INTER:                  -4.675
REMARK INTRA:                  -0.282
REMARK UNBOUND:                -0.269
REMARK SMILES COc1cccc(C(=O)O)c1O
REMARK SMILES IDX 7 1 11 2 6 3 5 4 3 5 4 6 8 7 9 8 10 9 12 11 2 13 1 14
REMARK H PARENT 10 10 12 12
ROOT
ATOM      1  C   UNL     1       1.795   5.109   7.689  1.00  0.00     0.105 A 
ATOM      2  C   UNL     1       1.640   6.063   6.722  1.00  0.00     0.172 A 
ATOM      3  C   UNL     1       1.895   3.704   7.253  1.00  0.00     0.020 A 
ATOM      4  C   UNL     1       2.194   3.467   5.950  1.00  0.00     0.005 A 
ATOM      5  C   UNL     1       2.182   5.888   5.382  1.00  0.00     0.161 A 
ATOM      6  C   UNL     1       2.346   4.503   4.982  1.00  0.00     0.050 A 
ENDROOT
BRANCH   1   7
ATOM      7  C   UNL     1       1.967   5.490   9.170  1.00  0.00     0.339 C 
ATOM      8  O   UNL     1       3.047   6.708   9.237  1.00  0.00    -0.246 OA
BRANCH   7   9
ATOM      9  O   UNL     1       1.535   5.272  10.105  1.00  0.00    -0.478 OA
ATOM     10  H   UNL     1       1.130   5.067  10.985  1.00  0.00     0.297 HD
ENDBRANCH   7   9
ENDBRANCH   1   7
BRANCH   2  11
ATOM     11  O   UNL     1       0.967   7.269   6.985  1.00  0.00    -0.504 OA
ATOM     12  H   UNL     1       0.493   8.118   7.170  1.00  0.00     0.293 HD
ENDBRANCH   2  11
BRANCH   5  13
ATOM     13  O   UNL     1       2.131   7.004   4.557  1.00  0.00    -0.493 OA
ATOM     14  C   UNL     1       2.547   7.983   3.823  1.00  0.00     0.278 C 
ENDBRANCH   5  13
TORSDOF 4
ENDMDL
MODEL 6
REMARK VINA RESULT:    -3.957      2.323      4.632
REMARK INTER + INTRA:          -4.920
REMARK INTER:                  -4.590
REMARK INTRA:                  -0.331
REMARK UNBOUND:                -0.269
REMARK SMILES COc1cccc(C(=O)O)c1O
REMARK SMILES IDX 7 1 11 2 6 3 5 4 3 5 4 6 8 7 9 8 10 9 12 11 2 13 1 14
REMARK H PARENT 10 10 12 12
ROOT
ATOM      1  C   UNL     1       4.028   7.211   5.083  1.00  0.00     0.105 A 
ATOM      2  C   UNL     1       3.772   5.983   5.629  1.00  0.00     0.172 A 
ATOM      3  C   UNL     1       3.048   7.748   4.120  1.00  0.00     0.020 A 
ATOM      4  C   UNL     1       1.808   7.195   4.107  1.00  0.00     0.005 A 
ATOM      5  C   UNL     1       2.412   5.504   5.827  1.00  0.00     0.161 A 
ATOM      6  C   UNL     1       1.437   6.088   4.925  1.00  0.00     0.050 A 
ENDROOT
BRANCH   1   7
ATOM      7  C   UNL     1       5.236   8.051   5.532  1.00  0.00     0.339 C 
ATOM      8  O   UNL     1       5.337   7.932   7.153  1.00  0.00    -0.246 OA
BRANCH   7   9
ATOM      9  O   UNL     1       6.042   8.579   5.108  1.00  0.00    -0.478 OA
ATOM     10  H   UNL     1       6.801   9.075   4.710  1.00  0.00     0.297 HD
ENDBRANCH   7   9
ENDBRANCH   1   7
BRANCH   2  11
ATOM     11  O   UNL     1       4.814   5.137   6.045  1.00  0.00    -0.504 OA
ATOM     12  H   UNL     1       5.548   4.540   6.338  1.00  0.00     0.293 HD
ENDBRANCH   2  11
BRANCH   5  13
ATOM     13  O   UNL     1       2.284   4.336   6.568  1.00  0.00    -0.493 OA
ATOM     14  C   UNL     1       1.961   3.118   6.855  1.00  0.00     0.278 C 
ENDBRANCH   5  13
TORSDOF 4
ENDMDL
MODEL 7
REMARK VINA RESULT:    -3.912      8.179      9.374
REMARK INTER + INTRA:          -4.868
REMARK INTER:                  -4.570
REMARK INTRA:                  -0.298
REMARK UNBOUND:                -0.269
REMARK SMILES COc1cccc(C(=O)O)c1O
REMARK SMILES IDX 7 1 11 2 6 3 5 4 3 5 4 6 8 7 9 8 10 9 12 11 2 13 1 14
REMARK H PARENT 10 10 12 12
ROOT
ATOM      1  C   UNL     1       3.401   1.772  -0.952  1.00  0.00     0.105 A 
ATOM      2  C   UNL     1       2.263   2.166  -0.303  1.00  0.00     0.172 A 
ATOM      3  C   UNL     1       3.832   0.372  -0.785  1.00  0.00     0.020 A 
ATOM      4  C   UNL     1       2.918  -0.520  -0.322  1.00  0.00     0.005 A 
ATOM      5  C   UNL     1       1.180   1.234  -0.025  1.00  0.00     0.161 A 
ATOM      6  C   UNL     1       1.597  -0.153   0.069  1.00  0.00     0.050 A 
ENDROOT
BRANCH   1   7
ATOM      7  C   UNL     1       4.147   2.719  -1.908  1.00  0.00     0.339 C 
ATOM      8  O   UNL     1       3.043   3.729  -2.552  1.00  0.00    -0.246 OA
BRANCH   7   9
ATOM      9  O   UNL     1       5.134   2.962  -2.181  1.00  0.00    -0.478 OA
ATOM     10  H   UNL     1       6.063   3.190  -2.438  1.00  0.00     0.297 HD
ENDBRANCH   7   9
ENDBRANCH   1   7
BRANCH   2  11
ATOM     11  O   UNL     1       2.079   3.498   0.106  1.00  0.00    -0.504 OA
ATOM     12  H   UNL     1       1.950   4.436   0.395  1.00  0.00     0.293 HD
ENDBRANCH   2  11
BRANCH   5  13
ATOM     13  O   UNL     1       0.006   1.797   0.458  1.00  0.00    -0.493 OA
ATOM     14  C   UNL     1      -0.941   2.661   0.621  1.00  0.00     0.278 C 
ENDBRANCH   5  13
TORSDOF 4
ENDMDL
MODEL 8
REMARK VINA RESULT:    -3.897      2.436      3.510
REMARK INTER + INTRA:          -4.849
REMARK INTER:                  -4.444
REMARK INTRA:                  -0.405
REMARK UNBOUND:                -0.269
REMARK SMILES COc1cccc(C(=O)O)c1O
REMARK SMILES IDX 7 1 11 2 6 3 5 4 3 5 4 6 8 7 9 8 10 9 12 11 2 13 1 14
REMARK H PARENT 10 10 12 12
ROOT
ATOM      1  C   UNL     1       2.260   5.967   5.331  1.00  0.00     0.105 A 
ATOM      2  C   UNL     1       2.426   6.225   6.663  1.00  0.00     0.172 A 
ATOM      3  C   UNL     1       2.291   4.557   4.899  1.00  0.00     0.020 A 
ATOM      4  C   UNL     1       2.112   3.602   5.848  1.00  0.00     0.005 A 
ATOM      5  C   UNL     1       2.004   5.277   7.684  1.00  0.00     0.161 A 
ATOM      6  C   UNL     1       1.967   3.897   7.236  1.00  0.00     0.050 A 
ENDROOT
BRANCH   1   7
ATOM      7  C   UNL     1       1.946   7.092   4.330  1.00  0.00     0.339 C 
ATOM      8  O   UNL     1       3.220   8.108   4.324  1.00  0.00    -0.246 OA
BRANCH   7   9
ATOM      9  O   UNL     1       1.224   7.336   3.604  1.00  0.00    -0.478 OA
ATOM     10  H   UNL     1       0.544   7.565   2.921  1.00  0.00     0.297 HD
ENDBRANCH   7   9
ENDBRANCH   1   7
BRANCH   2  11
ATOM     11  O   UNL     1       2.992   7.432   7.109  1.00  0.00    -0.504 OA
ATOM     12  H   UNL     1       3.392   8.282   7.424  1.00  0.00     0.293 HD
ENDBRANCH   2  11
BRANCH   5  13
ATOM     13  O   UNL     1       2.045   5.738   8.994  1.00  0.00    -0.493 OA
ATOM     14  C   UNL     1       1.997   5.712  10.285  1.00  0.00     0.278 C 
ENDBRANCH   5  13
TORSDOF 4
ENDMDL
MODEL 9
REMARK VINA RESULT:    -3.806      1.788      2.406
REMARK INTER + INTRA:          -4.742
REMARK INTER:                  -4.498
REMARK INTRA:                  -0.244
REMARK UNBOUND:                -0.269
REMARK SMILES COc1cccc(C(=O)O)c1O
REMARK SMILES IDX 7 1 11 2 6 3 5 4 3 5 4 6 8 7 9 8 10 9 12 11 2 13 1 14
REMARK H PARENT 10 10 12 12
ROOT
ATOM      1  C   UNL     1       2.517   5.328   5.905  1.00  0.00     0.105 A 
ATOM      2  C   UNL     1       3.513   6.183   6.290  1.00  0.00     0.172 A 
ATOM      3  C   UNL     1       1.548   5.814   4.905  1.00  0.00     0.020 A 
ATOM      4  C   UNL     1       1.893   6.900   4.168  1.00  0.00     0.005 A 
ATOM      5  C   UNL     1       4.039   7.198   5.389  1.00  0.00     0.161 A 
ATOM      6  C   UNL     1       3.107   7.624   4.362  1.00  0.00     0.050 A 
ENDROOT
BRANCH   1   7
ATOM      7  C   UNL     1       2.468   3.876   6.412  1.00  0.00     0.339 C 
ATOM      8  O   UNL     1       2.118   2.926   5.136  1.00  0.00    -0.246 OA
BRANCH   7   9
ATOM      9  O   UNL     1       2.682   3.328   7.285  1.00  0.00    -0.478 OA
ATOM     10  H   UNL     1       2.884   2.813   8.106  1.00  0.00     0.297 HD
ENDBRANCH   7   9
ENDBRANCH   1   7
BRANCH   2  11
ATOM     11  O   UNL     1       4.090   6.104   7.570  1.00  0.00    -0.504 OA
ATOM     12  H   UNL     1       4.496   6.049   8.471  1.00  0.00     0.293 HD
ENDBRANCH   2  11
BRANCH   5  13
ATOM     13  O   UNL     1       5.175   7.867   5.828  1.00  0.00    -0.493 OA
ATOM     14  C   UNL     1       6.174   8.686   5.814  1.00  0.00     0.278 C 
ENDBRANCH   5  13
TORSDOF 4
ENDMDL
