MODEL 1
REMARK VINA RESULT:    -4.965      0.000      0.000
REMARK INTER + INTRA:          -6.298
REMARK INTER:                  -5.836
REMARK INTRA:                  -0.462
REMARK UNBOUND:                -0.462
REMARK SMILES COc1cccc(C(=O)O)c1O
REMARK SMILES IDX 7 1 11 2 6 3 5 4 3 5 4 6 8 7 9 8 10 9 12 11 2 13 1 14
REMARK H PARENT 10 10 12 12
ROOT
ATOM      1  C   UNL     1      -0.200  -7.234  -0.291  1.00  0.00     0.105 A 
ATOM      2  C   UNL     1      -1.148  -6.600  -1.046  1.00  0.00     0.172 A 
ATOM      3  C   UNL     1       0.604  -8.285  -0.943  1.00  0.00     0.020 A 
ATOM      4  C   UNL     1       0.624  -8.311  -2.301  1.00  0.00     0.005 A 
ATOM      5  C   UNL     1      -0.990  -6.429  -2.483  1.00  0.00     0.161 A 
ATOM      6  C   UNL     1      -0.141  -7.423  -3.112  1.00  0.00     0.050 A 
ENDROOT
BRANCH   1   7
ATOM      7  C   UNL     1       0.095  -6.799   1.155  1.00  0.00     0.339 C 
ATOM      8  O   UNL     1      -0.666  -5.380   1.401  1.00  0.00    -0.246 OA
BRANCH   7   9
ATOM      9  O   UNL     1       0.543  -7.182   2.028  1.00  0.00    -0.478 OA
ATOM     10  H   UNL     1       0.964  -7.542   2.849  1.00  0.00     0.297 HD
ENDBRANCH   7   9
ENDBRANCH   1   7
BRANCH   2  11
ATOM     11  O   UNL     1      -2.309  -6.065  -0.463  1.00  0.00    -0.504 OA
ATOM     12  H   UNL     1      -3.127  -5.688  -0.052  1.00  0.00     0.293 HD
ENDBRANCH   2  11
BRANCH   5  13
ATOM     13  O   UNL     1      -1.920  -5.600  -3.099  1.00  0.00    -0.493 OA
ATOM     14  C   UNL     1      -2.795  -5.198  -3.961  1.00  0.00     0.278 C 
ENDBRANCH   5  13
TORSDOF 4
ENDMDL
MODEL 2
REMARK VINA RESULT:    -4.962      1.754      4.701
REMARK INTER + INTRA:          -6.295
REMARK INTER:                  -5.808
REMARK INTRA:                  -0.487
REMARK UNBOUND:                -0.462
REMARK SMILES COc1cccc(C(=O)O)c1O
REMARK SMILES IDX 7 1 11 2 6 3 5 4 3 5 4 6 8 7 9 8 10 9 12 11 2 13 1 14
REMARK H PARENT 10 10 12 12
ROOT
ATOM      1  C   UNL     1      -2.504  -6.286  -2.956  1.00  0.00     0.105 A 
ATOM      2  C   UNL     1      -1.488  -6.333  -2.042  1.00  0.00     0.172 A 
ATOM      3  C   UNL     1      -3.620  -7.235  -2.787  1.00  0.00     0.020 A 
ATOM      4  C   UNL     1      -3.766  -7.828  -1.574  1.00  0.00     0.005 A 
ATOM      5  C   UNL     1      -1.717  -6.750  -0.666  1.00  0.00     0.161 A 
ATOM      6  C   UNL     1      -2.859  -7.628  -0.492  1.00  0.00     0.050 A 
ENDROOT
BRANCH   1   7
ATOM      7  C   UNL     1      -2.540  -5.214  -4.060  1.00  0.00     0.339 C 
ATOM      8  O   UNL     1      -1.443  -4.075  -3.668  1.00  0.00    -0.246 OA
BRANCH   7   9
ATOM      9  O   UNL     1      -2.975  -5.056  -5.005  1.00  0.00    -0.478 OA
ATOM     10  H   UNL     1      -3.385  -4.908  -5.894  1.00  0.00     0.297 HD
ENDBRANCH   7   9
ENDBRANCH   1   7
BRANCH   2  11
ATOM     11  O   UNL     1      -0.178  -5.958  -2.385  1.00  0.00    -0.504 OA
ATOM     12  H   UNL     1       0.746  -5.695  -2.627  1.00  0.00     0.293 HD
ENDBRANCH   2  11
BRANCH   5  13
ATOM     13  O   UNL     1      -0.653  -6.566   0.207  1.00  0.00    -0.493 OA
ATOM     14  C   UNL     1       0.273  -6.857   1.061  1.00  0.00     0.278 C 
ENDBRANCH   5  13
TORSDOF 4
ENDMDL
MODEL 3
REMARK VINA RESULT:    -4.652      2.225      3.214
REMARK INTER + INTRA:          -5.930
REMARK INTER:                  -5.659
REMARK INTRA:                  -0.271
REMARK UNBOUND:                -0.462
REMARK SMILES COc1cccc(C(=O)O)c1O
REMARK SMILES IDX 7 1 11 2 6 3 5 4 3 5 4 6 8 7 9 8 10 9 12 11 2 13 1 14
REMARK H PARENT 10 10 12 12
ROOT
ATOM      1  C   UNL     1      -0.455  -7.056  -0.416  1.00  0.00     0.105 A 
ATOM      2  C   UNL     1      -0.248  -8.258  -1.034  1.00  0.00     0.172 A 
ATOM      3  C   UNL     1      -1.424  -6.130  -1.031  1.00  0.00     0.020 A 
ATOM      4  C   UNL     1      -2.305  -6.643  -1.929  1.00  0.00     0.005 A 
ATOM      5  C   UNL     1      -1.296  -8.912  -1.804  1.00  0.00     0.161 A 
ATOM      6  C   UNL     1      -2.289  -8.006  -2.349  1.00  0.00     0.050 A 
ENDROOT
BRANCH   1   7
ATOM      7  C   UNL     1       0.215  -6.719   0.927  1.00  0.00     0.339 C 
ATOM      8  O   UNL     1      -0.599  -5.467   1.578  1.00  0.00    -0.246 OA
BRANCH   7   9
ATOM      9  O   UNL     1       0.953  -7.107   1.570  1.00  0.00    -0.478 OA
ATOM     10  H   UNL     1       1.647  -7.472   2.174  1.00  0.00     0.297 HD
ENDBRANCH   7   9
ENDBRANCH   1   7
BRANCH   2  11
ATOM     11  O   UNL     1       0.983  -8.929  -0.934  1.00  0.00    -0.504 OA
ATOM     12  H   UNL     1       1.850  -9.402  -0.863  1.00  0.00     0.293 HD
ENDBRANCH   2  11
BRANCH   5  13
ATOM     13  O   UNL     1      -1.026 -10.213  -2.211  1.00  0.00    -0.493 OA
ATOM     14  C   UNL     1      -1.140 -11.497  -2.306  1.00  0.00     0.278 C 
ENDBRANCH   5  13
TORSDOF 4
ENDMDL
MODEL 4
REMARK VINA RESULT:    -4.648      2.970      4.485
REMARK INTER + INTRA:          -5.926
REMARK INTER:                  -5.656
REMARK INTRA:                  -0.270
REMARK UNBOUND:                -0.462
REMARK SMILES COc1cccc(C(=O)O)c1O
REMARK SMILES IDX 7 1 11 2 6 3 5 4 3 5 4 6 8 7 9 8 10 9 12 11 2 13 1 14
REMARK H PARENT 10 10 12 12
ROOT
ATOM      1  C   UNL     1      -2.327  -6.217  -2.813  1.00  0.00     0.105 A 
ATOM      2  C   UNL     1      -2.891  -7.462  -2.770  1.00  0.00     0.172 A 
ATOM      3  C   UNL     1      -1.185  -5.953  -1.918  1.00  0.00     0.020 A 
ATOM      4  C   UNL     1      -0.535  -7.023  -1.391  1.00  0.00     0.005 A 
ATOM      5  C   UNL     1      -2.110  -8.643  -2.429  1.00  0.00     0.161 A 
ATOM      6  C   UNL     1      -0.946  -8.371  -1.607  1.00  0.00     0.050 A 
ENDROOT
BRANCH   1   7
ATOM      7  C   UNL     1      -2.794  -5.161  -3.830  1.00  0.00     0.339 C 
ATOM      8  O   UNL     1      -1.618  -4.039  -3.941  1.00  0.00    -0.246 OA
BRANCH   7   9
ATOM      9  O   UNL     1      -3.573  -5.009  -4.520  1.00  0.00    -0.478 OA
ATOM     10  H   UNL     1      -4.307  -4.866  -5.170  1.00  0.00     0.297 HD
ENDBRANCH   7   9
ENDBRANCH   1   7
BRANCH   2  11
ATOM     11  O   UNL     1      -4.248  -7.661  -3.075  1.00  0.00    -0.504 OA
ATOM     12  H   UNL     1      -5.205  -7.801  -3.289  1.00  0.00     0.293 HD
ENDBRANCH   2  11
BRANCH   5  13
ATOM     13  O   UNL     1      -2.747  -9.864  -2.613  1.00  0.00    -0.493 OA
ATOM     14  C   UNL     1      -2.945 -11.072  -3.027  1.00  0.00     0.278 C 
ENDBRANCH   5  13
TORSDOF 4
ENDMDL
MODEL 5
REMARK VINA RESULT:    -4.008      2.755      4.194
REMARK INTER + INTRA:          -5.173
REMARK INTER:                  -4.707
REMARK INTRA:                  -0.466
REMARK UNBOUND:                -0.462
REMARK SMILES COc1cccc(C(=O)O)c1O
REMARK SMILES IDX 7 1 11 2 6 3 5 4 3 5 4 6 8 7 9 8 10 9 12 11 2 13 1 14
REMARK H PARENT 10 10 12 12
ROOT
ATOM      1  C   UNL     1      -1.831  -5.912  -2.170  1.00  0.00     0.105 A 
ATOM      2  C   UNL     1      -2.369  -7.161  -2.311  1.00  0.00     0.172 A 
ATOM      3  C   UNL     1      -1.037  -5.643  -0.957  1.00  0.00     0.020 A 
ATOM      4  C   UNL     1      -0.581  -6.710  -0.251  1.00  0.00     0.005 A 
ATOM      5  C   UNL     1      -1.728  -8.338  -1.741  1.00  0.00     0.161 A 
ATOM      6  C   UNL     1      -0.890  -8.060  -0.589  1.00  0.00     0.050 A 
ENDROOT
BRANCH   1   7
ATOM      7  C   UNL     1      -1.957  -4.856  -3.281  1.00  0.00     0.339 C 
ATOM      8  O   UNL     1      -3.500  -4.879  -3.803  1.00  0.00    -0.246 OA
BRANCH   7   9
ATOM      9  O   UNL     1      -1.388  -4.085  -3.718  1.00  0.00    -0.478 OA
ATOM     10  H   UNL     1      -0.853  -3.360  -4.128  1.00  0.00     0.297 HD
ENDBRANCH   7   9
ENDBRANCH   1   7
BRANCH   2  11
ATOM     11  O   UNL     1      -3.556  -7.369  -3.034  1.00  0.00    -0.504 OA
ATOM     12  H   UNL     1      -4.393  -7.516  -3.543  1.00  0.00     0.293 HD
ENDBRANCH   2  11
BRANCH   5  13
ATOM     13  O   UNL     1      -2.263  -9.563  -2.120  1.00  0.00    -0.493 OA
ATOM     14  C   UNL     1      -2.302 -10.796  -2.503  1.00  0.00     0.278 C 
ENDBRANCH   5  13
TORSDOF 4
ENDMDL
MODEL 6
REMARK VINA RESULT:    -3.986      2.170      3.104
REMARK INTER + INTRA:          -5.147
REMARK INTER:                  -4.888
REMARK INTRA:                  -0.259
REMARK UNBOUND:                -0.462
REMARK SMILES COc1cccc(C(=O)O)c1O
REMARK SMILES IDX 7 1 11 2 6 3 5 4 3 5 4 6 8 7 9 8 10 9 12 11 2 13 1 14
REMARK H PARENT 10 10 12 12
ROOT
ATOM      1  C   UNL     1       0.266  -7.955  -1.102  1.00  0.00     0.105 A 
ATOM      2  C   UNL     1      -0.235  -7.239  -2.155  1.00  0.00     0.172 A 
ATOM      3  C   UNL     1       0.213  -7.333   0.234  1.00  0.00     0.020 A 
ATOM      4  C   UNL     1      -0.634  -6.286   0.409  1.00  0.00     0.005 A 
ATOM      5  C   UNL     1      -1.318  -6.282  -1.981  1.00  0.00     0.161 A 
ATOM      6  C   UNL     1      -1.413  -5.725  -0.645  1.00  0.00     0.050 A 
ENDROOT
BRANCH   1   7
ATOM      7  C   UNL     1       0.769  -9.398  -1.282  1.00  0.00     0.339 C 
ATOM      8  O   UNL     1      -0.351 -10.200  -2.150  1.00  0.00    -0.246 OA
BRANCH   7   9
ATOM      9  O   UNL     1       1.635  -9.969  -1.101  1.00  0.00    -0.478 OA
ATOM     10  H   UNL     1       2.450 -10.505  -0.932  1.00  0.00     0.297 HD
ENDBRANCH   7   9
ENDBRANCH   1   7
BRANCH   2  11
ATOM     11  O   UNL     1       0.261  -7.412  -3.458  1.00  0.00    -0.504 OA
ATOM     12  H   UNL     1       0.610  -7.534  -4.377  1.00  0.00     0.293 HD
ENDBRANCH   2  11
BRANCH   5  13
ATOM     13  O   UNL     1      -1.867  -5.771  -3.150  1.00  0.00    -0.493 OA
ATOM     14  C   UNL     1      -2.750  -5.276  -3.954  1.00  0.00     0.278 C 
ENDBRANCH   5  13
TORSDOF 4
ENDMDL
MODEL 7
REMARK VINA RESULT:    -3.970      2.334      4.631
REMARK INTER + INTRA:          -5.128
REMARK INTER:                  -4.855
REMARK INTRA:                  -0.273
REMARK UNBOUND:                -0.462
REMARK SMILES COc1cccc(C(=O)O)c1O
REMARK SMILES IDX 7 1 11 2 6 3 5 4 3 5 4 6 8 7 9 8 10 9 12 11 2 13 1 14
REMARK H PARENT 10 10 12 12
ROOT
ATOM      1  C   UNL     1      -3.229  -7.034  -2.584  1.00  0.00     0.105 A 
ATOM      2  C   UNL     1      -2.611  -6.996  -1.364  1.00  0.00     0.172 A 
ATOM      3  C   UNL     1      -2.948  -5.936  -3.528  1.00  0.00     0.020 A 
ATOM      4  C   UNL     1      -1.848  -5.173  -3.298  1.00  0.00     0.005 A 
ATOM      5  C   UNL     1      -1.307  -6.373  -1.188  1.00  0.00     0.161 A 
ATOM      6  C   UNL     1      -1.003  -5.341  -2.162  1.00  0.00     0.050 A 
ENDROOT
BRANCH   1   7
ATOM      7  C   UNL     1      -4.103  -8.230  -3.002  1.00  0.00     0.339 C 
ATOM      8  O   UNL     1      -3.286  -9.586  -2.620  1.00  0.00    -0.246 OA
BRANCH   7   9
ATOM      9  O   UNL     1      -5.075  -8.422  -3.356  1.00  0.00    -0.478 OA
ATOM     10  H   UNL     1      -5.990  -8.603  -3.690  1.00  0.00     0.297 HD
ENDBRANCH   7   9
ENDBRANCH   1   7
BRANCH   2  11
ATOM     11  O   UNL     1      -3.200  -7.576  -0.228  1.00  0.00    -0.504 OA
ATOM     12  H   UNL     1      -3.614  -7.985   0.573  1.00  0.00     0.293 HD
ENDBRANCH   2  11
BRANCH   5  13
ATOM     13  O   UNL     1      -0.702  -6.573   0.046  1.00  0.00    -0.493 OA
ATOM     14  C   UNL     1       0.151  -7.001   0.917  1.00  0.00     0.278 C 
ENDBRANCH   5  13
TORSDOF 4
ENDMDL
MODEL 8
REMARK VINA RESULT:    -3.853      7.149      8.274
REMARK INTER + INTRA:          -4.991
REMARK INTER:                  -4.716
REMARK INTRA:                  -0.275
REMARK UNBOUND:                -0.462
REMARK SMILES COc1cccc(C(=O)O)c1O
REMARK SMILES IDX 7 1 11 2 6 3 5 4 3 5 4 6 8 7 9 8 10 9 12 11 2 13 1 14
REMARK H PARENT 10 10 12 12
ROOT
ATOM      1  C   UNL     1      -3.862   0.029   3.120  1.00  0.00     0.105 A 
ATOM      2  C   UNL     1      -2.840   0.148   2.219  1.00  0.00     0.172 A 
ATOM      3  C   UNL     1      -5.241   0.082   2.601  1.00  0.00     0.020 A 
ATOM      4  C   UNL     1      -5.422  -0.123   1.271  1.00  0.00     0.005 A 
ATOM      5  C   UNL     1      -2.979  -0.303   0.842  1.00  0.00     0.161 A 
ATOM      6  C   UNL     1      -4.346  -0.317   0.355  1.00  0.00     0.050 A 
ENDROOT
BRANCH   1   7
ATOM      7  C   UNL     1      -3.589  -0.257   4.607  1.00  0.00     0.339 C 
ATOM      8  O   UNL     1      -2.286  -1.231   4.685  1.00  0.00    -0.246 OA
BRANCH   7   9
ATOM      9  O   UNL     1      -3.923   0.059   5.555  1.00  0.00    -0.478 OA
ATOM     10  H   UNL     1      -4.236   0.356   6.446  1.00  0.00     0.297 HD
ENDBRANCH   7   9
ENDBRANCH   1   7
BRANCH   2  11
ATOM     11  O   UNL     1      -1.598   0.692   2.589  1.00  0.00    -0.504 OA
ATOM     12  H   UNL     1      -0.723   1.076   2.850  1.00  0.00     0.293 HD
ENDBRANCH   2  11
BRANCH   5  13
ATOM     13  O   UNL     1      -1.814  -0.310   0.086  1.00  0.00    -0.493 OA
ATOM     14  C   UNL     1      -0.565  -0.468  -0.206  1.00  0.00     0.278 C 
ENDBRANCH   5  13
TORSDOF 4
ENDMDL
MODEL 9
REMARK VINA RESULT:    -3.811      7.134      8.539
REMARK INTER + INTRA:          -4.941
REMARK INTER:                  -4.646
REMARK INTRA:                  -0.295
REMARK UNBOUND:                -0.462
REMARK SMILES COc1cccc(C(=O)O)c1O
REMARK SMILES IDX 7 1 11 2 6 3 5 4 3 5 4 6 8 7 9 8 10 9 12 11 2 13 1 14
REMARK H PARENT 10 10 12 12
ROOT
ATOM      1  C   UNL     1      -4.625  -0.471   1.950  1.00  0.00     0.105 A 
ATOM      2  C   UNL     1      -3.404  -0.601   1.347  1.00  0.00     0.172 A 
ATOM      3  C   UNL     1      -4.671  -0.536   3.422  1.00  0.00     0.020 A 
ATOM      4  C   UNL     1      -3.508  -0.352   4.099  1.00  0.00     0.005 A 
ATOM      5  C   UNL     1      -2.178  -0.172   2.005  1.00  0.00     0.161 A 
ATOM      6  C   UNL     1      -2.249  -0.169   3.454  1.00  0.00     0.050 A 
ENDROOT
BRANCH   1   7
ATOM      7  C   UNL     1      -5.892  -0.161   1.134  1.00  0.00     0.339 C 
ATOM      8  O   UNL     1      -5.438   0.734  -0.149  1.00  0.00    -0.246 OA
BRANCH   7   9
ATOM      9  O   UNL     1      -6.910  -0.430   1.107  1.00  0.00    -0.478 OA
ATOM     10  H   UNL     1      -7.867  -0.683   1.082  1.00  0.00     0.297 HD
ENDBRANCH   7   9
ENDBRANCH   1   7
BRANCH   2  11
ATOM     11  O   UNL     1      -3.281  -1.136   0.053  1.00  0.00    -0.504 OA
ATOM     12  H   UNL     1      -3.193  -1.513  -0.858  1.00  0.00     0.293 HD
ENDBRANCH   2  11
BRANCH   5  13
ATOM     13  O   UNL     1      -1.035  -0.174   1.215  1.00  0.00    -0.493 OA
ATOM     14  C   UNL     1      -0.292  -0.044   0.166  1.00  0.00     0.278 C 
ENDBRANCH   5  13
TORSDOF 4
ENDMDL
