MODEL 1
REMARK VINA RESULT:    -4.848      0.000      0.000
REMARK INTER + INTRA:          -6.184
REMARK INTER:                  -5.698
REMARK INTRA:                  -0.486
REMARK UNBOUND:                -0.486
REMARK SMILES COc1cccc(C(=O)O)c1O
REMARK SMILES IDX 7 1 11 2 6 3 5 4 3 5 4 6 8 7 9 8 10 9 12 11 2 13 1 14
REMARK H PARENT 10 10 12 12
ROOT
ATOM      1  C   UNL     1       3.640  -0.147   6.301  1.00  0.00     0.105 A 
ATOM      2  C   UNL     1       2.914   0.891   5.784  1.00  0.00     0.172 A 
ATOM      3  C   UNL     1       3.272  -0.639   7.641  1.00  0.00     0.020 A 
ATOM      4  C   UNL     1       2.045  -0.306   8.120  1.00  0.00     0.005 A 
ATOM      5  C   UNL     1       1.515   1.092   6.133  1.00  0.00     0.161 A 
ATOM      6  C   UNL     1       1.137   0.544   7.422  1.00  0.00     0.050 A 
ENDROOT
BRANCH   1   7
ATOM      7  C   UNL     1       4.732  -0.848   5.475  1.00  0.00     0.339 C 
ATOM      8  O   UNL     1       4.554  -0.372   3.927  1.00  0.00    -0.246 OA
BRANCH   7   9
ATOM      9  O   UNL     1       5.588  -1.443   5.625  1.00  0.00    -0.478 OA
ATOM     10  H   UNL     1       6.393  -2.002   5.767  1.00  0.00     0.297 HD
ENDBRANCH   7   9
ENDBRANCH   1   7
BRANCH   2  11
ATOM     11  O   UNL     1       3.481   1.800   4.875  1.00  0.00    -0.504 OA
ATOM     12  H   UNL     1       3.881   2.440   4.234  1.00  0.00     0.293 HD
ENDBRANCH   2  11
BRANCH   5  13
ATOM     13  O   UNL     1       0.839   2.056   5.395  1.00  0.00    -0.493 OA
ATOM     14  C   UNL     1       0.100   3.086   5.144  1.00  0.00     0.278 C 
ENDBRANCH   5  13
TORSDOF 4
ENDMDL
MODEL 2
REMARK VINA RESULT:    -4.817      1.758      4.650
REMARK INTER + INTRA:          -6.147
REMARK INTER:                  -5.677
REMARK INTRA:                  -0.470
REMARK UNBOUND:                -0.486
REMARK SMILES COc1cccc(C(=O)O)c1O
REMARK SMILES IDX 7 1 11 2 6 3 5 4 3 5 4 6 8 7 9 8 10 9 12 11 2 13 1 14
REMARK H PARENT 10 10 12 12
ROOT
ATOM      1  C   UNL     1       1.527   2.599   5.885  1.00  0.00     0.105 A 
ATOM      2  C   UNL     1       2.165   1.393   5.784  1.00  0.00     0.172 A 
ATOM      3  C   UNL     1       2.263   3.711   6.514  1.00  0.00     0.020 A 
ATOM      4  C   UNL     1       3.612   3.597   6.617  1.00  0.00     0.005 A 
ATOM      5  C   UNL     1       3.613   1.304   5.655  1.00  0.00     0.161 A 
ATOM      6  C   UNL     1       4.332   2.434   6.212  1.00  0.00     0.050 A 
ENDROOT
BRANCH   1   7
ATOM      7  C   UNL     1       0.134   2.821   5.271  1.00  0.00     0.339 C 
ATOM      8  O   UNL     1      -0.175   1.555   4.293  1.00  0.00    -0.246 OA
BRANCH   7   9
ATOM      9  O   UNL     1      -0.686   3.474   5.369  1.00  0.00    -0.478 OA
ATOM     10  H   UNL     1      -1.458   4.087   5.462  1.00  0.00     0.297 HD
ENDBRANCH   7   9
ENDBRANCH   1   7
BRANCH   2  11
ATOM     11  O   UNL     1       1.448   0.184   5.778  1.00  0.00    -0.504 OA
ATOM     12  H   UNL     1       0.944  -0.667   5.775  1.00  0.00     0.293 HD
ENDBRANCH   2  11
BRANCH   5  13
ATOM     13  O   UNL     1       4.118   0.043   5.363  1.00  0.00    -0.493 OA
ATOM     14  C   UNL     1       4.669  -1.111   5.552  1.00  0.00     0.278 C 
ENDBRANCH   5  13
TORSDOF 4
ENDMDL
MODEL 3
REMARK VINA RESULT:    -4.684      2.884      4.383
REMARK INTER + INTRA:          -5.991
REMARK INTER:                  -5.721
REMARK INTRA:                  -0.270
REMARK UNBOUND:                -0.486
REMARK SMILES COc1cccc(C(=O)O)c1O
REMARK SMILES IDX 7 1 11 2 6 3 5 4 3 5 4 6 8 7 9 8 10 9 12 11 2 13 1 14
REMARK H PARENT 10 10 12 12
ROOT
ATOM      1  C   UNL     1       1.568   2.309   5.799  1.00  0.00     0.105 A 
ATOM      2  C   UNL     1       2.186   2.980   6.818  1.00  0.00     0.172 A 
ATOM      3  C   UNL     1       2.018   0.935   5.513  1.00  0.00     0.020 A 
ATOM      4  C   UNL     1       2.731   0.292   6.474  1.00  0.00     0.005 A 
ATOM      5  C   UNL     1       2.740   2.280   7.968  1.00  0.00     0.161 A 
ATOM      6  C   UNL     1       3.117   0.904   7.702  1.00  0.00     0.050 A 
ENDROOT
BRANCH   1   7
ATOM      7  C   UNL     1       0.375   2.922   5.045  1.00  0.00     0.339 C 
ATOM      8  O   UNL     1      -0.453   1.695   4.365  1.00  0.00    -0.246 OA
BRANCH   7   9
ATOM      9  O   UNL     1      -0.101   3.854   4.926  1.00  0.00    -0.478 OA
ATOM     10  H   UNL     1      -0.547   4.730   4.814  1.00  0.00     0.297 HD
ENDBRANCH   7   9
ENDBRANCH   1   7
BRANCH   2  11
ATOM     11  O   UNL     1       2.294   4.381   6.812  1.00  0.00    -0.504 OA
ATOM     12  H   UNL     1       2.371   5.368   6.807  1.00  0.00     0.293 HD
ENDBRANCH   2  11
BRANCH   5  13
ATOM     13  O   UNL     1       3.161   3.082   9.021  1.00  0.00    -0.493 OA
ATOM     14  C   UNL     1       3.295   3.513  10.232  1.00  0.00     0.278 C 
ENDBRANCH   5  13
TORSDOF 4
ENDMDL
MODEL 4
REMARK VINA RESULT:    -4.669      2.245      3.238
REMARK INTER + INTRA:          -5.974
REMARK INTER:                  -5.704
REMARK INTRA:                  -0.270
REMARK UNBOUND:                -0.486
REMARK SMILES COc1cccc(C(=O)O)c1O
REMARK SMILES IDX 7 1 11 2 6 3 5 4 3 5 4 6 8 7 9 8 10 9 12 11 2 13 1 14
REMARK H PARENT 10 10 12 12
ROOT
ATOM      1  C   UNL     1       3.544   0.025   6.170  1.00  0.00     0.105 A 
ATOM      2  C   UNL     1       3.377   0.137   7.523  1.00  0.00     0.172 A 
ATOM      3  C   UNL     1       2.893   1.034   5.315  1.00  0.00     0.020 A 
ATOM      4  C   UNL     1       2.490   2.191   5.899  1.00  0.00     0.005 A 
ATOM      5  C   UNL     1       3.181   1.429   8.164  1.00  0.00     0.161 A 
ATOM      6  C   UNL     1       2.605   2.442   7.298  1.00  0.00     0.050 A 
ENDROOT
BRANCH   1   7
ATOM      7  C   UNL     1       4.464  -1.050   5.564  1.00  0.00     0.339 C 
ATOM      8  O   UNL     1       4.867  -0.556   4.065  1.00  0.00    -0.246 OA
BRANCH   7   9
ATOM      9  O   UNL     1       4.968  -1.926   5.857  1.00  0.00    -0.478 OA
ATOM     10  H   UNL     1       5.443  -2.750   6.133  1.00  0.00     0.297 HD
ENDBRANCH   7   9
ENDBRANCH   1   7
BRANCH   2  11
ATOM     11  O   UNL     1       3.408  -0.992   8.360  1.00  0.00    -0.504 OA
ATOM     12  H   UNL     1       3.430  -1.787   8.950  1.00  0.00     0.293 HD
ENDBRANCH   2  11
BRANCH   5  13
ATOM     13  O   UNL     1       3.222   1.430   9.552  1.00  0.00    -0.493 OA
ATOM     14  C   UNL     1       3.572   1.767  10.750  1.00  0.00     0.278 C 
ENDBRANCH   5  13
TORSDOF 4
ENDMDL
MODEL 5
REMARK VINA RESULT:    -4.084      2.112      3.195
REMARK INTER + INTRA:          -5.285
REMARK INTER:                  -4.830
REMARK INTRA:                  -0.456
REMARK UNBOUND:                -0.486
REMARK SMILES COc1cccc(C(=O)O)c1O
REMARK SMILES IDX 7 1 11 2 6 3 5 4 3 5 4 6 8 7 9 8 10 9 12 11 2 13 1 14
REMARK H PARENT 10 10 12 12
ROOT
ATOM      1  C   UNL     1       3.146   0.358   5.723  1.00  0.00     0.105 A 
ATOM      2  C   UNL     1       3.150   0.364   7.091  1.00  0.00     0.172 A 
ATOM      3  C   UNL     1       2.176   1.233   5.039  1.00  0.00     0.020 A 
ATOM      4  C   UNL     1       1.615   2.239   5.759  1.00  0.00     0.005 A 
ATOM      5  C   UNL     1       2.768   1.545   7.851  1.00  0.00     0.161 A 
ATOM      6  C   UNL     1       1.869   2.441   7.148  1.00  0.00     0.050 A 
ENDROOT
BRANCH   1   7
ATOM      7  C   UNL     1       4.183  -0.448   4.923  1.00  0.00     0.339 C 
ATOM      8  O   UNL     1       4.291  -1.921   5.610  1.00  0.00    -0.246 OA
BRANCH   7   9
ATOM      9  O   UNL     1       4.748  -0.366   4.038  1.00  0.00    -0.478 OA
ATOM     10  H   UNL     1       5.278  -0.288   3.205  1.00  0.00     0.297 HD
ENDBRANCH   7   9
ENDBRANCH   1   7
BRANCH   2  11
ATOM     11  O   UNL     1       3.545  -0.767   7.826  1.00  0.00    -0.504 OA
ATOM     12  H   UNL     1       3.824  -1.564   8.344  1.00  0.00     0.293 HD
ENDBRANCH   2  11
BRANCH   5  13
ATOM     13  O   UNL     1       3.003   1.488   9.219  1.00  0.00    -0.493 OA
ATOM     14  C   UNL     1       3.623   1.628  10.344  1.00  0.00     0.278 C 
ENDBRANCH   5  13
TORSDOF 4
ENDMDL
MODEL 6
REMARK VINA RESULT:    -4.008      2.158      3.097
REMARK INTER + INTRA:          -5.196
REMARK INTER:                  -4.945
REMARK INTRA:                  -0.252
REMARK UNBOUND:                -0.486
REMARK SMILES COc1cccc(C(=O)O)c1O
REMARK SMILES IDX 7 1 11 2 6 3 5 4 3 5 4 6 8 7 9 8 10 9 12 11 2 13 1 14
REMARK H PARENT 10 10 12 12
ROOT
ATOM      1  C   UNL     1       3.128  -0.386   7.284  1.00  0.00     0.105 A 
ATOM      2  C   UNL     1       2.029   0.295   6.835  1.00  0.00     0.172 A 
ATOM      3  C   UNL     1       4.133  -0.796   6.286  1.00  0.00     0.020 A 
ATOM      4  C   UNL     1       4.110  -0.179   5.076  1.00  0.00     0.005 A 
ATOM      5  C   UNL     1       2.089   1.150   5.658  1.00  0.00     0.161 A 
ATOM      6  C   UNL     1       3.127   0.787   4.710  1.00  0.00     0.050 A 
ENDROOT
BRANCH   1   7
ATOM      7  C   UNL     1       3.363  -0.625   8.785  1.00  0.00     0.339 C 
ATOM      8  O   UNL     1       3.120   0.795   9.548  1.00  0.00    -0.246 OA
BRANCH   7   9
ATOM      9  O   UNL     1       3.530  -1.424   9.449  1.00  0.00    -0.478 OA
ATOM     10  H   UNL     1       3.687  -2.176  10.074  1.00  0.00     0.297 HD
ENDBRANCH   7   9
ENDBRANCH   1   7
BRANCH   2  11
ATOM     11  O   UNL     1       0.796   0.216   7.504  1.00  0.00    -0.504 OA
ATOM     12  H   UNL     1      -0.073   0.161   7.975  1.00  0.00     0.293 HD
ENDBRANCH   2  11
BRANCH   5  13
ATOM     13  O   UNL     1       0.968   1.936   5.422  1.00  0.00    -0.493 OA
ATOM     14  C   UNL     1       0.251   2.999   5.264  1.00  0.00     0.278 C 
ENDBRANCH   5  13
TORSDOF 4
ENDMDL
MODEL 7
REMARK VINA RESULT:    -3.921      2.455      4.653
REMARK INTER + INTRA:          -5.094
REMARK INTER:                  -4.608
REMARK INTRA:                  -0.486
REMARK UNBOUND:                -0.486
REMARK SMILES COc1cccc(C(=O)O)c1O
REMARK SMILES IDX 7 1 11 2 6 3 5 4 3 5 4 6 8 7 9 8 10 9 12 11 2 13 1 14
REMARK H PARENT 10 10 12 12
ROOT
ATOM      1  C   UNL     1       1.275   2.779   6.269  1.00  0.00     0.105 A 
ATOM      2  C   UNL     1       1.430   1.571   6.890  1.00  0.00     0.172 A 
ATOM      3  C   UNL     1       2.127   3.895   6.720  1.00  0.00     0.020 A 
ATOM      4  C   UNL     1       3.238   3.589   7.438  1.00  0.00     0.005 A 
ATOM      5  C   UNL     1       2.709   1.159   7.451  1.00  0.00     0.161 A 
ATOM      6  C   UNL     1       3.576   2.260   7.829  1.00  0.00     0.050 A 
ENDROOT
BRANCH   1   7
ATOM      7  C   UNL     1       0.323   2.947   5.072  1.00  0.00     0.339 C 
ATOM      8  O   UNL     1      -0.041   1.455   4.526  1.00  0.00    -0.246 OA
BRANCH   7   9
ATOM      9  O   UNL     1      -0.219   3.706   4.583  1.00  0.00    -0.478 OA
ATOM     10  H   UNL     1      -0.728   4.420   4.124  1.00  0.00     0.297 HD
ENDBRANCH   7   9
ENDBRANCH   1   7
BRANCH   2  11
ATOM     11  O   UNL     1       0.365   0.660   6.997  1.00  0.00    -0.504 OA
ATOM     12  H   UNL     1      -0.386   0.019   7.072  1.00  0.00     0.293 HD
ENDBRANCH   2  11
BRANCH   5  13
ATOM     13  O   UNL     1       2.788  -0.161   7.875  1.00  0.00    -0.493 OA
ATOM     14  C   UNL     1       3.122  -1.179   8.598  1.00  0.00     0.278 C 
ENDBRANCH   5  13
TORSDOF 4
ENDMDL
MODEL 8
REMARK VINA RESULT:    -3.711      2.305      4.431
REMARK INTER + INTRA:          -4.847
REMARK INTER:                  -4.599
REMARK INTRA:                  -0.249
REMARK UNBOUND:                -0.486
REMARK SMILES COc1cccc(C(=O)O)c1O
REMARK SMILES IDX 7 1 11 2 6 3 5 4 3 5 4 6 8 7 9 8 10 9 12 11 2 13 1 14
REMARK H PARENT 10 10 12 12
ROOT
ATOM      1  C   UNL     1       2.018   1.433   5.933  1.00  0.00     0.105 A 
ATOM      2  C   UNL     1       2.411   1.128   7.207  1.00  0.00     0.172 A 
ATOM      3  C   UNL     1       2.862   0.952   4.824  1.00  0.00     0.020 A 
ATOM      4  C   UNL     1       3.743  -0.047   5.088  1.00  0.00     0.005 A 
ATOM      5  C   UNL     1       3.159  -0.085   7.505  1.00  0.00     0.161 A 
ATOM      6  C   UNL     1       3.934  -0.597   6.390  1.00  0.00     0.050 A 
ENDROOT
BRANCH   1   7
ATOM      7  C   UNL     1       0.691   2.160   5.657  1.00  0.00     0.339 C 
ATOM      8  O   UNL     1       0.005   1.447   4.362  1.00  0.00    -0.246 OA
BRANCH   7   9
ATOM      9  O   UNL     1       0.072   2.887   6.100  1.00  0.00    -0.478 OA
ATOM     10  H   UNL     1      -0.510   3.571   6.517  1.00  0.00     0.297 HD
ENDBRANCH   7   9
ENDBRANCH   1   7
BRANCH   2  11
ATOM     11  O   UNL     1       2.090   1.962   8.291  1.00  0.00    -0.504 OA
ATOM     12  H   UNL     1       1.863   2.550   9.055  1.00  0.00     0.293 HD
ENDBRANCH   2  11
BRANCH   5  13
ATOM     13  O   UNL     1       3.324  -0.378   8.853  1.00  0.00    -0.493 OA
ATOM     14  C   UNL     1       3.648  -1.043   9.913  1.00  0.00     0.278 C 
ENDBRANCH   5  13
TORSDOF 4
ENDMDL
MODEL 9
REMARK VINA RESULT:    -3.695      2.235      2.894
REMARK INTER + INTRA:          -4.828
REMARK INTER:                  -4.343
REMARK INTRA:                  -0.485
REMARK UNBOUND:                -0.486
REMARK SMILES COc1cccc(C(=O)O)c1O
REMARK SMILES IDX 7 1 11 2 6 3 5 4 3 5 4 6 8 7 9 8 10 9 12 11 2 13 1 14
REMARK H PARENT 10 10 12 12
ROOT
ATOM      1  C   UNL     1       2.729   0.986   5.789  1.00  0.00     0.105 A 
ATOM      2  C   UNL     1       2.919   2.015   6.670  1.00  0.00     0.172 A 
ATOM      3  C   UNL     1       1.431   0.912   5.095  1.00  0.00     0.020 A 
ATOM      4  C   UNL     1       0.659   2.029   5.078  1.00  0.00     0.005 A 
ATOM      5  C   UNL     1       2.257   3.300   6.498  1.00  0.00     0.161 A 
ATOM      6  C   UNL     1       1.014   3.234   5.752  1.00  0.00     0.050 A 
ENDROOT
BRANCH   1   7
ATOM      7  C   UNL     1       3.863   0.002   5.452  1.00  0.00     0.339 C 
ATOM      8  O   UNL     1       5.249   0.643   6.017  1.00  0.00    -0.246 OA
BRANCH   7   9
ATOM      9  O   UNL     1       3.987  -0.970   5.067  1.00  0.00    -0.478 OA
ATOM     10  H   UNL     1       4.103  -1.885   4.705  1.00  0.00     0.297 HD
ENDBRANCH   7   9
ENDBRANCH   1   7
BRANCH   2  11
ATOM     11  O   UNL     1       3.781   1.884   7.772  1.00  0.00    -0.504 OA
ATOM     12  H   UNL     1       4.389   1.792   8.549  1.00  0.00     0.293 HD
ENDBRANCH   2  11
BRANCH   5  13
ATOM     13  O   UNL     1       2.683   4.318   7.341  1.00  0.00    -0.493 OA
ATOM     14  C   UNL     1       2.618   5.346   8.122  1.00  0.00     0.278 C 
ENDBRANCH   5  13
TORSDOF 4
ENDMDL
