MODEL 1
REMARK VINA RESULT:    -4.929      0.000      0.000
REMARK INTER + INTRA:          -6.064
REMARK INTER:                  -5.794
REMARK INTRA:                  -0.270
REMARK UNBOUND:                -0.270
REMARK SMILES COc1cccc(C(=O)O)c1O
REMARK SMILES IDX 7 1 11 2 6 3 5 4 3 5 4 6 8 7 9 8 10 9 12 11 2 13 1 14
REMARK H PARENT 10 10 12 12
ROOT
ATOM      1  C   UNL     1      -0.642   3.526  -7.890  1.00  0.00     0.105 A 
ATOM      2  C   UNL     1      -0.138   4.186  -8.977  1.00  0.00     0.172 A 
ATOM      3  C   UNL     1      -0.225   3.990  -6.554  1.00  0.00     0.020 A 
ATOM      4  C   UNL     1       0.316   5.232  -6.458  1.00  0.00     0.005 A 
ATOM      5  C   UNL     1       0.217   5.597  -8.916  1.00  0.00     0.161 A 
ATOM      6  C   UNL     1       0.558   6.068  -7.587  1.00  0.00     0.050 A 
ENDROOT
BRANCH   1   7
ATOM      7  C   UNL     1      -1.688   2.408  -8.047  1.00  0.00     0.339 C 
ATOM      8  O   UNL     1      -2.423   2.223  -6.605  1.00  0.00    -0.246 OA
BRANCH   7   9
ATOM      9  O   UNL     1      -2.120   1.820  -8.807  1.00  0.00    -0.478 OA
ATOM     10  H   UNL     1      -2.525   1.267  -9.521  1.00  0.00     0.297 HD
ENDBRANCH   7   9
ENDBRANCH   1   7
BRANCH   2  11
ATOM     11  O   UNL     1       0.039   3.536 -10.210  1.00  0.00    -0.504 OA
ATOM     12  H   UNL     1       0.165   3.079 -11.079  1.00  0.00     0.293 HD
ENDBRANCH   2  11
BRANCH   5  13
ATOM     13  O   UNL     1       0.528   6.196 -10.130  1.00  0.00    -0.493 OA
ATOM     14  C   UNL     1       0.407   6.959 -11.166  1.00  0.00     0.278 C 
ENDBRANCH   5  13
TORSDOF 4
ENDMDL
MODEL 2
REMARK VINA RESULT:    -4.921      2.242      3.303
REMARK INTER + INTRA:          -6.055
REMARK INTER:                  -5.570
REMARK INTRA:                  -0.485
REMARK UNBOUND:                -0.270
REMARK SMILES COc1cccc(C(=O)O)c1O
REMARK SMILES IDX 7 1 11 2 6 3 5 4 3 5 4 6 8 7 9 8 10 9 12 11 2 13 1 14
REMARK H PARENT 10 10 12 12
ROOT
ATOM      1  C   UNL     1      -0.719   3.522  -8.096  1.00  0.00     0.105 A 
ATOM      2  C   UNL     1      -0.122   4.054  -6.986  1.00  0.00     0.172 A 
ATOM      3  C   UNL     1      -0.023   3.677  -9.387  1.00  0.00     0.020 A 
ATOM      4  C   UNL     1       1.297   3.995  -9.358  1.00  0.00     0.005 A 
ATOM      5  C   UNL     1       1.326   4.168  -6.878  1.00  0.00     0.161 A 
ATOM      6  C   UNL     1       2.014   4.249  -8.152  1.00  0.00     0.050 A 
ENDROOT
BRANCH   1   7
ATOM      7  C   UNL     1      -2.014   2.699  -7.991  1.00  0.00     0.339 C 
ATOM      8  O   UNL     1      -2.176   2.242  -6.435  1.00  0.00    -0.246 OA
BRANCH   7   9
ATOM      9  O   UNL     1      -2.844   2.438  -8.584  1.00  0.00    -0.478 OA
ATOM     10  H   UNL     1      -3.625   2.194  -9.141  1.00  0.00     0.297 HD
ENDBRANCH   7   9
ENDBRANCH   1   7
BRANCH   2  11
ATOM     11  O   UNL     1      -0.880   4.496  -5.888  1.00  0.00    -0.504 OA
ATOM     12  H   UNL     1      -1.414   4.808  -5.115  1.00  0.00     0.293 HD
ENDBRANCH   2  11
BRANCH   5  13
ATOM     13  O   UNL     1       1.812   4.538  -5.630  1.00  0.00    -0.493 OA
ATOM     14  C   UNL     1       2.391   5.255  -4.724  1.00  0.00     0.278 C 
ENDBRANCH   5  13
TORSDOF 4
ENDMDL
MODEL 3
REMARK VINA RESULT:    -4.836      3.094      4.107
REMARK INTER + INTRA:          -5.954
REMARK INTER:                  -5.687
REMARK INTRA:                  -0.268
REMARK UNBOUND:                -0.270
REMARK SMILES COc1cccc(C(=O)O)c1O
REMARK SMILES IDX 7 1 11 2 6 3 5 4 3 5 4 6 8 7 9 8 10 9 12 11 2 13 1 14
REMARK H PARENT 10 10 12 12
ROOT
ATOM      1  C   UNL     1       1.268   5.048  -5.828  1.00  0.00     0.105 A 
ATOM      2  C   UNL     1       0.962   6.182  -6.528  1.00  0.00     0.172 A 
ATOM      3  C   UNL     1       0.574   3.803  -6.207  1.00  0.00     0.020 A 
ATOM      4  C   UNL     1      -0.027   3.761  -7.424  1.00  0.00     0.005 A 
ATOM      5  C   UNL     1       0.543   6.130  -7.921  1.00  0.00     0.161 A 
ATOM      6  C   UNL     1      -0.076   4.877  -8.311  1.00  0.00     0.050 A 
ENDROOT
BRANCH   1   7
ATOM      7  C   UNL     1       2.370   5.042  -4.755  1.00  0.00     0.339 C 
ATOM      8  O   UNL     1       2.772   3.487  -4.478  1.00  0.00    -0.246 OA
BRANCH   7   9
ATOM      9  O   UNL     1       2.986   5.723  -4.240  1.00  0.00    -0.478 OA
ATOM     10  H   UNL     1       3.565   6.364  -3.755  1.00  0.00     0.297 HD
ENDBRANCH   7   9
ENDBRANCH   1   7
BRANCH   2  11
ATOM     11  O   UNL     1       1.061   7.454  -5.939  1.00  0.00    -0.504 OA
ATOM     12  H   UNL     1       1.130   8.350  -5.524  1.00  0.00     0.293 HD
ENDBRANCH   2  11
BRANCH   5  13
ATOM     13  O   UNL     1       0.454   7.354  -8.573  1.00  0.00    -0.493 OA
ATOM     14  C   UNL     1       0.781   8.336  -9.347  1.00  0.00     0.278 C 
ENDBRANCH   5  13
TORSDOF 4
ENDMDL
MODEL 4
REMARK VINA RESULT:    -4.704      1.939      3.161
REMARK INTER + INTRA:          -5.799
REMARK INTER:                  -5.371
REMARK INTRA:                  -0.428
REMARK UNBOUND:                -0.270
REMARK SMILES COc1cccc(C(=O)O)c1O
REMARK SMILES IDX 7 1 11 2 6 3 5 4 3 5 4 6 8 7 9 8 10 9 12 11 2 13 1 14
REMARK H PARENT 10 10 12 12
ROOT
ATOM      1  C   UNL     1      -1.096   3.842  -7.630  1.00  0.00     0.105 A 
ATOM      2  C   UNL     1      -0.185   3.983  -6.619  1.00  0.00     0.172 A 
ATOM      3  C   UNL     1      -1.334   5.005  -8.504  1.00  0.00     0.020 A 
ATOM      4  C   UNL     1      -0.407   5.997  -8.501  1.00  0.00     0.005 A 
ATOM      5  C   UNL     1       0.949   4.889  -6.735  1.00  0.00     0.161 A 
ATOM      6  C   UNL     1       0.738   5.994  -7.651  1.00  0.00     0.050 A 
ENDROOT
BRANCH   1   7
ATOM      7  C   UNL     1      -1.771   2.489  -7.915  1.00  0.00     0.339 C 
ATOM      8  O   UNL     1      -2.551   2.038  -6.558  1.00  0.00    -0.246 OA
BRANCH   7   9
ATOM      9  O   UNL     1      -1.953   1.843  -8.727  1.00  0.00    -0.478 OA
ATOM     10  H   UNL     1      -2.123   1.235  -9.490  1.00  0.00     0.297 HD
ENDBRANCH   7   9
ENDBRANCH   1   7
BRANCH   2  11
ATOM     11  O   UNL     1      -0.292   3.243  -5.429  1.00  0.00    -0.504 OA
ATOM     12  H   UNL     1      -0.367   2.722  -4.591  1.00  0.00     0.293 HD
ENDBRANCH   2  11
BRANCH   5  13
ATOM     13  O   UNL     1       1.904   4.795  -5.730  1.00  0.00    -0.493 OA
ATOM     14  C   UNL     1       2.568   5.099  -4.664  1.00  0.00     0.278 C 
ENDBRANCH   5  13
TORSDOF 4
ENDMDL
MODEL 5
REMARK VINA RESULT:    -4.686      2.964      4.479
REMARK INTER + INTRA:          -5.779
REMARK INTER:                  -5.366
REMARK INTRA:                  -0.412
REMARK UNBOUND:                -0.270
REMARK SMILES COc1cccc(C(=O)O)c1O
REMARK SMILES IDX 7 1 11 2 6 3 5 4 3 5 4 6 8 7 9 8 10 9 12 11 2 13 1 14
REMARK H PARENT 10 10 12 12
ROOT
ATOM      1  C   UNL     1       1.750   4.783  -6.204  1.00  0.00     0.105 A 
ATOM      2  C   UNL     1       0.742   3.904  -6.490  1.00  0.00     0.172 A 
ATOM      3  C   UNL     1       2.249   5.633  -7.301  1.00  0.00     0.020 A 
ATOM      4  C   UNL     1       1.464   5.767  -8.401  1.00  0.00     0.005 A 
ATOM      5  C   UNL     1      -0.241   4.182  -7.528  1.00  0.00     0.161 A 
ATOM      6  C   UNL     1       0.229   5.076  -8.569  1.00  0.00     0.050 A 
ENDROOT
BRANCH   1   7
ATOM      7  C   UNL     1       2.276   4.958  -4.768  1.00  0.00     0.339 C 
ATOM      8  O   UNL     1       2.897   3.527  -4.300  1.00  0.00    -0.246 OA
BRANCH   7   9
ATOM      9  O   UNL     1       2.436   5.725  -4.065  1.00  0.00    -0.478 OA
ATOM     10  H   UNL     1       2.587   6.446  -3.403  1.00  0.00     0.297 HD
ENDBRANCH   7   9
ENDBRANCH   1   7
BRANCH   2  11
ATOM     11  O   UNL     1       0.597   2.701  -5.779  1.00  0.00    -0.504 OA
ATOM     12  H   UNL     1       0.495   1.853  -5.279  1.00  0.00     0.293 HD
ENDBRANCH   2  11
BRANCH   5  13
ATOM     13  O   UNL     1      -1.322   3.311  -7.586  1.00  0.00    -0.493 OA
ATOM     14  C   UNL     1      -2.106   2.388  -8.038  1.00  0.00     0.278 C 
ENDBRANCH   5  13
TORSDOF 4
ENDMDL
MODEL 6
REMARK VINA RESULT:    -4.297      1.034      1.427
REMARK INTER + INTRA:          -5.321
REMARK INTER:                  -4.856
REMARK INTRA:                  -0.465
REMARK UNBOUND:                -0.270
REMARK SMILES COc1cccc(C(=O)O)c1O
REMARK SMILES IDX 7 1 11 2 6 3 5 4 3 5 4 6 8 7 9 8 10 9 12 11 2 13 1 14
REMARK H PARENT 10 10 12 12
ROOT
ATOM      1  C   UNL     1      -0.310   3.486  -7.133  1.00  0.00     0.105 A 
ATOM      2  C   UNL     1       0.090   4.320  -8.140  1.00  0.00     0.172 A 
ATOM      3  C   UNL     1       0.471   3.499  -5.883  1.00  0.00     0.020 A 
ATOM      4  C   UNL     1       1.287   4.561  -5.659  1.00  0.00     0.005 A 
ATOM      5  C   UNL     1       0.759   5.584  -7.864  1.00  0.00     0.161 A 
ATOM      6  C   UNL     1       1.469   5.618  -6.599  1.00  0.00     0.050 A 
ENDROOT
BRANCH   1   7
ATOM      7  C   UNL     1      -1.590   2.641  -7.255  1.00  0.00     0.339 C 
ATOM      8  O   UNL     1      -1.598   1.980  -8.745  1.00  0.00    -0.246 OA
BRANCH   7   9
ATOM      9  O   UNL     1      -2.381   2.298  -6.650  1.00  0.00    -0.478 OA
ATOM     10  H   UNL     1      -3.124   1.976  -6.081  1.00  0.00     0.297 HD
ENDBRANCH   7   9
ENDBRANCH   1   7
BRANCH   2  11
ATOM     11  O   UNL     1      -0.146   4.005  -9.489  1.00  0.00    -0.504 OA
ATOM     12  H   UNL     1      -0.313   3.783 -10.440  1.00  0.00     0.293 HD
ENDBRANCH   2  11
BRANCH   5  13
ATOM     13  O   UNL     1       0.935   6.426  -8.954  1.00  0.00    -0.493 OA
ATOM     14  C   UNL     1       1.004   7.524  -9.634  1.00  0.00     0.278 C 
ENDBRANCH   5  13
TORSDOF 4
ENDMDL
MODEL 7
REMARK VINA RESULT:    -4.183      2.256      3.819
REMARK INTER + INTRA:          -5.188
REMARK INTER:                  -4.891
REMARK INTRA:                  -0.296
REMARK UNBOUND:                -0.270
REMARK SMILES COc1cccc(C(=O)O)c1O
REMARK SMILES IDX 7 1 11 2 6 3 5 4 3 5 4 6 8 7 9 8 10 9 12 11 2 13 1 14
REMARK H PARENT 10 10 12 12
ROOT
ATOM      1  C   UNL     1       0.051   3.708  -8.989  1.00  0.00     0.105 A 
ATOM      2  C   UNL     1       1.014   4.021  -8.070  1.00  0.00     0.172 A 
ATOM      3  C   UNL     1      -1.149   2.998  -8.508  1.00  0.00     0.020 A 
ATOM      4  C   UNL     1      -1.403   3.021  -7.174  1.00  0.00     0.005 A 
ATOM      5  C   UNL     1       0.684   4.278  -6.675  1.00  0.00     0.161 A 
ATOM      6  C   UNL     1      -0.536   3.635  -6.223  1.00  0.00     0.050 A 
ENDROOT
BRANCH   1   7
ATOM      7  C   UNL     1       0.160   4.171 -10.452  1.00  0.00     0.339 C 
ATOM      8  O   UNL     1       0.629   5.731 -10.435  1.00  0.00    -0.246 OA
BRANCH   7   9
ATOM      9  O   UNL     1       0.120   3.765 -11.423  1.00  0.00    -0.478 OA
ATOM     10  H   UNL     1       0.081   3.382 -12.335  1.00  0.00     0.297 HD
ENDBRANCH   7   9
ENDBRANCH   1   7
BRANCH   2  11
ATOM     11  O   UNL     1       2.366   4.129  -8.435  1.00  0.00    -0.504 OA
ATOM     12  H   UNL     1       3.319   4.206  -8.692  1.00  0.00     0.293 HD
ENDBRANCH   2  11
BRANCH   5  13
ATOM     13  O   UNL     1       1.716   4.776  -5.890  1.00  0.00    -0.493 OA
ATOM     14  C   UNL     1       2.326   5.235  -4.848  1.00  0.00     0.278 C 
ENDBRANCH   5  13
TORSDOF 4
ENDMDL
MODEL 8
REMARK VINA RESULT:    -4.183      2.339      4.710
REMARK INTER + INTRA:          -5.187
REMARK INTER:                  -4.889
REMARK INTRA:                  -0.298
REMARK UNBOUND:                -0.270
REMARK SMILES COc1cccc(C(=O)O)c1O
REMARK SMILES IDX 7 1 11 2 6 3 5 4 3 5 4 6 8 7 9 8 10 9 12 11 2 13 1 14
REMARK H PARENT 10 10 12 12
ROOT
ATOM      1  C   UNL     1       0.712   6.299  -6.048  1.00  0.00     0.105 A 
ATOM      2  C   UNL     1      -0.303   5.479  -6.459  1.00  0.00     0.172 A 
ATOM      3  C   UNL     1       1.809   5.693  -5.272  1.00  0.00     0.020 A 
ATOM      4  C   UNL     1       1.946   4.343  -5.322  1.00  0.00     0.005 A 
ATOM      5  C   UNL     1      -0.079   4.068  -6.739  1.00  0.00     0.161 A 
ATOM      6  C   UNL     1       1.046   3.491  -6.027  1.00  0.00     0.050 A 
ENDROOT
BRANCH   1   7
ATOM      7  C   UNL     1       0.765   7.778  -6.468  1.00  0.00     0.339 C 
ATOM      8  O   UNL     1       0.412   7.847  -8.057  1.00  0.00    -0.246 OA
BRANCH   7   9
ATOM      9  O   UNL     1       0.862   8.730  -6.028  1.00  0.00    -0.478 OA
ATOM     10  H   UNL     1       0.953   9.624  -5.613  1.00  0.00     0.297 HD
ENDBRANCH   7   9
ENDBRANCH   1   7
BRANCH   2  11
ATOM     11  O   UNL     1      -1.607   5.968  -6.650  1.00  0.00    -0.504 OA
ATOM     12  H   UNL     1      -2.525   6.312  -6.785  1.00  0.00     0.293 HD
ENDBRANCH   2  11
BRANCH   5  13
ATOM     13  O   UNL     1      -1.137   3.394  -7.335  1.00  0.00    -0.493 OA
ATOM     14  C   UNL     1      -1.774   2.657  -8.184  1.00  0.00     0.278 C 
ENDBRANCH   5  13
TORSDOF 4
ENDMDL
MODEL 9
REMARK VINA RESULT:    -4.115      2.464      3.509
REMARK INTER + INTRA:          -5.108
REMARK INTER:                  -4.683
REMARK INTRA:                  -0.424
REMARK UNBOUND:                -0.270
REMARK SMILES COc1cccc(C(=O)O)c1O
REMARK SMILES IDX 7 1 11 2 6 3 5 4 3 5 4 6 8 7 9 8 10 9 12 11 2 13 1 14
REMARK H PARENT 10 10 12 12
ROOT
ATOM      1  C   UNL     1       0.624   4.163  -6.595  1.00  0.00     0.105 A 
ATOM      2  C   UNL     1       0.713   4.573  -7.897  1.00  0.00     0.172 A 
ATOM      3  C   UNL     1      -0.595   3.439  -6.188  1.00  0.00     0.020 A 
ATOM      4  C   UNL     1      -1.369   2.907  -7.168  1.00  0.00     0.005 A 
ATOM      5  C   UNL     1       0.062   3.842  -8.974  1.00  0.00     0.161 A 
ATOM      6  C   UNL     1      -1.096   3.073  -8.558  1.00  0.00     0.050 A 
ENDROOT
BRANCH   1   7
ATOM      7  C   UNL     1       1.794   4.353  -5.614  1.00  0.00     0.339 C 
ATOM      8  O   UNL     1       2.082   5.952  -5.503  1.00  0.00    -0.246 OA
BRANCH   7   9
ATOM      9  O   UNL     1       2.375   3.783  -4.945  1.00  0.00    -0.478 OA
ATOM     10  H   UNL     1       2.921   3.248  -4.316  1.00  0.00     0.297 HD
ENDBRANCH   7   9
ENDBRANCH   1   7
BRANCH   2  11
ATOM     11  O   UNL     1       1.457   5.710  -8.256  1.00  0.00    -0.504 OA
ATOM     12  H   UNL     1       1.981   6.511  -8.509  1.00  0.00     0.293 HD
ENDBRANCH   2  11
BRANCH   5  13
ATOM     13  O   UNL     1       0.390   4.243 -10.263  1.00  0.00    -0.493 OA
ATOM     14  C   UNL     1       0.253   4.477 -11.527  1.00  0.00     0.278 C 
ENDBRANCH   5  13
TORSDOF 4
ENDMDL
