MODEL 1
REMARK VINA RESULT:    -5.189      0.000      0.000
REMARK INTER + INTRA:          -6.577
REMARK INTER:                  -6.099
REMARK INTRA:                  -0.478
REMARK UNBOUND:                -0.478
REMARK SMILES COc1cccc(C(=O)O)c1O
REMARK SMILES IDX 7 1 11 2 6 3 5 4 3 5 4 6 8 7 9 8 10 9 12 11 2 13 1 14
REMARK H PARENT 10 10 12 12
ROOT
ATOM      1  C   UNL     1       4.694   3.901   2.158  1.00  0.00     0.105 A 
ATOM      2  C   UNL     1       3.709   4.811   1.891  1.00  0.00     0.172 A 
ATOM      3  C   UNL     1       5.361   3.980   3.470  1.00  0.00     0.020 A 
ATOM      4  C   UNL     1       4.739   4.679   4.454  1.00  0.00     0.005 A 
ATOM      5  C   UNL     1       2.884   5.376   2.950  1.00  0.00     0.161 A 
ATOM      6  C   UNL     1       3.517   5.388   4.256  1.00  0.00     0.050 A 
ENDROOT
BRANCH   1   7
ATOM      7  C   UNL     1       5.025   2.767   1.171  1.00  0.00     0.339 C 
ATOM      8  O   UNL     1       3.822   2.711   0.074  1.00  0.00    -0.246 OA
BRANCH   7   9
ATOM      9  O   UNL     1       5.816   2.110   0.947  1.00  0.00    -0.478 OA
ATOM     10  H   UNL     1       6.561   1.492   0.737  1.00  0.00     0.297 HD
ENDBRANCH   7   9
ENDBRANCH   1   7
BRANCH   2  11
ATOM     11  O   UNL     1       3.433   5.227   0.577  1.00  0.00    -0.504 OA
ATOM     12  H   UNL     1       3.238   5.520  -0.348  1.00  0.00     0.293 HD
ENDBRANCH   2  11
BRANCH   5  13
ATOM     13  O   UNL     1       1.796   6.132   2.532  1.00  0.00    -0.493 OA
ATOM     14  C   UNL     1       0.753   6.890   2.608  1.00  0.00     0.278 C 
ENDBRANCH   5  13
TORSDOF 4
ENDMDL
MODEL 2
REMARK VINA RESULT:    -5.174      1.767      4.703
REMARK INTER + INTRA:          -6.560
REMARK INTER:                  -6.082
REMARK INTRA:                  -0.478
REMARK UNBOUND:                -0.478
REMARK SMILES COc1cccc(C(=O)O)c1O
REMARK SMILES IDX 7 1 11 2 6 3 5 4 3 5 4 6 8 7 9 8 10 9 12 11 2 13 1 14
REMARK H PARENT 10 10 12 12
ROOT
ATOM      1  C   UNL     1       2.159   6.594   2.472  1.00  0.00     0.105 A 
ATOM      2  C   UNL     1       2.839   5.412   2.579  1.00  0.00     0.172 A 
ATOM      3  C   UNL     1       2.882   7.751   1.913  1.00  0.00     0.020 A 
ATOM      4  C   UNL     1       4.018   7.505   1.212  1.00  0.00     0.005 A 
ATOM      5  C   UNL     1       3.910   5.061   1.656  1.00  0.00     0.161 A 
ATOM      6  C   UNL     1       4.573   6.202   1.052  1.00  0.00     0.050 A 
ENDROOT
BRANCH   1   7
ATOM      7  C   UNL     1       0.664   6.691   2.822  1.00  0.00     0.339 C 
ATOM      8  O   UNL     1       0.095   5.170   2.958  1.00  0.00    -0.246 OA
BRANCH   7   9
ATOM      9  O   UNL     1      -0.048   7.420   3.087  1.00  0.00    -0.478 OA
ATOM     10  H   UNL     1      -0.717   8.107   3.336  1.00  0.00     0.297 HD
ENDBRANCH   7   9
ENDBRANCH   1   7
BRANCH   2  11
ATOM     11  O   UNL     1       2.520   4.471   3.573  1.00  0.00    -0.504 OA
ATOM     12  H   UNL     1       2.295   3.808   4.273  1.00  0.00     0.293 HD
ENDBRANCH   2  11
BRANCH   5  13
ATOM     13  O   UNL     1       4.384   3.759   1.746  1.00  0.00    -0.493 OA
ATOM     14  C   UNL     1       5.069   2.701   1.460  1.00  0.00     0.278 C 
ENDBRANCH   5  13
TORSDOF 4
ENDMDL
MODEL 3
REMARK VINA RESULT:    -4.779      2.236      3.247
REMARK INTER + INTRA:          -6.095
REMARK INTER:                  -5.829
REMARK INTRA:                  -0.266
REMARK UNBOUND:                -0.478
REMARK SMILES COc1cccc(C(=O)O)c1O
REMARK SMILES IDX 7 1 11 2 6 3 5 4 3 5 4 6 8 7 9 8 10 9 12 11 2 13 1 14
REMARK H PARENT 10 10 12 12
ROOT
ATOM      1  C   UNL     1       4.481   4.101   1.962  1.00  0.00     0.105 A 
ATOM      2  C   UNL     1       5.192   4.698   2.967  1.00  0.00     0.172 A 
ATOM      3  C   UNL     1       3.367   4.862   1.367  1.00  0.00     0.020 A 
ATOM      4  C   UNL     1       3.338   6.204   1.574  1.00  0.00     0.005 A 
ATOM      5  C   UNL     1       5.349   6.144   3.036  1.00  0.00     0.161 A 
ATOM      6  C   UNL     1       4.287   6.890   2.387  1.00  0.00     0.050 A 
ENDROOT
BRANCH   1   7
ATOM      7  C   UNL     1       4.891   2.730   1.398  1.00  0.00     0.339 C 
ATOM      8  O   UNL     1       4.088   2.521  -0.005  1.00  0.00    -0.246 OA
BRANCH   7   9
ATOM      9  O   UNL     1       5.583   1.961   1.593  1.00  0.00    -0.478 OA
ATOM     10  H   UNL     1       6.235   1.238   1.776  1.00  0.00     0.297 HD
ENDBRANCH   7   9
ENDBRANCH   1   7
BRANCH   2  11
ATOM     11  O   UNL     1       5.822   3.939   3.968  1.00  0.00    -0.504 OA
ATOM     12  H   UNL     1       6.267   3.405   4.673  1.00  0.00     0.293 HD
ENDBRANCH   2  11
BRANCH   5  13
ATOM     13  O   UNL     1       6.252   6.610   3.983  1.00  0.00    -0.493 OA
ATOM     14  C   UNL     1       7.310   7.171   4.469  1.00  0.00     0.278 C 
ENDBRANCH   5  13
TORSDOF 4
ENDMDL
MODEL 4
REMARK VINA RESULT:    -4.754      3.031      4.411
REMARK INTER + INTRA:          -6.066
REMARK INTER:                  -5.802
REMARK INTRA:                  -0.264
REMARK UNBOUND:                -0.478
REMARK SMILES COc1cccc(C(=O)O)c1O
REMARK SMILES IDX 7 1 11 2 6 3 5 4 3 5 4 6 8 7 9 8 10 9 12 11 2 13 1 14
REMARK H PARENT 10 10 12 12
ROOT
ATOM      1  C   UNL     1       2.237   6.293   2.609  1.00  0.00     0.105 A 
ATOM      2  C   UNL     1       3.236   7.225   2.544  1.00  0.00     0.172 A 
ATOM      3  C   UNL     1       2.628   4.885   2.807  1.00  0.00     0.020 A 
ATOM      4  C   UNL     1       3.880   4.637   3.272  1.00  0.00     0.005 A 
ATOM      5  C   UNL     1       4.495   7.046   3.253  1.00  0.00     0.161 A 
ATOM      6  C   UNL     1       4.843   5.661   3.509  1.00  0.00     0.050 A 
ENDROOT
BRANCH   1   7
ATOM      7  C   UNL     1       0.755   6.704   2.585  1.00  0.00     0.339 C 
ATOM      8  O   UNL     1      -0.116   5.416   3.068  1.00  0.00    -0.246 OA
BRANCH   7   9
ATOM      9  O   UNL     1       0.170   7.569   2.448  1.00  0.00    -0.478 OA
ATOM     10  H   UNL     1      -0.381   8.382   2.319  1.00  0.00     0.297 HD
ENDBRANCH   7   9
ENDBRANCH   1   7
BRANCH   2  11
ATOM     11  O   UNL     1       3.083   8.411   1.806  1.00  0.00    -0.504 OA
ATOM     12  H   UNL     1       2.975   9.246   1.286  1.00  0.00     0.293 HD
ENDBRANCH   2  11
BRANCH   5  13
ATOM     13  O   UNL     1       5.343   8.146   3.268  1.00  0.00    -0.493 OA
ATOM     14  C   UNL     1       6.284   8.940   3.662  1.00  0.00     0.278 C 
ENDBRANCH   5  13
TORSDOF 4
ENDMDL
MODEL 5
REMARK VINA RESULT:    -4.476      1.369      1.437
REMARK INTER + INTRA:          -5.739
REMARK INTER:                  -5.308
REMARK INTRA:                  -0.431
REMARK UNBOUND:                -0.478
REMARK SMILES COc1cccc(C(=O)O)c1O
REMARK SMILES IDX 7 1 11 2 6 3 5 4 3 5 4 6 8 7 9 8 10 9 12 11 2 13 1 14
REMARK H PARENT 10 10 12 12
ROOT
ATOM      1  C   UNL     1       4.560   4.305   1.417  1.00  0.00     0.105 A 
ATOM      2  C   UNL     1       3.281   4.760   1.584  1.00  0.00     0.172 A 
ATOM      3  C   UNL     1       5.656   5.284   1.540  1.00  0.00     0.020 A 
ATOM      4  C   UNL     1       5.383   6.462   2.158  1.00  0.00     0.005 A 
ATOM      5  C   UNL     1       2.980   5.891   2.450  1.00  0.00     0.161 A 
ATOM      6  C   UNL     1       4.083   6.816   2.627  1.00  0.00     0.050 A 
ENDROOT
BRANCH   1   7
ATOM      7  C   UNL     1       4.858   2.809   1.214  1.00  0.00     0.339 C 
ATOM      8  O   UNL     1       4.068   2.334  -0.130  1.00  0.00    -0.246 OA
BRANCH   7   9
ATOM      9  O   UNL     1       5.475   2.056   1.615  1.00  0.00    -0.478 OA
ATOM     10  H   UNL     1       6.056   1.349   1.993  1.00  0.00     0.297 HD
ENDBRANCH   7   9
ENDBRANCH   1   7
BRANCH   2  11
ATOM     11  O   UNL     1       2.195   4.140   0.943  1.00  0.00    -0.504 OA
ATOM     12  H   UNL     1       1.429   3.704   0.491  1.00  0.00     0.293 HD
ENDBRANCH   2  11
BRANCH   5  13
ATOM     13  O   UNL     1       1.632   6.128   2.689  1.00  0.00    -0.493 OA
ATOM     14  C   UNL     1       0.526   6.784   2.817  1.00  0.00     0.278 C 
ENDBRANCH   5  13
TORSDOF 4
ENDMDL
MODEL 6
REMARK VINA RESULT:    -4.079      2.174      3.091
REMARK INTER + INTRA:          -5.273
REMARK INTER:                  -4.925
REMARK INTRA:                  -0.349
REMARK UNBOUND:                -0.478
REMARK SMILES COc1cccc(C(=O)O)c1O
REMARK SMILES IDX 7 1 11 2 6 3 5 4 3 5 4 6 8 7 9 8 10 9 12 11 2 13 1 14
REMARK H PARENT 10 10 12 12
ROOT
ATOM      1  C   UNL     1       5.047   4.156   3.231  1.00  0.00     0.105 A 
ATOM      2  C   UNL     1       3.923   4.913   3.416  1.00  0.00     0.172 A 
ATOM      3  C   UNL     1       5.076   3.248   2.070  1.00  0.00     0.020 A 
ATOM      4  C   UNL     1       4.182   3.471   1.072  1.00  0.00     0.005 A 
ATOM      5  C   UNL     1       3.100   5.346   2.295  1.00  0.00     0.161 A 
ATOM      6  C   UNL     1       3.186   4.489   1.128  1.00  0.00     0.050 A 
ENDROOT
BRANCH   1   7
ATOM      7  C   UNL     1       6.280   4.321   4.136  1.00  0.00     0.339 C 
ATOM      8  O   UNL     1       6.473   5.915   4.411  1.00  0.00    -0.246 OA
BRANCH   7   9
ATOM      9  O   UNL     1       6.950   3.724   4.688  1.00  0.00    -0.478 OA
ATOM     10  H   UNL     1       7.580   3.164   5.207  1.00  0.00     0.297 HD
ENDBRANCH   7   9
ENDBRANCH   1   7
BRANCH   2  11
ATOM     11  O   UNL     1       3.521   5.326   4.698  1.00  0.00    -0.504 OA
ATOM     12  H   UNL     1       3.239   5.617   5.601  1.00  0.00     0.293 HD
ENDBRANCH   2  11
BRANCH   5  13
ATOM     13  O   UNL     1       2.106   6.268   2.594  1.00  0.00    -0.493 OA
ATOM     14  C   UNL     1       0.920   6.748   2.781  1.00  0.00     0.278 C 
ENDBRANCH   5  13
TORSDOF 4
ENDMDL
MODEL 7
REMARK VINA RESULT:    -4.069      2.255      4.672
REMARK INTER + INTRA:          -5.260
REMARK INTER:                  -4.901
REMARK INTRA:                  -0.359
REMARK UNBOUND:                -0.478
REMARK SMILES COc1cccc(C(=O)O)c1O
REMARK SMILES IDX 7 1 11 2 6 3 5 4 3 5 4 6 8 7 9 8 10 9 12 11 2 13 1 14
REMARK H PARENT 10 10 12 12
ROOT
ATOM      1  C   UNL     1       2.915   7.312   2.007  1.00  0.00     0.105 A 
ATOM      2  C   UNL     1       3.692   6.243   1.655  1.00  0.00     0.172 A 
ATOM      3  C   UNL     1       1.523   7.041   2.411  1.00  0.00     0.020 A 
ATOM      4  C   UNL     1       1.204   5.769   2.764  1.00  0.00     0.005 A 
ATOM      5  C   UNL     1       3.482   4.923   2.232  1.00  0.00     0.161 A 
ATOM      6  C   UNL     1       2.127   4.684   2.695  1.00  0.00     0.050 A 
ENDROOT
BRANCH   1   7
ATOM      7  C   UNL     1       3.496   8.735   2.081  1.00  0.00     0.339 C 
ATOM      8  O   UNL     1       4.993   8.617   2.712  1.00  0.00    -0.246 OA
BRANCH   7   9
ATOM      9  O   UNL     1       3.259   9.711   1.766  1.00  0.00    -0.478 OA
ATOM     10  H   UNL     1       3.036  10.629   1.469  1.00  0.00     0.297 HD
ENDBRANCH   7   9
ENDBRANCH   1   7
BRANCH   2  11
ATOM     11  O   UNL     1       4.747   6.377   0.735  1.00  0.00    -0.504 OA
ATOM     12  H   UNL     1       5.489   6.470   0.087  1.00  0.00     0.293 HD
ENDBRANCH   2  11
BRANCH   5  13
ATOM     13  O   UNL     1       4.456   3.975   1.946  1.00  0.00    -0.493 OA
ATOM     14  C   UNL     1       5.025   2.961   1.382  1.00  0.00     0.278 C 
ENDBRANCH   5  13
TORSDOF 4
ENDMDL
MODEL 8
REMARK VINA RESULT:    -4.057      1.962      2.909
REMARK INTER + INTRA:          -5.246
REMARK INTER:                  -4.780
REMARK INTRA:                  -0.467
REMARK UNBOUND:                -0.478
REMARK SMILES COc1cccc(C(=O)O)c1O
REMARK SMILES IDX 7 1 11 2 6 3 5 4 3 5 4 6 8 7 9 8 10 9 12 11 2 13 1 14
REMARK H PARENT 10 10 12 12
ROOT
ATOM      1  C   UNL     1       3.630   4.070   2.007  1.00  0.00     0.105 A 
ATOM      2  C   UNL     1       4.409   4.806   2.856  1.00  0.00     0.172 A 
ATOM      3  C   UNL     1       2.188   4.376   1.963  1.00  0.00     0.020 A 
ATOM      4  C   UNL     1       1.781   5.571   2.464  1.00  0.00     0.005 A 
ATOM      5  C   UNL     1       4.078   6.183   3.197  1.00  0.00     0.161 A 
ATOM      6  C   UNL     1       2.666   6.501   3.084  1.00  0.00     0.050 A 
ENDROOT
BRANCH   1   7
ATOM      7  C   UNL     1       4.246   3.032   1.053  1.00  0.00     0.339 C 
ATOM      8  O   UNL     1       5.342   2.179   1.903  1.00  0.00    -0.246 OA
BRANCH   7   9
ATOM      9  O   UNL     1       4.102   2.660   0.078  1.00  0.00    -0.478 OA
ATOM     10  H   UNL     1       3.967   2.311  -0.839  1.00  0.00     0.297 HD
ENDBRANCH   7   9
ENDBRANCH   1   7
BRANCH   2  11
ATOM     11  O   UNL     1       5.579   4.273   3.423  1.00  0.00    -0.504 OA
ATOM     12  H   UNL     1       6.403   3.897   3.822  1.00  0.00     0.293 HD
ENDBRANCH   2  11
BRANCH   5  13
ATOM     13  O   UNL     1       5.047   6.881   3.906  1.00  0.00    -0.493 OA
ATOM     14  C   UNL     1       5.949   7.770   4.162  1.00  0.00     0.278 C 
ENDBRANCH   5  13
TORSDOF 4
ENDMDL
MODEL 9
REMARK VINA RESULT:    -3.861      1.334      4.303
REMARK INTER + INTRA:          -5.016
REMARK INTER:                  -4.832
REMARK INTRA:                  -0.184
REMARK UNBOUND:                -0.478
REMARK SMILES COc1cccc(C(=O)O)c1O
REMARK SMILES IDX 7 1 11 2 6 3 5 4 3 5 4 6 8 7 9 8 10 9 12 11 2 13 1 14
REMARK H PARENT 10 10 12 12
ROOT
ATOM      1  C   UNL     1       2.079   5.985   3.032  1.00  0.00     0.105 A 
ATOM      2  C   UNL     1       2.528   4.903   2.326  1.00  0.00     0.172 A 
ATOM      3  C   UNL     1       2.629   6.195   4.384  1.00  0.00     0.020 A 
ATOM      4  C   UNL     1       3.780   5.550   4.705  1.00  0.00     0.005 A 
ATOM      5  C   UNL     1       3.868   4.368   2.518  1.00  0.00     0.161 A 
ATOM      6  C   UNL     1       4.436   4.638   3.826  1.00  0.00     0.050 A 
ENDROOT
BRANCH   1   7
ATOM      7  C   UNL     1       1.117   7.007   2.404  1.00  0.00     0.339 C 
ATOM      8  O   UNL     1       2.006   8.291   1.939  1.00  0.00    -0.246 OA
BRANCH   7   9
ATOM      9  O   UNL     1       0.109   7.077   2.108  1.00  0.00    -0.478 OA
ATOM     10  H   UNL     1      -0.839   7.143   1.829  1.00  0.00     0.297 HD
ENDBRANCH   7   9
ENDBRANCH   1   7
BRANCH   2  11
ATOM     11  O   UNL     1       1.720   4.270   1.366  1.00  0.00    -0.504 OA
ATOM     12  H   UNL     1       1.152   3.824   0.689  1.00  0.00     0.293 HD
ENDBRANCH   2  11
BRANCH   5  13
ATOM     13  O   UNL     1       4.270   3.400   1.607  1.00  0.00    -0.493 OA
ATOM     14  C   UNL     1       5.034   2.542   1.015  1.00  0.00     0.278 C 
ENDBRANCH   5  13
TORSDOF 4
ENDMDL
