MODEL 1
REMARK VINA RESULT:    -4.828      0.000      0.000
REMARK INTER + INTRA:          -6.161
REMARK INTER:                  -5.674
REMARK INTRA:                  -0.486
REMARK UNBOUND:                -0.486
REMARK SMILES COc1cccc(C(=O)O)c1O
REMARK SMILES IDX 7 1 11 2 6 3 5 4 3 5 4 6 8 7 9 8 10 9 12 11 2 13 1 14
REMARK H PARENT 10 10 12 12
ROOT
ATOM      1  C   UNL     1       5.257   5.938  -0.897  1.00  0.00     0.105 A 
ATOM      2  C   UNL     1       4.122   5.941  -1.660  1.00  0.00     0.172 A 
ATOM      3  C   UNL     1       5.597   7.177  -0.173  1.00  0.00     0.020 A 
ATOM      4  C   UNL     1       4.614   8.099  -0.003  1.00  0.00     0.005 A 
ATOM      5  C   UNL     1       2.975   6.770  -1.320  1.00  0.00     0.161 A 
ATOM      6  C   UNL     1       3.303   7.953  -0.546  1.00  0.00     0.050 A 
ENDROOT
BRANCH   1   7
ATOM      7  C   UNL     1       6.094   4.661  -0.712  1.00  0.00     0.339 C 
ATOM      8  O   UNL     1       5.197   3.409  -1.243  1.00  0.00    -0.246 OA
BRANCH   7   9
ATOM      9  O   UNL     1       7.074   4.381  -0.447  1.00  0.00    -0.478 OA
ATOM     10  H   UNL     1       7.996   4.117  -0.198  1.00  0.00     0.297 HD
ENDBRANCH   7   9
ENDBRANCH   1   7
BRANCH   2  11
ATOM     11  O   UNL     1       4.003   5.124  -2.797  1.00  0.00    -0.504 OA
ATOM     12  H   UNL     1       3.919   4.548  -3.599  1.00  0.00     0.293 HD
ENDBRANCH   2  11
BRANCH   5  13
ATOM     13  O   UNL     1       1.819   6.536  -2.053  1.00  0.00    -0.493 OA
ATOM     14  C   UNL     1       0.747   6.786  -2.731  1.00  0.00     0.278 C 
ENDBRANCH   5  13
TORSDOF 4
ENDMDL
MODEL 2
REMARK VINA RESULT:    -4.819      1.741      4.669
REMARK INTER + INTRA:          -6.150
REMARK INTER:                  -5.665
REMARK INTRA:                  -0.486
REMARK UNBOUND:                -0.486
REMARK SMILES COc1cccc(C(=O)O)c1O
REMARK SMILES IDX 7 1 11 2 6 3 5 4 3 5 4 6 8 7 9 8 10 9 12 11 2 13 1 14
REMARK H PARENT 10 10 12 12
ROOT
ATOM      1  C   UNL     1       2.358   6.905  -2.704  1.00  0.00     0.105 A 
ATOM      2  C   UNL     1       3.219   6.356  -1.794  1.00  0.00     0.172 A 
ATOM      3  C   UNL     1       2.936   7.472  -3.937  1.00  0.00     0.020 A 
ATOM      4  C   UNL     1       4.200   7.102  -4.269  1.00  0.00     0.005 A 
ATOM      5  C   UNL     1       4.475   5.745  -2.203  1.00  0.00     0.161 A 
ATOM      6  C   UNL     1       5.006   6.254  -3.454  1.00  0.00     0.050 A 
ENDROOT
BRANCH   1   7
ATOM      7  C   UNL     1       0.834   6.841  -2.504  1.00  0.00     0.339 C 
ATOM      8  O   UNL     1       0.543   5.762  -1.318  1.00  0.00    -0.246 OA
BRANCH   7   9
ATOM      9  O   UNL     1      -0.035   7.341  -2.826  1.00  0.00    -0.478 OA
ATOM     10  H   UNL     1      -0.852   7.812  -3.129  1.00  0.00     0.297 HD
ENDBRANCH   7   9
ENDBRANCH   1   7
BRANCH   2  11
ATOM     11  O   UNL     1       2.918   6.339  -0.421  1.00  0.00    -0.504 OA
ATOM     12  H   UNL     1       2.707   6.326   0.546  1.00  0.00     0.293 HD
ENDBRANCH   2  11
BRANCH   5  13
ATOM     13  O   UNL     1       5.162   5.052  -1.214  1.00  0.00    -0.493 OA
ATOM     14  C   UNL     1       6.146   4.671  -0.468  1.00  0.00     0.278 C 
ENDBRANCH   5  13
TORSDOF 4
ENDMDL
MODEL 3
REMARK VINA RESULT:    -4.681      2.262      3.283
REMARK INTER + INTRA:          -5.988
REMARK INTER:                  -5.719
REMARK INTRA:                  -0.269
REMARK UNBOUND:                -0.486
REMARK SMILES COc1cccc(C(=O)O)c1O
REMARK SMILES IDX 7 1 11 2 6 3 5 4 3 5 4 6 8 7 9 8 10 9 12 11 2 13 1 14
REMARK H PARENT 10 10 12 12
ROOT
ATOM      1  C   UNL     1       5.073   5.873  -1.095  1.00  0.00     0.105 A 
ATOM      2  C   UNL     1       5.463   7.177  -0.957  1.00  0.00     0.172 A 
ATOM      3  C   UNL     1       3.905   5.596  -1.950  1.00  0.00     0.020 A 
ATOM      4  C   UNL     1       3.517   6.562  -2.822  1.00  0.00     0.005 A 
ATOM      5  C   UNL     1       5.248   8.154  -2.014  1.00  0.00     0.161 A 
ATOM      6  C   UNL     1       4.141   7.842  -2.899  1.00  0.00     0.050 A 
ENDROOT
BRANCH   1   7
ATOM      7  C   UNL     1       5.884   4.725  -0.470  1.00  0.00     0.339 C 
ATOM      8  O   UNL     1       5.455   3.352  -1.235  1.00  0.00    -0.246 OA
BRANCH   7   9
ATOM      9  O   UNL     1       6.675   4.585   0.211  1.00  0.00    -0.478 OA
ATOM     10  H   UNL     1       7.419   4.454   0.852  1.00  0.00     0.297 HD
ENDBRANCH   7   9
ENDBRANCH   1   7
BRANCH   2  11
ATOM     11  O   UNL     1       6.109   7.628   0.207  1.00  0.00    -0.504 OA
ATOM     12  H   UNL     1       6.564   7.946   1.027  1.00  0.00     0.293 HD
ENDBRANCH   2  11
BRANCH   5  13
ATOM     13  O   UNL     1       5.862   9.387  -1.833  1.00  0.00    -0.493 OA
ATOM     14  C   UNL     1       6.429  10.509  -2.133  1.00  0.00     0.278 C 
ENDBRANCH   5  13
TORSDOF 4
ENDMDL
MODEL 4
REMARK VINA RESULT:    -4.660      2.885      4.412
REMARK INTER + INTRA:          -5.964
REMARK INTER:                  -5.693
REMARK INTRA:                  -0.270
REMARK UNBOUND:                -0.486
REMARK SMILES COc1cccc(C(=O)O)c1O
REMARK SMILES IDX 7 1 11 2 6 3 5 4 3 5 4 6 8 7 9 8 10 9 12 11 2 13 1 14
REMARK H PARENT 10 10 12 12
ROOT
ATOM      1  C   UNL     1       2.437   6.668  -2.472  1.00  0.00     0.105 A 
ATOM      2  C   UNL     1       3.179   7.562  -3.193  1.00  0.00     0.172 A 
ATOM      3  C   UNL     1       3.145   5.826  -1.491  1.00  0.00     0.020 A 
ATOM      4  C   UNL     1       4.383   6.222  -1.096  1.00  0.00     0.005 A 
ATOM      5  C   UNL     1       4.390   8.163  -2.652  1.00  0.00     0.161 A 
ATOM      6  C   UNL     1       5.047   7.364  -1.634  1.00  0.00     0.050 A 
ENDROOT
BRANCH   1   7
ATOM      7  C   UNL     1       0.905   6.613  -2.600  1.00  0.00     0.339 C 
ATOM      8  O   UNL     1       0.333   5.846  -1.281  1.00  0.00    -0.246 OA
BRANCH   7   9
ATOM      9  O   UNL     1       0.141   6.997  -3.214  1.00  0.00    -0.478 OA
ATOM     10  H   UNL     1      -0.578   7.358  -3.792  1.00  0.00     0.297 HD
ENDBRANCH   7   9
ENDBRANCH   1   7
BRANCH   2  11
ATOM     11  O   UNL     1       2.794   7.959  -4.485  1.00  0.00    -0.504 OA
ATOM     12  H   UNL     1       2.522   8.239  -5.395  1.00  0.00     0.293 HD
ENDBRANCH   2  11
BRANCH   5  13
ATOM     13  O   UNL     1       4.940   9.197  -3.399  1.00  0.00    -0.493 OA
ATOM     14  C   UNL     1       5.292  10.397  -3.723  1.00  0.00     0.278 C 
ENDBRANCH   5  13
TORSDOF 4
ENDMDL
MODEL 5
REMARK VINA RESULT:    -4.111      2.033      3.002
REMARK INTER + INTRA:          -5.318
REMARK INTER:                  -4.856
REMARK INTRA:                  -0.462
REMARK UNBOUND:                -0.486
REMARK SMILES COc1cccc(C(=O)O)c1O
REMARK SMILES IDX 7 1 11 2 6 3 5 4 3 5 4 6 8 7 9 8 10 9 12 11 2 13 1 14
REMARK H PARENT 10 10 12 12
ROOT
ATOM      1  C   UNL     1       4.334   5.579  -1.177  1.00  0.00     0.105 A 
ATOM      2  C   UNL     1       4.763   6.878  -1.201  1.00  0.00     0.172 A 
ATOM      3  C   UNL     1       2.917   5.321  -1.491  1.00  0.00     0.020 A 
ATOM      4  C   UNL     1       2.225   6.299  -2.130  1.00  0.00     0.005 A 
ATOM      5  C   UNL     1       4.154   7.867  -2.079  1.00  0.00     0.161 A 
ATOM      6  C   UNL     1       2.781   7.573  -2.445  1.00  0.00     0.050 A 
ENDROOT
BRANCH   1   7
ATOM      7  C   UNL     1       5.314   4.417  -0.935  1.00  0.00     0.339 C 
ATOM      8  O   UNL     1       6.290   4.851   0.295  1.00  0.00    -0.246 OA
BRANCH   7   9
ATOM      9  O   UNL     1       5.468   3.425  -1.252  1.00  0.00    -0.478 OA
ATOM     10  H   UNL     1       5.613   2.492  -1.549  1.00  0.00     0.297 HD
ENDBRANCH   7   9
ENDBRANCH   1   7
BRANCH   2  11
ATOM     11  O   UNL     1       5.828   7.312  -0.393  1.00  0.00    -0.504 OA
ATOM     12  H   UNL     1       6.578   7.618   0.177  1.00  0.00     0.293 HD
ENDBRANCH   2  11
BRANCH   5  13
ATOM     13  O   UNL     1       4.805   9.092  -2.154  1.00  0.00    -0.493 OA
ATOM     14  C   UNL     1       5.392  10.116  -2.678  1.00  0.00     0.278 C 
ENDBRANCH   5  13
TORSDOF 4
ENDMDL
MODEL 6
REMARK VINA RESULT:    -3.988      2.340      4.616
REMARK INTER + INTRA:          -5.173
REMARK INTER:                  -4.871
REMARK INTRA:                  -0.302
REMARK UNBOUND:                -0.486
REMARK SMILES COc1cccc(C(=O)O)c1O
REMARK SMILES IDX 7 1 11 2 6 3 5 4 3 5 4 6 8 7 9 8 10 9 12 11 2 13 1 14
REMARK H PARENT 10 10 12 12
ROOT
ATOM      1  C   UNL     1       2.972   7.215  -3.578  1.00  0.00     0.105 A 
ATOM      2  C   UNL     1       3.959   6.391  -3.110  1.00  0.00     0.172 A 
ATOM      3  C   UNL     1       1.613   7.029  -3.035  1.00  0.00     0.020 A 
ATOM      4  C   UNL     1       1.486   6.335  -1.875  1.00  0.00     0.005 A 
ATOM      5  C   UNL     1       3.921   5.843  -1.762  1.00  0.00     0.161 A 
ATOM      6  C   UNL     1       2.587   5.728  -1.203  1.00  0.00     0.050 A 
ENDROOT
BRANCH   1   7
ATOM      7  C   UNL     1       3.282   8.363  -4.554  1.00  0.00     0.339 C 
ATOM      8  O   UNL     1       4.623   9.113  -4.013  1.00  0.00    -0.246 OA
BRANCH   7   9
ATOM      9  O   UNL     1       2.954   8.729  -5.485  1.00  0.00    -0.478 OA
ATOM     10  H   UNL     1       2.645   9.074  -6.361  1.00  0.00     0.297 HD
ENDBRANCH   7   9
ENDBRANCH   1   7
BRANCH   2  11
ATOM     11  O   UNL     1       5.068   6.055  -3.905  1.00  0.00    -0.504 OA
ATOM     12  H   UNL     1       5.849   5.817  -4.465  1.00  0.00     0.293 HD
ENDBRANCH   2  11
BRANCH   5  13
ATOM     13  O   UNL     1       5.072   5.188  -1.343  1.00  0.00    -0.493 OA
ATOM     14  C   UNL     1       6.081   4.878  -0.597  1.00  0.00     0.278 C 
ENDBRANCH   5  13
TORSDOF 4
ENDMDL
MODEL 7
REMARK VINA RESULT:    -3.976      2.195      3.101
REMARK INTER + INTRA:          -5.159
REMARK INTER:                  -4.822
REMARK INTRA:                  -0.337
REMARK UNBOUND:                -0.486
REMARK SMILES COc1cccc(C(=O)O)c1O
REMARK SMILES IDX 7 1 11 2 6 3 5 4 3 5 4 6 8 7 9 8 10 9 12 11 2 13 1 14
REMARK H PARENT 10 10 12 12
ROOT
ATOM      1  C   UNL     1       5.323   7.030  -0.427  1.00  0.00     0.105 A 
ATOM      2  C   UNL     1       4.032   7.246  -0.825  1.00  0.00     0.172 A 
ATOM      3  C   UNL     1       5.832   5.647  -0.480  1.00  0.00     0.020 A 
ATOM      4  C   UNL     1       5.151   4.752  -1.242  1.00  0.00     0.005 A 
ATOM      5  C   UNL     1       3.392   6.409  -1.830  1.00  0.00     0.161 A 
ATOM      6  C   UNL     1       3.943   5.070  -1.929  1.00  0.00     0.050 A 
ENDROOT
BRANCH   1   7
ATOM      7  C   UNL     1       6.247   8.197  -0.039  1.00  0.00     0.339 C 
ATOM      8  O   UNL     1       5.992   9.396  -1.111  1.00  0.00    -0.246 OA
BRANCH   7   9
ATOM      9  O   UNL     1       6.896   8.475   0.742  1.00  0.00    -0.478 OA
ATOM     10  H   UNL     1       7.507   8.736   1.476  1.00  0.00     0.297 HD
ENDBRANCH   7   9
ENDBRANCH   1   7
BRANCH   2  11
ATOM     11  O   UNL     1       3.270   8.301  -0.295  1.00  0.00    -0.504 OA
ATOM     12  H   UNL     1       2.733   9.045   0.078  1.00  0.00     0.293 HD
ENDBRANCH   2  11
BRANCH   5  13
ATOM     13  O   UNL     1       2.157   6.850  -2.288  1.00  0.00    -0.493 OA
ATOM     14  C   UNL     1       0.916   6.806  -2.646  1.00  0.00     0.278 C 
ENDBRANCH   5  13
TORSDOF 4
ENDMDL
MODEL 8
REMARK VINA RESULT:    -3.956      7.253      7.782
REMARK INTER + INTRA:          -5.136
REMARK INTER:                  -4.876
REMARK INTRA:                  -0.260
REMARK UNBOUND:                -0.486
REMARK SMILES COc1cccc(C(=O)O)c1O
REMARK SMILES IDX 7 1 11 2 6 3 5 4 3 5 4 6 8 7 9 8 10 9 12 11 2 13 1 14
REMARK H PARENT 10 10 12 12
ROOT
ATOM      1  C   UNL     1       0.191   2.521   4.025  1.00  0.00     0.105 A 
ATOM      2  C   UNL     1       0.382   2.045   2.757  1.00  0.00     0.172 A 
ATOM      3  C   UNL     1      -1.147   3.038   4.366  1.00  0.00     0.020 A 
ATOM      4  C   UNL     1      -2.184   2.686   3.562  1.00  0.00     0.005 A 
ATOM      5  C   UNL     1      -0.705   1.447   1.994  1.00  0.00     0.161 A 
ATOM      6  C   UNL     1      -2.026   1.905   2.380  1.00  0.00     0.050 A 
ENDROOT
BRANCH   1   7
ATOM      7  C   UNL     1       1.296   2.426   5.091  1.00  0.00     0.339 C 
ATOM      8  O   UNL     1       2.143   1.066   4.794  1.00  0.00    -0.246 OA
BRANCH   7   9
ATOM      9  O   UNL     1       1.711   3.008   5.864  1.00  0.00    -0.478 OA
ATOM     10  H   UNL     1       2.101   3.556   6.590  1.00  0.00     0.297 HD
ENDBRANCH   7   9
ENDBRANCH   1   7
BRANCH   2  11
ATOM     11  O   UNL     1       1.644   2.091   2.141  1.00  0.00    -0.504 OA
ATOM     12  H   UNL     1       2.533   2.123   1.706  1.00  0.00     0.293 HD
ENDBRANCH   2  11
BRANCH   5  13
ATOM     13  O   UNL     1      -0.340   0.826   0.806  1.00  0.00    -0.493 OA
ATOM     14  C   UNL     1       0.398   0.208  -0.056  1.00  0.00     0.278 C 
ENDBRANCH   5  13
TORSDOF 4
ENDMDL
MODEL 9
REMARK VINA RESULT:    -3.854      2.488      4.250
REMARK INTER + INTRA:          -5.016
REMARK INTER:                  -4.555
REMARK INTRA:                  -0.461
REMARK UNBOUND:                -0.486
REMARK SMILES COc1cccc(C(=O)O)c1O
REMARK SMILES IDX 7 1 11 2 6 3 5 4 3 5 4 6 8 7 9 8 10 9 12 11 2 13 1 14
REMARK H PARENT 10 10 12 12
ROOT
ATOM      1  C   UNL     1       3.061   6.301  -1.824  1.00  0.00     0.105 A 
ATOM      2  C   UNL     1       3.808   7.428  -2.031  1.00  0.00     0.172 A 
ATOM      3  C   UNL     1       3.766   5.086  -1.376  1.00  0.00     0.020 A 
ATOM      4  C   UNL     1       5.009   5.236  -0.850  1.00  0.00     0.005 A 
ATOM      5  C   UNL     1       5.026   7.686  -1.277  1.00  0.00     0.161 A 
ATOM      6  C   UNL     1       5.681   6.492  -0.776  1.00  0.00     0.050 A 
ENDROOT
BRANCH   1   7
ATOM      7  C   UNL     1       1.528   6.323  -1.950  1.00  0.00     0.339 C 
ATOM      8  O   UNL     1       1.163   7.116  -3.325  1.00  0.00    -0.246 OA
BRANCH   7   9
ATOM      9  O   UNL     1       0.683   5.907  -1.480  1.00  0.00    -0.478 OA
ATOM     10  H   UNL     1      -0.112   5.516  -1.037  1.00  0.00     0.297 HD
ENDBRANCH   7   9
ENDBRANCH   1   7
BRANCH   2  11
ATOM     11  O   UNL     1       3.420   8.401  -2.968  1.00  0.00    -0.504 OA
ATOM     12  H   UNL     1       3.147   9.086  -3.629  1.00  0.00     0.293 HD
ENDBRANCH   2  11
BRANCH   5  13
ATOM     13  O   UNL     1       5.582   8.949  -1.437  1.00  0.00    -0.493 OA
ATOM     14  C   UNL     1       6.395   9.868  -1.844  1.00  0.00     0.278 C 
ENDBRANCH   5  13
TORSDOF 4
ENDMDL
