MODEL 1
REMARK VINA RESULT:    -4.861      0.000      0.000
REMARK INTER + INTRA:          -6.199
REMARK INTER:                  -5.713
REMARK INTRA:                  -0.486
REMARK UNBOUND:                -0.486
REMARK SMILES COc1cccc(C(=O)O)c1O
REMARK SMILES IDX 7 1 11 2 6 3 5 4 3 5 4 6 8 7 9 8 10 9 12 11 2 13 1 14
REMARK H PARENT 10 10 12 12
ROOT
ATOM      1  C   UNL     1      -5.508   6.314   1.616  1.00  0.00     0.105 A 
ATOM      2  C   UNL     1      -4.544   6.737   0.743  1.00  0.00     0.172 A 
ATOM      3  C   UNL     1      -6.910   6.636   1.293  1.00  0.00     0.020 A 
ATOM      4  C   UNL     1      -7.198   6.990   0.014  1.00  0.00     0.005 A 
ATOM      5  C   UNL     1      -4.813   6.883  -0.680  1.00  0.00     0.161 A 
ATOM      6  C   UNL     1      -6.207   7.129  -1.001  1.00  0.00     0.050 A 
ENDROOT
BRANCH   1   7
ATOM      7  C   UNL     1      -5.158   5.444   2.835  1.00  0.00     0.339 C 
ATOM      8  O   UNL     1      -3.637   4.900   2.625  1.00  0.00    -0.246 OA
BRANCH   7   9
ATOM      9  O   UNL     1      -5.559   5.188   3.774  1.00  0.00    -0.478 OA
ATOM     10  H   UNL     1      -5.937   4.946   4.657  1.00  0.00     0.297 HD
ENDBRANCH   7   9
ENDBRANCH   1   7
BRANCH   2  11
ATOM     11  O   UNL     1      -3.240   7.029   1.178  1.00  0.00    -0.504 OA
ATOM     12  H   UNL     1      -2.321   7.234   1.485  1.00  0.00     0.293 HD
ENDBRANCH   2  11
BRANCH   5  13
ATOM     13  O   UNL     1      -3.706   7.126  -1.484  1.00  0.00    -0.493 OA
ATOM     14  C   UNL     1      -2.961   7.698  -2.371  1.00  0.00     0.278 C 
ENDBRANCH   5  13
TORSDOF 4
ENDMDL
MODEL 2
REMARK VINA RESULT:    -4.845      1.772      4.681
REMARK INTER + INTRA:          -6.180
REMARK INTER:                  -5.697
REMARK INTRA:                  -0.484
REMARK UNBOUND:                -0.486
REMARK SMILES COc1cccc(C(=O)O)c1O
REMARK SMILES IDX 7 1 11 2 6 3 5 4 3 5 4 6 8 7 9 8 10 9 12 11 2 13 1 14
REMARK H PARENT 10 10 12 12
ROOT
ATOM      1  C   UNL     1      -3.707   7.981  -1.037  1.00  0.00     0.105 A 
ATOM      2  C   UNL     1      -4.450   7.114  -0.285  1.00  0.00     0.172 A 
ATOM      3  C   UNL     1      -3.432   9.315  -0.472  1.00  0.00     0.020 A 
ATOM      4  C   UNL     1      -3.600   9.480   0.866  1.00  0.00     0.005 A 
ATOM      5  C   UNL     1      -4.430   7.156   1.170  1.00  0.00     0.161 A 
ATOM      6  C   UNL     1      -4.089   8.453   1.725  1.00  0.00     0.050 A 
ENDROOT
BRANCH   1   7
ATOM      7  C   UNL     1      -3.088   7.550  -2.379  1.00  0.00     0.339 C 
ATOM      8  O   UNL     1      -3.147   5.923  -2.441  1.00  0.00    -0.246 OA
BRANCH   7   9
ATOM      9  O   UNL     1      -2.743   7.983  -3.274  1.00  0.00    -0.478 OA
ATOM     10  H   UNL     1      -2.418   8.390  -4.116  1.00  0.00     0.297 HD
ENDBRANCH   7   9
ENDBRANCH   1   7
BRANCH   2  11
ATOM     11  O   UNL     1      -5.251   6.127  -0.884  1.00  0.00    -0.504 OA
ATOM     12  H   UNL     1      -5.816   5.432  -1.306  1.00  0.00     0.293 HD
ENDBRANCH   2  11
BRANCH   5  13
ATOM     13  O   UNL     1      -5.067   6.103   1.815  1.00  0.00    -0.493 OA
ATOM     14  C   UNL     1      -5.356   5.255   2.747  1.00  0.00     0.278 C 
ENDBRANCH   5  13
TORSDOF 4
ENDMDL
MODEL 3
REMARK VINA RESULT:    -4.721      2.233      3.249
REMARK INTER + INTRA:          -6.035
REMARK INTER:                  -5.764
REMARK INTRA:                  -0.271
REMARK UNBOUND:                -0.486
REMARK SMILES COc1cccc(C(=O)O)c1O
REMARK SMILES IDX 7 1 11 2 6 3 5 4 3 5 4 6 8 7 9 8 10 9 12 11 2 13 1 14
REMARK H PARENT 10 10 12 12
ROOT
ATOM      1  C   UNL     1      -5.253   6.361   1.457  1.00  0.00     0.105 A 
ATOM      2  C   UNL     1      -6.322   7.195   1.274  1.00  0.00     0.172 A 
ATOM      3  C   UNL     1      -4.051   6.600   0.636  1.00  0.00     0.020 A 
ATOM      4  C   UNL     1      -3.929   7.811   0.034  1.00  0.00     0.005 A 
ATOM      5  C   UNL     1      -6.149   8.577   0.852  1.00  0.00     0.161 A 
ATOM      6  C   UNL     1      -4.929   8.824   0.105  1.00  0.00     0.050 A 
ENDROOT
BRANCH   1   7
ATOM      7  C   UNL     1      -5.259   5.281   2.552  1.00  0.00     0.339 C 
ATOM      8  O   UNL     1      -3.708   4.872   2.842  1.00  0.00    -0.246 OA
BRANCH   7   9
ATOM      9  O   UNL     1      -5.936   4.817   3.212  1.00  0.00    -0.478 OA
ATOM     10  H   UNL     1      -6.572   4.381   3.833  1.00  0.00     0.297 HD
ENDBRANCH   7   9
ENDBRANCH   1   7
BRANCH   2  11
ATOM     11  O   UNL     1      -7.637   6.759   1.507  1.00  0.00    -0.504 OA
ATOM     12  H   UNL     1      -8.564   6.452   1.670  1.00  0.00     0.293 HD
ENDBRANCH   2  11
BRANCH   5  13
ATOM     13  O   UNL     1      -7.288   9.371   0.894  1.00  0.00    -0.493 OA
ATOM     14  C   UNL     1      -8.094  10.307   1.273  1.00  0.00     0.278 C 
ENDBRANCH   5  13
TORSDOF 4
ENDMDL
MODEL 4
REMARK VINA RESULT:    -4.677      2.888      4.404
REMARK INTER + INTRA:          -5.983
REMARK INTER:                  -5.714
REMARK INTRA:                  -0.268
REMARK UNBOUND:                -0.486
REMARK SMILES COc1cccc(C(=O)O)c1O
REMARK SMILES IDX 7 1 11 2 6 3 5 4 3 5 4 6 8 7 9 8 10 9 12 11 2 13 1 14
REMARK H PARENT 10 10 12 12
ROOT
ATOM      1  C   UNL     1      -3.791   7.654  -0.850  1.00  0.00     0.105 A 
ATOM      2  C   UNL     1      -4.213   8.878  -0.408  1.00  0.00     0.172 A 
ATOM      3  C   UNL     1      -4.193   6.470  -0.071  1.00  0.00     0.020 A 
ATOM      4  C   UNL     1      -5.231   6.606   0.795  1.00  0.00     0.005 A 
ATOM      5  C   UNL     1      -5.463   9.036   0.321  1.00  0.00     0.161 A 
ATOM      6  C   UNL     1      -5.894   7.846   1.030  1.00  0.00     0.050 A 
ENDROOT
BRANCH   1   7
ATOM      7  C   UNL     1      -3.014   7.505  -2.170  1.00  0.00     0.339 C 
ATOM      8  O   UNL     1      -3.140   5.949  -2.636  1.00  0.00    -0.246 OA
BRANCH   7   9
ATOM      9  O   UNL     1      -2.528   8.109  -2.882  1.00  0.00    -0.478 OA
ATOM     10  H   UNL     1      -2.071   8.676  -3.553  1.00  0.00     0.297 HD
ENDBRANCH   7   9
ENDBRANCH   1   7
BRANCH   2  11
ATOM     11  O   UNL     1      -3.469  10.043  -0.658  1.00  0.00    -0.504 OA
ATOM     12  H   UNL     1      -2.944  10.864  -0.833  1.00  0.00     0.293 HD
ENDBRANCH   2  11
BRANCH   5  13
ATOM     13  O   UNL     1      -5.875  10.345   0.540  1.00  0.00    -0.493 OA
ATOM     14  C   UNL     1      -6.551  11.438   0.399  1.00  0.00     0.278 C 
ENDBRANCH   5  13
TORSDOF 4
ENDMDL
MODEL 5
REMARK VINA RESULT:    -4.000      2.333      4.587
REMARK INTER + INTRA:          -5.187
REMARK INTER:                  -4.982
REMARK INTRA:                  -0.206
REMARK UNBOUND:                -0.486
REMARK SMILES COc1cccc(C(=O)O)c1O
REMARK SMILES IDX 7 1 11 2 6 3 5 4 3 5 4 6 8 7 9 8 10 9 12 11 2 13 1 14
REMARK H PARENT 10 10 12 12
ROOT
ATOM      1  C   UNL     1      -3.628   8.827  -0.359  1.00  0.00     0.105 A 
ATOM      2  C   UNL     1      -3.809   8.029   0.737  1.00  0.00     0.172 A 
ATOM      3  C   UNL     1      -3.289   8.169  -1.634  1.00  0.00     0.020 A 
ATOM      4  C   UNL     1      -3.532   6.837  -1.742  1.00  0.00     0.005 A 
ATOM      5  C   UNL     1      -4.304   6.665   0.616  1.00  0.00     0.161 A 
ATOM      6  C   UNL     1      -4.031   6.044  -0.667  1.00  0.00     0.050 A 
ENDROOT
BRANCH   1   7
ATOM      7  C   UNL     1      -3.872  10.344  -0.294  1.00  0.00     0.339 C 
ATOM      8  O   UNL     1      -5.404  10.570   0.213  1.00  0.00    -0.246 OA
BRANCH   7   9
ATOM      9  O   UNL     1      -3.332  11.244  -0.381  1.00  0.00    -0.478 OA
ATOM     10  H   UNL     1      -2.823  12.090  -0.464  1.00  0.00     0.297 HD
ENDBRANCH   7   9
ENDBRANCH   1   7
BRANCH   2  11
ATOM     11  O   UNL     1      -3.546   8.499   2.035  1.00  0.00    -0.504 OA
ATOM     12  H   UNL     1      -3.360   8.830   2.950  1.00  0.00     0.293 HD
ENDBRANCH   2  11
BRANCH   5  13
ATOM     13  O   UNL     1      -4.631   6.031   1.808  1.00  0.00    -0.493 OA
ATOM     14  C   UNL     1      -5.362   5.504   2.734  1.00  0.00     0.278 C 
ENDBRANCH   5  13
TORSDOF 4
ENDMDL
MODEL 6
REMARK VINA RESULT:    -3.956      2.147      3.088
REMARK INTER + INTRA:          -5.135
REMARK INTER:                  -4.881
REMARK INTRA:                  -0.254
REMARK UNBOUND:                -0.486
REMARK SMILES COc1cccc(C(=O)O)c1O
REMARK SMILES IDX 7 1 11 2 6 3 5 4 3 5 4 6 8 7 9 8 10 9 12 11 2 13 1 14
REMARK H PARENT 10 10 12 12
ROOT
ATOM      1  C   UNL     1      -6.452   6.611   1.126  1.00  0.00     0.105 A 
ATOM      2  C   UNL     1      -5.769   6.734  -0.053  1.00  0.00     0.172 A 
ATOM      3  C   UNL     1      -5.808   5.851   2.213  1.00  0.00     0.020 A 
ATOM      4  C   UNL     1      -4.470   5.640   2.128  1.00  0.00     0.005 A 
ATOM      5  C   UNL     1      -4.314   6.743  -0.095  1.00  0.00     0.161 A 
ATOM      6  C   UNL     1      -3.681   6.055   1.015  1.00  0.00     0.050 A 
ENDROOT
BRANCH   1   7
ATOM      7  C   UNL     1      -7.795   7.327   1.351  1.00  0.00     0.339 C 
ATOM      8  O   UNL     1      -7.614   8.869   0.858  1.00  0.00    -0.246 OA
BRANCH   7   9
ATOM      9  O   UNL     1      -8.786   7.097   1.626  1.00  0.00    -0.478 OA
ATOM     10  H   UNL     1      -9.717   6.882   1.885  1.00  0.00     0.297 HD
ENDBRANCH   7   9
ENDBRANCH   1   7
BRANCH   2  11
ATOM     11  O   UNL     1      -6.444   6.878  -1.278  1.00  0.00    -0.504 OA
ATOM     12  H   UNL     1      -6.919   6.980  -2.140  1.00  0.00     0.293 HD
ENDBRANCH   2  11
BRANCH   5  13
ATOM     13  O   UNL     1      -3.746   7.071  -1.320  1.00  0.00    -0.493 OA
ATOM     14  C   UNL     1      -3.150   7.776  -2.224  1.00  0.00     0.278 C 
ENDBRANCH   5  13
TORSDOF 4
ENDMDL
MODEL 7
REMARK VINA RESULT:    -3.868      2.291      4.413
REMARK INTER + INTRA:          -5.032
REMARK INTER:                  -4.612
REMARK INTRA:                  -0.419
REMARK UNBOUND:                -0.486
REMARK SMILES COc1cccc(C(=O)O)c1O
REMARK SMILES IDX 7 1 11 2 6 3 5 4 3 5 4 6 8 7 9 8 10 9 12 11 2 13 1 14
REMARK H PARENT 10 10 12 12
ROOT
ATOM      1  C   UNL     1      -4.363   6.802  -0.094  1.00  0.00     0.105 A 
ATOM      2  C   UNL     1      -5.568   7.381   0.193  1.00  0.00     0.172 A 
ATOM      3  C   UNL     1      -3.708   6.022   0.973  1.00  0.00     0.020 A 
ATOM      4  C   UNL     1      -4.473   5.618   2.019  1.00  0.00     0.005 A 
ATOM      5  C   UNL     1      -6.487   6.794   1.157  1.00  0.00     0.161 A 
ATOM      6  C   UNL     1      -5.847   5.968   2.164  1.00  0.00     0.050 A 
ENDROOT
BRANCH   1   7
ATOM      7  C   UNL     1      -3.759   6.869  -1.507  1.00  0.00     0.339 C 
ATOM      8  O   UNL     1      -3.525   8.441  -1.863  1.00  0.00    -0.246 OA
BRANCH   7   9
ATOM      9  O   UNL     1      -3.375   6.220  -2.243  1.00  0.00    -0.478 OA
ATOM     10  H   UNL     1      -3.015   5.610  -2.935  1.00  0.00     0.297 HD
ENDBRANCH   7   9
ENDBRANCH   1   7
BRANCH   2  11
ATOM     11  O   UNL     1      -5.984   8.561  -0.448  1.00  0.00    -0.504 OA
ATOM     12  H   UNL     1      -6.276   9.392  -0.900  1.00  0.00     0.293 HD
ENDBRANCH   2  11
BRANCH   5  13
ATOM     13  O   UNL     1      -7.753   7.364   1.212  1.00  0.00    -0.493 OA
ATOM     14  C   UNL     1      -8.910   7.691   1.685  1.00  0.00     0.278 C 
ENDBRANCH   5  13
TORSDOF 4
ENDMDL
MODEL 8
REMARK VINA RESULT:    -3.853      2.117      2.884
REMARK INTER + INTRA:          -5.014
REMARK INTER:                  -4.578
REMARK INTRA:                  -0.436
REMARK UNBOUND:                -0.486
REMARK SMILES COc1cccc(C(=O)O)c1O
REMARK SMILES IDX 7 1 11 2 6 3 5 4 3 5 4 6 8 7 9 8 10 9 12 11 2 13 1 14
REMARK H PARENT 10 10 12 12
ROOT
ATOM      1  C   UNL     1      -4.361   6.672   0.624  1.00  0.00     0.105 A 
ATOM      2  C   UNL     1      -4.572   8.022   0.570  1.00  0.00     0.172 A 
ATOM      3  C   UNL     1      -3.933   5.996  -0.616  1.00  0.00     0.020 A 
ATOM      4  C   UNL     1      -3.427   6.768  -1.612  1.00  0.00     0.005 A 
ATOM      5  C   UNL     1      -3.836   8.874  -0.354  1.00  0.00     0.161 A 
ATOM      6  C   UNL     1      -3.355   8.190  -1.540  1.00  0.00     0.050 A 
ENDROOT
BRANCH   1   7
ATOM      7  C   UNL     1      -4.461   5.898   1.950  1.00  0.00     0.339 C 
ATOM      8  O   UNL     1      -5.959   6.139   2.542  1.00  0.00    -0.246 OA
BRANCH   7   9
ATOM      9  O   UNL     1      -3.903   5.207   2.514  1.00  0.00    -0.478 OA
ATOM     10  H   UNL     1      -3.378   4.556   3.046  1.00  0.00     0.297 HD
ENDBRANCH   7   9
ENDBRANCH   1   7
BRANCH   2  11
ATOM     11  O   UNL     1      -5.495   8.653   1.421  1.00  0.00    -0.504 OA
ATOM     12  H   UNL     1      -6.146   9.097   2.020  1.00  0.00     0.293 HD
ENDBRANCH   2  11
BRANCH   5  13
ATOM     13  O   UNL     1      -3.996  10.242  -0.175  1.00  0.00    -0.493 OA
ATOM     14  C   UNL     1      -3.897  11.509  -0.405  1.00  0.00     0.278 C 
ENDBRANCH   5  13
TORSDOF 4
ENDMDL
MODEL 9
REMARK VINA RESULT:    -3.754      7.472      8.471
REMARK INTER + INTRA:          -4.898
REMARK INTER:                  -4.657
REMARK INTRA:                  -0.241
REMARK UNBOUND:                -0.486
REMARK SMILES COc1cccc(C(=O)O)c1O
REMARK SMILES IDX 7 1 11 2 6 3 5 4 3 5 4 6 8 7 9 8 10 9 12 11 2 13 1 14
REMARK H PARENT 10 10 12 12
ROOT
ATOM      1  C   UNL     1      -3.344  -0.452  -3.645  1.00  0.00     0.105 A 
ATOM      2  C   UNL     1      -2.513   0.054  -2.684  1.00  0.00     0.172 A 
ATOM      3  C   UNL     1      -4.572  -1.135  -3.198  1.00  0.00     0.020 A 
ATOM      4  C   UNL     1      -4.991  -0.910  -1.926  1.00  0.00     0.005 A 
ATOM      5  C   UNL     1      -3.022   0.516  -1.400  1.00  0.00     0.161 A 
ATOM      6  C   UNL     1      -4.269  -0.107  -0.995  1.00  0.00     0.050 A 
ENDROOT
BRANCH   1   7
ATOM      7  C   UNL     1      -3.068  -0.226  -5.142  1.00  0.00     0.339 C 
ATOM      8  O   UNL     1      -2.353   1.231  -5.291  1.00  0.00    -0.246 OA
BRANCH   7   9
ATOM      9  O   UNL     1      -3.112  -0.756  -6.050  1.00  0.00    -0.478 OA
ATOM     10  H   UNL     1      -3.154  -1.255  -6.905  1.00  0.00     0.297 HD
ENDBRANCH   7   9
ENDBRANCH   1   7
BRANCH   2  11
ATOM     11  O   UNL     1      -1.130   0.171  -2.901  1.00  0.00    -0.504 OA
ATOM     12  H   UNL     1      -0.155   0.253  -3.053  1.00  0.00     0.293 HD
ENDBRANCH   2  11
BRANCH   5  13
ATOM     13  O   UNL     1      -2.112   1.186  -0.593  1.00  0.00    -0.493 OA
ATOM     14  C   UNL     1      -1.044   1.831  -0.256  1.00  0.00     0.278 C 
ENDBRANCH   5  13
TORSDOF 4
ENDMDL
