MODEL 1
REMARK VINA RESULT:    -4.911      0.000      0.000
REMARK INTER + INTRA:          -6.255
REMARK INTER:                  -5.772
REMARK INTRA:                  -0.482
REMARK UNBOUND:                -0.482
REMARK SMILES COc1cccc(C(=O)O)c1O
REMARK SMILES IDX 7 1 11 2 6 3 5 4 3 5 4 6 8 7 9 8 10 9 12 11 2 13 1 14
REMARK H PARENT 10 10 12 12
ROOT
ATOM      1  C   UNL     1       4.810   0.350   3.820  1.00  0.00     0.105 A 
ATOM      2  C   UNL     1       4.549  -0.835   3.189  1.00  0.00     0.172 A 
ATOM      3  C   UNL     1       6.179   0.889   3.724  1.00  0.00     0.020 A 
ATOM      4  C   UNL     1       6.982   0.401   2.743  1.00  0.00     0.005 A 
ATOM      5  C   UNL     1       5.267  -1.234   1.986  1.00  0.00     0.161 A 
ATOM      6  C   UNL     1       6.587  -0.645   1.858  1.00  0.00     0.050 A 
ENDROOT
BRANCH   1   7
ATOM      7  C   UNL     1       3.695   1.148   4.518  1.00  0.00     0.339 C 
ATOM      8  O   UNL     1       2.272   0.517   4.038  1.00  0.00    -0.246 OA
BRANCH   7   9
ATOM      9  O   UNL     1       3.587   1.887   5.260  1.00  0.00    -0.478 OA
ATOM     10  H   UNL     1       3.486   2.581   5.959  1.00  0.00     0.297 HD
ENDBRANCH   7   9
ENDBRANCH   1   7
BRANCH   2  11
ATOM     11  O   UNL     1       3.558  -1.713   3.661  1.00  0.00    -0.504 OA
ATOM     12  H   UNL     1       2.860  -2.331   3.993  1.00  0.00     0.293 HD
ENDBRANCH   2  11
BRANCH   5  13
ATOM     13  O   UNL     1       4.776  -2.356   1.332  1.00  0.00    -0.493 OA
ATOM     14  C   UNL     1       4.648  -3.263   0.420  1.00  0.00     0.278 C 
ENDBRANCH   5  13
TORSDOF 4
ENDMDL
MODEL 2
REMARK VINA RESULT:    -4.887      1.763      4.678
REMARK INTER + INTRA:          -6.227
REMARK INTER:                  -5.788
REMARK INTRA:                  -0.438
REMARK UNBOUND:                -0.482
REMARK SMILES COc1cccc(C(=O)O)c1O
REMARK SMILES IDX 7 1 11 2 6 3 5 4 3 5 4 6 8 7 9 8 10 9 12 11 2 13 1 14
REMARK H PARENT 10 10 12 12
ROOT
ATOM      1  C   UNL     1       4.974  -2.680   1.794  1.00  0.00     0.105 A 
ATOM      2  C   UNL     1       4.707  -1.423   2.264  1.00  0.00     0.172 A 
ATOM      3  C   UNL     1       5.450  -3.685   2.762  1.00  0.00     0.020 A 
ATOM      4  C   UNL     1       5.250  -3.434   4.082  1.00  0.00     0.005 A 
ATOM      5  C   UNL     1       4.259  -1.198   3.631  1.00  0.00     0.161 A 
ATOM      6  C   UNL     1       4.669  -2.226   4.569  1.00  0.00     0.050 A 
ENDROOT
BRANCH   1   7
ATOM      7  C   UNL     1       4.689  -3.065   0.332  1.00  0.00     0.339 C 
ATOM      8  O   UNL     1       3.842  -1.845  -0.337  1.00  0.00    -0.246 OA
BRANCH   7   9
ATOM      9  O   UNL     1       4.954  -3.810  -0.363  1.00  0.00    -0.478 OA
ATOM     10  H   UNL     1       5.204  -4.510  -1.017  1.00  0.00     0.297 HD
ENDBRANCH   7   9
ENDBRANCH   1   7
BRANCH   2  11
ATOM     11  O   UNL     1       4.832  -0.292   1.440  1.00  0.00    -0.504 OA
ATOM     12  H   UNL     1       4.920   0.505   0.859  1.00  0.00     0.293 HD
ENDBRANCH   2  11
BRANCH   5  13
ATOM     13  O   UNL     1       3.833   0.091   3.924  1.00  0.00    -0.493 OA
ATOM     14  C   UNL     1       3.840   1.277   4.437  1.00  0.00     0.278 C 
ENDBRANCH   5  13
TORSDOF 4
ENDMDL
MODEL 3
REMARK VINA RESULT:    -4.717      2.165      3.134
REMARK INTER + INTRA:          -6.027
REMARK INTER:                  -5.757
REMARK INTRA:                  -0.270
REMARK UNBOUND:                -0.482
REMARK SMILES COc1cccc(C(=O)O)c1O
REMARK SMILES IDX 7 1 11 2 6 3 5 4 3 5 4 6 8 7 9 8 10 9 12 11 2 13 1 14
REMARK H PARENT 10 10 12 12
ROOT
ATOM      1  C   UNL     1       4.676   0.094   3.557  1.00  0.00     0.105 A 
ATOM      2  C   UNL     1       6.020   0.034   3.801  1.00  0.00     0.172 A 
ATOM      3  C   UNL     1       4.084  -0.969   2.724  1.00  0.00     0.020 A 
ATOM      4  C   UNL     1       4.798  -2.112   2.559  1.00  0.00     0.005 A 
ATOM      5  C   UNL     1       6.730  -1.236   3.856  1.00  0.00     0.161 A 
ATOM      6  C   UNL     1       6.107  -2.301   3.092  1.00  0.00     0.050 A 
ENDROOT
BRANCH   1   7
ATOM      7  C   UNL     1       3.791   1.169   4.213  1.00  0.00     0.339 C 
ATOM      8  O   UNL     1       2.254   0.628   4.167  1.00  0.00    -0.246 OA
BRANCH   7   9
ATOM      9  O   UNL     1       3.894   2.069   4.749  1.00  0.00    -0.478 OA
ATOM     10  H   UNL     1       3.991   2.915   5.253  1.00  0.00     0.297 HD
ENDBRANCH   7   9
ENDBRANCH   1   7
BRANCH   2  11
ATOM     11  O   UNL     1       6.775   1.197   4.033  1.00  0.00    -0.504 OA
ATOM     12  H   UNL     1       7.306   2.016   4.196  1.00  0.00     0.293 HD
ENDBRANCH   2  11
BRANCH   5  13
ATOM     13  O   UNL     1       8.043  -1.177   4.305  1.00  0.00    -0.493 OA
ATOM     14  C   UNL     1       9.099  -1.468   4.992  1.00  0.00     0.278 C 
ENDBRANCH   5  13
TORSDOF 4
ENDMDL
MODEL 4
REMARK VINA RESULT:    -4.712      2.927      4.365
REMARK INTER + INTRA:          -6.021
REMARK INTER:                  -5.752
REMARK INTRA:                  -0.269
REMARK UNBOUND:                -0.482
REMARK SMILES COc1cccc(C(=O)O)c1O
REMARK SMILES IDX 7 1 11 2 6 3 5 4 3 5 4 6 8 7 9 8 10 9 12 11 2 13 1 14
REMARK H PARENT 10 10 12 12
ROOT
ATOM      1  C   UNL     1       4.927  -2.334   1.877  1.00  0.00     0.105 A 
ATOM      2  C   UNL     1       5.766  -2.911   2.790  1.00  0.00     0.172 A 
ATOM      3  C   UNL     1       4.509  -0.941   2.118  1.00  0.00     0.020 A 
ATOM      4  C   UNL     1       5.242  -0.205   2.993  1.00  0.00     0.005 A 
ATOM      5  C   UNL     1       6.721  -2.123   3.555  1.00  0.00     0.161 A 
ATOM      6  C   UNL     1       6.342  -0.733   3.730  1.00  0.00     0.050 A 
ENDROOT
BRANCH   1   7
ATOM      7  C   UNL     1       4.516  -3.070   0.590  1.00  0.00     0.339 C 
ATOM      8  O   UNL     1       3.946  -1.952  -0.449  1.00  0.00    -0.246 OA
BRANCH   7   9
ATOM      9  O   UNL     1       4.584  -4.030   0.163  1.00  0.00    -0.478 OA
ATOM     10  H   UNL     1       4.649  -4.933  -0.237  1.00  0.00     0.297 HD
ENDBRANCH   7   9
ENDBRANCH   1   7
BRANCH   2  11
ATOM     11  O   UNL     1       5.759  -4.299   3.015  1.00  0.00    -0.504 OA
ATOM     12  H   UNL     1       5.753  -5.276   3.174  1.00  0.00     0.293 HD
ENDBRANCH   2  11
BRANCH   5  13
ATOM     13  O   UNL     1       7.646  -2.846   4.298  1.00  0.00    -0.493 OA
ATOM     14  C   UNL     1       8.780  -3.176   4.822  1.00  0.00     0.278 C 
ENDBRANCH   5  13
TORSDOF 4
ENDMDL
MODEL 5
REMARK VINA RESULT:    -4.062      2.688      4.205
REMARK INTER + INTRA:          -5.256
REMARK INTER:                  -4.821
REMARK INTRA:                  -0.435
REMARK UNBOUND:                -0.482
REMARK SMILES COc1cccc(C(=O)O)c1O
REMARK SMILES IDX 7 1 11 2 6 3 5 4 3 5 4 6 8 7 9 8 10 9 12 11 2 13 1 14
REMARK H PARENT 10 10 12 12
ROOT
ATOM      1  C   UNL     1       4.406  -1.772   2.033  1.00  0.00     0.105 A 
ATOM      2  C   UNL     1       5.365  -2.226   2.896  1.00  0.00     0.172 A 
ATOM      3  C   UNL     1       3.553  -0.657   2.483  1.00  0.00     0.020 A 
ATOM      4  C   UNL     1       3.985   0.083   3.536  1.00  0.00     0.005 A 
ATOM      5  C   UNL     1       5.993  -1.346   3.871  1.00  0.00     0.161 A 
ATOM      6  C   UNL     1       5.179  -0.209   4.259  1.00  0.00     0.050 A 
ENDROOT
BRANCH   1   7
ATOM      7  C   UNL     1       4.288  -2.330   0.603  1.00  0.00     0.339 C 
ATOM      8  O   UNL     1       4.446  -3.948   0.697  1.00  0.00    -0.246 OA
BRANCH   7   9
ATOM      9  O   UNL     1       4.045  -1.997  -0.365  1.00  0.00    -0.478 OA
ATOM     10  H   UNL     1       3.817  -1.683  -1.277  1.00  0.00     0.297 HD
ENDBRANCH   7   9
ENDBRANCH   1   7
BRANCH   2  11
ATOM     11  O   UNL     1       5.802  -3.561   2.868  1.00  0.00    -0.504 OA
ATOM     12  H   UNL     1       6.110  -4.502   2.847  1.00  0.00     0.293 HD
ENDBRANCH   2  11
BRANCH   5  13
ATOM     13  O   UNL     1       7.084  -1.874   4.549  1.00  0.00    -0.493 OA
ATOM     14  C   UNL     1       8.308  -2.213   4.790  1.00  0.00     0.278 C 
ENDBRANCH   5  13
TORSDOF 4
ENDMDL
MODEL 6
REMARK VINA RESULT:    -4.032      2.172      3.099
REMARK INTER + INTRA:          -5.222
REMARK INTER:                  -4.914
REMARK INTRA:                  -0.308
REMARK UNBOUND:                -0.482
REMARK SMILES COc1cccc(C(=O)O)c1O
REMARK SMILES IDX 7 1 11 2 6 3 5 4 3 5 4 6 8 7 9 8 10 9 12 11 2 13 1 14
REMARK H PARENT 10 10 12 12
ROOT
ATOM      1  C   UNL     1       5.927   0.558   3.564  1.00  0.00     0.105 A 
ATOM      2  C   UNL     1       5.880  -0.285   2.488  1.00  0.00     0.172 A 
ATOM      3  C   UNL     1       4.646   0.971   4.166  1.00  0.00     0.020 A 
ATOM      4  C   UNL     1       3.545   0.231   3.875  1.00  0.00     0.005 A 
ATOM      5  C   UNL     1       4.800  -1.246   2.317  1.00  0.00     0.161 A 
ATOM      6  C   UNL     1       3.560  -0.871   2.971  1.00  0.00     0.050 A 
ENDROOT
BRANCH   1   7
ATOM      7  C   UNL     1       7.267   0.977   4.194  1.00  0.00     0.339 C 
ATOM      8  O   UNL     1       8.199  -0.355   4.289  1.00  0.00    -0.246 OA
BRANCH   7   9
ATOM      9  O   UNL     1       7.775   1.855   4.478  1.00  0.00    -0.478 OA
ATOM     10  H   UNL     1       8.252   2.680   4.746  1.00  0.00     0.297 HD
ENDBRANCH   7   9
ENDBRANCH   1   7
BRANCH   2  11
ATOM     11  O   UNL     1       6.886  -0.275   1.506  1.00  0.00    -0.504 OA
ATOM     12  H   UNL     1       7.595  -0.268   0.815  1.00  0.00     0.293 HD
ENDBRANCH   2  11
BRANCH   5  13
ATOM     13  O   UNL     1       4.970  -2.173   1.297  1.00  0.00    -0.493 OA
ATOM     14  C   UNL     1       4.717  -3.177   0.523  1.00  0.00     0.278 C 
ENDBRANCH   5  13
TORSDOF 4
ENDMDL
MODEL 7
REMARK VINA RESULT:    -4.007      2.266      4.635
REMARK INTER + INTRA:          -5.192
REMARK INTER:                  -4.938
REMARK INTRA:                  -0.254
REMARK UNBOUND:                -0.482
REMARK SMILES COc1cccc(C(=O)O)c1O
REMARK SMILES IDX 7 1 11 2 6 3 5 4 3 5 4 6 8 7 9 8 10 9 12 11 2 13 1 14
REMARK H PARENT 10 10 12 12
ROOT
ATOM      1  C   UNL     1       5.258  -3.251   2.801  1.00  0.00     0.105 A 
ATOM      2  C   UNL     1       4.701  -2.258   3.559  1.00  0.00     0.172 A 
ATOM      3  C   UNL     1       4.968  -3.251   1.355  1.00  0.00     0.020 A 
ATOM      4  C   UNL     1       4.493  -2.103   0.807  1.00  0.00     0.005 A 
ATOM      5  C   UNL     1       4.415  -0.942   3.005  1.00  0.00     0.161 A 
ATOM      6  C   UNL     1       4.201  -0.934   1.570  1.00  0.00     0.050 A 
ENDROOT
BRANCH   1   7
ATOM      7  C   UNL     1       6.237  -4.270   3.409  1.00  0.00     0.339 C 
ATOM      8  O   UNL     1       7.321  -3.435   4.293  1.00  0.00    -0.246 OA
BRANCH   7   9
ATOM      9  O   UNL     1       6.348  -5.313   3.500  1.00  0.00    -0.478 OA
ATOM     10  H   UNL     1       6.453  -6.294   3.586  1.00  0.00     0.297 HD
ENDBRANCH   7   9
ENDBRANCH   1   7
BRANCH   2  11
ATOM     11  O   UNL     1       4.398  -2.457   4.917  1.00  0.00    -0.504 OA
ATOM     12  H   UNL     1       4.185  -2.598   5.874  1.00  0.00     0.293 HD
ENDBRANCH   2  11
BRANCH   5  13
ATOM     13  O   UNL     1       4.038   0.032   3.920  1.00  0.00    -0.493 OA
ATOM     14  C   UNL     1       3.890   1.204   4.444  1.00  0.00     0.278 C 
ENDBRANCH   5  13
TORSDOF 4
ENDMDL
MODEL 8
REMARK VINA RESULT:    -4.005      1.514      1.514
REMARK INTER + INTRA:          -5.190
REMARK INTER:                  -4.729
REMARK INTRA:                  -0.461
REMARK UNBOUND:                -0.482
REMARK SMILES COc1cccc(C(=O)O)c1O
REMARK SMILES IDX 7 1 11 2 6 3 5 4 3 5 4 6 8 7 9 8 10 9 12 11 2 13 1 14
REMARK H PARENT 10 10 12 12
ROOT
ATOM      1  C   UNL     1       5.003   0.280   4.272  1.00  0.00     0.105 A 
ATOM      2  C   UNL     1       4.929  -1.086   4.293  1.00  0.00     0.172 A 
ATOM      3  C   UNL     1       6.319   0.888   4.001  1.00  0.00     0.020 A 
ATOM      4  C   UNL     1       7.273   0.104   3.438  1.00  0.00     0.005 A 
ATOM      5  C   UNL     1       5.818  -1.912   3.488  1.00  0.00     0.161 A 
ATOM      6  C   UNL     1       7.084  -1.282   3.163  1.00  0.00     0.050 A 
ENDROOT
BRANCH   1   7
ATOM      7  C   UNL     1       3.745   1.152   4.419  1.00  0.00     0.339 C 
ATOM      8  O   UNL     1       2.480   0.278   3.879  1.00  0.00    -0.246 OA
BRANCH   7   9
ATOM      9  O   UNL     1       3.457   2.073   4.840  1.00  0.00    -0.478 OA
ATOM     10  H   UNL     1       3.187   2.940   5.236  1.00  0.00     0.297 HD
ENDBRANCH   7   9
ENDBRANCH   1   7
BRANCH   2  11
ATOM     11  O   UNL     1       3.975  -1.755   5.079  1.00  0.00    -0.504 OA
ATOM     12  H   UNL     1       3.302  -2.226   5.632  1.00  0.00     0.293 HD
ENDBRANCH   2  11
BRANCH   5  13
ATOM     13  O   UNL     1       5.513  -3.266   3.446  1.00  0.00    -0.493 OA
ATOM     14  C   UNL     1       5.695  -4.542   3.351  1.00  0.00     0.278 C 
ENDBRANCH   5  13
TORSDOF 4
ENDMDL
MODEL 9
REMARK VINA RESULT:    -3.833      2.072      2.830
REMARK INTER + INTRA:          -4.987
REMARK INTER:                  -4.565
REMARK INTRA:                  -0.423
REMARK UNBOUND:                -0.482
REMARK SMILES COc1cccc(C(=O)O)c1O
REMARK SMILES IDX 7 1 11 2 6 3 5 4 3 5 4 6 8 7 9 8 10 9 12 11 2 13 1 14
REMARK H PARENT 10 10 12 12
ROOT
ATOM      1  C   UNL     1       4.380  -0.820   2.935  1.00  0.00     0.105 A 
ATOM      2  C   UNL     1       5.328  -1.692   3.394  1.00  0.00     0.172 A 
ATOM      3  C   UNL     1       3.978  -0.929   1.521  1.00  0.00     0.020 A 
ATOM      4  C   UNL     1       4.276  -2.081   0.867  1.00  0.00     0.005 A 
ATOM      5  C   UNL     1       5.474  -3.027   2.831  1.00  0.00     0.161 A 
ATOM      6  C   UNL     1       5.012  -3.149   1.461  1.00  0.00     0.050 A 
ENDROOT
BRANCH   1   7
ATOM      7  C   UNL     1       3.679   0.171   3.881  1.00  0.00     0.339 C 
ATOM      8  O   UNL     1       4.829   1.135   4.516  1.00  0.00    -0.246 OA
BRANCH   7   9
ATOM      9  O   UNL     1       2.704   0.462   4.152  1.00  0.00    -0.478 OA
ATOM     10  H   UNL     1       1.787   0.735   4.406  1.00  0.00     0.297 HD
ENDBRANCH   7   9
ENDBRANCH   1   7
BRANCH   2  11
ATOM     11  O   UNL     1       6.191  -1.347   4.448  1.00  0.00    -0.504 OA
ATOM     12  H   UNL     1       6.800  -1.103   5.191  1.00  0.00     0.293 HD
ENDBRANCH   2  11
BRANCH   5  13
ATOM     13  O   UNL     1       6.333  -3.881   3.511  1.00  0.00    -0.493 OA
ATOM     14  C   UNL     1       6.992  -4.955   3.796  1.00  0.00     0.278 C 
ENDBRANCH   5  13
TORSDOF 4
ENDMDL
