MODEL 1
REMARK VINA RESULT:    -4.824      0.000      0.000
REMARK INTER + INTRA:          -6.153
REMARK INTER:                  -5.670
REMARK INTRA:                  -0.483
REMARK UNBOUND:                -0.483
REMARK SMILES COc1cccc(C(=O)O)c1O
REMARK SMILES IDX 7 1 11 2 6 3 5 4 3 5 4 6 8 7 9 8 10 9 12 11 2 13 1 14
REMARK H PARENT 10 10 12 12
ROOT
ATOM      1  C   UNL     1       6.302  -3.705  -0.826  1.00  0.00     0.105 A 
ATOM      2  C   UNL     1       6.220  -2.343  -0.921  1.00  0.00     0.172 A 
ATOM      3  C   UNL     1       7.466  -4.272  -0.121  1.00  0.00     0.020 A 
ATOM      4  C   UNL     1       8.176  -3.447   0.691  1.00  0.00     0.005 A 
ATOM      5  C   UNL     1       6.789  -1.470   0.096  1.00  0.00     0.161 A 
ATOM      6  C   UNL     1       7.890  -2.058   0.837  1.00  0.00     0.050 A 
ENDROOT
BRANCH   1   7
ATOM      7  C   UNL     1       5.170  -4.612  -1.339  1.00  0.00     0.339 C 
ATOM      8  O   UNL     1       3.877  -3.664  -1.624  1.00  0.00    -0.246 OA
BRANCH   7   9
ATOM      9  O   UNL     1       5.023  -5.610  -1.642  1.00  0.00    -0.478 OA
ATOM     10  H   UNL     1       4.884  -6.548  -1.926  1.00  0.00     0.297 HD
ENDBRANCH   7   9
ENDBRANCH   1   7
BRANCH   2  11
ATOM     11  O   UNL     1       5.563  -1.723  -1.998  1.00  0.00    -0.504 OA
ATOM     12  H   UNL     1       5.100  -1.287  -2.757  1.00  0.00     0.293 HD
ENDBRANCH   2  11
BRANCH   5  13
ATOM     13  O   UNL     1       6.469  -0.123  -0.014  1.00  0.00    -0.493 OA
ATOM     14  C   UNL     1       6.462   1.142   0.251  1.00  0.00     0.278 C 
ENDBRANCH   5  13
TORSDOF 4
ENDMDL
MODEL 2
REMARK VINA RESULT:    -4.804      1.755      4.691
REMARK INTER + INTRA:          -6.129
REMARK INTER:                  -5.644
REMARK INTRA:                  -0.485
REMARK UNBOUND:                -0.483
REMARK SMILES COc1cccc(C(=O)O)c1O
REMARK SMILES IDX 7 1 11 2 6 3 5 4 3 5 4 6 8 7 9 8 10 9 12 11 2 13 1 14
REMARK H PARENT 10 10 12 12
ROOT
ATOM      1  C   UNL     1       6.895  -0.126  -0.520  1.00  0.00     0.105 A 
ATOM      2  C   UNL     1       6.478  -1.413  -0.319  1.00  0.00     0.172 A 
ATOM      3  C   UNL     1       7.678   0.157  -1.737  1.00  0.00     0.020 A 
ATOM      4  C   UNL     1       7.627  -0.752  -2.745  1.00  0.00     0.005 A 
ATOM      5  C   UNL     1       6.198  -2.308  -1.433  1.00  0.00     0.161 A 
ATOM      6  C   UNL     1       6.916  -1.984  -2.652  1.00  0.00     0.050 A 
ENDROOT
BRANCH   1   7
ATOM      7  C   UNL     1       6.477   1.008   0.432  1.00  0.00     0.339 C 
ATOM      8  O   UNL     1       5.247   0.451   1.343  1.00  0.00    -0.246 OA
BRANCH   7   9
ATOM      9  O   UNL     1       6.803   1.966   0.723  1.00  0.00    -0.478 OA
ATOM     10  H   UNL     1       7.110   2.867   0.997  1.00  0.00     0.297 HD
ENDBRANCH   7   9
ENDBRANCH   1   7
BRANCH   2  11
ATOM     11  O   UNL     1       6.279  -1.925   0.975  1.00  0.00    -0.504 OA
ATOM     12  H   UNL     1       6.139  -2.285   1.886  1.00  0.00     0.293 HD
ENDBRANCH   2  11
BRANCH   5  13
ATOM     13  O   UNL     1       5.595  -3.515  -1.104  1.00  0.00    -0.493 OA
ATOM     14  C   UNL     1       5.250  -4.757  -1.196  1.00  0.00     0.278 C 
ENDBRANCH   5  13
TORSDOF 4
ENDMDL
MODEL 3
REMARK VINA RESULT:    -4.730      2.962      4.397
REMARK INTER + INTRA:          -6.042
REMARK INTER:                  -5.773
REMARK INTRA:                  -0.269
REMARK UNBOUND:                -0.483
REMARK SMILES COc1cccc(C(=O)O)c1O
REMARK SMILES IDX 7 1 11 2 6 3 5 4 3 5 4 6 8 7 9 8 10 9 12 11 2 13 1 14
REMARK H PARENT 10 10 12 12
ROOT
ATOM      1  C   UNL     1       6.781  -0.397  -0.433  1.00  0.00     0.105 A 
ATOM      2  C   UNL     1       7.890  -0.474  -1.230  1.00  0.00     0.172 A 
ATOM      3  C   UNL     1       6.101  -1.658  -0.085  1.00  0.00     0.020 A 
ATOM      4  C   UNL     1       6.794  -2.815  -0.250  1.00  0.00     0.005 A 
ATOM      5  C   UNL     1       8.761  -1.641  -1.216  1.00  0.00     0.161 A 
ATOM      6  C   UNL     1       8.107  -2.868  -0.803  1.00  0.00     0.050 A 
ENDROOT
BRANCH   1   7
ATOM      7  C   UNL     1       6.317   0.942   0.166  1.00  0.00     0.339 C 
ATOM      8  O   UNL     1       5.331   0.600   1.417  1.00  0.00    -0.246 OA
BRANCH   7   9
ATOM      9  O   UNL     1       6.520   1.971   0.072  1.00  0.00    -0.478 OA
ATOM     10  H   UNL     1       6.710   2.939  -0.015  1.00  0.00     0.297 HD
ENDBRANCH   7   9
ENDBRANCH   1   7
BRANCH   2  11
ATOM     11  O   UNL     1       8.252   0.582  -2.084  1.00  0.00    -0.504 OA
ATOM     12  H   UNL     1       8.507   1.326  -2.686  1.00  0.00     0.293 HD
ENDBRANCH   2  11
BRANCH   5  13
ATOM     13  O   UNL     1       9.954  -1.514  -1.917  1.00  0.00    -0.493 OA
ATOM     14  C   UNL     1      11.198  -1.684  -2.224  1.00  0.00     0.278 C 
ENDBRANCH   5  13
TORSDOF 4
ENDMDL
MODEL 4
REMARK VINA RESULT:    -4.728      2.212      3.205
REMARK INTER + INTRA:          -6.040
REMARK INTER:                  -5.770
REMARK INTRA:                  -0.270
REMARK UNBOUND:                -0.483
REMARK SMILES COc1cccc(C(=O)O)c1O
REMARK SMILES IDX 7 1 11 2 6 3 5 4 3 5 4 6 8 7 9 8 10 9 12 11 2 13 1 14
REMARK H PARENT 10 10 12 12
ROOT
ATOM      1  C   UNL     1       6.235  -3.362  -0.841  1.00  0.00     0.105 A 
ATOM      2  C   UNL     1       7.570  -3.624  -0.698  1.00  0.00     0.172 A 
ATOM      3  C   UNL     1       5.816  -1.948  -0.871  1.00  0.00     0.020 A 
ATOM      4  C   UNL     1       6.768  -1.013  -1.124  1.00  0.00     0.005 A 
ATOM      5  C   UNL     1       8.586  -2.708  -1.195  1.00  0.00     0.161 A 
ATOM      6  C   UNL     1       8.148  -1.328  -1.291  1.00  0.00     0.050 A 
ENDROOT
BRANCH   1   7
ATOM      7  C   UNL     1       5.217  -4.492  -1.068  1.00  0.00     0.339 C 
ATOM      8  O   UNL     1       3.876  -3.819  -1.704  1.00  0.00    -0.246 OA
BRANCH   7   9
ATOM      9  O   UNL     1       5.169  -5.543  -1.029  1.00  0.00    -0.478 OA
ATOM     10  H   UNL     1       5.125  -6.532  -0.992  1.00  0.00     0.297 HD
ENDBRANCH   7   9
ENDBRANCH   1   7
BRANCH   2  11
ATOM     11  O   UNL     1       8.021  -4.804  -0.082  1.00  0.00    -0.504 OA
ATOM     12  H   UNL     1       8.339  -5.635   0.352  1.00  0.00     0.293 HD
ENDBRANCH   2  11
BRANCH   5  13
ATOM     13  O   UNL     1       9.892  -3.179  -1.167  1.00  0.00    -0.493 OA
ATOM     14  C   UNL     1      11.074  -3.488  -1.589  1.00  0.00     0.278 C 
ENDBRANCH   5  13
TORSDOF 4
ENDMDL
MODEL 5
REMARK VINA RESULT:    -4.303      1.359      1.445
REMARK INTER + INTRA:          -5.540
REMARK INTER:                  -5.275
REMARK INTRA:                  -0.265
REMARK UNBOUND:                -0.483
REMARK SMILES COc1cccc(C(=O)O)c1O
REMARK SMILES IDX 7 1 11 2 6 3 5 4 3 5 4 6 8 7 9 8 10 9 12 11 2 13 1 14
REMARK H PARENT 10 10 12 12
ROOT
ATOM      1  C   UNL     1       6.049  -3.187  -1.429  1.00  0.00     0.105 A 
ATOM      2  C   UNL     1       5.949  -1.930  -0.901  1.00  0.00     0.172 A 
ATOM      3  C   UNL     1       7.232  -3.490  -2.255  1.00  0.00     0.020 A 
ATOM      4  C   UNL     1       8.305  -2.665  -2.147  1.00  0.00     0.005 A 
ATOM      5  C   UNL     1       7.130  -1.146  -0.566  1.00  0.00     0.161 A 
ATOM      6  C   UNL     1       8.313  -1.495  -1.331  1.00  0.00     0.050 A 
ENDROOT
BRANCH   1   7
ATOM      7  C   UNL     1       5.021  -4.281  -1.091  1.00  0.00     0.339 C 
ATOM      8  O   UNL     1       3.585  -3.805  -1.696  1.00  0.00    -0.246 OA
BRANCH   7   9
ATOM      9  O   UNL     1       4.994  -5.254  -0.688  1.00  0.00    -0.478 OA
ATOM     10  H   UNL     1       4.969  -6.168  -0.309  1.00  0.00     0.297 HD
ENDBRANCH   7   9
ENDBRANCH   1   7
BRANCH   2  11
ATOM     11  O   UNL     1       4.699  -1.345  -0.635  1.00  0.00    -0.504 OA
ATOM     12  H   UNL     1       3.819  -0.932  -0.448  1.00  0.00     0.293 HD
ENDBRANCH   2  11
BRANCH   5  13
ATOM     13  O   UNL     1       6.898   0.025   0.143  1.00  0.00    -0.493 OA
ATOM     14  C   UNL     1       6.368   1.161   0.458  1.00  0.00     0.278 C 
ENDBRANCH   5  13
TORSDOF 4
ENDMDL
MODEL 6
REMARK VINA RESULT:    -4.092      2.707      4.218
REMARK INTER + INTRA:          -5.292
REMARK INTER:                  -4.841
REMARK INTRA:                  -0.452
REMARK UNBOUND:                -0.483
REMARK SMILES COc1cccc(C(=O)O)c1O
REMARK SMILES IDX 7 1 11 2 6 3 5 4 3 5 4 6 8 7 9 8 10 9 12 11 2 13 1 14
REMARK H PARENT 10 10 12 12
ROOT
ATOM      1  C   UNL     1       6.175  -0.912  -0.427  1.00  0.00     0.105 A 
ATOM      2  C   UNL     1       7.359  -1.086  -1.090  1.00  0.00     0.172 A 
ATOM      3  C   UNL     1       5.181  -1.998  -0.508  1.00  0.00     0.020 A 
ATOM      4  C   UNL     1       5.614  -3.222  -0.905  1.00  0.00     0.005 A 
ATOM      5  C   UNL     1       7.930  -2.408  -1.299  1.00  0.00     0.161 A 
ATOM      6  C   UNL     1       6.956  -3.484  -1.308  1.00  0.00     0.050 A 
ENDROOT
BRANCH   1   7
ATOM      7  C   UNL     1       5.928   0.320   0.460  1.00  0.00     0.339 C 
ATOM      8  O   UNL     1       6.472   1.623  -0.354  1.00  0.00    -0.246 OA
BRANCH   7   9
ATOM      9  O   UNL     1       5.440   0.572   1.359  1.00  0.00    -0.478 OA
ATOM     10  H   UNL     1       4.982   0.809   2.204  1.00  0.00     0.297 HD
ENDBRANCH   7   9
ENDBRANCH   1   7
BRANCH   2  11
ATOM     11  O   UNL     1       8.089   0.010  -1.582  1.00  0.00    -0.504 OA
ATOM     12  H   UNL     1       8.604   0.781  -1.929  1.00  0.00     0.293 HD
ENDBRANCH   2  11
BRANCH   5  13
ATOM     13  O   UNL     1       9.223  -2.436  -1.807  1.00  0.00    -0.493 OA
ATOM     14  C   UNL     1      10.515  -2.472  -1.820  1.00  0.00     0.278 C 
ENDBRANCH   5  13
TORSDOF 4
ENDMDL
MODEL 7
REMARK VINA RESULT:    -3.943      2.241      4.625
REMARK INTER + INTRA:          -5.117
REMARK INTER:                  -4.911
REMARK INTRA:                  -0.206
REMARK UNBOUND:                -0.483
REMARK SMILES COc1cccc(C(=O)O)c1O
REMARK SMILES IDX 7 1 11 2 6 3 5 4 3 5 4 6 8 7 9 8 10 9 12 11 2 13 1 14
REMARK H PARENT 10 10 12 12
ROOT
ATOM      1  C   UNL     1       7.402  -0.151  -1.506  1.00  0.00     0.105 A 
ATOM      2  C   UNL     1       6.719  -1.294  -1.820  1.00  0.00     0.172 A 
ATOM      3  C   UNL     1       6.910   0.649  -0.369  1.00  0.00     0.020 A 
ATOM      4  C   UNL     1       6.069   0.045   0.510  1.00  0.00     0.005 A 
ATOM      5  C   UNL     1       6.013  -2.064  -0.806  1.00  0.00     0.161 A 
ATOM      6  C   UNL     1       5.592  -1.288   0.346  1.00  0.00     0.050 A 
ENDROOT
BRANCH   1   7
ATOM      7  C   UNL     1       8.697   0.235  -2.242  1.00  0.00     0.339 C 
ATOM      8  O   UNL     1       9.748  -0.996  -2.056  1.00  0.00    -0.246 OA
BRANCH   7   9
ATOM      9  O   UNL     1       9.055   0.986  -2.887  1.00  0.00    -0.478 OA
ATOM     10  H   UNL     1       9.391   1.693  -3.493  1.00  0.00     0.297 HD
ENDBRANCH   7   9
ENDBRANCH   1   7
BRANCH   2  11
ATOM     11  O   UNL     1       6.686  -1.789  -3.135  1.00  0.00    -0.504 OA
ATOM     12  H   UNL     1       6.663  -2.139  -4.061  1.00  0.00     0.293 HD
ENDBRANCH   2  11
BRANCH   5  13
ATOM     13  O   UNL     1       5.529  -3.301  -1.213  1.00  0.00    -0.493 OA
ATOM     14  C   UNL     1       5.392  -4.585  -1.269  1.00  0.00     0.278 C 
ENDBRANCH   5  13
TORSDOF 4
ENDMDL
MODEL 8
REMARK VINA RESULT:    -3.927      2.156      3.103
REMARK INTER + INTRA:          -5.098
REMARK INTER:                  -4.847
REMARK INTRA:                  -0.251
REMARK UNBOUND:                -0.483
REMARK SMILES COc1cccc(C(=O)O)c1O
REMARK SMILES IDX 7 1 11 2 6 3 5 4 3 5 4 6 8 7 9 8 10 9 12 11 2 13 1 14
REMARK H PARENT 10 10 12 12
ROOT
ATOM      1  C   UNL     1       7.253  -3.827  -0.212  1.00  0.00     0.105 A 
ATOM      2  C   UNL     1       7.146  -2.565   0.305  1.00  0.00     0.172 A 
ATOM      3  C   UNL     1       6.068  -4.394  -0.882  1.00  0.00     0.020 A 
ATOM      4  C   UNL     1       5.090  -3.534  -1.270  1.00  0.00     0.005 A 
ATOM      5  C   UNL     1       6.256  -1.573  -0.280  1.00  0.00     0.161 A 
ATOM      6  C   UNL     1       5.128  -2.135  -1.000  1.00  0.00     0.050 A 
ENDROOT
BRANCH   1   7
ATOM      7  C   UNL     1       8.589  -4.590  -0.192  1.00  0.00     0.339 C 
ATOM      8  O   UNL     1       9.740  -3.570  -0.729  1.00  0.00    -0.246 OA
BRANCH   7   9
ATOM      9  O   UNL     1       8.979  -5.507   0.146  1.00  0.00    -0.478 OA
ATOM     10  H   UNL     1       9.345  -6.371   0.464  1.00  0.00     0.297 HD
ENDBRANCH   7   9
ENDBRANCH   1   7
BRANCH   2  11
ATOM     11  O   UNL     1       7.908  -2.163   1.415  1.00  0.00    -0.504 OA
ATOM     12  H   UNL     1       8.445  -1.879   2.197  1.00  0.00     0.293 HD
ENDBRANCH   2  11
BRANCH   5  13
ATOM     13  O   UNL     1       6.385  -0.280   0.211  1.00  0.00    -0.493 OA
ATOM     14  C   UNL     1       6.568   0.999   0.209  1.00  0.00     0.278 C 
ENDBRANCH   5  13
TORSDOF 4
ENDMDL
MODEL 9
REMARK VINA RESULT:    -3.857      2.085      2.871
REMARK INTER + INTRA:          -5.016
REMARK INTER:                  -4.599
REMARK INTRA:                  -0.418
REMARK UNBOUND:                -0.483
REMARK SMILES COc1cccc(C(=O)O)c1O
REMARK SMILES IDX 7 1 11 2 6 3 5 4 3 5 4 6 8 7 9 8 10 9 12 11 2 13 1 14
REMARK H PARENT 10 10 12 12
ROOT
ATOM      1  C   UNL     1       6.100  -2.075  -0.768  1.00  0.00     0.105 A 
ATOM      2  C   UNL     1       7.246  -1.649  -1.382  1.00  0.00     0.172 A 
ATOM      3  C   UNL     1       5.561  -1.245   0.325  1.00  0.00     0.020 A 
ATOM      4  C   UNL     1       5.995   0.039   0.416  1.00  0.00     0.005 A 
ATOM      5  C   UNL     1       7.578  -0.235  -1.482  1.00  0.00     0.161 A 
ATOM      6  C   UNL     1       6.988   0.591  -0.446  1.00  0.00     0.050 A 
ENDROOT
BRANCH   1   7
ATOM      7  C   UNL     1       5.339  -3.316  -1.266  1.00  0.00     0.339 C 
ATOM      8  O   UNL     1       6.341  -4.592  -1.119  1.00  0.00    -0.246 OA
BRANCH   7   9
ATOM      9  O   UNL     1       4.368  -3.589  -1.568  1.00  0.00    -0.478 OA
ATOM     10  H   UNL     1       3.455  -3.845  -1.852  1.00  0.00     0.297 HD
ENDBRANCH   7   9
ENDBRANCH   1   7
BRANCH   2  11
ATOM     11  O   UNL     1       8.146  -2.558  -1.963  1.00  0.00    -0.504 OA
ATOM     12  H   UNL     1       8.780  -3.199  -2.372  1.00  0.00     0.293 HD
ENDBRANCH   2  11
BRANCH   5  13
ATOM     13  O   UNL     1       8.660   0.077  -2.296  1.00  0.00    -0.493 OA
ATOM     14  C   UNL     1       9.674   0.731  -2.759  1.00  0.00     0.278 C 
ENDBRANCH   5  13
TORSDOF 4
ENDMDL
