MODEL 1
REMARK VINA RESULT:    -4.920      0.000      0.000
REMARK INTER + INTRA:          -6.180
REMARK INTER:                  -5.783
REMARK INTRA:                  -0.396
REMARK UNBOUND:                -0.396
REMARK SMILES COc1cccc(C(=O)O)c1O
REMARK SMILES IDX 7 1 11 2 6 3 5 4 3 5 4 6 8 7 9 8 10 9 12 11 2 13 1 14
REMARK H PARENT 10 10 12 12
ROOT
ATOM      1  C   UNL     1      -4.116  -2.886   4.128  1.00  0.00     0.105 A 
ATOM      2  C   UNL     1      -3.745  -1.617   4.479  1.00  0.00     0.172 A 
ATOM      3  C   UNL     1      -5.555  -3.154   3.955  1.00  0.00     0.020 A 
ATOM      4  C   UNL     1      -6.381  -2.088   3.790  1.00  0.00     0.005 A 
ATOM      5  C   UNL     1      -4.528  -0.455   4.083  1.00  0.00     0.161 A 
ATOM      6  C   UNL     1      -5.932  -0.736   3.844  1.00  0.00     0.050 A 
ENDROOT
BRANCH   1   7
ATOM      7  C   UNL     1      -3.068  -3.970   3.820  1.00  0.00     0.339 C 
ATOM      8  O   UNL     1      -1.605  -3.254   3.844  1.00  0.00    -0.246 OA
BRANCH   7   9
ATOM      9  O   UNL     1      -3.012  -5.014   3.701  1.00  0.00    -0.478 OA
ATOM     10  H   UNL     1      -2.959  -5.997   3.590  1.00  0.00     0.297 HD
ENDBRANCH   7   9
ENDBRANCH   1   7
BRANCH   2  11
ATOM     11  O   UNL     1      -2.577  -1.375   5.221  1.00  0.00    -0.504 OA
ATOM     12  H   UNL     1      -1.753  -1.205   5.744  1.00  0.00     0.293 HD
ENDBRANCH   2  11
BRANCH   5  13
ATOM     13  O   UNL     1      -3.944   0.781   4.329  1.00  0.00    -0.493 OA
ATOM     14  C   UNL     1      -3.738   1.930   4.883  1.00  0.00     0.278 C 
ENDBRANCH   5  13
TORSDOF 4
ENDMDL
MODEL 2
REMARK VINA RESULT:    -4.916      1.761      4.666
REMARK INTER + INTRA:          -6.174
REMARK INTER:                  -5.701
REMARK INTRA:                  -0.473
REMARK UNBOUND:                -0.396
REMARK SMILES COc1cccc(C(=O)O)c1O
REMARK SMILES IDX 7 1 11 2 6 3 5 4 3 5 4 6 8 7 9 8 10 9 12 11 2 13 1 14
REMARK H PARENT 10 10 12 12
ROOT
ATOM      1  C   UNL     1      -4.043   0.523   5.302  1.00  0.00     0.105 A 
ATOM      2  C   UNL     1      -3.997  -0.615   4.545  1.00  0.00     0.172 A 
ATOM      3  C   UNL     1      -4.263   0.371   6.752  1.00  0.00     0.020 A 
ATOM      4  C   UNL     1      -4.042  -0.852   7.300  1.00  0.00     0.005 A 
ATOM      5  C   UNL     1      -3.525  -1.879   5.095  1.00  0.00     0.161 A 
ATOM      6  C   UNL     1      -3.677  -1.997   6.533  1.00  0.00     0.050 A 
ENDROOT
BRANCH   1   7
ATOM      7  C   UNL     1      -3.771   1.906   4.685  1.00  0.00     0.339 C 
ATOM      8  O   UNL     1      -3.146   1.663   3.201  1.00  0.00    -0.246 OA
BRANCH   7   9
ATOM      9  O   UNL     1      -3.955   2.922   4.892  1.00  0.00    -0.478 OA
ATOM     10  H   UNL     1      -4.127   3.877   5.087  1.00  0.00     0.297 HD
ENDBRANCH   7   9
ENDBRANCH   1   7
BRANCH   2  11
ATOM     11  O   UNL     1      -4.383  -0.612   3.194  1.00  0.00    -0.504 OA
ATOM     12  H   UNL     1      -4.654  -0.609   2.242  1.00  0.00     0.293 HD
ENDBRANCH   2  11
BRANCH   5  13
ATOM     13  O   UNL     1      -3.340  -2.906   4.178  1.00  0.00    -0.493 OA
ATOM     14  C   UNL     1      -3.219  -4.108   3.720  1.00  0.00     0.278 C 
ENDBRANCH   5  13
TORSDOF 4
ENDMDL
MODEL 3
REMARK VINA RESULT:    -4.810      2.901      4.401
REMARK INTER + INTRA:          -6.049
REMARK INTER:                  -5.779
REMARK INTRA:                  -0.271
REMARK UNBOUND:                -0.396
REMARK SMILES COc1cccc(C(=O)O)c1O
REMARK SMILES IDX 7 1 11 2 6 3 5 4 3 5 4 6 8 7 9 8 10 9 12 11 2 13 1 14
REMARK H PARENT 10 10 12 12
ROOT
ATOM      1  C   UNL     1      -3.977   0.258   5.099  1.00  0.00     0.105 A 
ATOM      2  C   UNL     1      -4.720  -0.086   6.195  1.00  0.00     0.172 A 
ATOM      3  C   UNL     1      -3.642  -0.809   4.138  1.00  0.00     0.020 A 
ATOM      4  C   UNL     1      -4.371  -1.953   4.186  1.00  0.00     0.005 A 
ATOM      5  C   UNL     1      -5.681  -1.179   6.153  1.00  0.00     0.161 A 
ATOM      6  C   UNL     1      -5.388  -2.192   5.157  1.00  0.00     0.050 A 
ENDROOT
BRANCH   1   7
ATOM      7  C   UNL     1      -3.592   1.721   4.821  1.00  0.00     0.339 C 
ATOM      8  O   UNL     1      -3.225   1.835   3.237  1.00  0.00    -0.246 OA
BRANCH   7   9
ATOM      9  O   UNL     1      -3.592   2.653   5.310  1.00  0.00    -0.478 OA
ATOM     10  H   UNL     1      -3.591   3.530   5.771  1.00  0.00     0.297 HD
ENDBRANCH   7   9
ENDBRANCH   1   7
BRANCH   2  11
ATOM     11  O   UNL     1      -4.605   0.616   7.407  1.00  0.00    -0.504 OA
ATOM     12  H   UNL     1      -4.524   1.111   8.261  1.00  0.00     0.293 HD
ENDBRANCH   2  11
BRANCH   5  13
ATOM     13  O   UNL     1      -6.510  -1.299   7.262  1.00  0.00    -0.493 OA
ATOM     14  C   UNL     1      -7.599  -1.335   7.957  1.00  0.00     0.278 C 
ENDBRANCH   5  13
TORSDOF 4
ENDMDL
MODEL 4
REMARK VINA RESULT:    -4.763      2.160      3.158
REMARK INTER + INTRA:          -5.995
REMARK INTER:                  -5.724
REMARK INTRA:                  -0.271
REMARK UNBOUND:                -0.396
REMARK SMILES COc1cccc(C(=O)O)c1O
REMARK SMILES IDX 7 1 11 2 6 3 5 4 3 5 4 6 8 7 9 8 10 9 12 11 2 13 1 14
REMARK H PARENT 10 10 12 12
ROOT
ATOM      1  C   UNL     1      -3.941  -2.574   4.200  1.00  0.00     0.105 A 
ATOM      2  C   UNL     1      -5.259  -2.694   4.546  1.00  0.00     0.172 A 
ATOM      3  C   UNL     1      -3.299  -1.262   4.397  1.00  0.00     0.020 A 
ATOM      4  C   UNL     1      -3.911  -0.378   5.227  1.00  0.00     0.005 A 
ATOM      5  C   UNL     1      -5.844  -1.895   5.614  1.00  0.00     0.161 A 
ATOM      6  C   UNL     1      -5.166  -0.634   5.853  1.00  0.00     0.050 A 
ENDROOT
BRANCH   1   7
ATOM      7  C   UNL     1      -3.126  -3.788   3.722  1.00  0.00     0.339 C 
ATOM      8  O   UNL     1      -1.549  -3.396   3.848  1.00  0.00    -0.246 OA
BRANCH   7   9
ATOM      9  O   UNL     1      -3.278  -4.792   3.442  1.00  0.00    -0.478 OA
ATOM     10  H   UNL     1      -3.421  -5.736   3.180  1.00  0.00     0.297 HD
ENDBRANCH   7   9
ENDBRANCH   1   7
BRANCH   2  11
ATOM     11  O   UNL     1      -6.105  -3.612   3.901  1.00  0.00    -0.504 OA
ATOM     12  H   UNL     1      -6.700  -4.259   3.446  1.00  0.00     0.293 HD
ENDBRANCH   2  11
BRANCH   5  13
ATOM     13  O   UNL     1      -7.130  -2.248   6.000  1.00  0.00    -0.493 OA
ATOM     14  C   UNL     1      -8.088  -2.691   6.746  1.00  0.00     0.278 C 
ENDBRANCH   5  13
TORSDOF 4
ENDMDL
MODEL 5
REMARK VINA RESULT:    -4.526      1.467      4.272
REMARK INTER + INTRA:          -5.715
REMARK INTER:                  -5.290
REMARK INTRA:                  -0.425
REMARK UNBOUND:                -0.396
REMARK SMILES COc1cccc(C(=O)O)c1O
REMARK SMILES IDX 7 1 11 2 6 3 5 4 3 5 4 6 8 7 9 8 10 9 12 11 2 13 1 14
REMARK H PARENT 10 10 12 12
ROOT
ATOM      1  C   UNL     1      -4.415   0.400   4.536  1.00  0.00     0.105 A 
ATOM      2  C   UNL     1      -3.813  -0.757   4.125  1.00  0.00     0.172 A 
ATOM      3  C   UNL     1      -5.810   0.314   5.007  1.00  0.00     0.020 A 
ATOM      4  C   UNL     1      -6.286  -0.911   5.351  1.00  0.00     0.005 A 
ATOM      5  C   UNL     1      -4.177  -2.050   4.687  1.00  0.00     0.161 A 
ATOM      6  C   UNL     1      -5.527  -2.111   5.214  1.00  0.00     0.050 A 
ENDROOT
BRANCH   1   7
ATOM      7  C   UNL     1      -3.638   1.726   4.608  1.00  0.00     0.339 C 
ATOM      8  O   UNL     1      -3.088   2.049   3.109  1.00  0.00    -0.246 OA
BRANCH   7   9
ATOM      9  O   UNL     1      -3.450   2.504   5.291  1.00  0.00    -0.478 OA
ATOM     10  H   UNL     1      -3.273   3.236   5.934  1.00  0.00     0.297 HD
ENDBRANCH   7   9
ENDBRANCH   1   7
BRANCH   2  11
ATOM     11  O   UNL     1      -2.796  -0.747   3.154  1.00  0.00    -0.504 OA
ATOM     12  H   UNL     1      -2.080  -0.740   2.471  1.00  0.00     0.293 HD
ENDBRANCH   2  11
BRANCH   5  13
ATOM     13  O   UNL     1      -3.360  -3.116   4.333  1.00  0.00    -0.493 OA
ATOM     14  C   UNL     1      -2.973  -4.193   3.732  1.00  0.00     0.278 C 
ENDBRANCH   5  13
TORSDOF 4
ENDMDL
MODEL 6
REMARK VINA RESULT:    -4.336      2.099      2.873
REMARK INTER + INTRA:          -5.492
REMARK INTER:                  -5.237
REMARK INTRA:                  -0.255
REMARK UNBOUND:                -0.396
REMARK SMILES COc1cccc(C(=O)O)c1O
REMARK SMILES IDX 7 1 11 2 6 3 5 4 3 5 4 6 8 7 9 8 10 9 12 11 2 13 1 14
REMARK H PARENT 10 10 12 12
ROOT
ATOM      1  C   UNL     1      -3.831  -2.354   4.190  1.00  0.00     0.105 A 
ATOM      2  C   UNL     1      -5.035  -2.313   4.838  1.00  0.00     0.172 A 
ATOM      3  C   UNL     1      -3.146  -1.072   3.940  1.00  0.00     0.020 A 
ATOM      4  C   UNL     1      -3.541   0.007   4.664  1.00  0.00     0.005 A 
ATOM      5  C   UNL     1      -5.350  -1.267   5.800  1.00  0.00     0.161 A 
ATOM      6  C   UNL     1      -4.621  -0.029   5.595  1.00  0.00     0.050 A 
ENDROOT
BRANCH   1   7
ATOM      7  C   UNL     1      -3.161  -3.691   3.829  1.00  0.00     0.339 C 
ATOM      8  O   UNL     1      -1.551  -3.443   3.826  1.00  0.00    -0.246 OA
BRANCH   7   9
ATOM      9  O   UNL     1      -3.421  -4.701   3.686  1.00  0.00    -0.478 OA
ATOM     10  H   UNL     1      -3.667  -5.651   3.552  1.00  0.00     0.297 HD
ENDBRANCH   7   9
ENDBRANCH   1   7
BRANCH   2  11
ATOM     11  O   UNL     1      -6.017  -3.295   4.619  1.00  0.00    -0.504 OA
ATOM     12  H   UNL     1      -6.708  -3.986   4.464  1.00  0.00     0.293 HD
ENDBRANCH   2  11
BRANCH   5  13
ATOM     13  O   UNL     1      -6.517  -1.448   6.531  1.00  0.00    -0.493 OA
ATOM     14  C   UNL     1      -7.760  -1.339   6.869  1.00  0.00     0.278 C 
ENDBRANCH   5  13
TORSDOF 4
ENDMDL
MODEL 7
REMARK VINA RESULT:    -3.939      2.287      4.397
REMARK INTER + INTRA:          -5.026
REMARK INTER:                  -4.594
REMARK INTRA:                  -0.432
REMARK UNBOUND:                -0.396
REMARK SMILES COc1cccc(C(=O)O)c1O
REMARK SMILES IDX 7 1 11 2 6 3 5 4 3 5 4 6 8 7 9 8 10 9 12 11 2 13 1 14
REMARK H PARENT 10 10 12 12
ROOT
ATOM      1  C   UNL     1      -3.867  -0.810   4.394  1.00  0.00     0.105 A 
ATOM      2  C   UNL     1      -5.060  -1.446   4.598  1.00  0.00     0.172 A 
ATOM      3  C   UNL     1      -2.656  -1.644   4.287  1.00  0.00     0.020 A 
ATOM      4  C   UNL     1      -2.822  -2.967   4.029  1.00  0.00     0.005 A 
ATOM      5  C   UNL     1      -5.302  -2.793   4.099  1.00  0.00     0.161 A 
ATOM      6  C   UNL     1      -4.101  -3.589   3.927  1.00  0.00     0.050 A 
ENDROOT
BRANCH   1   7
ATOM      7  C   UNL     1      -3.798   0.712   4.179  1.00  0.00     0.339 C 
ATOM      8  O   UNL     1      -4.439   1.421   5.498  1.00  0.00    -0.246 OA
BRANCH   7   9
ATOM      9  O   UNL     1      -3.386   1.404   3.501  1.00  0.00    -0.478 OA
ATOM     10  H   UNL     1      -2.998   2.055   2.863  1.00  0.00     0.297 HD
ENDBRANCH   7   9
ENDBRANCH   1   7
BRANCH   2  11
ATOM     11  O   UNL     1      -6.116  -0.820   5.281  1.00  0.00    -0.504 OA
ATOM     12  H   UNL     1      -6.861  -0.378   5.763  1.00  0.00     0.293 HD
ENDBRANCH   2  11
BRANCH   5  13
ATOM     13  O   UNL     1      -6.611  -3.248   4.197  1.00  0.00    -0.493 OA
ATOM     14  C   UNL     1      -7.594  -4.074   4.347  1.00  0.00     0.278 C 
ENDBRANCH   5  13
TORSDOF 4
ENDMDL
MODEL 8
REMARK VINA RESULT:    -3.675      2.222      3.206
REMARK INTER + INTRA:          -4.715
REMARK INTER:                  -4.549
REMARK INTRA:                  -0.166
REMARK UNBOUND:                -0.396
REMARK SMILES COc1cccc(C(=O)O)c1O
REMARK SMILES IDX 7 1 11 2 6 3 5 4 3 5 4 6 8 7 9 8 10 9 12 11 2 13 1 14
REMARK H PARENT 10 10 12 12
ROOT
ATOM      1  C   UNL     1      -5.478  -2.540   4.328  1.00  0.00     0.105 A 
ATOM      2  C   UNL     1      -5.230  -1.205   4.162  1.00  0.00     0.172 A 
ATOM      3  C   UNL     1      -4.377  -3.480   4.046  1.00  0.00     0.020 A 
ATOM      4  C   UNL     1      -3.116  -2.979   4.002  1.00  0.00     0.005 A 
ATOM      5  C   UNL     1      -3.900  -0.645   4.355  1.00  0.00     0.161 A 
ATOM      6  C   UNL     1      -2.820  -1.592   4.147  1.00  0.00     0.050 A 
ENDROOT
BRANCH   1   7
ATOM      7  C   UNL     1      -6.820  -3.041   4.889  1.00  0.00     0.339 C 
ATOM      8  O   UNL     1      -7.379  -4.181   3.868  1.00  0.00    -0.246 OA
BRANCH   7   9
ATOM      9  O   UNL     1      -7.411  -2.940   5.755  1.00  0.00    -0.478 OA
ATOM     10  H   UNL     1      -7.967  -2.844   6.569  1.00  0.00     0.297 HD
ENDBRANCH   7   9
ENDBRANCH   1   7
BRANCH   2  11
ATOM     11  O   UNL     1      -6.256  -0.308   3.819  1.00  0.00    -0.504 OA
ATOM     12  H   UNL     1      -6.978   0.325   3.577  1.00  0.00     0.293 HD
ENDBRANCH   2  11
BRANCH   5  13
ATOM     13  O   UNL     1      -3.820   0.741   4.353  1.00  0.00    -0.493 OA
ATOM     14  C   UNL     1      -3.713   1.945   4.810  1.00  0.00     0.278 C 
ENDBRANCH   5  13
TORSDOF 4
ENDMDL
MODEL 9
REMARK VINA RESULT:    -3.644      7.429      8.430
REMARK INTER + INTRA:          -4.679
REMARK INTER:                  -4.453
REMARK INTRA:                  -0.226
REMARK UNBOUND:                -0.396
REMARK SMILES COc1cccc(C(=O)O)c1O
REMARK SMILES IDX 7 1 11 2 6 3 5 4 3 5 4 6 8 7 9 8 10 9 12 11 2 13 1 14
REMARK H PARENT 10 10 12 12
ROOT
ATOM      1  C   UNL     1      -1.003   1.412  -2.880  1.00  0.00     0.105 A 
ATOM      2  C   UNL     1      -0.216   1.007  -1.837  1.00  0.00     0.172 A 
ATOM      3  C   UNL     1      -1.617   0.366  -3.718  1.00  0.00     0.020 A 
ATOM      4  C   UNL     1      -1.678  -0.893  -3.213  1.00  0.00     0.005 A 
ATOM      5  C   UNL     1      -0.451  -0.253  -1.147  1.00  0.00     0.161 A 
ATOM      6  C   UNL     1      -1.120  -1.258  -1.952  1.00  0.00     0.050 A 
ENDROOT
BRANCH   1   7
ATOM      7  C   UNL     1      -1.325   2.898  -3.110  1.00  0.00     0.339 C 
ATOM      8  O   UNL     1      -1.394   3.614  -1.648  1.00  0.00    -0.246 OA
BRANCH   7   9
ATOM      9  O   UNL     1      -1.411   3.582  -3.907  1.00  0.00    -0.478 OA
ATOM     10  H   UNL     1      -1.493   4.224  -4.655  1.00  0.00     0.297 HD
ENDBRANCH   7   9
ENDBRANCH   1   7
BRANCH   2  11
ATOM     11  O   UNL     1       0.844   1.803  -1.368  1.00  0.00    -0.504 OA
ATOM     12  H   UNL     1       1.590   2.363  -1.038  1.00  0.00     0.293 HD
ENDBRANCH   2  11
BRANCH   5  13
ATOM     13  O   UNL     1       0.285  -0.455   0.014  1.00  0.00    -0.493 OA
ATOM     14  C   UNL     1       1.073  -0.194   1.005  1.00  0.00     0.278 C 
ENDBRANCH   5  13
TORSDOF 4
ENDMDL
