MODEL 1
REMARK VINA RESULT:    -4.879      0.000      0.000
REMARK INTER + INTRA:          -6.222
REMARK INTER:                  -5.735
REMARK INTRA:                  -0.487
REMARK UNBOUND:                -0.487
REMARK SMILES COc1cccc(C(=O)O)c1O
REMARK SMILES IDX 7 1 11 2 6 3 5 4 3 5 4 6 8 7 9 8 10 9 12 11 2 13 1 14
REMARK H PARENT 10 10 12 12
ROOT
ATOM      1  C   UNL     1      -6.646   3.248  -2.265  1.00  0.00     0.105 A 
ATOM      2  C   UNL     1      -6.043   2.540  -3.268  1.00  0.00     0.172 A 
ATOM      3  C   UNL     1      -8.022   2.870  -1.894  1.00  0.00     0.020 A 
ATOM      4  C   UNL     1      -8.469   1.650  -2.287  1.00  0.00     0.005 A 
ATOM      5  C   UNL     1      -6.371   1.145  -3.522  1.00  0.00     0.161 A 
ATOM      6  C   UNL     1      -7.701   0.757  -3.091  1.00  0.00     0.050 A 
ENDROOT
BRANCH   1   7
ATOM      7  C   UNL     1      -5.884   4.328  -1.477  1.00  0.00     0.339 C 
ATOM      8  O   UNL     1      -4.297   4.130  -1.790  1.00  0.00    -0.246 OA
BRANCH   7   9
ATOM      9  O   UNL     1      -6.084   5.184  -0.899  1.00  0.00    -0.478 OA
ATOM     10  H   UNL     1      -6.273   5.990  -0.354  1.00  0.00     0.297 HD
ENDBRANCH   7   9
ENDBRANCH   1   7
BRANCH   2  11
ATOM     11  O   UNL     1      -5.061   3.124  -4.087  1.00  0.00    -0.504 OA
ATOM     12  H   UNL     1      -4.369   3.535  -4.664  1.00  0.00     0.293 HD
ENDBRANCH   2  11
BRANCH   5  13
ATOM     13  O   UNL     1      -5.553   0.486  -4.431  1.00  0.00    -0.493 OA
ATOM     14  C   UNL     1      -5.208  -0.169  -5.490  1.00  0.00     0.278 C 
ENDBRANCH   5  13
TORSDOF 4
ENDMDL
MODEL 2
REMARK VINA RESULT:    -4.840      1.748      4.688
REMARK INTER + INTRA:          -6.176
REMARK INTER:                  -5.692
REMARK INTRA:                  -0.484
REMARK UNBOUND:                -0.487
REMARK SMILES COc1cccc(C(=O)O)c1O
REMARK SMILES IDX 7 1 11 2 6 3 5 4 3 5 4 6 8 7 9 8 10 9 12 11 2 13 1 14
REMARK H PARENT 10 10 12 12
ROOT
ATOM      1  C   UNL     1      -5.987   1.073  -5.063  1.00  0.00     0.105 A 
ATOM      2  C   UNL     1      -6.084   1.617  -3.812  1.00  0.00     0.172 A 
ATOM      3  C   UNL     1      -6.453   1.887  -6.201  1.00  0.00     0.020 A 
ATOM      4  C   UNL     1      -6.599   3.222  -6.003  1.00  0.00     0.005 A 
ATOM      5  C   UNL     1      -5.998   3.054  -3.596  1.00  0.00     0.161 A 
ATOM      6  C   UNL     1      -6.390   3.854  -4.742  1.00  0.00     0.050 A 
ENDROOT
BRANCH   1   7
ATOM      7  C   UNL     1      -5.319  -0.294  -5.291  1.00  0.00     0.339 C 
ATOM      8  O   UNL     1      -4.465  -0.650  -3.950  1.00  0.00    -0.246 OA
BRANCH   7   9
ATOM      9  O   UNL     1      -5.331  -1.081  -5.991  1.00  0.00    -0.478 OA
ATOM     10  H   UNL     1      -5.342  -1.821  -6.649  1.00  0.00     0.297 HD
ENDBRANCH   7   9
ENDBRANCH   1   7
BRANCH   2  11
ATOM     11  O   UNL     1      -6.249   0.810  -2.674  1.00  0.00    -0.504 OA
ATOM     12  H   UNL     1      -6.365   0.241  -1.872  1.00  0.00     0.293 HD
ENDBRANCH   2  11
BRANCH   5  13
ATOM     13  O   UNL     1      -5.912   3.463  -2.271  1.00  0.00    -0.493 OA
ATOM     14  C   UNL     1      -5.942   4.250  -1.246  1.00  0.00     0.278 C 
ENDBRANCH   5  13
TORSDOF 4
ENDMDL
MODEL 3
REMARK VINA RESULT:    -4.688      2.939      4.424
REMARK INTER + INTRA:          -5.998
REMARK INTER:                  -5.729
REMARK INTRA:                  -0.269
REMARK UNBOUND:                -0.487
REMARK SMILES COc1cccc(C(=O)O)c1O
REMARK SMILES IDX 7 1 11 2 6 3 5 4 3 5 4 6 8 7 9 8 10 9 12 11 2 13 1 14
REMARK H PARENT 10 10 12 12
ROOT
ATOM      1  C   UNL     1      -5.963   1.115  -4.778  1.00  0.00     0.105 A 
ATOM      2  C   UNL     1      -6.923   1.734  -5.531  1.00  0.00     0.172 A 
ATOM      3  C   UNL     1      -5.833   1.524  -3.367  1.00  0.00     0.020 A 
ATOM      4  C   UNL     1      -6.872   2.194  -2.805  1.00  0.00     0.005 A 
ATOM      5  C   UNL     1      -8.152   2.239  -4.937  1.00  0.00     0.161 A 
ATOM      6  C   UNL     1      -8.040   2.574  -3.530  1.00  0.00     0.050 A 
ENDROOT
BRANCH   1   7
ATOM      7  C   UNL     1      -5.120  -0.040  -5.346  1.00  0.00     0.339 C 
ATOM      8  O   UNL     1      -4.463  -0.830  -4.083  1.00  0.00    -0.246 OA
BRANCH   7   9
ATOM      9  O   UNL     1      -4.931  -0.510  -6.269  1.00  0.00    -0.478 OA
ATOM     10  H   UNL     1      -4.753  -0.953  -7.136  1.00  0.00     0.297 HD
ENDBRANCH   7   9
ENDBRANCH   1   7
BRANCH   2  11
ATOM     11  O   UNL     1      -6.774   1.891  -6.920  1.00  0.00    -0.504 OA
ATOM     12  H   UNL     1      -6.669   2.001  -7.898  1.00  0.00     0.293 HD
ENDBRANCH   2  11
BRANCH   5  13
ATOM     13  O   UNL     1      -9.126   2.665  -5.831  1.00  0.00    -0.493 OA
ATOM     14  C   UNL     1     -10.302   2.893  -6.318  1.00  0.00     0.278 C 
ENDBRANCH   5  13
TORSDOF 4
ENDMDL
MODEL 4
REMARK VINA RESULT:    -4.650      2.191      3.204
REMARK INTER + INTRA:          -5.953
REMARK INTER:                  -5.687
REMARK INTRA:                  -0.265
REMARK UNBOUND:                -0.487
REMARK SMILES COc1cccc(C(=O)O)c1O
REMARK SMILES IDX 7 1 11 2 6 3 5 4 3 5 4 6 8 7 9 8 10 9 12 11 2 13 1 14
REMARK H PARENT 10 10 12 12
ROOT
ATOM      1  C   UNL     1      -6.396   3.152  -2.463  1.00  0.00     0.105 A 
ATOM      2  C   UNL     1      -7.747   3.029  -2.641  1.00  0.00     0.172 A 
ATOM      3  C   UNL     1      -5.515   2.429  -3.399  1.00  0.00     0.020 A 
ATOM      4  C   UNL     1      -6.054   2.001  -4.570  1.00  0.00     0.005 A 
ATOM      5  C   UNL     1      -8.326   2.803  -3.958  1.00  0.00     0.161 A 
ATOM      6  C   UNL     1      -7.432   2.156  -4.899  1.00  0.00     0.050 A 
ENDROOT
BRANCH   1   7
ATOM      7  C   UNL     1      -5.812   4.091  -1.395  1.00  0.00     0.339 C 
ATOM      8  O   UNL     1      -4.239   4.318  -1.753  1.00  0.00    -0.246 OA
BRANCH   7   9
ATOM      9  O   UNL     1      -6.139   4.686  -0.590  1.00  0.00    -0.478 OA
ATOM     10  H   UNL     1      -6.447   5.245   0.167  1.00  0.00     0.297 HD
ENDBRANCH   7   9
ENDBRANCH   1   7
BRANCH   2  11
ATOM     11  O   UNL     1      -8.640   3.136  -1.561  1.00  0.00    -0.504 OA
ATOM     12  H   UNL     1      -9.268   3.212  -0.800  1.00  0.00     0.293 HD
ENDBRANCH   2  11
BRANCH   5  13
ATOM     13  O   UNL     1      -9.710   2.895  -4.034  1.00  0.00    -0.493 OA
ATOM     14  C   UNL     1     -10.875   3.231  -4.480  1.00  0.00     0.278 C 
ENDBRANCH   5  13
TORSDOF 4
ENDMDL
MODEL 5
REMARK VINA RESULT:    -3.989      2.652      4.280
REMARK INTER + INTRA:          -5.176
REMARK INTER:                  -4.711
REMARK INTRA:                  -0.464
REMARK UNBOUND:                -0.487
REMARK SMILES COc1cccc(C(=O)O)c1O
REMARK SMILES IDX 7 1 11 2 6 3 5 4 3 5 4 6 8 7 9 8 10 9 12 11 2 13 1 14
REMARK H PARENT 10 10 12 12
ROOT
ATOM      1  C   UNL     1      -5.642   1.403  -4.098  1.00  0.00     0.105 A 
ATOM      2  C   UNL     1      -6.805   1.876  -4.641  1.00  0.00     0.172 A 
ATOM      3  C   UNL     1      -5.043   2.171  -2.990  1.00  0.00     0.020 A 
ATOM      4  C   UNL     1      -5.835   3.061  -2.339  1.00  0.00     0.005 A 
ATOM      5  C   UNL     1      -7.763   2.635  -3.850  1.00  0.00     0.161 A 
ATOM      6  C   UNL     1      -7.182   3.333  -2.718  1.00  0.00     0.050 A 
ENDROOT
BRANCH   1   7
ATOM      7  C   UNL     1      -5.033   0.065  -4.550  1.00  0.00     0.339 C 
ATOM      8  O   UNL     1      -4.991   0.075  -6.179  1.00  0.00    -0.246 OA
BRANCH   7   9
ATOM      9  O   UNL     1      -4.563  -0.780  -4.133  1.00  0.00    -0.478 OA
ATOM     10  H   UNL     1      -4.122  -1.575  -3.740  1.00  0.00     0.297 HD
ENDBRANCH   7   9
ENDBRANCH   1   7
BRANCH   2  11
ATOM     11  O   UNL     1      -7.138   1.630  -5.984  1.00  0.00    -0.504 OA
ATOM     12  H   UNL     1      -7.373   1.457  -6.930  1.00  0.00     0.293 HD
ENDBRANCH   2  11
BRANCH   5  13
ATOM     13  O   UNL     1      -8.986   2.885  -4.459  1.00  0.00    -0.493 OA
ATOM     14  C   UNL     1     -10.079   3.505  -4.765  1.00  0.00     0.278 C 
ENDBRANCH   5  13
TORSDOF 4
ENDMDL
MODEL 6
REMARK VINA RESULT:    -3.979      2.354      4.616
REMARK INTER + INTRA:          -5.164
REMARK INTER:                  -4.960
REMARK INTRA:                  -0.205
REMARK UNBOUND:                -0.487
REMARK SMILES COc1cccc(C(=O)O)c1O
REMARK SMILES IDX 7 1 11 2 6 3 5 4 3 5 4 6 8 7 9 8 10 9 12 11 2 13 1 14
REMARK H PARENT 10 10 12 12
ROOT
ATOM      1  C   UNL     1      -6.347   1.899  -5.746  1.00  0.00     0.105 A 
ATOM      2  C   UNL     1      -6.096   2.841  -4.788  1.00  0.00     0.172 A 
ATOM      3  C   UNL     1      -5.733   0.569  -5.576  1.00  0.00     0.020 A 
ATOM      4  C   UNL     1      -5.276   0.239  -4.340  1.00  0.00     0.005 A 
ATOM      5  C   UNL     1      -5.839   2.472  -3.403  1.00  0.00     0.161 A 
ATOM      6  C   UNL     1      -5.301   1.136  -3.232  1.00  0.00     0.050 A 
ENDROOT
BRANCH   1   7
ATOM      7  C   UNL     1      -7.320   2.176  -6.906  1.00  0.00     0.339 C 
ATOM      8  O   UNL     1      -8.762   2.557  -6.252  1.00  0.00    -0.246 OA
BRANCH   7   9
ATOM      9  O   UNL     1      -7.302   2.285  -7.953  1.00  0.00    -0.478 OA
ATOM     10  H   UNL     1      -7.286   2.386  -8.938  1.00  0.00     0.297 HD
ENDBRANCH   7   9
ENDBRANCH   1   7
BRANCH   2  11
ATOM     11  O   UNL     1      -6.094   4.213  -5.093  1.00  0.00    -0.504 OA
ATOM     12  H   UNL     1      -6.094   5.179  -5.308  1.00  0.00     0.293 HD
ENDBRANCH   2  11
BRANCH   5  13
ATOM     13  O   UNL     1      -5.796   3.522  -2.494  1.00  0.00    -0.493 OA
ATOM     14  C   UNL     1      -6.040   4.203  -1.424  1.00  0.00     0.278 C 
ENDBRANCH   5  13
TORSDOF 4
ENDMDL
MODEL 7
REMARK VINA RESULT:    -3.966      2.198      3.011
REMARK INTER + INTRA:          -5.148
REMARK INTER:                  -4.693
REMARK INTRA:                  -0.455
REMARK UNBOUND:                -0.487
REMARK SMILES COc1cccc(C(=O)O)c1O
REMARK SMILES IDX 7 1 11 2 6 3 5 4 3 5 4 6 8 7 9 8 10 9 12 11 2 13 1 14
REMARK H PARENT 10 10 12 12
ROOT
ATOM      1  C   UNL     1      -5.906   2.660  -2.983  1.00  0.00     0.105 A 
ATOM      2  C   UNL     1      -7.125   2.792  -3.589  1.00  0.00     0.172 A 
ATOM      3  C   UNL     1      -5.054   1.531  -3.398  1.00  0.00     0.020 A 
ATOM      4  C   UNL     1      -5.345   0.921  -4.576  1.00  0.00     0.005 A 
ATOM      5  C   UNL     1      -7.351   2.340  -4.955  1.00  0.00     0.161 A 
ATOM      6  C   UNL     1      -6.464   1.276  -5.385  1.00  0.00     0.050 A 
ENDROOT
BRANCH   1   7
ATOM      7  C   UNL     1      -5.393   3.709  -1.981  1.00  0.00     0.339 C 
ATOM      8  O   UNL     1      -6.551   3.913  -0.854  1.00  0.00    -0.246 OA
BRANCH   7   9
ATOM      9  O   UNL     1      -4.510   4.240  -1.763  1.00  0.00    -0.478 OA
ATOM     10  H   UNL     1      -3.679   4.738  -1.559  1.00  0.00     0.297 HD
ENDBRANCH   7   9
ENDBRANCH   1   7
BRANCH   2  11
ATOM     11  O   UNL     1      -8.211   3.390  -2.927  1.00  0.00    -0.504 OA
ATOM     12  H   UNL     1      -8.976   3.811  -2.461  1.00  0.00     0.293 HD
ENDBRANCH   2  11
BRANCH   5  13
ATOM     13  O   UNL     1      -8.566   2.708  -5.521  1.00  0.00    -0.493 OA
ATOM     14  C   UNL     1      -9.765   2.590  -5.986  1.00  0.00     0.278 C 
ENDBRANCH   5  13
TORSDOF 4
ENDMDL
MODEL 8
REMARK VINA RESULT:    -3.946      2.171      3.095
REMARK INTER + INTRA:          -5.125
REMARK INTER:                  -4.872
REMARK INTRA:                  -0.254
REMARK UNBOUND:                -0.487
REMARK SMILES COc1cccc(C(=O)O)c1O
REMARK SMILES IDX 7 1 11 2 6 3 5 4 3 5 4 6 8 7 9 8 10 9 12 11 2 13 1 14
REMARK H PARENT 10 10 12 12
ROOT
ATOM      1  C   UNL     1      -7.679   2.707  -2.167  1.00  0.00     0.105 A 
ATOM      2  C   UNL     1      -7.242   1.624  -2.879  1.00  0.00     0.172 A 
ATOM      3  C   UNL     1      -6.664   3.656  -1.675  1.00  0.00     0.020 A 
ATOM      4  C   UNL     1      -5.434   3.617  -2.248  1.00  0.00     0.005 A 
ATOM      5  C   UNL     1      -6.032   1.679  -3.687  1.00  0.00     0.161 A 
ATOM      6  C   UNL     1      -5.064   2.665  -3.243  1.00  0.00     0.050 A 
ENDROOT
BRANCH   1   7
ATOM      7  C   UNL     1      -9.180   2.984  -1.973  1.00  0.00     0.339 C 
ATOM      8  O   UNL     1      -9.896   2.827  -3.428  1.00  0.00    -0.246 OA
BRANCH   7   9
ATOM      9  O   UNL     1      -9.868   3.143  -1.192  1.00  0.00    -0.478 OA
ATOM     10  H   UNL     1     -10.515   3.291  -0.457  1.00  0.00     0.297 HD
ENDBRANCH   7   9
ENDBRANCH   1   7
BRANCH   2  11
ATOM     11  O   UNL     1      -7.956   0.413  -2.881  1.00  0.00    -0.504 OA
ATOM     12  H   UNL     1      -8.459  -0.440  -2.883  1.00  0.00     0.293 HD
ENDBRANCH   2  11
BRANCH   5  13
ATOM     13  O   UNL     1      -5.805   0.586  -4.513  1.00  0.00    -0.493 OA
ATOM     14  C   UNL     1      -5.266  -0.136  -5.440  1.00  0.00     0.278 C 
ENDBRANCH   5  13
TORSDOF 4
ENDMDL
MODEL 9
REMARK VINA RESULT:    -3.189      2.239      3.050
REMARK INTER + INTRA:          -4.236
REMARK INTER:                  -3.783
REMARK INTRA:                  -0.453
REMARK UNBOUND:                -0.487
REMARK SMILES COc1cccc(C(=O)O)c1O
REMARK SMILES IDX 7 1 11 2 6 3 5 4 3 5 4 6 8 7 9 8 10 9 12 11 2 13 1 14
REMARK H PARENT 10 10 12 12
ROOT
ATOM      1  C   UNL     1      -6.251   2.528  -3.172  1.00  0.00     0.105 A 
ATOM      2  C   UNL     1      -6.859   2.728  -4.381  1.00  0.00     0.172 A 
ATOM      3  C   UNL     1      -7.028   2.834  -1.957  1.00  0.00     0.020 A 
ATOM      4  C   UNL     1      -8.377   2.935  -2.079  1.00  0.00     0.005 A 
ATOM      5  C   UNL     1      -8.300   2.596  -4.541  1.00  0.00     0.161 A 
ATOM      6  C   UNL     1      -9.059   2.828  -3.326  1.00  0.00     0.050 A 
ENDROOT
BRANCH   1   7
ATOM      7  C   UNL     1      -4.847   1.907  -3.075  1.00  0.00     0.339 C 
ATOM      8  O   UNL     1      -4.651   0.941  -4.373  1.00  0.00    -0.246 OA
BRANCH   7   9
ATOM      9  O   UNL     1      -3.973   1.996  -2.494  1.00  0.00    -0.478 OA
ATOM     10  H   UNL     1      -3.151   2.080  -1.948  1.00  0.00     0.297 HD
ENDBRANCH   7   9
ENDBRANCH   1   7
BRANCH   2  11
ATOM     11  O   UNL     1      -6.116   3.049  -5.529  1.00  0.00    -0.504 OA
ATOM     12  H   UNL     1      -5.593   3.275  -6.339  1.00  0.00     0.293 HD
ENDBRANCH   2  11
BRANCH   5  13
ATOM     13  O   UNL     1      -8.769   2.628  -5.848  1.00  0.00    -0.493 OA
ATOM     14  C   UNL     1      -9.604   2.574  -6.833  1.00  0.00     0.278 C 
ENDBRANCH   5  13
TORSDOF 4
ENDMDL
