MODEL 1
REMARK VINA RESULT:    -4.721      0.000      0.000
REMARK INTER + INTRA:          -5.819
REMARK INTER:                  -5.549
REMARK INTRA:                  -0.270
REMARK UNBOUND:                -0.270
REMARK SMILES COc1cccc(C(=O)O)c1O
REMARK SMILES IDX 7 1 11 2 6 3 5 4 3 5 4 6 8 7 9 8 10 9 12 11 2 13 1 14
REMARK H PARENT 10 10 12 12
ROOT
ATOM      1  C   UNL     1       6.075  -0.294  -2.251  1.00  0.00     0.105 A 
ATOM      2  C   UNL     1       7.101  -0.311  -3.155  1.00  0.00     0.172 A 
ATOM      3  C   UNL     1       5.122  -1.419  -2.277  1.00  0.00     0.020 A 
ATOM      4  C   UNL     1       5.504  -2.555  -2.915  1.00  0.00     0.005 A 
ATOM      5  C   UNL     1       7.661  -1.560  -3.651  1.00  0.00     0.161 A 
ATOM      6  C   UNL     1       6.742  -2.683  -3.610  1.00  0.00     0.050 A 
ENDROOT
BRANCH   1   7
ATOM      7  C   UNL     1       5.975   0.801  -1.174  1.00  0.00     0.339 C 
ATOM      8  O   UNL     1       5.016   0.230   0.013  1.00  0.00    -0.246 OA
BRANCH   7   9
ATOM      9  O   UNL     1       6.406   1.733  -0.942  1.00  0.00    -0.478 OA
ATOM     10  H   UNL     1       6.811   2.610  -0.724  1.00  0.00     0.297 HD
ENDBRANCH   7   9
ENDBRANCH   1   7
BRANCH   2  11
ATOM     11  O   UNL     1       7.677   0.879  -3.631  1.00  0.00    -0.504 OA
ATOM     12  H   UNL     1       8.083   1.718  -3.965  1.00  0.00     0.293 HD
ENDBRANCH   2  11
BRANCH   5  13
ATOM     13  O   UNL     1       8.821  -1.446  -4.407  1.00  0.00    -0.493 OA
ATOM     14  C   UNL     1      10.050  -1.619  -4.765  1.00  0.00     0.278 C 
ENDBRANCH   5  13
TORSDOF 4
ENDMDL
MODEL 2
REMARK VINA RESULT:    -4.708      2.891      3.936
REMARK INTER + INTRA:          -5.805
REMARK INTER:                  -5.534
REMARK INTRA:                  -0.270
REMARK UNBOUND:                -0.270
REMARK SMILES COc1cccc(C(=O)O)c1O
REMARK SMILES IDX 7 1 11 2 6 3 5 4 3 5 4 6 8 7 9 8 10 9 12 11 2 13 1 14
REMARK H PARENT 10 10 12 12
ROOT
ATOM      1  C   UNL     1       4.965  -2.792  -3.389  1.00  0.00     0.105 A 
ATOM      2  C   UNL     1       6.229  -3.292  -3.533  1.00  0.00     0.172 A 
ATOM      3  C   UNL     1       4.827  -1.424  -2.855  1.00  0.00     0.020 A 
ATOM      4  C   UNL     1       5.923  -0.622  -2.885  1.00  0.00     0.005 A 
ATOM      5  C   UNL     1       7.367  -2.426  -3.805  1.00  0.00     0.161 A 
ATOM      6  C   UNL     1       7.201  -1.061  -3.341  1.00  0.00     0.050 A 
ENDROOT
BRANCH   1   7
ATOM      7  C   UNL     1       3.733  -3.582  -3.864  1.00  0.00     0.339 C 
ATOM      8  O   UNL     1       2.519  -2.514  -4.068  1.00  0.00    -0.246 OA
BRANCH   7   9
ATOM      9  O   UNL     1       3.481  -4.555  -4.178  1.00  0.00    -0.478 OA
ATOM     10  H   UNL     1       3.244  -5.469  -4.474  1.00  0.00     0.297 HD
ENDBRANCH   7   9
ENDBRANCH   1   7
BRANCH   2  11
ATOM     11  O   UNL     1       6.485  -4.672  -3.447  1.00  0.00    -0.504 OA
ATOM     12  H   UNL     1       6.664  -5.643  -3.386  1.00  0.00     0.293 HD
ENDBRANCH   2  11
BRANCH   5  13
ATOM     13  O   UNL     1       8.556  -3.069  -4.125  1.00  0.00    -0.493 OA
ATOM     14  C   UNL     1       9.547  -3.489  -4.841  1.00  0.00     0.278 C 
ENDBRANCH   5  13
TORSDOF 4
ENDMDL
MODEL 3
REMARK VINA RESULT:    -4.436      2.213      3.207
REMARK INTER + INTRA:          -5.485
REMARK INTER:                  -5.003
REMARK INTRA:                  -0.482
REMARK UNBOUND:                -0.270
REMARK SMILES COc1cccc(C(=O)O)c1O
REMARK SMILES IDX 7 1 11 2 6 3 5 4 3 5 4 6 8 7 9 8 10 9 12 11 2 13 1 14
REMARK H PARENT 10 10 12 12
ROOT
ATOM      1  C   UNL     1       6.273  -0.010  -2.236  1.00  0.00     0.105 A 
ATOM      2  C   UNL     1       5.576  -1.174  -2.416  1.00  0.00     0.172 A 
ATOM      3  C   UNL     1       7.077   0.487  -3.368  1.00  0.00     0.020 A 
ATOM      4  C   UNL     1       6.802  -0.007  -4.603  1.00  0.00     0.005 A 
ATOM      5  C   UNL     1       5.079  -1.571  -3.725  1.00  0.00     0.161 A 
ATOM      6  C   UNL     1       5.829  -1.022  -4.840  1.00  0.00     0.050 A 
ENDROOT
BRANCH   1   7
ATOM      7  C   UNL     1       6.143   0.809  -0.940  1.00  0.00     0.339 C 
ATOM      8  O   UNL     1       4.861   0.225  -0.122  1.00  0.00    -0.246 OA
BRANCH   7   9
ATOM      9  O   UNL     1       6.675   1.540  -0.401  1.00  0.00    -0.478 OA
ATOM     10  H   UNL     1       7.177   2.227   0.105  1.00  0.00     0.297 HD
ENDBRANCH   7   9
ENDBRANCH   1   7
BRANCH   2  11
ATOM     11  O   UNL     1       5.290  -2.029  -1.338  1.00  0.00    -0.504 OA
ATOM     12  H   UNL     1       5.088  -2.631  -0.579  1.00  0.00     0.293 HD
ENDBRANCH   2  11
BRANCH   5  13
ATOM     13  O   UNL     1       4.222  -2.664  -3.741  1.00  0.00    -0.493 OA
ATOM     14  C   UNL     1       3.729  -3.807  -4.091  1.00  0.00     0.278 C 
ENDBRANCH   5  13
TORSDOF 4
ENDMDL
MODEL 4
REMARK VINA RESULT:    -4.410      2.914      4.339
REMARK INTER + INTRA:          -5.454
REMARK INTER:                  -4.970
REMARK INTRA:                  -0.484
REMARK UNBOUND:                -0.270
REMARK SMILES COc1cccc(C(=O)O)c1O
REMARK SMILES IDX 7 1 11 2 6 3 5 4 3 5 4 6 8 7 9 8 10 9 12 11 2 13 1 14
REMARK H PARENT 10 10 12 12
ROOT
ATOM      1  C   UNL     1       5.015  -3.151  -3.558  1.00  0.00     0.105 A 
ATOM      2  C   UNL     1       5.242  -1.839  -3.244  1.00  0.00     0.172 A 
ATOM      3  C   UNL     1       6.069  -4.126  -3.223  1.00  0.00     0.020 A 
ATOM      4  C   UNL     1       7.011  -3.752  -2.319  1.00  0.00     0.005 A 
ATOM      5  C   UNL     1       6.074  -1.458  -2.112  1.00  0.00     0.161 A 
ATOM      6  C   UNL     1       7.064  -2.451  -1.739  1.00  0.00     0.050 A 
ENDROOT
BRANCH   1   7
ATOM      7  C   UNL     1       3.669  -3.612  -4.142  1.00  0.00     0.339 C 
ATOM      8  O   UNL     1       2.598  -2.407  -3.908  1.00  0.00    -0.246 OA
BRANCH   7   9
ATOM      9  O   UNL     1       3.277  -4.405  -4.714  1.00  0.00    -0.478 OA
ATOM     10  H   UNL     1       2.909  -5.151  -5.251  1.00  0.00     0.297 HD
ENDBRANCH   7   9
ENDBRANCH   1   7
BRANCH   2  11
ATOM     11  O   UNL     1       4.664  -0.797  -3.990  1.00  0.00    -0.504 OA
ATOM     12  H   UNL     1       4.256  -0.064  -4.515  1.00  0.00     0.293 HD
ENDBRANCH   2  11
BRANCH   5  13
ATOM     13  O   UNL     1       6.065  -0.109  -1.781  1.00  0.00    -0.493 OA
ATOM     14  C   UNL     1       6.147   0.957  -1.054  1.00  0.00     0.278 C 
ENDBRANCH   5  13
TORSDOF 4
ENDMDL
MODEL 5
REMARK VINA RESULT:    -4.177      0.905      1.321
REMARK INTER + INTRA:          -5.179
REMARK INTER:                  -4.725
REMARK INTRA:                  -0.454
REMARK UNBOUND:                -0.270
REMARK SMILES COc1cccc(C(=O)O)c1O
REMARK SMILES IDX 7 1 11 2 6 3 5 4 3 5 4 6 8 7 9 8 10 9 12 11 2 13 1 14
REMARK H PARENT 10 10 12 12
ROOT
ATOM      1  C   UNL     1       5.380  -0.664  -2.190  1.00  0.00     0.105 A 
ATOM      2  C   UNL     1       6.446  -0.801  -3.037  1.00  0.00     0.172 A 
ATOM      3  C   UNL     1       4.173  -1.459  -2.476  1.00  0.00     0.020 A 
ATOM      4  C   UNL     1       4.301  -2.524  -3.308  1.00  0.00     0.005 A 
ATOM      5  C   UNL     1       6.702  -2.047  -3.746  1.00  0.00     0.161 A 
ATOM      6  C   UNL     1       5.522  -2.862  -3.963  1.00  0.00     0.050 A 
ENDROOT
BRANCH   1   7
ATOM      7  C   UNL     1       5.471   0.206  -0.924  1.00  0.00     0.339 C 
ATOM      8  O   UNL     1       6.229   1.588  -1.336  1.00  0.00    -0.246 OA
BRANCH   7   9
ATOM      9  O   UNL     1       5.115   0.213   0.067  1.00  0.00    -0.478 OA
ATOM     10  H   UNL     1       4.779   0.220   0.998  1.00  0.00     0.297 HD
ENDBRANCH   7   9
ENDBRANCH   1   7
BRANCH   2  11
ATOM     11  O   UNL     1       7.355   0.250  -3.245  1.00  0.00    -0.504 OA
ATOM     12  H   UNL     1       7.996   0.991  -3.391  1.00  0.00     0.293 HD
ENDBRANCH   2  11
BRANCH   5  13
ATOM     13  O   UNL     1       7.916  -2.123  -4.416  1.00  0.00    -0.493 OA
ATOM     14  C   UNL     1       9.140  -2.458  -4.663  1.00  0.00     0.278 C 
ENDBRANCH   5  13
TORSDOF 4
ENDMDL
MODEL 6
REMARK VINA RESULT:    -4.176      2.757      3.678
REMARK INTER + INTRA:          -5.178
REMARK INTER:                  -4.735
REMARK INTRA:                  -0.443
REMARK UNBOUND:                -0.270
REMARK SMILES COc1cccc(C(=O)O)c1O
REMARK SMILES IDX 7 1 11 2 6 3 5 4 3 5 4 6 8 7 9 8 10 9 12 11 2 13 1 14
REMARK H PARENT 10 10 12 12
ROOT
ATOM      1  C   UNL     1       4.659  -2.194  -3.000  1.00  0.00     0.105 A 
ATOM      2  C   UNL     1       5.944  -2.607  -3.221  1.00  0.00     0.172 A 
ATOM      3  C   UNL     1       4.454  -1.064  -2.076  1.00  0.00     0.020 A 
ATOM      4  C   UNL     1       5.524  -0.278  -1.792  1.00  0.00     0.005 A 
ATOM      5  C   UNL     1       7.067  -1.684  -3.143  1.00  0.00     0.161 A 
ATOM      6  C   UNL     1       6.836  -0.535  -2.288  1.00  0.00     0.050 A 
ENDROOT
BRANCH   1   7
ATOM      7  C   UNL     1       3.477  -2.812  -3.767  1.00  0.00     0.339 C 
ATOM      8  O   UNL     1       3.716  -4.423  -3.814  1.00  0.00    -0.246 OA
BRANCH   7   9
ATOM      9  O   UNL     1       2.547  -2.523  -4.167  1.00  0.00    -0.478 OA
ATOM     10  H   UNL     1       1.673  -2.251  -4.544  1.00  0.00     0.297 HD
ENDBRANCH   7   9
ENDBRANCH   1   7
BRANCH   2  11
ATOM     11  O   UNL     1       6.237  -3.941  -3.554  1.00  0.00    -0.504 OA
ATOM     12  H   UNL     1       6.443  -4.880  -3.788  1.00  0.00     0.293 HD
ENDBRANCH   2  11
BRANCH   5  13
ATOM     13  O   UNL     1       8.290  -2.179  -3.580  1.00  0.00    -0.493 OA
ATOM     14  C   UNL     1       9.319  -2.354  -4.341  1.00  0.00     0.278 C 
ENDBRANCH   5  13
TORSDOF 4
ENDMDL
MODEL 7
REMARK VINA RESULT:    -3.877      2.246      3.727
REMARK INTER + INTRA:          -4.827
REMARK INTER:                  -4.529
REMARK INTRA:                  -0.298
REMARK UNBOUND:                -0.270
REMARK SMILES COc1cccc(C(=O)O)c1O
REMARK SMILES IDX 7 1 11 2 6 3 5 4 3 5 4 6 8 7 9 8 10 9 12 11 2 13 1 14
REMARK H PARENT 10 10 12 12
ROOT
ATOM      1  C   UNL     1       6.784   0.236  -3.177  1.00  0.00     0.105 A 
ATOM      2  C   UNL     1       5.997  -0.713  -3.767  1.00  0.00     0.172 A 
ATOM      3  C   UNL     1       6.417   0.681  -1.820  1.00  0.00     0.020 A 
ATOM      4  C   UNL     1       5.576  -0.108  -1.103  1.00  0.00     0.005 A 
ATOM      5  C   UNL     1       5.283  -1.711  -2.982  1.00  0.00     0.161 A 
ATOM      6  C   UNL     1       4.986  -1.297  -1.623  1.00  0.00     0.050 A 
ENDROOT
BRANCH   1   7
ATOM      7  C   UNL     1       8.067   0.747  -3.855  1.00  0.00     0.339 C 
ATOM      8  O   UNL     1       8.856  -0.550  -4.444  1.00  0.00    -0.246 OA
BRANCH   7   9
ATOM      9  O   UNL     1       8.517   1.660  -4.127  1.00  0.00    -0.478 OA
ATOM     10  H   UNL     1       8.940   2.518  -4.382  1.00  0.00     0.297 HD
ENDBRANCH   7   9
ENDBRANCH   1   7
BRANCH   2  11
ATOM     11  O   UNL     1       5.857  -0.783  -5.164  1.00  0.00    -0.504 OA
ATOM     12  H   UNL     1       5.759  -0.832  -6.148  1.00  0.00     0.293 HD
ENDBRANCH   2  11
BRANCH   5  13
ATOM     13  O   UNL     1       4.682  -2.734  -3.704  1.00  0.00    -0.493 OA
ATOM     14  C   UNL     1       3.803  -3.620  -4.039  1.00  0.00     0.278 C 
ENDBRANCH   5  13
TORSDOF 4
ENDMDL
MODEL 8
REMARK VINA RESULT:    -3.873      2.303      4.665
REMARK INTER + INTRA:          -4.823
REMARK INTER:                  -4.555
REMARK INTRA:                  -0.267
REMARK UNBOUND:                -0.270
REMARK SMILES COc1cccc(C(=O)O)c1O
REMARK SMILES IDX 7 1 11 2 6 3 5 4 3 5 4 6 8 7 9 8 10 9 12 11 2 13 1 14
REMARK H PARENT 10 10 12 12
ROOT
ATOM      1  C   UNL     1       5.836  -3.709  -3.197  1.00  0.00     0.105 A 
ATOM      2  C   UNL     1       6.132  -2.680  -2.347  1.00  0.00     0.172 A 
ATOM      3  C   UNL     1       4.489  -3.734  -3.797  1.00  0.00     0.020 A 
ATOM      4  C   UNL     1       3.767  -2.584  -3.776  1.00  0.00     0.005 A 
ATOM      5  C   UNL     1       5.516  -1.369  -2.491  1.00  0.00     0.161 A 
ATOM      6  C   UNL     1       4.221  -1.388  -3.147  1.00  0.00     0.050 A 
ENDROOT
BRANCH   1   7
ATOM      7  C   UNL     1       6.898  -4.747  -3.599  1.00  0.00     0.339 C 
ATOM      8  O   UNL     1       8.254  -3.931  -3.985  1.00  0.00    -0.246 OA
BRANCH   7   9
ATOM      9  O   UNL     1       7.032  -5.791  -3.602  1.00  0.00    -0.478 OA
ATOM     10  H   UNL     1       7.158  -6.774  -3.605  1.00  0.00     0.297 HD
ENDBRANCH   7   9
ENDBRANCH   1   7
BRANCH   2  11
ATOM     11  O   UNL     1       7.064  -2.835  -1.307  1.00  0.00    -0.504 OA
ATOM     12  H   UNL     1       7.721  -2.945  -0.574  1.00  0.00     0.293 HD
ENDBRANCH   2  11
BRANCH   5  13
ATOM     13  O   UNL     1       6.045  -0.360  -1.696  1.00  0.00    -0.493 OA
ATOM     14  C   UNL     1       6.164   0.799  -1.136  1.00  0.00     0.278 C 
ENDBRANCH   5  13
TORSDOF 4
ENDMDL
MODEL 9
REMARK VINA RESULT:    -3.769      2.793      4.837
REMARK INTER + INTRA:          -4.700
REMARK INTER:                  -4.374
REMARK INTRA:                  -0.326
REMARK UNBOUND:                -0.270
REMARK SMILES COc1cccc(C(=O)O)c1O
REMARK SMILES IDX 7 1 11 2 6 3 5 4 3 5 4 6 8 7 9 8 10 9 12 11 2 13 1 14
REMARK H PARENT 10 10 12 12
ROOT
ATOM      1  C   UNL     1       4.566  -1.894  -3.571  1.00  0.00     0.105 A 
ATOM      2  C   UNL     1       4.312  -1.178  -2.433  1.00  0.00     0.172 A 
ATOM      3  C   UNL     1       5.704  -1.468  -4.406  1.00  0.00     0.020 A 
ATOM      4  C   UNL     1       6.635  -0.658  -3.839  1.00  0.00     0.005 A 
ATOM      5  C   UNL     1       5.375  -0.506  -1.701  1.00  0.00     0.161 A 
ATOM      6  C   UNL     1       6.525  -0.152  -2.511  1.00  0.00     0.050 A 
ENDROOT
BRANCH   1   7
ATOM      7  C   UNL     1       3.763  -3.160  -3.916  1.00  0.00     0.339 C 
ATOM      8  O   UNL     1       2.232  -2.698  -4.224  1.00  0.00    -0.246 OA
BRANCH   7   9
ATOM      9  O   UNL     1       3.928  -4.184  -4.101  1.00  0.00    -0.478 OA
ATOM     10  H   UNL     1       4.084  -5.146  -4.275  1.00  0.00     0.297 HD
ENDBRANCH   7   9
ENDBRANCH   1   7
BRANCH   2  11
ATOM     11  O   UNL     1       3.012  -1.077  -1.908  1.00  0.00    -0.504 OA
ATOM     12  H   UNL     1       2.097  -1.006  -1.537  1.00  0.00     0.293 HD
ENDBRANCH   2  11
BRANCH   5  13
ATOM     13  O   UNL     1       5.021   0.016  -0.463  1.00  0.00    -0.493 OA
ATOM     14  C   UNL     1       4.663   0.043   0.778  1.00  0.00     0.278 C 
ENDBRANCH   5  13
TORSDOF 4
ENDMDL
