MODEL 1
REMARK VINA RESULT:    -5.070      0.000      0.000
REMARK INTER + INTRA:          -6.393
REMARK INTER:                  -5.959
REMARK INTRA:                  -0.434
REMARK UNBOUND:                -0.434
REMARK SMILES COc1cccc(C(=O)O)c1O
REMARK SMILES IDX 7 1 11 2 6 3 5 4 3 5 4 6 8 7 9 8 10 9 12 11 2 13 1 14
REMARK H PARENT 10 10 12 12
ROOT
ATOM      1  C   UNL     1      -7.393  -3.098   0.835  1.00  0.00     0.105 A 
ATOM      2  C   UNL     1      -6.991  -1.796   0.951  1.00  0.00     0.172 A 
ATOM      3  C   UNL     1      -8.686  -3.357   0.175  1.00  0.00     0.020 A 
ATOM      4  C   UNL     1      -9.215  -2.367  -0.588  1.00  0.00     0.005 A 
ATOM      5  C   UNL     1      -7.380  -0.786  -0.024  1.00  0.00     0.161 A 
ATOM      6  C   UNL     1      -8.617  -1.079  -0.723  1.00  0.00     0.050 A 
ENDROOT
BRANCH   1   7
ATOM      7  C   UNL     1      -6.486  -4.259   1.278  1.00  0.00     0.339 C 
ATOM      8  O   UNL     1      -5.025  -3.629   1.628  1.00  0.00    -0.246 OA
BRANCH   7   9
ATOM      9  O   UNL     1      -6.557  -5.284   1.509  1.00  0.00    -0.478 OA
ATOM     10  H   UNL     1      -6.624  -6.248   1.725  1.00  0.00     0.297 HD
ENDBRANCH   7   9
ENDBRANCH   1   7
BRANCH   2  11
ATOM     11  O   UNL     1      -6.163  -1.377   2.006  1.00  0.00    -0.504 OA
ATOM     12  H   UNL     1      -5.580  -1.082   2.750  1.00  0.00     0.293 HD
ENDBRANCH   2  11
BRANCH   5  13
ATOM     13  O   UNL     1      -6.749   0.445   0.095  1.00  0.00    -0.493 OA
ATOM     14  C   UNL     1      -6.604   1.712   0.304  1.00  0.00     0.278 C 
ENDBRANCH   5  13
TORSDOF 4
ENDMDL
MODEL 2
REMARK VINA RESULT:    -5.033      1.799      4.629
REMARK INTER + INTRA:          -6.350
REMARK INTER:                  -5.935
REMARK INTRA:                  -0.414
REMARK UNBOUND:                -0.434
REMARK SMILES COc1cccc(C(=O)O)c1O
REMARK SMILES IDX 7 1 11 2 6 3 5 4 3 5 4 6 8 7 9 8 10 9 12 11 2 13 1 14
REMARK H PARENT 10 10 12 12
ROOT
ATOM      1  C   UNL     1      -7.306   0.358   1.015  1.00  0.00     0.105 A 
ATOM      2  C   UNL     1      -7.063  -0.978   0.851  1.00  0.00     0.172 A 
ATOM      3  C   UNL     1      -8.067   0.773   2.207  1.00  0.00     0.020 A 
ATOM      4  C   UNL     1      -8.163  -0.110   3.234  1.00  0.00     0.005 A 
ATOM      5  C   UNL     1      -6.931  -1.876   1.989  1.00  0.00     0.161 A 
ATOM      6  C   UNL     1      -7.624  -1.429   3.184  1.00  0.00     0.050 A 
ENDROOT
BRANCH   1   7
ATOM      7  C   UNL     1      -6.717   1.402   0.051  1.00  0.00     0.339 C 
ATOM      8  O   UNL     1      -5.525   0.674  -0.787  1.00  0.00    -0.246 OA
BRANCH   7   9
ATOM      9  O   UNL     1      -6.915   2.381  -0.283  1.00  0.00    -0.478 OA
ATOM     10  H   UNL     1      -7.101   3.302  -0.597  1.00  0.00     0.297 HD
ENDBRANCH   7   9
ENDBRANCH   1   7
BRANCH   2  11
ATOM     11  O   UNL     1      -6.909  -1.542  -0.427  1.00  0.00    -0.504 OA
ATOM     12  H   UNL     1      -6.800  -1.940  -1.328  1.00  0.00     0.293 HD
ENDBRANCH   2  11
BRANCH   5  13
ATOM     13  O   UNL     1      -6.492  -3.161   1.699  1.00  0.00    -0.493 OA
ATOM     14  C   UNL     1      -6.510  -4.368   1.236  1.00  0.00     0.278 C 
ENDBRANCH   5  13
TORSDOF 4
ENDMDL
MODEL 3
REMARK VINA RESULT:    -4.623      2.915      4.387
REMARK INTER + INTRA:          -5.868
REMARK INTER:                  -5.598
REMARK INTRA:                  -0.270
REMARK UNBOUND:                -0.434
REMARK SMILES COc1cccc(C(=O)O)c1O
REMARK SMILES IDX 7 1 11 2 6 3 5 4 3 5 4 6 8 7 9 8 10 9 12 11 2 13 1 14
REMARK H PARENT 10 10 12 12
ROOT
ATOM      1  C   UNL     1      -7.206   0.176   0.895  1.00  0.00     0.105 A 
ATOM      2  C   UNL     1      -8.261   0.251   1.762  1.00  0.00     0.172 A 
ATOM      3  C   UNL     1      -6.854  -1.153   0.361  1.00  0.00     0.020 A 
ATOM      4  C   UNL     1      -7.784  -2.138   0.455  1.00  0.00     0.005 A 
ATOM      5  C   UNL     1      -9.376  -0.682   1.691  1.00  0.00     0.161 A 
ATOM      6  C   UNL     1      -9.044  -1.964   1.100  1.00  0.00     0.050 A 
ENDROOT
BRANCH   1   7
ATOM      7  C   UNL     1      -6.478   1.441   0.408  1.00  0.00     0.339 C 
ATOM      8  O   UNL     1      -5.645   1.038  -0.933  1.00  0.00    -0.246 OA
BRANCH   7   9
ATOM      9  O   UNL     1      -6.441   2.471   0.620  1.00  0.00    -0.478 OA
ATOM     10  H   UNL     1      -6.406   3.441   0.820  1.00  0.00     0.297 HD
ENDBRANCH   7   9
ENDBRANCH   1   7
BRANCH   2  11
ATOM     11  O   UNL     1      -8.326   1.249   2.750  1.00  0.00    -0.504 OA
ATOM     12  H   UNL     1      -8.371   1.952   3.446  1.00  0.00     0.293 HD
ENDBRANCH   2  11
BRANCH   5  13
ATOM     13  O   UNL     1     -10.470  -0.380   2.492  1.00  0.00    -0.493 OA
ATOM     14  C   UNL     1     -11.698  -0.148   2.822  1.00  0.00     0.278 C 
ENDBRANCH   5  13
TORSDOF 4
ENDMDL
MODEL 4
REMARK VINA RESULT:    -4.613      2.338      3.335
REMARK INTER + INTRA:          -5.857
REMARK INTER:                  -5.592
REMARK INTRA:                  -0.264
REMARK UNBOUND:                -0.434
REMARK SMILES COc1cccc(C(=O)O)c1O
REMARK SMILES IDX 7 1 11 2 6 3 5 4 3 5 4 6 8 7 9 8 10 9 12 11 2 13 1 14
REMARK H PARENT 10 10 12 12
ROOT
ATOM      1  C   UNL     1      -7.320  -2.785   1.099  1.00  0.00     0.105 A 
ATOM      2  C   UNL     1      -8.665  -2.757   0.849  1.00  0.00     0.172 A 
ATOM      3  C   UNL     1      -6.675  -1.525   1.511  1.00  0.00     0.020 A 
ATOM      4  C   UNL     1      -7.474  -0.527   1.968  1.00  0.00     0.005 A 
ATOM      5  C   UNL     1      -9.550  -1.826   1.535  1.00  0.00     0.161 A 
ATOM      6  C   UNL     1      -8.896  -0.618   2.003  1.00  0.00     0.050 A 
ENDROOT
BRANCH   1   7
ATOM      7  C   UNL     1      -6.526  -4.102   1.056  1.00  0.00     0.339 C 
ATOM      8  O   UNL     1      -5.082  -3.823   1.755  1.00  0.00    -0.246 OA
BRANCH   7   9
ATOM      9  O   UNL     1      -6.673  -5.115   0.807  1.00  0.00    -0.478 OA
ATOM     10  H   UNL     1      -6.810  -6.067   0.573  1.00  0.00     0.297 HD
ENDBRANCH   7   9
ENDBRANCH   1   7
BRANCH   2  11
ATOM     11  O   UNL     1      -9.258  -3.642  -0.068  1.00  0.00    -0.504 OA
ATOM     12  H   UNL     1      -9.675  -4.265  -0.714  1.00  0.00     0.293 HD
ENDBRANCH   2  11
BRANCH   5  13
ATOM     13  O   UNL     1     -10.910  -2.030   1.342  1.00  0.00    -0.493 OA
ATOM     14  C   UNL     1     -12.178  -2.037   1.595  1.00  0.00     0.278 C 
ENDBRANCH   5  13
TORSDOF 4
ENDMDL
MODEL 5
REMARK VINA RESULT:    -4.183      2.181      3.097
REMARK INTER + INTRA:          -5.351
REMARK INTER:                  -5.035
REMARK INTRA:                  -0.316
REMARK UNBOUND:                -0.434
REMARK SMILES COc1cccc(C(=O)O)c1O
REMARK SMILES IDX 7 1 11 2 6 3 5 4 3 5 4 6 8 7 9 8 10 9 12 11 2 13 1 14
REMARK H PARENT 10 10 12 12
ROOT
ATOM      1  C   UNL     1      -8.413  -3.047   0.273  1.00  0.00     0.105 A 
ATOM      2  C   UNL     1      -8.121  -1.759  -0.084  1.00  0.00     0.172 A 
ATOM      3  C   UNL     1      -7.326  -3.860   0.847  1.00  0.00     0.020 A 
ATOM      4  C   UNL     1      -6.234  -3.208   1.324  1.00  0.00     0.005 A 
ATOM      5  C   UNL     1      -7.097  -0.989   0.607  1.00  0.00     0.161 A 
ATOM      6  C   UNL     1      -6.066  -1.795   1.233  1.00  0.00     0.050 A 
ENDROOT
BRANCH   1   7
ATOM      7  C   UNL     1      -9.846  -3.599   0.179  1.00  0.00     0.339 C 
ATOM      8  O   UNL     1     -10.849  -2.448   0.747  1.00  0.00    -0.246 OA
BRANCH   7   9
ATOM      9  O   UNL     1     -10.358  -4.428  -0.220  1.00  0.00    -0.478 OA
ATOM     10  H   UNL     1     -10.839  -5.209  -0.595  1.00  0.00     0.297 HD
ENDBRANCH   7   9
ENDBRANCH   1   7
BRANCH   2  11
ATOM     11  O   UNL     1      -8.814  -1.113  -1.122  1.00  0.00    -0.504 OA
ATOM     12  H   UNL     1      -9.302  -0.658  -1.853  1.00  0.00     0.293 HD
ENDBRANCH   2  11
BRANCH   5  13
ATOM     13  O   UNL     1      -7.035   0.361   0.284  1.00  0.00    -0.493 OA
ATOM     14  C   UNL     1      -6.640   1.591   0.310  1.00  0.00     0.278 C 
ENDBRANCH   5  13
TORSDOF 4
ENDMDL
MODEL 6
REMARK VINA RESULT:    -4.175      2.378      4.601
REMARK INTER + INTRA:          -5.342
REMARK INTER:                  -5.060
REMARK INTRA:                  -0.282
REMARK UNBOUND:                -0.434
REMARK SMILES COc1cccc(C(=O)O)c1O
REMARK SMILES IDX 7 1 11 2 6 3 5 4 3 5 4 6 8 7 9 8 10 9 12 11 2 13 1 14
REMARK H PARENT 10 10 12 12
ROOT
ATOM      1  C   UNL     1      -7.777   0.388   2.024  1.00  0.00     0.105 A 
ATOM      2  C   UNL     1      -7.328  -0.894   2.182  1.00  0.00     0.172 A 
ATOM      3  C   UNL     1      -7.131   1.216   0.989  1.00  0.00     0.020 A 
ATOM      4  C   UNL     1      -6.413   0.578   0.028  1.00  0.00     0.005 A 
ATOM      5  C   UNL     1      -6.774  -1.651   1.068  1.00  0.00     0.161 A 
ATOM      6  C   UNL     1      -6.203  -0.832   0.016  1.00  0.00     0.050 A 
ENDROOT
BRANCH   1   7
ATOM      7  C   UNL     1      -8.980   0.919   2.823  1.00  0.00     0.339 C 
ATOM      8  O   UNL     1     -10.143  -0.220   2.765  1.00  0.00    -0.246 OA
BRANCH   7   9
ATOM      9  O   UNL     1      -9.226   1.726   3.452  1.00  0.00    -0.478 OA
ATOM     10  H   UNL     1      -9.459   2.486   4.044  1.00  0.00     0.297 HD
ENDBRANCH   7   9
ENDBRANCH   1   7
BRANCH   2  11
ATOM     11  O   UNL     1      -7.403  -1.548   3.423  1.00  0.00    -0.504 OA
ATOM     12  H   UNL     1      -7.456  -2.009   4.298  1.00  0.00     0.293 HD
ENDBRANCH   2  11
BRANCH   5  13
ATOM     13  O   UNL     1      -6.540  -2.999   1.310  1.00  0.00    -0.493 OA
ATOM     14  C   UNL     1      -6.642  -4.282   1.191  1.00  0.00     0.278 C 
ENDBRANCH   5  13
TORSDOF 4
ENDMDL
MODEL 7
REMARK VINA RESULT:    -4.056      2.691      4.163
REMARK INTER + INTRA:          -5.202
REMARK INTER:                  -4.745
REMARK INTRA:                  -0.457
REMARK UNBOUND:                -0.434
REMARK SMILES COc1cccc(C(=O)O)c1O
REMARK SMILES IDX 7 1 11 2 6 3 5 4 3 5 4 6 8 7 9 8 10 9 12 11 2 13 1 14
REMARK H PARENT 10 10 12 12
ROOT
ATOM      1  C   UNL     1      -6.603  -0.496   0.768  1.00  0.00     0.105 A 
ATOM      2  C   UNL     1      -7.759  -0.430   1.497  1.00  0.00     0.172 A 
ATOM      3  C   UNL     1      -5.910  -1.796   0.702  1.00  0.00     0.020 A 
ATOM      4  C   UNL     1      -6.617  -2.906   1.039  1.00  0.00     0.005 A 
ATOM      5  C   UNL     1      -8.633  -1.585   1.649  1.00  0.00     0.161 A 
ATOM      6  C   UNL     1      -7.961  -2.863   1.512  1.00  0.00     0.050 A 
ENDROOT
BRANCH   1   7
ATOM      7  C   UNL     1      -6.097   0.710  -0.041  1.00  0.00     0.339 C 
ATOM      8  O   UNL     1      -6.188   2.018   0.926  1.00  0.00    -0.246 OA
BRANCH   7   9
ATOM      9  O   UNL     1      -5.636   0.914  -0.965  1.00  0.00    -0.478 OA
ATOM     10  H   UNL     1      -5.202   1.105  -1.835  1.00  0.00     0.297 HD
ENDBRANCH   7   9
ENDBRANCH   1   7
BRANCH   2  11
ATOM     11  O   UNL     1      -8.166   0.764   2.116  1.00  0.00    -0.504 OA
ATOM     12  H   UNL     1      -8.453   1.605   2.552  1.00  0.00     0.293 HD
ENDBRANCH   2  11
BRANCH   5  13
ATOM     13  O   UNL     1      -9.865  -1.337   2.241  1.00  0.00    -0.493 OA
ATOM     14  C   UNL     1     -11.125  -1.065   2.339  1.00  0.00     0.278 C 
ENDBRANCH   5  13
TORSDOF 4
ENDMDL
MODEL 8
REMARK VINA RESULT:    -4.019      2.004      3.019
REMARK INTER + INTRA:          -5.158
REMARK INTER:                  -4.727
REMARK INTRA:                  -0.431
REMARK UNBOUND:                -0.434
REMARK SMILES COc1cccc(C(=O)O)c1O
REMARK SMILES IDX 7 1 11 2 6 3 5 4 3 5 4 6 8 7 9 8 10 9 12 11 2 13 1 14
REMARK H PARENT 10 10 12 12
ROOT
ATOM      1  C   UNL     1      -6.665  -2.205   0.731  1.00  0.00     0.105 A 
ATOM      2  C   UNL     1      -8.031  -2.164   0.702  1.00  0.00     0.172 A 
ATOM      3  C   UNL     1      -5.936  -0.970   0.390  1.00  0.00     0.020 A 
ATOM      4  C   UNL     1      -6.625   0.200   0.429  1.00  0.00     0.005 A 
ATOM      5  C   UNL     1      -8.765  -0.939   0.984  1.00  0.00     0.161 A 
ATOM      6  C   UNL     1      -8.020   0.277   0.714  1.00  0.00     0.050 A 
ENDROOT
BRANCH   1   7
ATOM      7  C   UNL     1      -5.912  -3.461   1.205  1.00  0.00     0.339 C 
ATOM      8  O   UNL     1      -6.568  -4.740   0.440  1.00  0.00    -0.246 OA
BRANCH   7   9
ATOM      9  O   UNL     1      -5.066  -3.715   1.779  1.00  0.00    -0.478 OA
ATOM     10  H   UNL     1      -4.271  -3.954   2.319  1.00  0.00     0.297 HD
ENDBRANCH   7   9
ENDBRANCH   1   7
BRANCH   2  11
ATOM     11  O   UNL     1      -8.792  -3.312   0.419  1.00  0.00    -0.504 OA
ATOM     12  H   UNL     1      -9.328  -4.120   0.220  1.00  0.00     0.293 HD
ENDBRANCH   2  11
BRANCH   5  13
ATOM     13  O   UNL     1     -10.141  -1.073   1.117  1.00  0.00    -0.493 OA
ATOM     14  C   UNL     1     -11.279  -1.360   1.657  1.00  0.00     0.278 C 
ENDBRANCH   5  13
TORSDOF 4
ENDMDL
MODEL 9
REMARK VINA RESULT:    -3.630      2.392      4.402
REMARK INTER + INTRA:          -4.701
REMARK INTER:                  -4.501
REMARK INTRA:                  -0.200
REMARK UNBOUND:                -0.434
REMARK SMILES COc1cccc(C(=O)O)c1O
REMARK SMILES IDX 7 1 11 2 6 3 5 4 3 5 4 6 8 7 9 8 10 9 12 11 2 13 1 14
REMARK H PARENT 10 10 12 12
ROOT
ATOM      1  C   UNL     1      -7.422   0.246   0.487  1.00  0.00     0.105 A 
ATOM      2  C   UNL     1      -8.226  -0.734  -0.026  1.00  0.00     0.172 A 
ATOM      3  C   UNL     1      -7.812   0.845   1.777  1.00  0.00     0.020 A 
ATOM      4  C   UNL     1      -8.703   0.166   2.544  1.00  0.00     0.005 A 
ATOM      5  C   UNL     1      -8.999  -1.617   0.836  1.00  0.00     0.161 A 
ATOM      6  C   UNL     1      -9.321  -1.051   2.133  1.00  0.00     0.050 A 
ENDROOT
BRANCH   1   7
ATOM      7  C   UNL     1      -6.102   0.639  -0.198  1.00  0.00     0.339 C 
ATOM      8  O   UNL     1      -5.067  -0.605  -0.009  1.00  0.00    -0.246 OA
BRANCH   7   9
ATOM      9  O   UNL     1      -5.718   1.402  -0.813  1.00  0.00    -0.478 OA
ATOM     10  H   UNL     1      -5.358   2.121  -1.392  1.00  0.00     0.297 HD
ENDBRANCH   7   9
ENDBRANCH   1   7
BRANCH   2  11
ATOM     11  O   UNL     1      -8.326  -0.947  -1.412  1.00  0.00    -0.504 OA
ATOM     12  H   UNL     1      -8.397  -1.097  -2.388  1.00  0.00     0.293 HD
ENDBRANCH   2  11
BRANCH   5  13
ATOM     13  O   UNL     1      -9.616  -2.690   0.206  1.00  0.00    -0.493 OA
ATOM     14  C   UNL     1     -10.289  -3.785   0.067  1.00  0.00     0.278 C 
ENDBRANCH   5  13
TORSDOF 4
ENDMDL
