MODEL 1
REMARK VINA RESULT:    -5.138      0.000      0.000
REMARK INTER + INTRA:          -6.453
REMARK INTER:                  -6.039
REMARK INTRA:                  -0.414
REMARK UNBOUND:                -0.414
REMARK SMILES COc1cccc(C(=O)O)c1O
REMARK SMILES IDX 7 1 11 2 6 3 5 4 3 5 4 6 8 7 9 8 10 9 12 11 2 13 1 14
REMARK H PARENT 10 10 12 12
ROOT
ATOM      1  C   UNL     1       3.267   6.828   0.827  1.00  0.00     0.105 A 
ATOM      2  C   UNL     1       2.964   6.315   2.058  1.00  0.00     0.172 A 
ATOM      3  C   UNL     1       4.585   7.468   0.658  1.00  0.00     0.020 A 
ATOM      4  C   UNL     1       5.541   7.196   1.583  1.00  0.00     0.005 A 
ATOM      5  C   UNL     1       3.996   5.804   2.948  1.00  0.00     0.161 A 
ATOM      6  C   UNL     1       5.309   6.384   2.732  1.00  0.00     0.050 A 
ENDROOT
BRANCH   1   7
ATOM      7  C   UNL     1       2.316   6.653  -0.370  1.00  0.00     0.339 C 
ATOM      8  O   UNL     1       1.218   5.522   0.042  1.00  0.00    -0.246 OA
BRANCH   7   9
ATOM      9  O   UNL     1       2.114   7.101  -1.301  1.00  0.00    -0.478 OA
ATOM     10  H   UNL     1       1.925   7.522  -2.177  1.00  0.00     0.297 HD
ENDBRANCH   7   9
ENDBRANCH   1   7
BRANCH   2  11
ATOM     11  O   UNL     1       1.636   6.238   2.511  1.00  0.00    -0.504 OA
ATOM     12  H   UNL     1       0.700   6.184   2.831  1.00  0.00     0.293 HD
ENDBRANCH   2  11
BRANCH   5  13
ATOM     13  O   UNL     1       3.545   5.133   4.077  1.00  0.00    -0.493 OA
ATOM     14  C   UNL     1       2.993   4.946   5.231  1.00  0.00     0.278 C 
ENDBRANCH   5  13
TORSDOF 4
ENDMDL
MODEL 2
REMARK VINA RESULT:    -5.103      1.818      4.584
REMARK INTER + INTRA:          -6.412
REMARK INTER:                  -5.996
REMARK INTRA:                  -0.416
REMARK UNBOUND:                -0.414
REMARK SMILES COc1cccc(C(=O)O)c1O
REMARK SMILES IDX 7 1 11 2 6 3 5 4 3 5 4 6 8 7 9 8 10 9 12 11 2 13 1 14
REMARK H PARENT 10 10 12 12
ROOT
ATOM      1  C   UNL     1       2.859   6.197   4.117  1.00  0.00     0.105 A 
ATOM      2  C   UNL     1       2.903   6.112   2.752  1.00  0.00     0.172 A 
ATOM      3  C   UNL     1       2.479   7.492   4.709  1.00  0.00     0.020 A 
ATOM      4  C   UNL     1       1.852   8.392   3.908  1.00  0.00     0.005 A 
ATOM      5  C   UNL     1       2.041   6.927   1.908  1.00  0.00     0.161 A 
ATOM      6  C   UNL     1       1.609   8.169   2.521  1.00  0.00     0.050 A 
ENDROOT
BRANCH   1   7
ATOM      7  C   UNL     1       3.094   4.962   5.003  1.00  0.00     0.339 C 
ATOM      8  O   UNL     1       3.069   3.654   4.033  1.00  0.00    -0.246 OA
BRANCH   7   9
ATOM      9  O   UNL     1       3.355   4.731   5.997  1.00  0.00    -0.478 OA
ATOM     10  H   UNL     1       3.599   4.514   6.932  1.00  0.00     0.297 HD
ENDBRANCH   7   9
ENDBRANCH   1   7
BRANCH   2  11
ATOM     11  O   UNL     1       3.769   5.216   2.102  1.00  0.00    -0.504 OA
ATOM     12  H   UNL     1       4.379   4.585   1.645  1.00  0.00     0.293 HD
ENDBRANCH   2  11
BRANCH   5  13
ATOM     13  O   UNL     1       2.039   6.607   0.556  1.00  0.00    -0.493 OA
ATOM     14  C   UNL     1       2.444   6.541  -0.669  1.00  0.00     0.278 C 
ENDBRANCH   5  13
TORSDOF 4
ENDMDL
MODEL 3
REMARK VINA RESULT:    -4.672      2.052      2.976
REMARK INTER + INTRA:          -5.906
REMARK INTER:                  -5.636
REMARK INTRA:                  -0.270
REMARK UNBOUND:                -0.414
REMARK SMILES COc1cccc(C(=O)O)c1O
REMARK SMILES IDX 7 1 11 2 6 3 5 4 3 5 4 6 8 7 9 8 10 9 12 11 2 13 1 14
REMARK H PARENT 10 10 12 12
ROOT
ATOM      1  C   UNL     1       3.090   6.374   1.049  1.00  0.00     0.105 A 
ATOM      2  C   UNL     1       4.020   7.307   1.418  1.00  0.00     0.172 A 
ATOM      3  C   UNL     1       2.614   5.438   2.084  1.00  0.00     0.020 A 
ATOM      4  C   UNL     1       2.827   5.771   3.383  1.00  0.00     0.005 A 
ATOM      5  C   UNL     1       4.078   7.832   2.774  1.00  0.00     0.161 A 
ATOM      6  C   UNL     1       3.543   6.937   3.783  1.00  0.00     0.050 A 
ENDROOT
BRANCH   1   7
ATOM      7  C   UNL     1       2.482   6.364  -0.364  1.00  0.00     0.339 C 
ATOM      8  O   UNL     1       1.032   5.628  -0.266  1.00  0.00    -0.246 OA
BRANCH   7   9
ATOM      9  O   UNL     1       2.674   6.766  -1.318  1.00  0.00    -0.478 OA
ATOM     10  H   UNL     1       2.855   7.143  -2.216  1.00  0.00     0.297 HD
ENDBRANCH   7   9
ENDBRANCH   1   7
BRANCH   2  11
ATOM     11  O   UNL     1       4.949   7.818   0.495  1.00  0.00    -0.504 OA
ATOM     12  H   UNL     1       5.604   8.177  -0.154  1.00  0.00     0.293 HD
ENDBRANCH   2  11
BRANCH   5  13
ATOM     13  O   UNL     1       4.931   8.911   2.969  1.00  0.00    -0.493 OA
ATOM     14  C   UNL     1       5.308  10.131   3.166  1.00  0.00     0.278 C 
ENDBRANCH   5  13
TORSDOF 4
ENDMDL
MODEL 4
REMARK VINA RESULT:    -4.669      2.720      4.324
REMARK INTER + INTRA:          -5.902
REMARK INTER:                  -5.631
REMARK INTRA:                  -0.271
REMARK UNBOUND:                -0.414
REMARK SMILES COc1cccc(C(=O)O)c1O
REMARK SMILES IDX 7 1 11 2 6 3 5 4 3 5 4 6 8 7 9 8 10 9 12 11 2 13 1 14
REMARK H PARENT 10 10 12 12
ROOT
ATOM      1  C   UNL     1       2.757   5.949   3.730  1.00  0.00     0.105 A 
ATOM      2  C   UNL     1       2.916   7.294   3.920  1.00  0.00     0.172 A 
ATOM      3  C   UNL     1       2.589   5.469   2.346  1.00  0.00     0.020 A 
ATOM      4  C   UNL     1       2.960   6.302   1.340  1.00  0.00     0.005 A 
ATOM      5  C   UNL     1       3.540   8.139   2.913  1.00  0.00     0.161 A 
ATOM      6  C   UNL     1       3.435   7.629   1.558  1.00  0.00     0.050 A 
ENDROOT
BRANCH   1   7
ATOM      7  C   UNL     1       2.857   4.958   4.903  1.00  0.00     0.339 C 
ATOM      8  O   UNL     1       3.247   3.504   4.280  1.00  0.00    -0.246 OA
BRANCH   7   9
ATOM      9  O   UNL     1       2.845   4.964   5.956  1.00  0.00    -0.478 OA
ATOM     10  H   UNL     1       2.834   4.969   6.946  1.00  0.00     0.297 HD
ENDBRANCH   7   9
ENDBRANCH   1   7
BRANCH   2  11
ATOM     11  O   UNL     1       2.502   7.919   5.109  1.00  0.00    -0.504 OA
ATOM     12  H   UNL     1       2.210   8.359   5.947  1.00  0.00     0.293 HD
ENDBRANCH   2  11
BRANCH   5  13
ATOM     13  O   UNL     1       3.820   9.442   3.304  1.00  0.00    -0.493 OA
ATOM     14  C   UNL     1       4.516  10.482   3.627  1.00  0.00     0.278 C 
ENDBRANCH   5  13
TORSDOF 4
ENDMDL
MODEL 5
REMARK VINA RESULT:    -4.280      2.165      3.126
REMARK INTER + INTRA:          -5.445
REMARK INTER:                  -5.151
REMARK INTRA:                  -0.294
REMARK UNBOUND:                -0.414
REMARK SMILES COc1cccc(C(=O)O)c1O
REMARK SMILES IDX 7 1 11 2 6 3 5 4 3 5 4 6 8 7 9 8 10 9 12 11 2 13 1 14
REMARK H PARENT 10 10 12 12
ROOT
ATOM      1  C   UNL     1       4.384   7.155   0.968  1.00  0.00     0.105 A 
ATOM      2  C   UNL     1       4.354   6.397   2.106  1.00  0.00     0.172 A 
ATOM      3  C   UNL     1       3.332   6.921  -0.038  1.00  0.00     0.020 A 
ATOM      4  C   UNL     1       2.215   6.259   0.359  1.00  0.00     0.005 A 
ATOM      5  C   UNL     1       3.103   5.891   2.653  1.00  0.00     0.161 A 
ATOM      6  C   UNL     1       2.046   5.728   1.672  1.00  0.00     0.050 A 
ENDROOT
BRANCH   1   7
ATOM      7  C   UNL     1       5.413   8.285   0.787  1.00  0.00     0.339 C 
ATOM      8  O   UNL     1       5.468   9.122   2.183  1.00  0.00    -0.246 OA
BRANCH   7   9
ATOM      9  O   UNL     1       6.134   8.602   0.089  1.00  0.00    -0.478 OA
ATOM     10  H   UNL     1       6.813   8.901  -0.568  1.00  0.00     0.297 HD
ENDBRANCH   7   9
ENDBRANCH   1   7
BRANCH   2  11
ATOM     11  O   UNL     1       5.529   6.089   2.812  1.00  0.00    -0.504 OA
ATOM     12  H   UNL     1       6.357   5.873   3.310  1.00  0.00     0.293 HD
ENDBRANCH   2  11
BRANCH   5  13
ATOM     13  O   UNL     1       3.184   5.307   3.911  1.00  0.00    -0.493 OA
ATOM     14  C   UNL     1       2.958   5.111   5.168  1.00  0.00     0.278 C 
ENDBRANCH   5  13
TORSDOF 4
ENDMDL
MODEL 6
REMARK VINA RESULT:    -4.279      2.467      4.618
REMARK INTER + INTRA:          -5.444
REMARK INTER:                  -5.109
REMARK INTRA:                  -0.334
REMARK UNBOUND:                -0.414
REMARK SMILES COc1cccc(C(=O)O)c1O
REMARK SMILES IDX 7 1 11 2 6 3 5 4 3 5 4 6 8 7 9 8 10 9 12 11 2 13 1 14
REMARK H PARENT 10 10 12 12
ROOT
ATOM      1  C   UNL     1       2.481   7.292   4.373  1.00  0.00     0.105 A 
ATOM      2  C   UNL     1       2.155   7.345   3.046  1.00  0.00     0.172 A 
ATOM      3  C   UNL     1       2.791   5.970   4.948  1.00  0.00     0.020 A 
ATOM      4  C   UNL     1       3.094   4.963   4.089  1.00  0.00     0.005 A 
ATOM      5  C   UNL     1       2.688   6.385   2.090  1.00  0.00     0.161 A 
ATOM      6  C   UNL     1       3.059   5.108   2.671  1.00  0.00     0.050 A 
ENDROOT
BRANCH   1   7
ATOM      7  C   UNL     1       2.623   8.572   5.214  1.00  0.00     0.339 C 
ATOM      8  O   UNL     1       3.408   9.670   4.301  1.00  0.00    -0.246 OA
BRANCH   7   9
ATOM      9  O   UNL     1       2.289   8.965   6.132  1.00  0.00    -0.478 OA
ATOM     10  H   UNL     1       1.975   9.335   6.995  1.00  0.00     0.297 HD
ENDBRANCH   7   9
ENDBRANCH   1   7
BRANCH   2  11
ATOM     11  O   UNL     1       1.306   8.344   2.540  1.00  0.00    -0.504 OA
ATOM     12  H   UNL     1       0.708   9.049   2.184  1.00  0.00     0.293 HD
ENDBRANCH   2  11
BRANCH   5  13
ATOM     13  O   UNL     1       2.443   6.663   0.751  1.00  0.00    -0.493 OA
ATOM     14  C   UNL     1       2.568   6.617  -0.534  1.00  0.00     0.278 C 
ENDBRANCH   5  13
TORSDOF 4
ENDMDL
MODEL 7
REMARK VINA RESULT:    -4.113      1.926      1.930
REMARK INTER + INTRA:          -5.249
REMARK INTER:                  -4.766
REMARK INTRA:                  -0.483
REMARK UNBOUND:                -0.414
REMARK SMILES COc1cccc(C(=O)O)c1O
REMARK SMILES IDX 7 1 11 2 6 3 5 4 3 5 4 6 8 7 9 8 10 9 12 11 2 13 1 14
REMARK H PARENT 10 10 12 12
ROOT
ATOM      1  C   UNL     1       3.328   7.304   0.743  1.00  0.00     0.105 A 
ATOM      2  C   UNL     1       2.653   7.749   1.846  1.00  0.00     0.172 A 
ATOM      3  C   UNL     1       4.729   7.734   0.579  1.00  0.00     0.020 A 
ATOM      4  C   UNL     1       5.372   8.220   1.671  1.00  0.00     0.005 A 
ATOM      5  C   UNL     1       3.341   8.042   3.095  1.00  0.00     0.161 A 
ATOM      6  C   UNL     1       4.739   8.396   2.937  1.00  0.00     0.050 A 
ENDROOT
BRANCH   1   7
ATOM      7  C   UNL     1       2.689   6.306  -0.238  1.00  0.00     0.339 C 
ATOM      8  O   UNL     1       1.356   5.704   0.479  1.00  0.00    -0.246 OA
BRANCH   7   9
ATOM      9  O   UNL     1       2.799   5.984  -1.235  1.00  0.00    -0.478 OA
ATOM     10  H   UNL     1       2.903   5.683  -2.172  1.00  0.00     0.297 HD
ENDBRANCH   7   9
ENDBRANCH   1   7
BRANCH   2  11
ATOM     11  O   UNL     1       1.259   7.924   1.829  1.00  0.00    -0.504 OA
ATOM     12  H   UNL     1       0.277   8.047   1.817  1.00  0.00     0.293 HD
ENDBRANCH   2  11
BRANCH   5  13
ATOM     13  O   UNL     1       2.525   8.294   4.191  1.00  0.00    -0.493 OA
ATOM     14  C   UNL     1       2.182   8.657   5.383  1.00  0.00     0.278 C 
ENDBRANCH   5  13
TORSDOF 4
ENDMDL
MODEL 8
REMARK VINA RESULT:    -4.091      2.226      4.326
REMARK INTER + INTRA:          -5.223
REMARK INTER:                  -4.798
REMARK INTRA:                  -0.425
REMARK UNBOUND:                -0.414
REMARK SMILES COc1cccc(C(=O)O)c1O
REMARK SMILES IDX 7 1 11 2 6 3 5 4 3 5 4 6 8 7 9 8 10 9 12 11 2 13 1 14
REMARK H PARENT 10 10 12 12
ROOT
ATOM      1  C   UNL     1       3.045   5.855   2.621  1.00  0.00     0.105 A 
ATOM      2  C   UNL     1       3.978   6.809   2.320  1.00  0.00     0.172 A 
ATOM      3  C   UNL     1       1.935   5.660   1.670  1.00  0.00     0.020 A 
ATOM      4  C   UNL     1       2.088   6.149   0.413  1.00  0.00     0.005 A 
ATOM      5  C   UNL     1       4.301   7.153   0.943  1.00  0.00     0.161 A 
ATOM      6  C   UNL     1       3.232   6.893  -0.003  1.00  0.00     0.050 A 
ENDROOT
BRANCH   1   7
ATOM      7  C   UNL     1       3.200   4.944   3.851  1.00  0.00     0.339 C 
ATOM      8  O   UNL     1       3.232   5.903   5.167  1.00  0.00    -0.246 OA
BRANCH   7   9
ATOM      9  O   UNL     1       3.193   3.918   4.091  1.00  0.00    -0.478 OA
ATOM     10  H   UNL     1       3.185   2.954   4.316  1.00  0.00     0.297 HD
ENDBRANCH   7   9
ENDBRANCH   1   7
BRANCH   2  11
ATOM     11  O   UNL     1       4.685   7.486   3.329  1.00  0.00    -0.504 OA
ATOM     12  H   UNL     1       5.182   7.962   4.040  1.00  0.00     0.293 HD
ENDBRANCH   2  11
BRANCH   5  13
ATOM     13  O   UNL     1       5.398   7.987   0.768  1.00  0.00    -0.493 OA
ATOM     14  C   UNL     1       6.073   9.049   0.474  1.00  0.00     0.278 C 
ENDBRANCH   5  13
TORSDOF 4
ENDMDL
MODEL 9
REMARK VINA RESULT:    -3.730      1.838      2.071
REMARK INTER + INTRA:          -4.799
REMARK INTER:                  -4.529
REMARK INTRA:                  -0.270
REMARK UNBOUND:                -0.414
REMARK SMILES COc1cccc(C(=O)O)c1O
REMARK SMILES IDX 7 1 11 2 6 3 5 4 3 5 4 6 8 7 9 8 10 9 12 11 2 13 1 14
REMARK H PARENT 10 10 12 12
ROOT
ATOM      1  C   UNL     1       2.223   6.531   1.603  1.00  0.00     0.105 A 
ATOM      2  C   UNL     1       2.305   5.337   2.266  1.00  0.00     0.172 A 
ATOM      3  C   UNL     1       2.139   7.759   2.415  1.00  0.00     0.020 A 
ATOM      4  C   UNL     1       2.512   7.680   3.718  1.00  0.00     0.005 A 
ATOM      5  C   UNL     1       2.930   5.233   3.577  1.00  0.00     0.161 A 
ATOM      6  C   UNL     1       2.910   6.463   4.346  1.00  0.00     0.050 A 
ENDROOT
BRANCH   1   7
ATOM      7  C   UNL     1       2.320   6.603   0.069  1.00  0.00     0.339 C 
ATOM      8  O   UNL     1       1.105   5.705  -0.539  1.00  0.00    -0.246 OA
BRANCH   7   9
ATOM      9  O   UNL     1       2.858   7.122  -0.672  1.00  0.00    -0.478 OA
ATOM     10  H   UNL     1       3.364   7.609  -1.370  1.00  0.00     0.297 HD
ENDBRANCH   7   9
ENDBRANCH   1   7
BRANCH   2  11
ATOM     11  O   UNL     1       1.808   4.151   1.700  1.00  0.00    -0.504 OA
ATOM     12  H   UNL     1       1.458   3.315   1.301  1.00  0.00     0.293 HD
ENDBRANCH   2  11
BRANCH   5  13
ATOM     13  O   UNL     1       3.127   3.943   4.053  1.00  0.00    -0.493 OA
ATOM     14  C   UNL     1       3.337   2.668   4.033  1.00  0.00     0.278 C 
ENDBRANCH   5  13
TORSDOF 4
ENDMDL
