MODEL 1
REMARK VINA RESULT:    -5.065      0.000      0.000
REMARK INTER + INTRA:          -6.257
REMARK INTER:                  -5.953
REMARK INTRA:                  -0.304
REMARK UNBOUND:                -0.304
REMARK SMILES COc1cccc(C(=O)O)c1O
REMARK SMILES IDX 7 1 11 2 6 3 5 4 3 5 4 6 8 7 9 8 10 9 12 11 2 13 1 14
REMARK H PARENT 10 10 12 12
ROOT
ATOM      1  C   UNL     1       0.475   0.598   6.351  1.00  0.00     0.105 A 
ATOM      2  C   UNL     1       1.119  -0.305   5.551  1.00  0.00     0.172 A 
ATOM      3  C   UNL     1       1.295   1.386   7.289  1.00  0.00     0.020 A 
ATOM      4  C   UNL     1       2.633   1.447   7.061  1.00  0.00     0.005 A 
ATOM      5  C   UNL     1       2.493  -0.099   5.118  1.00  0.00     0.161 A 
ATOM      6  C   UNL     1       3.279   0.737   6.007  1.00  0.00     0.050 A 
ENDROOT
BRANCH   1   7
ATOM      7  C   UNL     1      -1.034   0.862   6.208  1.00  0.00     0.339 C 
ATOM      8  O   UNL     1      -1.566  -0.026   4.949  1.00  0.00    -0.246 OA
BRANCH   7   9
ATOM      9  O   UNL     1      -1.811   1.350   6.723  1.00  0.00    -0.478 OA
ATOM     10  H   UNL     1      -2.542   1.809   7.209  1.00  0.00     0.297 HD
ENDBRANCH   7   9
ENDBRANCH   1   7
BRANCH   2  11
ATOM     11  O   UNL     1       0.473  -1.466   5.091  1.00  0.00    -0.504 OA
ATOM     12  H   UNL     1       0.018  -2.284   4.768  1.00  0.00     0.293 HD
ENDBRANCH   2  11
BRANCH   5  13
ATOM     13  O   UNL     1       2.964  -0.981   4.154  1.00  0.00    -0.493 OA
ATOM     14  C   UNL     1       3.365  -2.090   3.625  1.00  0.00     0.278 C 
ENDBRANCH   5  13
TORSDOF 4
ENDMDL
MODEL 2
REMARK VINA RESULT:    -5.052      1.837      4.593
REMARK INTER + INTRA:          -6.241
REMARK INTER:                  -5.926
REMARK INTRA:                  -0.315
REMARK UNBOUND:                -0.304
REMARK SMILES COc1cccc(C(=O)O)c1O
REMARK SMILES IDX 7 1 11 2 6 3 5 4 3 5 4 6 8 7 9 8 10 9 12 11 2 13 1 14
REMARK H PARENT 10 10 12 12
ROOT
ATOM      1  C   UNL     1       2.481  -1.836   5.023  1.00  0.00     0.105 A 
ATOM      2  C   UNL     1       1.547  -0.864   5.254  1.00  0.00     0.172 A 
ATOM      3  C   UNL     1       2.685  -2.852   6.071  1.00  0.00     0.020 A 
ATOM      4  C   UNL     1       1.715  -2.992   7.011  1.00  0.00     0.005 A 
ATOM      5  C   UNL     1       0.377  -1.112   6.083  1.00  0.00     0.161 A 
ATOM      6  C   UNL     1       0.556  -2.162   7.068  1.00  0.00     0.050 A 
ENDROOT
BRANCH   1   7
ATOM      7  C   UNL     1       3.220  -1.932   3.676  1.00  0.00     0.339 C 
ATOM      8  O   UNL     1       2.599  -0.788   2.697  1.00  0.00    -0.246 OA
BRANCH   7   9
ATOM      9  O   UNL     1       4.043  -2.433   3.252  1.00  0.00    -0.478 OA
ATOM     10  H   UNL     1       4.817  -2.905   2.852  1.00  0.00     0.297 HD
ENDBRANCH   7   9
ENDBRANCH   1   7
BRANCH   2  11
ATOM     11  O   UNL     1       1.665   0.414   4.682  1.00  0.00    -0.504 OA
ATOM     12  H   UNL     1       1.747   1.315   4.279  1.00  0.00     0.293 HD
ENDBRANCH   2  11
BRANCH   5  13
ATOM     13  O   UNL     1      -0.591  -0.115   6.079  1.00  0.00    -0.493 OA
ATOM     14  C   UNL     1      -1.156   1.020   6.328  1.00  0.00     0.278 C 
ENDBRANCH   5  13
TORSDOF 4
ENDMDL
MODEL 3
REMARK VINA RESULT:    -4.827      2.256      3.209
REMARK INTER + INTRA:          -5.977
REMARK INTER:                  -5.707
REMARK INTRA:                  -0.269
REMARK UNBOUND:                -0.304
REMARK SMILES COc1cccc(C(=O)O)c1O
REMARK SMILES IDX 7 1 11 2 6 3 5 4 3 5 4 6 8 7 9 8 10 9 12 11 2 13 1 14
REMARK H PARENT 10 10 12 12
ROOT
ATOM      1  C   UNL     1       0.529   0.242   6.136  1.00  0.00     0.105 A 
ATOM      2  C   UNL     1       1.425   0.476   7.143  1.00  0.00     0.172 A 
ATOM      3  C   UNL     1       0.863  -0.807   5.155  1.00  0.00     0.020 A 
ATOM      4  C   UNL     1       1.818  -1.710   5.497  1.00  0.00     0.005 A 
ATOM      5  C   UNL     1       2.283  -0.579   7.662  1.00  0.00     0.161 A 
ATOM      6  C   UNL     1       2.552  -1.647   6.718  1.00  0.00     0.050 A 
ENDROOT
BRANCH   1   7
ATOM      7  C   UNL     1      -0.825   0.969   6.084  1.00  0.00     0.339 C 
ATOM      8  O   UNL     1      -1.832   0.060   5.183  1.00  0.00    -0.246 OA
BRANCH   7   9
ATOM      9  O   UNL     1      -1.303   1.798   6.523  1.00  0.00    -0.478 OA
ATOM     10  H   UNL     1      -1.752   2.579   6.936  1.00  0.00     0.297 HD
ENDBRANCH   7   9
ENDBRANCH   1   7
BRANCH   2  11
ATOM     11  O   UNL     1       1.541   1.744   7.738  1.00  0.00    -0.504 OA
ATOM     12  H   UNL     1       1.623   2.637   8.158  1.00  0.00     0.293 HD
ENDBRANCH   2  11
BRANCH   5  13
ATOM     13  O   UNL     1       3.001  -0.266   8.810  1.00  0.00    -0.493 OA
ATOM     14  C   UNL     1       3.600  -0.433   9.943  1.00  0.00     0.278 C 
ENDBRANCH   5  13
TORSDOF 4
ENDMDL
MODEL 4
REMARK VINA RESULT:    -4.796      2.746      4.337
REMARK INTER + INTRA:          -5.940
REMARK INTER:                  -5.669
REMARK INTRA:                  -0.271
REMARK UNBOUND:                -0.304
REMARK SMILES COc1cccc(C(=O)O)c1O
REMARK SMILES IDX 7 1 11 2 6 3 5 4 3 5 4 6 8 7 9 8 10 9 12 11 2 13 1 14
REMARK H PARENT 10 10 12 12
ROOT
ATOM      1  C   UNL     1       2.154  -1.497   4.849  1.00  0.00     0.105 A 
ATOM      2  C   UNL     1       2.414  -1.899   6.130  1.00  0.00     0.172 A 
ATOM      3  C   UNL     1       1.053  -0.538   4.644  1.00  0.00     0.020 A 
ATOM      4  C   UNL     1       0.614   0.160   5.723  1.00  0.00     0.005 A 
ATOM      5  C   UNL     1       2.154  -1.033   7.270  1.00  0.00     0.161 A 
ATOM      6  C   UNL     1       1.118  -0.042   7.042  1.00  0.00     0.050 A 
ENDROOT
BRANCH   1   7
ATOM      7  C   UNL     1       3.041  -1.943   3.674  1.00  0.00     0.339 C 
ATOM      8  O   UNL     1       2.896  -0.823   2.501  1.00  0.00    -0.246 OA
BRANCH   7   9
ATOM      9  O   UNL     1       3.763  -2.678   3.453  1.00  0.00    -0.478 OA
ATOM     10  H   UNL     1       4.441  -3.369   3.245  1.00  0.00     0.297 HD
ENDBRANCH   7   9
ENDBRANCH   1   7
BRANCH   2  11
ATOM     11  O   UNL     1       2.966  -3.163   6.402  1.00  0.00    -0.504 OA
ATOM     12  H   UNL     1       3.354  -4.053   6.594  1.00  0.00     0.293 HD
ENDBRANCH   2  11
BRANCH   5  13
ATOM     13  O   UNL     1       2.642  -1.477   8.493  1.00  0.00    -0.493 OA
ATOM     14  C   UNL     1       3.313  -1.476   9.597  1.00  0.00     0.278 C 
ENDBRANCH   5  13
TORSDOF 4
ENDMDL
MODEL 5
REMARK VINA RESULT:    -4.220      2.458      4.633
REMARK INTER + INTRA:          -5.264
REMARK INTER:                  -4.917
REMARK INTRA:                  -0.347
REMARK UNBOUND:                -0.304
REMARK SMILES COc1cccc(C(=O)O)c1O
REMARK SMILES IDX 7 1 11 2 6 3 5 4 3 5 4 6 8 7 9 8 10 9 12 11 2 13 1 14
REMARK H PARENT 10 10 12 12
ROOT
ATOM      1  C   UNL     1       2.442  -2.491   5.866  1.00  0.00     0.105 A 
ATOM      2  C   UNL     1       1.359  -1.723   6.196  1.00  0.00     0.172 A 
ATOM      3  C   UNL     1       3.005  -2.333   4.512  1.00  0.00     0.020 A 
ATOM      4  C   UNL     1       2.674  -1.213   3.818  1.00  0.00     0.005 A 
ATOM      5  C   UNL     1       1.148  -0.407   5.609  1.00  0.00     0.161 A 
ATOM      6  C   UNL     1       1.764  -0.230   4.307  1.00  0.00     0.050 A 
ENDROOT
BRANCH   1   7
ATOM      7  C   UNL     1       3.117  -3.410   6.899  1.00  0.00     0.339 C 
ATOM      8  O   UNL     1       3.151  -2.607   8.316  1.00  0.00    -0.246 OA
BRANCH   7   9
ATOM      9  O   UNL     1       3.460  -4.402   6.981  1.00  0.00    -0.478 OA
ATOM     10  H   UNL     1       3.783  -5.335   7.057  1.00  0.00     0.297 HD
ENDBRANCH   7   9
ENDBRANCH   1   7
BRANCH   2  11
ATOM     11  O   UNL     1       0.411  -2.162   7.136  1.00  0.00    -0.504 OA
ATOM     12  H   UNL     1      -0.257  -2.470   7.798  1.00  0.00     0.293 HD
ENDBRANCH   2  11
BRANCH   5  13
ATOM     13  O   UNL     1       0.128   0.350   6.171  1.00  0.00    -0.493 OA
ATOM     14  C   UNL     1      -1.031   0.907   6.300  1.00  0.00     0.278 C 
ENDBRANCH   5  13
TORSDOF 4
ENDMDL
MODEL 6
REMARK VINA RESULT:    -4.172      1.409      4.119
REMARK INTER + INTRA:          -5.207
REMARK INTER:                  -5.011
REMARK INTRA:                  -0.197
REMARK UNBOUND:                -0.304
REMARK SMILES COc1cccc(C(=O)O)c1O
REMARK SMILES IDX 7 1 11 2 6 3 5 4 3 5 4 6 8 7 9 8 10 9 12 11 2 13 1 14
REMARK H PARENT 10 10 12 12
ROOT
ATOM      1  C   UNL     1       2.841  -0.821   4.923  1.00  0.00     0.105 A 
ATOM      2  C   UNL     1       1.638  -0.203   5.130  1.00  0.00     0.172 A 
ATOM      3  C   UNL     1       3.895  -0.620   5.934  1.00  0.00     0.020 A 
ATOM      4  C   UNL     1       3.520  -0.160   7.155  1.00  0.00     0.005 A 
ATOM      5  C   UNL     1       1.140   0.069   6.471  1.00  0.00     0.161 A 
ATOM      6  C   UNL     1       2.177   0.196   7.478  1.00  0.00     0.050 A 
ENDROOT
BRANCH   1   7
ATOM      7  C   UNL     1       3.056  -1.777   3.737  1.00  0.00     0.339 C 
ATOM      8  O   UNL     1       2.886  -0.905   2.372  1.00  0.00    -0.246 OA
BRANCH   7   9
ATOM      9  O   UNL     1       3.366  -2.767   3.556  1.00  0.00    -0.478 OA
ATOM     10  H   UNL     1       3.657  -3.698   3.387  1.00  0.00     0.297 HD
ENDBRANCH   7   9
ENDBRANCH   1   7
BRANCH   2  11
ATOM     11  O   UNL     1       0.817   0.179   4.055  1.00  0.00    -0.504 OA
ATOM     12  H   UNL     1       0.239   0.448   3.298  1.00  0.00     0.293 HD
ENDBRANCH   2  11
BRANCH   5  13
ATOM     13  O   UNL     1      -0.173   0.517   6.550  1.00  0.00    -0.493 OA
ATOM     14  C   UNL     1      -1.333   0.930   6.159  1.00  0.00     0.278 C 
ENDBRANCH   5  13
TORSDOF 4
ENDMDL
MODEL 7
REMARK VINA RESULT:    -4.157      1.606      1.698
REMARK INTER + INTRA:          -5.190
REMARK INTER:                  -4.820
REMARK INTRA:                  -0.370
REMARK UNBOUND:                -0.304
REMARK SMILES COc1cccc(C(=O)O)c1O
REMARK SMILES IDX 7 1 11 2 6 3 5 4 3 5 4 6 8 7 9 8 10 9 12 11 2 13 1 14
REMARK H PARENT 10 10 12 12
ROOT
ATOM      1  C   UNL     1       0.046  -0.421   6.408  1.00  0.00     0.105 A 
ATOM      2  C   UNL     1       0.763  -1.033   5.417  1.00  0.00     0.172 A 
ATOM      3  C   UNL     1       0.288  -0.858   7.796  1.00  0.00     0.020 A 
ATOM      4  C   UNL     1       1.429  -1.548   8.050  1.00  0.00     0.005 A 
ATOM      5  C   UNL     1       2.098  -1.562   5.655  1.00  0.00     0.161 A 
ATOM      6  C   UNL     1       2.358  -1.924   7.036  1.00  0.00     0.050 A 
ENDROOT
BRANCH   1   7
ATOM      7  C   UNL     1      -0.901   0.752   6.103  1.00  0.00     0.339 C 
ATOM      8  O   UNL     1      -2.032   0.208   5.064  1.00  0.00    -0.246 OA
BRANCH   7   9
ATOM      9  O   UNL     1      -1.084   1.736   6.432  1.00  0.00    -0.478 OA
ATOM     10  H   UNL     1      -1.257   2.660   6.741  1.00  0.00     0.297 HD
ENDBRANCH   7   9
ENDBRANCH   1   7
BRANCH   2  11
ATOM     11  O   UNL     1       0.250  -1.161   4.115  1.00  0.00    -0.504 OA
ATOM     12  H   UNL     1      -0.112  -1.250   3.197  1.00  0.00     0.293 HD
ENDBRANCH   2  11
BRANCH   5  13
ATOM     13  O   UNL     1       2.795  -1.978   4.528  1.00  0.00    -0.493 OA
ATOM     14  C   UNL     1       3.426  -1.903   3.402  1.00  0.00     0.278 C 
ENDBRANCH   5  13
TORSDOF 4
ENDMDL
MODEL 8
REMARK VINA RESULT:    -4.070      2.159      2.730
REMARK INTER + INTRA:          -5.087
REMARK INTER:                  -4.866
REMARK INTRA:                  -0.222
REMARK UNBOUND:                -0.304
REMARK SMILES COc1cccc(C(=O)O)c1O
REMARK SMILES IDX 7 1 11 2 6 3 5 4 3 5 4 6 8 7 9 8 10 9 12 11 2 13 1 14
REMARK H PARENT 10 10 12 12
ROOT
ATOM      1  C   UNL     1       0.807  -0.340   5.783  1.00  0.00     0.105 A 
ATOM      2  C   UNL     1       1.498  -1.187   6.605  1.00  0.00     0.172 A 
ATOM      3  C   UNL     1       1.347  -0.110   4.430  1.00  0.00     0.020 A 
ATOM      4  C   UNL     1       2.255  -1.000   3.953  1.00  0.00     0.005 A 
ATOM      5  C   UNL     1       2.284  -2.293   6.077  1.00  0.00     0.161 A 
ATOM      6  C   UNL     1       2.754  -2.094   4.719  1.00  0.00     0.050 A 
ENDROOT
BRANCH   1   7
ATOM      7  C   UNL     1      -0.539   0.268   6.210  1.00  0.00     0.339 C 
ATOM      8  O   UNL     1      -1.607  -0.025   5.016  1.00  0.00    -0.246 OA
BRANCH   7   9
ATOM      9  O   UNL     1      -0.981   0.714   7.056  1.00  0.00    -0.478 OA
ATOM     10  H   UNL     1      -1.397   1.133   7.851  1.00  0.00     0.297 HD
ENDBRANCH   7   9
ENDBRANCH   1   7
BRANCH   2  11
ATOM     11  O   UNL     1       1.463  -1.041   8.003  1.00  0.00    -0.504 OA
ATOM     12  H   UNL     1       1.439  -0.937   8.987  1.00  0.00     0.293 HD
ENDBRANCH   2  11
BRANCH   5  13
ATOM     13  O   UNL     1       2.773  -3.192   7.016  1.00  0.00    -0.493 OA
ATOM     14  C   UNL     1       3.610  -3.965   7.626  1.00  0.00     0.278 C 
ENDBRANCH   5  13
TORSDOF 4
ENDMDL
MODEL 9
REMARK VINA RESULT:    -4.030      2.241      4.383
REMARK INTER + INTRA:          -5.040
REMARK INTER:                  -4.820
REMARK INTRA:                  -0.220
REMARK UNBOUND:                -0.304
REMARK SMILES COc1cccc(C(=O)O)c1O
REMARK SMILES IDX 7 1 11 2 6 3 5 4 3 5 4 6 8 7 9 8 10 9 12 11 2 13 1 14
REMARK H PARENT 10 10 12 12
ROOT
ATOM      1  C   UNL     1       1.909  -0.830   5.183  1.00  0.00     0.105 A 
ATOM      2  C   UNL     1       2.248  -0.171   6.333  1.00  0.00     0.172 A 
ATOM      3  C   UNL     1       0.478  -0.906   4.836  1.00  0.00     0.020 A 
ATOM      4  C   UNL     1      -0.367  -0.035   5.446  1.00  0.00     0.005 A 
ATOM      5  C   UNL     1       1.446   0.930   6.847  1.00  0.00     0.161 A 
ATOM      6  C   UNL     1       0.053   0.891   6.445  1.00  0.00     0.050 A 
ENDROOT
BRANCH   1   7
ATOM      7  C   UNL     1       2.983  -1.380   4.229  1.00  0.00     0.339 C 
ATOM      8  O   UNL     1       2.646  -0.815   2.739  1.00  0.00    -0.246 OA
BRANCH   7   9
ATOM      9  O   UNL     1       3.891  -1.911   4.272  1.00  0.00    -0.478 OA
ATOM     10  H   UNL     1       4.745  -2.411   4.311  1.00  0.00     0.297 HD
ENDBRANCH   7   9
ENDBRANCH   1   7
BRANCH   2  11
ATOM     11  O   UNL     1       3.400  -0.515   7.060  1.00  0.00    -0.504 OA
ATOM     12  H   UNL     1       4.212  -0.758   7.573  1.00  0.00     0.293 HD
ENDBRANCH   2  11
BRANCH   5  13
ATOM     13  O   UNL     1       2.000   1.640   7.905  1.00  0.00    -0.493 OA
ATOM     14  C   UNL     1       2.159   2.088   9.106  1.00  0.00     0.278 C 
ENDBRANCH   5  13
TORSDOF 4
ENDMDL
