MODEL 1
REMARK VINA RESULT:    -4.942      0.000      0.000
REMARK INTER + INTRA:          -6.080
REMARK INTER:                  -5.809
REMARK INTRA:                  -0.270
REMARK UNBOUND:                -0.270
REMARK SMILES COc1cccc(C(=O)O)c1O
REMARK SMILES IDX 7 1 11 2 6 3 5 4 3 5 4 6 8 7 9 8 10 9 12 11 2 13 1 14
REMARK H PARENT 10 10 12 12
ROOT
ATOM      1  C   UNL     1       2.905   4.863  -3.612  1.00  0.00     0.105 A 
ATOM      2  C   UNL     1       3.164   6.049  -4.244  1.00  0.00     0.172 A 
ATOM      3  C   UNL     1       2.180   3.828  -4.373  1.00  0.00     0.020 A 
ATOM      4  C   UNL     1       2.138   3.952  -5.724  1.00  0.00     0.005 A 
ATOM      5  C   UNL     1       3.354   6.121  -5.685  1.00  0.00     0.161 A 
ATOM      6  C   UNL     1       2.698   5.059  -6.426  1.00  0.00     0.050 A 
ENDROOT
BRANCH   1   7
ATOM      7  C   UNL     1       3.440   4.575  -2.199  1.00  0.00     0.339 C 
ATOM      8  O   UNL     1       3.432   2.959  -1.995  1.00  0.00    -0.246 OA
BRANCH   7   9
ATOM      9  O   UNL     1       3.884   5.088  -1.394  1.00  0.00    -0.478 OA
ATOM     10  H   UNL     1       4.302   5.571  -0.637  1.00  0.00     0.297 HD
ENDBRANCH   7   9
ENDBRANCH   1   7
BRANCH   2  11
ATOM     11  O   UNL     1       3.281   7.250  -3.524  1.00  0.00    -0.504 OA
ATOM     12  H   UNL     1       3.364   8.097  -3.017  1.00  0.00     0.293 HD
ENDBRANCH   2  11
BRANCH   5  13
ATOM     13  O   UNL     1       3.805   7.339  -6.176  1.00  0.00    -0.493 OA
ATOM     14  C   UNL     1       4.554   8.186  -6.802  1.00  0.00     0.278 C 
ENDBRANCH   5  13
TORSDOF 4
ENDMDL
MODEL 2
REMARK VINA RESULT:    -4.938      2.935      3.962
REMARK INTER + INTRA:          -6.074
REMARK INTER:                  -5.804
REMARK INTRA:                  -0.270
REMARK UNBOUND:                -0.270
REMARK SMILES COc1cccc(C(=O)O)c1O
REMARK SMILES IDX 7 1 11 2 6 3 5 4 3 5 4 6 8 7 9 8 10 9 12 11 2 13 1 14
REMARK H PARENT 10 10 12 12
ROOT
ATOM      1  C   UNL     1       1.290   3.983  -5.955  1.00  0.00     0.105 A 
ATOM      2  C   UNL     1       2.239   4.492  -6.798  1.00  0.00     0.172 A 
ATOM      3  C   UNL     1       1.455   4.232  -4.511  1.00  0.00     0.020 A 
ATOM      4  C   UNL     1       2.297   5.228  -4.134  1.00  0.00     0.005 A 
ATOM      5  C   UNL     1       2.970   5.710  -6.479  1.00  0.00     0.161 A 
ATOM      6  C   UNL     1       3.070   5.990  -5.059  1.00  0.00     0.050 A 
ENDROOT
BRANCH   1   7
ATOM      7  C   UNL     1       0.039   3.269  -6.495  1.00  0.00     0.339 C 
ATOM      8  O   UNL     1      -1.089   3.306  -5.320  1.00  0.00    -0.246 OA
BRANCH   7   9
ATOM      9  O   UNL     1      -0.323   2.867  -7.399  1.00  0.00    -0.478 OA
ATOM     10  H   UNL     1      -0.662   2.488  -8.248  1.00  0.00     0.297 HD
ENDBRANCH   7   9
ENDBRANCH   1   7
BRANCH   2  11
ATOM     11  O   UNL     1       2.536   3.872  -8.024  1.00  0.00    -0.504 OA
ATOM     12  H   UNL     1       2.745   3.436  -8.888  1.00  0.00     0.293 HD
ENDBRANCH   2  11
BRANCH   5  13
ATOM     13  O   UNL     1       3.758   6.228  -7.500  1.00  0.00    -0.493 OA
ATOM     14  C   UNL     1       4.224   7.082  -8.350  1.00  0.00     0.278 C 
ENDBRANCH   5  13
TORSDOF 4
ENDMDL
MODEL 3
REMARK VINA RESULT:    -4.866      2.247      3.257
REMARK INTER + INTRA:          -5.990
REMARK INTER:                  -5.525
REMARK INTRA:                  -0.466
REMARK UNBOUND:                -0.270
REMARK SMILES COc1cccc(C(=O)O)c1O
REMARK SMILES IDX 7 1 11 2 6 3 5 4 3 5 4 6 8 7 9 8 10 9 12 11 2 13 1 14
REMARK H PARENT 10 10 12 12
ROOT
ATOM      1  C   UNL     1       3.076   5.077  -3.509  1.00  0.00     0.105 A 
ATOM      2  C   UNL     1       2.334   4.343  -4.394  1.00  0.00     0.172 A 
ATOM      3  C   UNL     1       3.050   6.545  -3.649  1.00  0.00     0.020 A 
ATOM      4  C   UNL     1       2.042   7.092  -4.376  1.00  0.00     0.005 A 
ATOM      5  C   UNL     1       1.112   4.868  -4.986  1.00  0.00     0.161 A 
ATOM      6  C   UNL     1       1.059   6.316  -5.057  1.00  0.00     0.050 A 
ENDROOT
BRANCH   1   7
ATOM      7  C   UNL     1       3.825   4.408  -2.344  1.00  0.00     0.339 C 
ATOM      8  O   UNL     1       3.178   2.928  -2.135  1.00  0.00    -0.246 OA
BRANCH   7   9
ATOM      9  O   UNL     1       4.665   4.579  -1.733  1.00  0.00    -0.478 OA
ATOM     10  H   UNL     1       5.454   4.741  -1.157  1.00  0.00     0.297 HD
ENDBRANCH   7   9
ENDBRANCH   1   7
BRANCH   2  11
ATOM     11  O   UNL     1       2.708   3.037  -4.755  1.00  0.00    -0.504 OA
ATOM     12  H   UNL     1       2.972   2.117  -5.009  1.00  0.00     0.293 HD
ENDBRANCH   2  11
BRANCH   5  13
ATOM     13  O   UNL     1       0.350   3.958  -5.709  1.00  0.00    -0.493 OA
ATOM     14  C   UNL     1      -0.104   3.302  -6.725  1.00  0.00     0.278 C 
ENDBRANCH   5  13
TORSDOF 4
ENDMDL
MODEL 4
REMARK VINA RESULT:    -4.837      2.938      4.350
REMARK INTER + INTRA:          -5.956
REMARK INTER:                  -5.478
REMARK INTRA:                  -0.478
REMARK UNBOUND:                -0.270
REMARK SMILES COc1cccc(C(=O)O)c1O
REMARK SMILES IDX 7 1 11 2 6 3 5 4 3 5 4 6 8 7 9 8 10 9 12 11 2 13 1 14
REMARK H PARENT 10 10 12 12
ROOT
ATOM      1  C   UNL     1       1.168   4.008  -6.358  1.00  0.00     0.105 A 
ATOM      2  C   UNL     1       1.533   4.487  -5.130  1.00  0.00     0.172 A 
ATOM      3  C   UNL     1       2.208   3.941  -7.401  1.00  0.00     0.020 A 
ATOM      4  C   UNL     1       3.505   3.999  -7.005  1.00  0.00     0.005 A 
ATOM      5  C   UNL     1       2.886   4.326  -4.618  1.00  0.00     0.161 A 
ATOM      6  C   UNL     1       3.900   4.189  -5.648  1.00  0.00     0.050 A 
ENDROOT
BRANCH   1   7
ATOM      7  C   UNL     1      -0.246   3.459  -6.615  1.00  0.00     0.339 C 
ATOM      8  O   UNL     1      -0.967   3.273  -5.167  1.00  0.00    -0.246 OA
BRANCH   7   9
ATOM      9  O   UNL     1      -0.893   3.269  -7.424  1.00  0.00    -0.478 OA
ATOM     10  H   UNL     1      -1.502   3.091  -8.184  1.00  0.00     0.297 HD
ENDBRANCH   7   9
ENDBRANCH   1   7
BRANCH   2  11
ATOM     11  O   UNL     1       0.609   5.138  -4.295  1.00  0.00    -0.504 OA
ATOM     12  H   UNL     1      -0.042   5.597  -3.706  1.00  0.00     0.293 HD
ENDBRANCH   2  11
BRANCH   5  13
ATOM     13  O   UNL     1       3.077   4.676  -3.288  1.00  0.00    -0.493 OA
ATOM     14  C   UNL     1       3.589   4.680  -2.101  1.00  0.00     0.278 C 
ENDBRANCH   5  13
TORSDOF 4
ENDMDL
MODEL 5
REMARK VINA RESULT:    -4.173      2.295      3.802
REMARK INTER + INTRA:          -5.175
REMARK INTER:                  -4.971
REMARK INTRA:                  -0.204
REMARK UNBOUND:                -0.270
REMARK SMILES COc1cccc(C(=O)O)c1O
REMARK SMILES IDX 7 1 11 2 6 3 5 4 3 5 4 6 8 7 9 8 10 9 12 11 2 13 1 14
REMARK H PARENT 10 10 12 12
ROOT
ATOM      1  C   UNL     1       2.807   6.165  -3.749  1.00  0.00     0.105 A 
ATOM      2  C   UNL     1       1.731   5.709  -4.460  1.00  0.00     0.172 A 
ATOM      3  C   UNL     1       3.430   5.240  -2.785  1.00  0.00     0.020 A 
ATOM      4  C   UNL     1       3.158   3.916  -2.914  1.00  0.00     0.005 A 
ATOM      5  C   UNL     1       1.579   4.300  -4.796  1.00  0.00     0.161 A 
ATOM      6  C   UNL     1       2.254   3.394  -3.885  1.00  0.00     0.050 A 
ENDROOT
BRANCH   1   7
ATOM      7  C   UNL     1       3.413   7.553  -4.018  1.00  0.00     0.339 C 
ATOM      8  O   UNL     1       3.869   7.591  -5.581  1.00  0.00    -0.246 OA
BRANCH   7   9
ATOM      9  O   UNL     1       3.525   8.482  -3.535  1.00  0.00    -0.478 OA
ATOM     10  H   UNL     1       3.631   9.355  -3.081  1.00  0.00     0.297 HD
ENDBRANCH   7   9
ENDBRANCH   1   7
BRANCH   2  11
ATOM     11  O   UNL     1       0.732   6.585  -4.919  1.00  0.00    -0.504 OA
ATOM     12  H   UNL     1       0.029   7.202  -5.242  1.00  0.00     0.293 HD
ENDBRANCH   2  11
BRANCH   5  13
ATOM     13  O   UNL     1       0.555   3.996  -5.684  1.00  0.00    -0.493 OA
ATOM     14  C   UNL     1      -0.062   3.425  -6.666  1.00  0.00     0.278 C 
ENDBRANCH   5  13
TORSDOF 4
ENDMDL
MODEL 6
REMARK VINA RESULT:    -3.911      1.866      2.485
REMARK INTER + INTRA:          -4.868
REMARK INTER:                  -4.647
REMARK INTRA:                  -0.221
REMARK UNBOUND:                -0.270
REMARK SMILES COc1cccc(C(=O)O)c1O
REMARK SMILES IDX 7 1 11 2 6 3 5 4 3 5 4 6 8 7 9 8 10 9 12 11 2 13 1 14
REMARK H PARENT 10 10 12 12
ROOT
ATOM      1  C   UNL     1       2.501   4.397  -4.543  1.00  0.00     0.105 A 
ATOM      2  C   UNL     1       2.954   4.602  -5.817  1.00  0.00     0.172 A 
ATOM      3  C   UNL     1       1.064   4.119  -4.365  1.00  0.00     0.020 A 
ATOM      4  C   UNL     1       0.359   3.721  -5.455  1.00  0.00     0.005 A 
ATOM      5  C   UNL     1       2.320   3.968  -6.964  1.00  0.00     0.161 A 
ATOM      6  C   UNL     1       0.923   3.630  -6.761  1.00  0.00     0.050 A 
ENDROOT
BRANCH   1   7
ATOM      7  C   UNL     1       3.468   4.353  -3.347  1.00  0.00     0.339 C 
ATOM      8  O   UNL     1       3.030   3.093  -2.412  1.00  0.00    -0.246 OA
BRANCH   7   9
ATOM      9  O   UNL     1       4.354   4.819  -3.020  1.00  0.00    -0.478 OA
ATOM     10  H   UNL     1       5.188   5.256  -2.712  1.00  0.00     0.297 HD
ENDBRANCH   7   9
ENDBRANCH   1   7
BRANCH   2  11
ATOM     11  O   UNL     1       4.069   5.417  -6.075  1.00  0.00    -0.504 OA
ATOM     12  H   UNL     1       4.855   5.992  -6.257  1.00  0.00     0.293 HD
ENDBRANCH   2  11
BRANCH   5  13
ATOM     13  O   UNL     1       2.990   4.095  -8.174  1.00  0.00    -0.493 OA
ATOM     14  C   UNL     1       3.342   4.595  -9.312  1.00  0.00     0.278 C 
ENDBRANCH   5  13
TORSDOF 4
ENDMDL
MODEL 7
REMARK VINA RESULT:    -3.794      2.105      4.531
REMARK INTER + INTRA:          -4.730
REMARK INTER:                  -4.579
REMARK INTRA:                  -0.151
REMARK UNBOUND:                -0.270
REMARK SMILES COc1cccc(C(=O)O)c1O
REMARK SMILES IDX 7 1 11 2 6 3 5 4 3 5 4 6 8 7 9 8 10 9 12 11 2 13 1 14
REMARK H PARENT 10 10 12 12
ROOT
ATOM      1  C   UNL     1       2.483   4.261  -6.732  1.00  0.00     0.105 A 
ATOM      2  C   UNL     1       3.067   4.076  -5.509  1.00  0.00     0.172 A 
ATOM      3  C   UNL     1       1.086   3.819  -6.896  1.00  0.00     0.020 A 
ATOM      4  C   UNL     1       0.356   3.604  -5.772  1.00  0.00     0.005 A 
ATOM      5  C   UNL     1       2.286   4.086  -4.281  1.00  0.00     0.161 A 
ATOM      6  C   UNL     1       0.894   3.719  -4.456  1.00  0.00     0.050 A 
ENDROOT
BRANCH   1   7
ATOM      7  C   UNL     1       3.216   4.999  -7.866  1.00  0.00     0.339 C 
ATOM      8  O   UNL     1       3.179   4.035  -9.178  1.00  0.00    -0.246 OA
BRANCH   7   9
ATOM      9  O   UNL     1       3.631   5.947  -8.064  1.00  0.00    -0.478 OA
ATOM     10  H   UNL     1       4.021   6.838  -8.249  1.00  0.00     0.297 HD
ENDBRANCH   7   9
ENDBRANCH   1   7
BRANCH   2  11
ATOM     11  O   UNL     1       4.454   3.888  -5.382  1.00  0.00    -0.504 OA
ATOM     12  H   UNL     1       5.431   3.756  -5.293  1.00  0.00     0.293 HD
ENDBRANCH   2  11
BRANCH   5  13
ATOM     13  O   UNL     1       3.017   4.086  -3.099  1.00  0.00    -0.493 OA
ATOM     14  C   UNL     1       3.675   4.546  -2.086  1.00  0.00     0.278 C 
ENDBRANCH   5  13
TORSDOF 4
ENDMDL
MODEL 8
REMARK VINA RESULT:    -3.733      2.090      3.339
REMARK INTER + INTRA:          -4.658
REMARK INTER:                  -4.472
REMARK INTRA:                  -0.187
REMARK UNBOUND:                -0.270
REMARK SMILES COc1cccc(C(=O)O)c1O
REMARK SMILES IDX 7 1 11 2 6 3 5 4 3 5 4 6 8 7 9 8 10 9 12 11 2 13 1 14
REMARK H PARENT 10 10 12 12
ROOT
ATOM      1  C   UNL     1       3.333   4.247  -3.758  1.00  0.00     0.105 A 
ATOM      2  C   UNL     1       2.120   3.829  -4.232  1.00  0.00     0.172 A 
ATOM      3  C   UNL     1       4.484   4.186  -4.676  1.00  0.00     0.020 A 
ATOM      4  C   UNL     1       4.226   4.078  -6.005  1.00  0.00     0.005 A 
ATOM      5  C   UNL     1       1.770   3.944  -5.640  1.00  0.00     0.161 A 
ATOM      6  C   UNL     1       2.910   3.955  -6.539  1.00  0.00     0.050 A 
ENDROOT
BRANCH   1   7
ATOM      7  C   UNL     1       3.475   4.860  -2.353  1.00  0.00     0.339 C 
ATOM      8  O   UNL     1       3.451   6.480  -2.524  1.00  0.00    -0.246 OA
BRANCH   7   9
ATOM      9  O   UNL     1       3.483   4.553  -1.346  1.00  0.00    -0.478 OA
ATOM     10  H   UNL     1       3.491   4.264  -0.399  1.00  0.00     0.297 HD
ENDBRANCH   7   9
ENDBRANCH   1   7
BRANCH   2  11
ATOM     11  O   UNL     1       1.146   3.288  -3.375  1.00  0.00    -0.504 OA
ATOM     12  H   UNL     1       0.461   2.907  -2.771  1.00  0.00     0.293 HD
ENDBRANCH   2  11
BRANCH   5  13
ATOM     13  O   UNL     1       0.446   3.670  -5.960  1.00  0.00    -0.493 OA
ATOM     14  C   UNL     1      -0.573   3.278  -6.651  1.00  0.00     0.278 C 
ENDBRANCH   5  13
TORSDOF 4
ENDMDL
