MODEL 1
REMARK VINA RESULT:    -4.833      0.000      0.000
REMARK INTER + INTRA:          -6.163
REMARK INTER:                  -5.680
REMARK INTRA:                  -0.482
REMARK UNBOUND:                -0.482
REMARK SMILES COc1cccc(C(=O)O)c1O
REMARK SMILES IDX 7 1 11 2 6 3 5 4 3 5 4 6 8 7 9 8 10 9 12 11 2 13 1 14
REMARK H PARENT 10 10 12 12
ROOT
ATOM      1  C   UNL     1       2.597   6.842  -0.579  1.00  0.00     0.105 A 
ATOM      2  C   UNL     1       3.334   6.130  -1.485  1.00  0.00     0.172 A 
ATOM      3  C   UNL     1       2.081   8.157  -1.001  1.00  0.00     0.020 A 
ATOM      4  C   UNL     1       2.042   8.422  -2.332  1.00  0.00     0.005 A 
ATOM      5  C   UNL     1       3.110   6.254  -2.918  1.00  0.00     0.161 A 
ATOM      6  C   UNL     1       2.535   7.523  -3.323  1.00  0.00     0.050 A 
ENDROOT
BRANCH   1   7
ATOM      7  C   UNL     1       2.228   6.253   0.794  1.00  0.00     0.339 C 
ATOM      8  O   UNL     1       2.553   4.658   0.742  1.00  0.00    -0.246 OA
BRANCH   7   9
ATOM      9  O   UNL     1       1.933   6.581   1.750  1.00  0.00    -0.478 OA
ATOM     10  H   UNL     1       1.656   6.890   2.649  1.00  0.00     0.297 HD
ENDBRANCH   7   9
ENDBRANCH   1   7
BRANCH   2  11
ATOM     11  O   UNL     1       4.328   5.227  -1.070  1.00  0.00    -0.504 OA
ATOM     12  H   UNL     1       5.028   4.590  -0.778  1.00  0.00     0.293 HD
ENDBRANCH   2  11
BRANCH   5  13
ATOM     13  O   UNL     1       3.780   5.337  -3.717  1.00  0.00    -0.493 OA
ATOM     14  C   UNL     1       4.048   4.598  -4.743  1.00  0.00     0.278 C 
ENDBRANCH   5  13
TORSDOF 4
ENDMDL
MODEL 2
REMARK VINA RESULT:    -4.825      1.774      4.675
REMARK INTER + INTRA:          -6.154
REMARK INTER:                  -5.669
REMARK INTRA:                  -0.485
REMARK UNBOUND:                -0.482
REMARK SMILES COc1cccc(C(=O)O)c1O
REMARK SMILES IDX 7 1 11 2 6 3 5 4 3 5 4 6 8 7 9 8 10 9 12 11 2 13 1 14
REMARK H PARENT 10 10 12 12
ROOT
ATOM      1  C   UNL     1       4.223   5.597  -3.578  1.00  0.00     0.105 A 
ATOM      2  C   UNL     1       3.354   5.795  -2.540  1.00  0.00     0.172 A 
ATOM      3  C   UNL     1       5.586   6.141  -3.441  1.00  0.00     0.020 A 
ATOM      4  C   UNL     1       6.013   6.468  -2.194  1.00  0.00     0.005 A 
ATOM      5  C   UNL     1       3.819   5.907  -1.165  1.00  0.00     0.161 A 
ATOM      6  C   UNL     1       5.187   6.375  -1.035  1.00  0.00     0.050 A 
ENDROOT
BRANCH   1   7
ATOM      7  C   UNL     1       3.830   4.748  -4.799  1.00  0.00     0.339 C 
ATOM      8  O   UNL     1       2.468   3.941  -4.414  1.00  0.00    -0.246 OA
BRANCH   7   9
ATOM      9  O   UNL     1       4.116   4.616  -5.804  1.00  0.00    -0.478 OA
ATOM     10  H   UNL     1       4.384   4.492  -6.750  1.00  0.00     0.297 HD
ENDBRANCH   7   9
ENDBRANCH   1   7
BRANCH   2  11
ATOM     11  O   UNL     1       1.967   5.878  -2.753  1.00  0.00    -0.504 OA
ATOM     12  H   UNL     1       0.990   5.936  -2.902  1.00  0.00     0.293 HD
ENDBRANCH   2  11
BRANCH   5  13
ATOM     13  O   UNL     1       2.831   5.907  -0.189  1.00  0.00    -0.493 OA
ATOM     14  C   UNL     1       2.081   6.341   0.769  1.00  0.00     0.278 C 
ENDBRANCH   5  13
TORSDOF 4
ENDMDL
MODEL 3
REMARK VINA RESULT:    -4.679      2.919      4.383
REMARK INTER + INTRA:          -5.982
REMARK INTER:                  -5.712
REMARK INTRA:                  -0.271
REMARK UNBOUND:                -0.482
REMARK SMILES COc1cccc(C(=O)O)c1O
REMARK SMILES IDX 7 1 11 2 6 3 5 4 3 5 4 6 8 7 9 8 10 9 12 11 2 13 1 14
REMARK H PARENT 10 10 12 12
ROOT
ATOM      1  C   UNL     1       3.990   5.505  -3.342  1.00  0.00     0.105 A 
ATOM      2  C   UNL     1       4.902   6.519  -3.238  1.00  0.00     0.172 A 
ATOM      3  C   UNL     1       2.947   5.415  -2.303  1.00  0.00     0.020 A 
ATOM      4  C   UNL     1       2.722   6.513  -1.538  1.00  0.00     0.005 A 
ATOM      5  C   UNL     1       4.563   7.791  -2.617  1.00  0.00     0.161 A 
ATOM      6  C   UNL     1       3.487   7.712  -1.646  1.00  0.00     0.050 A 
ENDROOT
BRANCH   1   7
ATOM      7  C   UNL     1       3.983   4.556  -4.552  1.00  0.00     0.339 C 
ATOM      8  O   UNL     1       2.479   3.944  -4.683  1.00  0.00    -0.246 OA
BRANCH   7   9
ATOM      9  O   UNL     1       4.612   4.273  -5.348  1.00  0.00    -0.478 OA
ATOM     10  H   UNL     1       5.203   4.007  -6.097  1.00  0.00     0.297 HD
ENDBRANCH   7   9
ENDBRANCH   1   7
BRANCH   2  11
ATOM     11  O   UNL     1       6.206   6.385  -3.746  1.00  0.00    -0.504 OA
ATOM     12  H   UNL     1       7.124   6.290  -4.105  1.00  0.00     0.293 HD
ENDBRANCH   2  11
BRANCH   5  13
ATOM     13  O   UNL     1       5.507   8.801  -2.750  1.00  0.00    -0.493 OA
ATOM     14  C   UNL     1       6.017   9.941  -3.081  1.00  0.00     0.278 C 
ENDBRANCH   5  13
TORSDOF 4
ENDMDL
MODEL 4
REMARK VINA RESULT:    -4.650      2.057      3.053
REMARK INTER + INTRA:          -5.948
REMARK INTER:                  -5.682
REMARK INTRA:                  -0.266
REMARK UNBOUND:                -0.482
REMARK SMILES COc1cccc(C(=O)O)c1O
REMARK SMILES IDX 7 1 11 2 6 3 5 4 3 5 4 6 8 7 9 8 10 9 12 11 2 13 1 14
REMARK H PARENT 10 10 12 12
ROOT
ATOM      1  C   UNL     1       2.657   6.459  -0.807  1.00  0.00     0.105 A 
ATOM      2  C   UNL     1       2.855   7.741  -1.241  1.00  0.00     0.172 A 
ATOM      3  C   UNL     1       3.054   5.363  -1.709  1.00  0.00     0.020 A 
ATOM      4  C   UNL     1       3.906   5.658  -2.724  1.00  0.00     0.005 A 
ATOM      5  C   UNL     1       3.936   8.079  -2.156  1.00  0.00     0.161 A 
ATOM      6  C   UNL     1       4.374   6.978  -2.993  1.00  0.00     0.050 A 
ENDROOT
BRANCH   1   7
ATOM      7  C   UNL     1       2.138   6.166   0.612  1.00  0.00     0.339 C 
ATOM      8  O   UNL     1       2.544   4.630   0.971  1.00  0.00    -0.246 OA
BRANCH   7   9
ATOM      9  O   UNL     1       1.703   6.677   1.424  1.00  0.00    -0.478 OA
ATOM     10  H   UNL     1       1.294   7.156   2.187  1.00  0.00     0.297 HD
ENDBRANCH   7   9
ENDBRANCH   1   7
BRANCH   2  11
ATOM     11  O   UNL     1       2.035   8.796  -0.806  1.00  0.00    -0.504 OA
ATOM     12  H   UNL     1       1.457   9.539  -0.499  1.00  0.00     0.293 HD
ENDBRANCH   2  11
BRANCH   5  13
ATOM     13  O   UNL     1       4.152   9.435  -2.364  1.00  0.00    -0.493 OA
ATOM     14  C   UNL     1       4.684  10.606  -2.238  1.00  0.00     0.278 C 
ENDBRANCH   5  13
TORSDOF 4
ENDMDL
MODEL 5
REMARK VINA RESULT:    -4.112      1.974      2.959
REMARK INTER + INTRA:          -5.315
REMARK INTER:                  -4.854
REMARK INTRA:                  -0.462
REMARK UNBOUND:                -0.482
REMARK SMILES COc1cccc(C(=O)O)c1O
REMARK SMILES IDX 7 1 11 2 6 3 5 4 3 5 4 6 8 7 9 8 10 9 12 11 2 13 1 14
REMARK H PARENT 10 10 12 12
ROOT
ATOM      1  C   UNL     1       2.720   5.924  -1.224  1.00  0.00     0.105 A 
ATOM      2  C   UNL     1       3.012   7.203  -1.611  1.00  0.00     0.172 A 
ATOM      3  C   UNL     1       2.806   4.864  -2.245  1.00  0.00     0.020 A 
ATOM      4  C   UNL     1       3.505   5.134  -3.377  1.00  0.00     0.005 A 
ATOM      5  C   UNL     1       3.957   7.479  -2.683  1.00  0.00     0.161 A 
ATOM      6  C   UNL     1       4.094   6.404  -3.649  1.00  0.00     0.050 A 
ENDROOT
BRANCH   1   7
ATOM      7  C   UNL     1       2.415   5.582   0.245  1.00  0.00     0.339 C 
ATOM      8  O   UNL     1       1.408   6.730   0.813  1.00  0.00    -0.246 OA
BRANCH   7   9
ATOM      9  O   UNL     1       2.580   4.803   0.934  1.00  0.00    -0.478 OA
ATOM     10  H   UNL     1       2.735   4.071   1.582  1.00  0.00     0.297 HD
ENDBRANCH   7   9
ENDBRANCH   1   7
BRANCH   2  11
ATOM     11  O   UNL     1       2.427   8.311  -0.975  1.00  0.00    -0.504 OA
ATOM     12  H   UNL     1       2.016   9.092  -0.527  1.00  0.00     0.293 HD
ENDBRANCH   2  11
BRANCH   5  13
ATOM     13  O   UNL     1       4.315   8.811  -2.847  1.00  0.00    -0.493 OA
ATOM     14  C   UNL     1       5.041   9.879  -2.810  1.00  0.00     0.278 C 
ENDBRANCH   5  13
TORSDOF 4
ENDMDL
MODEL 6
REMARK VINA RESULT:    -4.063      2.765      4.187
REMARK INTER + INTRA:          -5.258
REMARK INTER:                  -4.858
REMARK INTRA:                  -0.399
REMARK UNBOUND:                -0.482
REMARK SMILES COc1cccc(C(=O)O)c1O
REMARK SMILES IDX 7 1 11 2 6 3 5 4 3 5 4 6 8 7 9 8 10 9 12 11 2 13 1 14
REMARK H PARENT 10 10 12 12
ROOT
ATOM      1  C   UNL     1       3.552   5.315  -2.921  1.00  0.00     0.105 A 
ATOM      2  C   UNL     1       4.438   6.358  -2.908  1.00  0.00     0.172 A 
ATOM      3  C   UNL     1       2.772   5.067  -1.694  1.00  0.00     0.020 A 
ATOM      4  C   UNL     1       2.696   6.068  -0.780  1.00  0.00     0.005 A 
ATOM      5  C   UNL     1       4.213   7.541  -2.090  1.00  0.00     0.161 A 
ATOM      6  C   UNL     1       3.386   7.309  -0.921  1.00  0.00     0.050 A 
ENDROOT
BRANCH   1   7
ATOM      7  C   UNL     1       3.298   4.496  -4.198  1.00  0.00     0.339 C 
ATOM      8  O   UNL     1       4.743   4.226  -4.899  1.00  0.00    -0.246 OA
BRANCH   7   9
ATOM      9  O   UNL     1       2.508   3.994  -4.680  1.00  0.00    -0.478 OA
ATOM     10  H   UNL     1       1.764   3.522  -5.133  1.00  0.00     0.297 HD
ENDBRANCH   7   9
ENDBRANCH   1   7
BRANCH   2  11
ATOM     11  O   UNL     1       5.596   6.343  -3.704  1.00  0.00    -0.504 OA
ATOM     12  H   UNL     1       6.413   6.332  -4.264  1.00  0.00     0.293 HD
ENDBRANCH   2  11
BRANCH   5  13
ATOM     13  O   UNL     1       5.077   8.605  -2.315  1.00  0.00    -0.493 OA
ATOM     14  C   UNL     1       5.619   9.614  -2.914  1.00  0.00     0.278 C 
ENDBRANCH   5  13
TORSDOF 4
ENDMDL
MODEL 7
REMARK VINA RESULT:    -3.985      2.147      3.112
REMARK INTER + INTRA:          -5.166
REMARK INTER:                  -4.905
REMARK INTRA:                  -0.260
REMARK UNBOUND:                -0.482
REMARK SMILES COc1cccc(C(=O)O)c1O
REMARK SMILES IDX 7 1 11 2 6 3 5 4 3 5 4 6 8 7 9 8 10 9 12 11 2 13 1 14
REMARK H PARENT 10 10 12 12
ROOT
ATOM      1  C   UNL     1       2.299   7.702  -1.234  1.00  0.00     0.105 A 
ATOM      2  C   UNL     1       2.439   6.988  -2.392  1.00  0.00     0.172 A 
ATOM      3  C   UNL     1       2.223   6.946   0.030  1.00  0.00     0.020 A 
ATOM      4  C   UNL     1       2.655   5.658   0.021  1.00  0.00     0.005 A 
ATOM      5  C   UNL     1       3.124   5.704  -2.420  1.00  0.00     0.161 A 
ATOM      6  C   UNL     1       3.109   4.993  -1.155  1.00  0.00     0.050 A 
ENDROOT
BRANCH   1   7
ATOM      7  C   UNL     1       2.327   9.240  -1.233  1.00  0.00     0.339 C 
ATOM      8  O   UNL     1       3.593   9.705  -2.146  1.00  0.00    -0.246 OA
BRANCH   7   9
ATOM      9  O   UNL     1       1.734  10.048  -0.910  1.00  0.00    -0.478 OA
ATOM     10  H   UNL     1       1.177  10.809  -0.607  1.00  0.00     0.297 HD
ENDBRANCH   7   9
ENDBRANCH   1   7
BRANCH   2  11
ATOM     11  O   UNL     1       1.946   7.475  -3.615  1.00  0.00    -0.504 OA
ATOM     12  H   UNL     1       1.598   7.818  -4.477  1.00  0.00     0.293 HD
ENDBRANCH   2  11
BRANCH   5  13
ATOM     13  O   UNL     1       3.372   5.177  -3.682  1.00  0.00    -0.493 OA
ATOM     14  C   UNL     1       4.039   4.793  -4.719  1.00  0.00     0.278 C 
ENDBRANCH   5  13
TORSDOF 4
ENDMDL
MODEL 8
REMARK VINA RESULT:    -3.962      2.255      4.672
REMARK INTER + INTRA:          -5.139
REMARK INTER:                  -4.814
REMARK INTRA:                  -0.325
REMARK UNBOUND:                -0.482
REMARK SMILES COc1cccc(C(=O)O)c1O
REMARK SMILES IDX 7 1 11 2 6 3 5 4 3 5 4 6 8 7 9 8 10 9 12 11 2 13 1 14
REMARK H PARENT 10 10 12 12
ROOT
ATOM      1  C   UNL     1       5.236   6.095  -3.238  1.00  0.00     0.105 A 
ATOM      2  C   UNL     1       4.735   6.190  -1.969  1.00  0.00     0.172 A 
ATOM      3  C   UNL     1       4.511   5.242  -4.197  1.00  0.00     0.020 A 
ATOM      4  C   UNL     1       3.230   4.905  -3.899  1.00  0.00     0.005 A 
ATOM      5  C   UNL     1       3.310   6.061  -1.698  1.00  0.00     0.161 A 
ATOM      6  C   UNL     1       2.586   5.279  -2.683  1.00  0.00     0.050 A 
ENDROOT
BRANCH   1   7
ATOM      7  C   UNL     1       6.450   6.929  -3.684  1.00  0.00     0.339 C 
ATOM      8  O   UNL     1       6.255   8.431  -3.084  1.00  0.00    -0.246 OA
BRANCH   7   9
ATOM      9  O   UNL     1       7.379   6.794  -4.159  1.00  0.00    -0.478 OA
ATOM     10  H   UNL     1       8.254   6.668  -4.607  1.00  0.00     0.297 HD
ENDBRANCH   7   9
ENDBRANCH   1   7
BRANCH   2  11
ATOM     11  O   UNL     1       5.573   6.439  -0.868  1.00  0.00    -0.504 OA
ATOM     12  H   UNL     1       6.164   6.614  -0.093  1.00  0.00     0.293 HD
ENDBRANCH   2  11
BRANCH   5  13
ATOM     13  O   UNL     1       2.909   6.372  -0.406  1.00  0.00    -0.493 OA
ATOM     14  C   UNL     1       2.203   6.353   0.677  1.00  0.00     0.278 C 
ENDBRANCH   5  13
TORSDOF 4
ENDMDL
MODEL 9
REMARK VINA RESULT:    -3.286      7.101      8.269
REMARK INTER + INTRA:          -4.345
REMARK INTER:                  -3.996
REMARK INTRA:                  -0.349
REMARK UNBOUND:                -0.482
REMARK SMILES COc1cccc(C(=O)O)c1O
REMARK SMILES IDX 7 1 11 2 6 3 5 4 3 5 4 6 8 7 9 8 10 9 12 11 2 13 1 14
REMARK H PARENT 10 10 12 12
ROOT
ATOM      1  C   UNL     1       3.952  -1.577   1.327  1.00  0.00     0.105 A 
ATOM      2  C   UNL     1       2.816  -1.352   0.601  1.00  0.00     0.172 A 
ATOM      3  C   UNL     1       5.188  -1.885   0.584  1.00  0.00     0.020 A 
ATOM      4  C   UNL     1       5.225  -1.574  -0.737  1.00  0.00     0.005 A 
ATOM      5  C   UNL     1       2.866  -0.788  -0.741  1.00  0.00     0.161 A 
ATOM      6  C   UNL     1       4.111  -1.032  -1.444  1.00  0.00     0.050 A 
ENDROOT
BRANCH   1   7
ATOM      7  C   UNL     1       3.971  -1.411   2.857  1.00  0.00     0.339 C 
ATOM      8  O   UNL     1       2.907  -0.235   3.232  1.00  0.00    -0.246 OA
BRANCH   7   9
ATOM      9  O   UNL     1       4.378  -1.882   3.705  1.00  0.00    -0.478 OA
ATOM     10  H   UNL     1       4.761  -2.326   4.503  1.00  0.00     0.297 HD
ENDBRANCH   7   9
ENDBRANCH   1   7
BRANCH   2  11
ATOM     11  O   UNL     1       1.543  -1.635   1.126  1.00  0.00    -0.504 OA
ATOM     12  H   UNL     1       0.647  -1.835   1.497  1.00  0.00     0.293 HD
ENDBRANCH   2  11
BRANCH   5  13
ATOM     13  O   UNL     1       1.643  -0.425  -1.291  1.00  0.00    -0.493 OA
ATOM     14  C   UNL     1       0.500   0.167  -1.410  1.00  0.00     0.278 C 
ENDBRANCH   5  13
TORSDOF 4
ENDMDL
