MODEL 1
REMARK VINA RESULT:    -4.902      0.000      0.000
REMARK INTER + INTRA:          -6.240
REMARK INTER:                  -5.762
REMARK INTRA:                  -0.478
REMARK UNBOUND:                -0.478
REMARK SMILES COc1cccc(C(=O)O)c1O
REMARK SMILES IDX 7 1 11 2 6 3 5 4 3 5 4 6 8 7 9 8 10 9 12 11 2 13 1 14
REMARK H PARENT 10 10 12 12
ROOT
ATOM      1  C   UNL     1       4.398  -4.069  -2.838  1.00  0.00     0.105 A 
ATOM      2  C   UNL     1       3.551  -4.147  -1.766  1.00  0.00     0.172 A 
ATOM      3  C   UNL     1       4.468  -5.233  -3.739  1.00  0.00     0.020 A 
ATOM      4  C   UNL     1       3.457  -6.138  -3.682  1.00  0.00     0.005 A 
ATOM      5  C   UNL     1       2.334  -4.945  -1.811  1.00  0.00     0.161 A 
ATOM      6  C   UNL     1       2.380  -6.049  -2.752  1.00  0.00     0.050 A 
ENDROOT
BRANCH   1   7
ATOM      7  C   UNL     1       5.171  -2.777  -3.155  1.00  0.00     0.339 C 
ATOM      8  O   UNL     1       4.524  -1.588  -2.248  1.00  0.00    -0.246 OA
BRANCH   7   9
ATOM      9  O   UNL     1       6.024  -2.468  -3.689  1.00  0.00    -0.478 OA
ATOM     10  H   UNL     1       6.827  -2.179  -4.191  1.00  0.00     0.297 HD
ENDBRANCH   7   9
ENDBRANCH   1   7
BRANCH   2  11
ATOM     11  O   UNL     1       3.807  -3.441  -0.579  1.00  0.00    -0.504 OA
ATOM     12  H   UNL     1       3.987  -2.943   0.258  1.00  0.00     0.293 HD
ENDBRANCH   2  11
BRANCH   5  13
ATOM     13  O   UNL     1       1.465  -4.784  -0.740  1.00  0.00    -0.493 OA
ATOM     14  C   UNL     1       0.424  -4.957   0.007  1.00  0.00     0.278 C 
ENDBRANCH   5  13
TORSDOF 4
ENDMDL
MODEL 2
REMARK VINA RESULT:    -4.895      1.763      4.680
REMARK INTER + INTRA:          -6.232
REMARK INTER:                  -5.810
REMARK INTRA:                  -0.422
REMARK UNBOUND:                -0.478
REMARK SMILES COc1cccc(C(=O)O)c1O
REMARK SMILES IDX 7 1 11 2 6 3 5 4 3 5 4 6 8 7 9 8 10 9 12 11 2 13 1 14
REMARK H PARENT 10 10 12 12
ROOT
ATOM      1  C   UNL     1       1.902  -5.075  -0.398  1.00  0.00     0.105 A 
ATOM      2  C   UNL     1       2.554  -4.484  -1.444  1.00  0.00     0.172 A 
ATOM      3  C   UNL     1       2.717  -5.799   0.595  1.00  0.00     0.020 A 
ATOM      4  C   UNL     1       4.049  -5.538   0.629  1.00  0.00     0.005 A 
ATOM      5  C   UNL     1       3.918  -3.990  -1.313  1.00  0.00     0.161 A 
ATOM      6  C   UNL     1       4.697  -4.657  -0.287  1.00  0.00     0.050 A 
ENDROOT
BRANCH   1   7
ATOM      7  C   UNL     1       0.386  -4.904  -0.200  1.00  0.00     0.339 C 
ATOM      8  O   UNL     1      -0.124  -3.794  -1.279  1.00  0.00    -0.246 OA
BRANCH   7   9
ATOM      9  O   UNL     1      -0.404  -5.348   0.336  1.00  0.00    -0.478 OA
ATOM     10  H   UNL     1      -1.147  -5.765   0.842  1.00  0.00     0.297 HD
ENDBRANCH   7   9
ENDBRANCH   1   7
BRANCH   2  11
ATOM     11  O   UNL     1       1.929  -4.306  -2.690  1.00  0.00    -0.504 OA
ATOM     12  H   UNL     1       1.488  -4.181  -3.568  1.00  0.00     0.293 HD
ENDBRANCH   2  11
BRANCH   5  13
ATOM     13  O   UNL     1       4.394  -3.238  -2.379  1.00  0.00    -0.493 OA
ATOM     14  C   UNL     1       5.172  -2.865  -3.342  1.00  0.00     0.278 C 
ENDBRANCH   5  13
TORSDOF 4
ENDMDL
MODEL 3
REMARK VINA RESULT:    -4.709      2.955      4.371
REMARK INTER + INTRA:          -6.013
REMARK INTER:                  -5.743
REMARK INTRA:                  -0.270
REMARK UNBOUND:                -0.478
REMARK SMILES COc1cccc(C(=O)O)c1O
REMARK SMILES IDX 7 1 11 2 6 3 5 4 3 5 4 6 8 7 9 8 10 9 12 11 2 13 1 14
REMARK H PARENT 10 10 12 12
ROOT
ATOM      1  C   UNL     1       2.008  -4.985  -0.684  1.00  0.00     0.105 A 
ATOM      2  C   UNL     1       2.847  -5.944  -0.185  1.00  0.00     0.172 A 
ATOM      3  C   UNL     1       2.456  -4.235  -1.871  1.00  0.00     0.020 A 
ATOM      4  C   UNL     1       3.467  -4.764  -2.607  1.00  0.00     0.005 A 
ATOM      5  C   UNL     1       3.767  -6.675  -1.045  1.00  0.00     0.161 A 
ATOM      6  C   UNL     1       4.151  -5.962  -2.249  1.00  0.00     0.050 A 
ENDROOT
BRANCH   1   7
ATOM      7  C   UNL     1       0.603  -4.767  -0.096  1.00  0.00     0.339 C 
ATOM      8  O   UNL     1      -0.268  -3.952  -1.205  1.00  0.00    -0.246 OA
BRANCH   7   9
ATOM      9  O   UNL     1       0.031  -5.064   0.737  1.00  0.00    -0.478 OA
ATOM     10  H   UNL     1      -0.506  -5.343   1.521  1.00  0.00     0.297 HD
ENDBRANCH   7   9
ENDBRANCH   1   7
BRANCH   2  11
ATOM     11  O   UNL     1       2.843  -6.282   1.179  1.00  0.00    -0.504 OA
ATOM     12  H   UNL     1       2.840  -6.520   2.140  1.00  0.00     0.293 HD
ENDBRANCH   2  11
BRANCH   5  13
ATOM     13  O   UNL     1       4.418  -7.752  -0.457  1.00  0.00    -0.493 OA
ATOM     14  C   UNL     1       4.818  -8.967  -0.274  1.00  0.00     0.278 C 
ENDBRANCH   5  13
TORSDOF 4
ENDMDL
MODEL 4
REMARK VINA RESULT:    -4.652      2.155      3.172
REMARK INTER + INTRA:          -5.947
REMARK INTER:                  -5.678
REMARK INTRA:                  -0.269
REMARK UNBOUND:                -0.478
REMARK SMILES COc1cccc(C(=O)O)c1O
REMARK SMILES IDX 7 1 11 2 6 3 5 4 3 5 4 6 8 7 9 8 10 9 12 11 2 13 1 14
REMARK H PARENT 10 10 12 12
ROOT
ATOM      1  C   UNL     1       4.174  -3.998  -2.569  1.00  0.00     0.105 A 
ATOM      2  C   UNL     1       4.458  -5.298  -2.885  1.00  0.00     0.172 A 
ATOM      3  C   UNL     1       3.145  -3.754  -1.542  1.00  0.00     0.020 A 
ATOM      4  C   UNL     1       2.811  -4.786  -0.724  1.00  0.00     0.005 A 
ATOM      5  C   UNL     1       4.318  -6.370  -1.909  1.00  0.00     0.161 A 
ATOM      6  C   UNL     1       3.356  -6.097  -0.858  1.00  0.00     0.050 A 
ENDROOT
BRANCH   1   7
ATOM      7  C   UNL     1       4.970  -2.833  -3.182  1.00  0.00     0.339 C 
ATOM      8  O   UNL     1       4.684  -1.514  -2.269  1.00  0.00    -0.246 OA
BRANCH   7   9
ATOM      9  O   UNL     1       5.693  -2.667  -3.929  1.00  0.00    -0.478 OA
ATOM     10  H   UNL     1       6.374  -2.511  -4.631  1.00  0.00     0.297 HD
ENDBRANCH   7   9
ENDBRANCH   1   7
BRANCH   2  11
ATOM     11  O   UNL     1       4.919  -5.656  -4.164  1.00  0.00    -0.504 OA
ATOM     12  H   UNL     1       5.244  -5.908  -5.065  1.00  0.00     0.293 HD
ENDBRANCH   2  11
BRANCH   5  13
ATOM     13  O   UNL     1       4.824  -7.606  -2.291  1.00  0.00    -0.493 OA
ATOM     14  C   UNL     1       5.626  -8.617  -2.347  1.00  0.00     0.278 C 
ENDBRANCH   5  13
TORSDOF 4
ENDMDL
MODEL 5
REMARK VINA RESULT:    -4.080      2.024      3.053
REMARK INTER + INTRA:          -5.274
REMARK INTER:                  -4.807
REMARK INTRA:                  -0.467
REMARK UNBOUND:                -0.478
REMARK SMILES COc1cccc(C(=O)O)c1O
REMARK SMILES IDX 7 1 11 2 6 3 5 4 3 5 4 6 8 7 9 8 10 9 12 11 2 13 1 14
REMARK H PARENT 10 10 12 12
ROOT
ATOM      1  C   UNL     1       3.567  -3.762  -2.256  1.00  0.00     0.105 A 
ATOM      2  C   UNL     1       4.000  -5.030  -2.530  1.00  0.00     0.172 A 
ATOM      3  C   UNL     1       2.300  -3.618  -1.515  1.00  0.00     0.020 A 
ATOM      4  C   UNL     1       1.837  -4.702  -0.840  1.00  0.00     0.005 A 
ATOM      5  C   UNL     1       3.687  -6.150  -1.655  1.00  0.00     0.161 A 
ATOM      6  C   UNL     1       2.477  -5.975  -0.873  1.00  0.00     0.050 A 
ENDROOT
BRANCH   1   7
ATOM      7  C   UNL     1       4.418  -2.531  -2.612  1.00  0.00     0.339 C 
ATOM      8  O   UNL     1       4.980  -2.749  -4.125  1.00  0.00    -0.246 OA
BRANCH   7   9
ATOM      9  O   UNL     1       4.653  -1.583  -2.219  1.00  0.00    -0.478 OA
ATOM     10  H   UNL     1       4.874  -0.691  -1.850  1.00  0.00     0.297 HD
ENDBRANCH   7   9
ENDBRANCH   1   7
BRANCH   2  11
ATOM     11  O   UNL     1       4.788  -5.306  -3.661  1.00  0.00    -0.504 OA
ATOM     12  H   UNL     1       5.343  -5.499  -4.458  1.00  0.00     0.293 HD
ENDBRANCH   2  11
BRANCH   5  13
ATOM     13  O   UNL     1       4.347  -7.340  -1.934  1.00  0.00    -0.493 OA
ATOM     14  C   UNL     1       5.037  -8.414  -1.733  1.00  0.00     0.278 C 
ENDBRANCH   5  13
TORSDOF 4
ENDMDL
MODEL 6
REMARK VINA RESULT:    -3.987      2.304      4.672
REMARK INTER + INTRA:          -5.165
REMARK INTER:                  -4.848
REMARK INTRA:                  -0.317
REMARK UNBOUND:                -0.478
REMARK SMILES COc1cccc(C(=O)O)c1O
REMARK SMILES IDX 7 1 11 2 6 3 5 4 3 5 4 6 8 7 9 8 10 9 12 11 2 13 1 14
REMARK H PARENT 10 10 12 12
ROOT
ATOM      1  C   UNL     1       2.780  -5.585   0.258  1.00  0.00     0.105 A 
ATOM      2  C   UNL     1       3.707  -4.845  -0.423  1.00  0.00     0.172 A 
ATOM      3  C   UNL     1       1.358  -5.245   0.066  1.00  0.00     0.020 A 
ATOM      4  C   UNL     1       1.029  -4.497  -1.019  1.00  0.00     0.005 A 
ATOM      5  C   UNL     1       3.404  -4.242  -1.714  1.00  0.00     0.161 A 
ATOM      6  C   UNL     1       1.994  -3.975  -1.930  1.00  0.00     0.050 A 
ENDROOT
BRANCH   1   7
ATOM      7  C   UNL     1       3.194  -6.795   1.113  1.00  0.00     0.339 C 
ATOM      8  O   UNL     1       4.304  -7.633   0.265  1.00  0.00    -0.246 OA
BRANCH   7   9
ATOM      9  O   UNL     1       3.050  -7.171   2.086  1.00  0.00    -0.478 OA
ATOM     10  H   UNL     1       2.915  -7.525   3.001  1.00  0.00     0.297 HD
ENDBRANCH   7   9
ENDBRANCH   1   7
BRANCH   2  11
ATOM     11  O   UNL     1       5.003  -4.650   0.083  1.00  0.00    -0.504 OA
ATOM     12  H   UNL     1       5.917  -4.513   0.439  1.00  0.00     0.293 HD
ENDBRANCH   2  11
BRANCH   5  13
ATOM     13  O   UNL     1       4.482  -3.688  -2.391  1.00  0.00    -0.493 OA
ATOM     14  C   UNL     1       5.130  -2.942  -3.224  1.00  0.00     0.278 C 
ENDBRANCH   5  13
TORSDOF 4
ENDMDL
MODEL 7
REMARK VINA RESULT:    -3.978      2.156      3.112
REMARK INTER + INTRA:          -5.154
REMARK INTER:                  -4.890
REMARK INTRA:                  -0.263
REMARK UNBOUND:                -0.478
REMARK SMILES COc1cccc(C(=O)O)c1O
REMARK SMILES IDX 7 1 11 2 6 3 5 4 3 5 4 6 8 7 9 8 10 9 12 11 2 13 1 14
REMARK H PARENT 10 10 12 12
ROOT
ATOM      1  C   UNL     1       4.183  -5.057  -3.349  1.00  0.00     0.105 A 
ATOM      2  C   UNL     1       2.951  -5.136  -2.761  1.00  0.00     0.172 A 
ATOM      3  C   UNL     1       4.870  -3.753  -3.324  1.00  0.00     0.020 A 
ATOM      4  C   UNL     1       4.436  -2.828  -2.429  1.00  0.00     0.005 A 
ATOM      5  C   UNL     1       2.586  -4.288  -1.635  1.00  0.00     0.161 A 
ATOM      6  C   UNL     1       3.316  -3.035  -1.572  1.00  0.00     0.050 A 
ENDROOT
BRANCH   1   7
ATOM      7  C   UNL     1       4.877  -6.304  -3.924  1.00  0.00     0.339 C 
ATOM      8  O   UNL     1       4.748  -7.489  -2.813  1.00  0.00    -0.246 OA
BRANCH   7   9
ATOM      9  O   UNL     1       5.306  -6.634  -4.827  1.00  0.00    -0.478 OA
ATOM     10  H   UNL     1       5.710  -6.943  -5.677  1.00  0.00     0.297 HD
ENDBRANCH   7   9
ENDBRANCH   1   7
BRANCH   2  11
ATOM     11  O   UNL     1       1.986  -6.057  -3.205  1.00  0.00    -0.504 OA
ATOM     12  H   UNL     1       1.306  -6.706  -3.517  1.00  0.00     0.293 HD
ENDBRANCH   2  11
BRANCH   5  13
ATOM     13  O   UNL     1       1.388  -4.600  -1.005  1.00  0.00    -0.493 OA
ATOM     14  C   UNL     1       0.580  -5.051  -0.103  1.00  0.00     0.278 C 
ENDBRANCH   5  13
TORSDOF 4
ENDMDL
MODEL 8
REMARK VINA RESULT:    -3.767      2.281      4.447
REMARK INTER + INTRA:          -4.906
REMARK INTER:                  -4.651
REMARK INTRA:                  -0.255
REMARK UNBOUND:                -0.478
REMARK SMILES COc1cccc(C(=O)O)c1O
REMARK SMILES IDX 7 1 11 2 6 3 5 4 3 5 4 6 8 7 9 8 10 9 12 11 2 13 1 14
REMARK H PARENT 10 10 12 12
ROOT
ATOM      1  C   UNL     1       2.607  -4.717  -1.611  1.00  0.00     0.105 A 
ATOM      2  C   UNL     1       3.337  -5.655  -2.288  1.00  0.00     0.172 A 
ATOM      3  C   UNL     1       3.188  -3.368  -1.473  1.00  0.00     0.020 A 
ATOM      4  C   UNL     1       4.202  -3.029  -2.310  1.00  0.00     0.005 A 
ATOM      5  C   UNL     1       4.253  -5.284  -3.357  1.00  0.00     0.161 A 
ATOM      6  C   UNL     1       4.768  -3.931  -3.258  1.00  0.00     0.050 A 
ENDROOT
BRANCH   1   7
ATOM      7  C   UNL     1       1.187  -5.021  -1.102  1.00  0.00     0.339 C 
ATOM      8  O   UNL     1       0.278  -3.697  -1.374  1.00  0.00    -0.246 OA
BRANCH   7   9
ATOM      9  O   UNL     1       0.628  -5.835  -0.736  1.00  0.00    -0.478 OA
ATOM     10  H   UNL     1       0.103  -6.600  -0.392  1.00  0.00     0.297 HD
ENDBRANCH   7   9
ENDBRANCH   1   7
BRANCH   2  11
ATOM     11  O   UNL     1       3.218  -7.025  -1.996  1.00  0.00    -0.504 OA
ATOM     12  H   UNL     1       3.134  -7.989  -1.790  1.00  0.00     0.293 HD
ENDBRANCH   2  11
BRANCH   5  13
ATOM     13  O   UNL     1       4.781  -6.337  -4.094  1.00  0.00    -0.493 OA
ATOM     14  C   UNL     1       5.659  -7.158  -4.568  1.00  0.00     0.278 C 
ENDBRANCH   5  13
TORSDOF 4
ENDMDL
MODEL 9
REMARK VINA RESULT:    -3.759      2.144      2.694
REMARK INTER + INTRA:          -4.897
REMARK INTER:                  -4.642
REMARK INTRA:                  -0.255
REMARK UNBOUND:                -0.478
REMARK SMILES COc1cccc(C(=O)O)c1O
REMARK SMILES IDX 7 1 11 2 6 3 5 4 3 5 4 6 8 7 9 8 10 9 12 11 2 13 1 14
REMARK H PARENT 10 10 12 12
ROOT
ATOM      1  C   UNL     1       3.584  -4.226  -1.677  1.00  0.00     0.105 A 
ATOM      2  C   UNL     1       3.859  -5.311  -0.892  1.00  0.00     0.172 A 
ATOM      3  C   UNL     1       2.166  -3.879  -1.891  1.00  0.00     0.020 A 
ATOM      4  C   UNL     1       1.253  -4.401  -1.032  1.00  0.00     0.005 A 
ATOM      5  C   UNL     1       2.973  -5.716   0.190  1.00  0.00     0.161 A 
ATOM      6  C   UNL     1       1.591  -5.311   0.012  1.00  0.00     0.050 A 
ENDROOT
BRANCH   1   7
ATOM      7  C   UNL     1       4.707  -3.334  -2.232  1.00  0.00     0.339 C 
ATOM      8  O   UNL     1       4.193  -1.791  -2.143  1.00  0.00    -0.246 OA
BRANCH   7   9
ATOM      9  O   UNL     1       5.708  -3.415  -2.548  1.00  0.00    -0.478 OA
ATOM     10  H   UNL     1       6.650  -3.492  -2.845  1.00  0.00     0.297 HD
ENDBRANCH   7   9
ENDBRANCH   1   7
BRANCH   2  11
ATOM     11  O   UNL     1       5.024  -6.074  -1.081  1.00  0.00    -0.504 OA
ATOM     12  H   UNL     1       5.845  -6.611  -1.214  1.00  0.00     0.293 HD
ENDBRANCH   2  11
BRANCH   5  13
ATOM     13  O   UNL     1       3.461  -6.706   1.034  1.00  0.00    -0.493 OA
ATOM     14  C   UNL     1       3.461  -7.745   1.803  1.00  0.00     0.278 C 
ENDBRANCH   5  13
TORSDOF 4
ENDMDL
