MODEL 1
REMARK VINA RESULT:    -4.832      0.000      0.000
REMARK INTER + INTRA:          -6.153
REMARK INTER:                  -5.679
REMARK INTRA:                  -0.474
REMARK UNBOUND:                -0.474
REMARK SMILES COc1cccc(C(=O)O)c1O
REMARK SMILES IDX 7 1 11 2 6 3 5 4 3 5 4 6 8 7 9 8 10 9 12 11 2 13 1 14
REMARK H PARENT 10 10 12 12
ROOT
ATOM      1  C   UNL     1      -5.692  -0.225   1.021  1.00  0.00     0.105 A 
ATOM      2  C   UNL     1      -4.741  -0.673   0.146  1.00  0.00     0.172 A 
ATOM      3  C   UNL     1      -6.616  -1.220   1.595  1.00  0.00     0.020 A 
ATOM      4  C   UNL     1      -6.258  -2.528   1.524  1.00  0.00     0.005 A 
ATOM      5  C   UNL     1      -4.192  -2.018   0.238  1.00  0.00     0.161 A 
ATOM      6  C   UNL     1      -5.076  -2.981   0.868  1.00  0.00     0.050 A 
ENDROOT
BRANCH   1   7
ATOM      7  C   UNL     1      -5.733   1.245   1.476  1.00  0.00     0.339 C 
ATOM      8  O   UNL     1      -4.291   1.909   1.108  1.00  0.00    -0.246 OA
BRANCH   7   9
ATOM      9  O   UNL     1      -6.424   1.946   1.849  1.00  0.00    -0.478 OA
ATOM     10  H   UNL     1      -7.074   2.605   2.199  1.00  0.00     0.297 HD
ENDBRANCH   7   9
ENDBRANCH   1   7
BRANCH   2  11
ATOM     11  O   UNL     1      -4.234   0.155  -0.870  1.00  0.00    -0.504 OA
ATOM     12  H   UNL     1      -3.877   0.738  -1.586  1.00  0.00     0.293 HD
ENDBRANCH   2  11
BRANCH   5  13
ATOM     13  O   UNL     1      -3.099  -2.283  -0.577  1.00  0.00    -0.493 OA
ATOM     14  C   UNL     1      -2.426  -2.716  -1.592  1.00  0.00     0.278 C 
ENDBRANCH   5  13
TORSDOF 4
ENDMDL
MODEL 2
REMARK VINA RESULT:    -4.816      1.750      4.640
REMARK INTER + INTRA:          -6.134
REMARK INTER:                  -5.665
REMARK INTRA:                  -0.470
REMARK UNBOUND:                -0.474
REMARK SMILES COc1cccc(C(=O)O)c1O
REMARK SMILES IDX 7 1 11 2 6 3 5 4 3 5 4 6 8 7 9 8 10 9 12 11 2 13 1 14
REMARK H PARENT 10 10 12 12
ROOT
ATOM      1  C   UNL     1      -3.833  -2.077  -1.293  1.00  0.00     0.105 A 
ATOM      2  C   UNL     1      -4.241  -1.330  -0.222  1.00  0.00     0.172 A 
ATOM      3  C   UNL     1      -4.666  -2.040  -2.509  1.00  0.00     0.020 A 
ATOM      4  C   UNL     1      -5.554  -1.020  -2.635  1.00  0.00     0.005 A 
ATOM      5  C   UNL     1      -4.997  -0.097  -0.394  1.00  0.00     0.161 A 
ATOM      6  C   UNL     1      -5.760  -0.034  -1.626  1.00  0.00     0.050 A 
ENDROOT
BRANCH   1   7
ATOM      7  C   UNL     1      -2.500  -2.845  -1.272  1.00  0.00     0.339 C 
ATOM      8  O   UNL     1      -1.621  -2.262  -0.030  1.00  0.00    -0.246 OA
BRANCH   7   9
ATOM      9  O   UNL     1      -2.048  -3.671  -1.743  1.00  0.00    -0.478 OA
ATOM     10  H   UNL     1      -1.622  -4.448  -2.186  1.00  0.00     0.297 HD
ENDBRANCH   7   9
ENDBRANCH   1   7
BRANCH   2  11
ATOM     11  O   UNL     1      -3.929  -1.708   1.095  1.00  0.00    -0.504 OA
ATOM     12  H   UNL     1      -3.709  -1.975   2.023  1.00  0.00     0.293 HD
ENDBRANCH   2  11
BRANCH   5  13
ATOM     13  O   UNL     1      -5.177   0.667   0.752  1.00  0.00    -0.493 OA
ATOM     14  C   UNL     1      -5.748   1.139   1.810  1.00  0.00     0.278 C 
ENDBRANCH   5  13
TORSDOF 4
ENDMDL
MODEL 3
REMARK VINA RESULT:    -4.686      2.259      3.241
REMARK INTER + INTRA:          -5.981
REMARK INTER:                  -5.712
REMARK INTRA:                  -0.269
REMARK UNBOUND:                -0.474
REMARK SMILES COc1cccc(C(=O)O)c1O
REMARK SMILES IDX 7 1 11 2 6 3 5 4 3 5 4 6 8 7 9 8 10 9 12 11 2 13 1 14
REMARK H PARENT 10 10 12 12
ROOT
ATOM      1  C   UNL     1      -5.433  -0.268   0.856  1.00  0.00     0.105 A 
ATOM      2  C   UNL     1      -6.443  -1.189   0.804  1.00  0.00     0.172 A 
ATOM      3  C   UNL     1      -4.291  -0.453  -0.059  1.00  0.00     0.020 A 
ATOM      4  C   UNL     1      -4.464  -1.278  -1.124  1.00  0.00     0.005 A 
ATOM      5  C   UNL     1      -6.769  -1.897  -0.426  1.00  0.00     0.161 A 
ATOM      6  C   UNL     1      -5.662  -2.015  -1.356  1.00  0.00     0.050 A 
ENDROOT
BRANCH   1   7
ATOM      7  C   UNL     1      -5.528   0.975   1.758  1.00  0.00     0.339 C 
ATOM      8  O   UNL     1      -4.480   2.079   1.178  1.00  0.00    -0.246 OA
BRANCH   7   9
ATOM      9  O   UNL     1      -6.119   1.344   2.547  1.00  0.00    -0.478 OA
ATOM     10  H   UNL     1      -6.675   1.692   3.289  1.00  0.00     0.297 HD
ENDBRANCH   7   9
ENDBRANCH   1   7
BRANCH   2  11
ATOM     11  O   UNL     1      -7.228  -1.478   1.934  1.00  0.00    -0.504 OA
ATOM     12  H   UNL     1      -7.780  -1.682   2.729  1.00  0.00     0.293 HD
ENDBRANCH   2  11
BRANCH   5  13
ATOM     13  O   UNL     1      -7.934  -2.653  -0.399  1.00  0.00    -0.493 OA
ATOM     14  C   UNL     1      -9.018  -3.215  -0.821  1.00  0.00     0.278 C 
ENDBRANCH   5  13
TORSDOF 4
ENDMDL
MODEL 4
REMARK VINA RESULT:    -4.684      2.863      4.360
REMARK INTER + INTRA:          -5.979
REMARK INTER:                  -5.710
REMARK INTRA:                  -0.269
REMARK UNBOUND:                -0.474
REMARK SMILES COc1cccc(C(=O)O)c1O
REMARK SMILES IDX 7 1 11 2 6 3 5 4 3 5 4 6 8 7 9 8 10 9 12 11 2 13 1 14
REMARK H PARENT 10 10 12 12
ROOT
ATOM      1  C   UNL     1      -3.881  -1.957  -1.024  1.00  0.00     0.105 A 
ATOM      2  C   UNL     1      -5.003  -2.175  -1.775  1.00  0.00     0.172 A 
ATOM      3  C   UNL     1      -4.050  -1.297   0.283  1.00  0.00     0.020 A 
ATOM      4  C   UNL     1      -5.296  -1.278   0.824  1.00  0.00     0.005 A 
ATOM      5  C   UNL     1      -6.304  -2.391  -1.158  1.00  0.00     0.161 A 
ATOM      6  C   UNL     1      -6.444  -1.801   0.160  1.00  0.00     0.050 A 
ENDROOT
BRANCH   1   7
ATOM      7  C   UNL     1      -2.503  -2.474  -1.475  1.00  0.00     0.339 C 
ATOM      8  O   UNL     1      -1.535  -2.485  -0.165  1.00  0.00    -0.246 OA
BRANCH   7   9
ATOM      9  O   UNL     1      -2.050  -2.900  -2.324  1.00  0.00    -0.478 OA
ATOM     10  H   UNL     1      -1.623  -3.299  -3.124  1.00  0.00     0.297 HD
ENDBRANCH   7   9
ENDBRANCH   1   7
BRANCH   2  11
ATOM     11  O   UNL     1      -4.947  -2.222  -3.178  1.00  0.00    -0.504 OA
ATOM     12  H   UNL     1      -4.907  -2.254  -4.167  1.00  0.00     0.293 HD
ENDBRANCH   2  11
BRANCH   5  13
ATOM     13  O   UNL     1      -7.320  -2.796  -2.014  1.00  0.00    -0.493 OA
ATOM     14  C   UNL     1      -8.413  -3.363  -2.408  1.00  0.00     0.278 C 
ENDBRANCH   5  13
TORSDOF 4
ENDMDL
MODEL 5
REMARK VINA RESULT:    -4.387      1.388      1.459
REMARK INTER + INTRA:          -5.630
REMARK INTER:                  -5.208
REMARK INTRA:                  -0.423
REMARK UNBOUND:                -0.474
REMARK SMILES COc1cccc(C(=O)O)c1O
REMARK SMILES IDX 7 1 11 2 6 3 5 4 3 5 4 6 8 7 9 8 10 9 12 11 2 13 1 14
REMARK H PARENT 10 10 12 12
ROOT
ATOM      1  C   UNL     1      -5.494   0.220   0.372  1.00  0.00     0.105 A 
ATOM      2  C   UNL     1      -4.375  -0.435  -0.061  1.00  0.00     0.172 A 
ATOM      3  C   UNL     1      -6.763  -0.059  -0.327  1.00  0.00     0.020 A 
ATOM      4  C   UNL     1      -6.831  -1.183  -1.085  1.00  0.00     0.005 A 
ATOM      5  C   UNL     1      -4.449  -1.759  -0.663  1.00  0.00     0.161 A 
ATOM      6  C   UNL     1      -5.724  -2.058  -1.288  1.00  0.00     0.050 A 
ENDROOT
BRANCH   1   7
ATOM      7  C   UNL     1      -5.459   1.135   1.608  1.00  0.00     0.339 C 
ATOM      8  O   UNL     1      -4.383   2.321   1.306  1.00  0.00    -0.246 OA
BRANCH   7   9
ATOM      9  O   UNL     1      -5.976   1.271   2.515  1.00  0.00    -0.478 OA
ATOM     10  H   UNL     1      -6.462   1.400   3.368  1.00  0.00     0.297 HD
ENDBRANCH   7   9
ENDBRANCH   1   7
BRANCH   2  11
ATOM     11  O   UNL     1      -3.096   0.132   0.076  1.00  0.00    -0.504 OA
ATOM     12  H   UNL     1      -2.195   0.532   0.172  1.00  0.00     0.293 HD
ENDBRANCH   2  11
BRANCH   5  13
ATOM     13  O   UNL     1      -3.234  -2.396  -0.877  1.00  0.00    -0.493 OA
ATOM     14  C   UNL     1      -2.208  -2.858  -1.513  1.00  0.00     0.278 C 
ENDBRANCH   5  13
TORSDOF 4
ENDMDL
MODEL 6
REMARK VINA RESULT:    -4.092      2.441      4.599
REMARK INTER + INTRA:          -5.283
REMARK INTER:                  -5.080
REMARK INTRA:                  -0.203
REMARK UNBOUND:                -0.474
REMARK SMILES COc1cccc(C(=O)O)c1O
REMARK SMILES IDX 7 1 11 2 6 3 5 4 3 5 4 6 8 7 9 8 10 9 12 11 2 13 1 14
REMARK H PARENT 10 10 12 12
ROOT
ATOM      1  C   UNL     1      -4.673  -1.781  -2.146  1.00  0.00     0.105 A 
ATOM      2  C   UNL     1      -5.074  -0.714  -1.389  1.00  0.00     0.172 A 
ATOM      3  C   UNL     1      -3.398  -2.430  -1.790  1.00  0.00     0.020 A 
ATOM      4  C   UNL     1      -2.891  -2.191  -0.554  1.00  0.00     0.005 A 
ATOM      5  C   UNL     1      -4.712  -0.596   0.016  1.00  0.00     0.161 A 
ATOM      6  C   UNL     1      -3.494  -1.296   0.379  1.00  0.00     0.050 A 
ENDROOT
BRANCH   1   7
ATOM      7  C   UNL     1      -5.566  -2.352  -3.261  1.00  0.00     0.339 C 
ATOM      8  O   UNL     1      -6.973  -2.803  -2.575  1.00  0.00    -0.246 OA
BRANCH   7   9
ATOM      9  O   UNL     1      -5.574  -2.442  -4.310  1.00  0.00    -0.478 OA
ATOM     10  H   UNL     1      -5.580  -2.527  -5.297  1.00  0.00     0.297 HD
ENDBRANCH   7   9
ENDBRANCH   1   7
BRANCH   2  11
ATOM     11  O   UNL     1      -5.873   0.308  -1.930  1.00  0.00    -0.504 OA
ATOM     12  H   UNL     1      -6.437   1.027  -2.311  1.00  0.00     0.293 HD
ENDBRANCH   2  11
BRANCH   5  13
ATOM     13  O   UNL     1      -5.342   0.423   0.720  1.00  0.00    -0.493 OA
ATOM     14  C   UNL     1      -5.752   1.119   1.728  1.00  0.00     0.278 C 
ENDBRANCH   5  13
TORSDOF 4
ENDMDL
MODEL 7
REMARK VINA RESULT:    -4.087      2.648      4.221
REMARK INTER + INTRA:          -5.277
REMARK INTER:                  -4.817
REMARK INTRA:                  -0.461
REMARK UNBOUND:                -0.474
REMARK SMILES COc1cccc(C(=O)O)c1O
REMARK SMILES IDX 7 1 11 2 6 3 5 4 3 5 4 6 8 7 9 8 10 9 12 11 2 13 1 14
REMARK H PARENT 10 10 12 12
ROOT
ATOM      1  C   UNL     1      -3.737  -1.323  -0.547  1.00  0.00     0.105 A 
ATOM      2  C   UNL     1      -4.909  -1.642  -1.176  1.00  0.00     0.172 A 
ATOM      3  C   UNL     1      -3.757  -0.200   0.409  1.00  0.00     0.020 A 
ATOM      4  C   UNL     1      -4.964   0.204   0.883  1.00  0.00     0.005 A 
ATOM      5  C   UNL     1      -6.201  -1.416  -0.543  1.00  0.00     0.161 A 
ATOM      6  C   UNL     1      -6.201  -0.358   0.450  1.00  0.00     0.050 A 
ENDROOT
BRANCH   1   7
ATOM      7  C   UNL     1      -2.466  -2.167  -0.746  1.00  0.00     0.339 C 
ATOM      8  O   UNL     1      -2.339  -2.488  -2.338  1.00  0.00    -0.246 OA
BRANCH   7   9
ATOM      9  O   UNL     1      -1.635  -2.501  -0.192  1.00  0.00    -0.478 OA
ATOM     10  H   UNL     1      -0.854  -2.815   0.329  1.00  0.00     0.297 HD
ENDBRANCH   7   9
ENDBRANCH   1   7
BRANCH   2  11
ATOM     11  O   UNL     1      -4.918  -2.223  -2.455  1.00  0.00    -0.504 OA
ATOM     12  H   UNL     1      -4.925  -2.632  -3.357  1.00  0.00     0.293 HD
ENDBRANCH   2  11
BRANCH   5  13
ATOM     13  O   UNL     1      -7.298  -1.961  -1.196  1.00  0.00    -0.493 OA
ATOM     14  C   UNL     1      -8.275  -2.769  -1.448  1.00  0.00     0.278 C 
ENDBRANCH   5  13
TORSDOF 4
ENDMDL
MODEL 8
REMARK VINA RESULT:    -4.075      2.081      3.059
REMARK INTER + INTRA:          -5.264
REMARK INTER:                  -4.796
REMARK INTRA:                  -0.467
REMARK UNBOUND:                -0.474
REMARK SMILES COc1cccc(C(=O)O)c1O
REMARK SMILES IDX 7 1 11 2 6 3 5 4 3 5 4 6 8 7 9 8 10 9 12 11 2 13 1 14
REMARK H PARENT 10 10 12 12
ROOT
ATOM      1  C   UNL     1      -4.666  -0.383   0.646  1.00  0.00     0.105 A 
ATOM      2  C   UNL     1      -5.741  -1.221   0.539  1.00  0.00     0.172 A 
ATOM      3  C   UNL     1      -3.381  -0.844   0.090  1.00  0.00     0.020 A 
ATOM      4  C   UNL     1      -3.411  -1.871  -0.798  1.00  0.00     0.005 A 
ATOM      5  C   UNL     1      -5.869  -2.161  -0.566  1.00  0.00     0.161 A 
ATOM      6  C   UNL     1      -4.606  -2.559  -1.159  1.00  0.00     0.050 A 
ENDROOT
BRANCH   1   7
ATOM      7  C   UNL     1      -4.810   1.033   1.231  1.00  0.00     0.339 C 
ATOM      8  O   UNL     1      -5.707   0.912   2.585  1.00  0.00    -0.246 OA
BRANCH   7   9
ATOM      9  O   UNL     1      -4.432   2.003   1.074  1.00  0.00    -0.478 OA
ATOM     10  H   UNL     1      -4.077   2.916   0.927  1.00  0.00     0.297 HD
ENDBRANCH   7   9
ENDBRANCH   1   7
BRANCH   2  11
ATOM     11  O   UNL     1      -6.784  -1.198   1.481  1.00  0.00    -0.504 OA
ATOM     12  H   UNL     1      -7.519  -1.182   2.144  1.00  0.00     0.293 HD
ENDBRANCH   2  11
BRANCH   5  13
ATOM     13  O   UNL     1      -7.093  -2.811  -0.669  1.00  0.00    -0.493 OA
ATOM     14  C   UNL     1      -8.224  -3.183  -1.171  1.00  0.00     0.278 C 
ENDBRANCH   5  13
TORSDOF 4
ENDMDL
MODEL 9
REMARK VINA RESULT:    -4.052      2.198      3.111
REMARK INTER + INTRA:          -5.236
REMARK INTER:                  -4.896
REMARK INTRA:                  -0.340
REMARK UNBOUND:                -0.474
REMARK SMILES COc1cccc(C(=O)O)c1O
REMARK SMILES IDX 7 1 11 2 6 3 5 4 3 5 4 6 8 7 9 8 10 9 12 11 2 13 1 14
REMARK H PARENT 10 10 12 12
ROOT
ATOM      1  C   UNL     1      -6.277  -1.225   1.346  1.00  0.00     0.105 A 
ATOM      2  C   UNL     1      -5.307  -1.955   0.718  1.00  0.00     0.172 A 
ATOM      3  C   UNL     1      -5.998   0.199   1.610  1.00  0.00     0.020 A 
ATOM      4  C   UNL     1      -4.991   0.784   0.913  1.00  0.00     0.005 A 
ATOM      5  C   UNL     1      -4.376  -1.343  -0.220  1.00  0.00     0.161 A 
ATOM      6  C   UNL     1      -4.158   0.075  -0.002  1.00  0.00     0.050 A 
ENDROOT
BRANCH   1   7
ATOM      7  C   UNL     1      -7.652  -1.833   1.672  1.00  0.00     0.339 C 
ATOM      8  O   UNL     1      -8.104  -2.731   0.390  1.00  0.00    -0.246 OA
BRANCH   7   9
ATOM      9  O   UNL     1      -8.315  -1.917   2.486  1.00  0.00    -0.478 OA
ATOM     10  H   UNL     1      -8.938  -1.996   3.252  1.00  0.00     0.297 HD
ENDBRANCH   7   9
ENDBRANCH   1   7
BRANCH   2  11
ATOM     11  O   UNL     1      -5.177  -3.338   0.933  1.00  0.00    -0.504 OA
ATOM     12  H   UNL     1      -5.086  -4.312   1.085  1.00  0.00     0.293 HD
ENDBRANCH   2  11
BRANCH   5  13
ATOM     13  O   UNL     1      -3.573  -2.221  -0.936  1.00  0.00    -0.493 OA
ATOM     14  C   UNL     1      -2.520  -2.693  -1.518  1.00  0.00     0.278 C 
ENDBRANCH   5  13
TORSDOF 4
ENDMDL
