MODEL 1
REMARK VINA RESULT:    -5.018      0.000      0.000
REMARK INTER + INTRA:          -6.167
REMARK INTER:                  -5.898
REMARK INTRA:                  -0.270
REMARK UNBOUND:                -0.270
REMARK SMILES COc1cccc(C(=O)O)c1O
REMARK SMILES IDX 7 1 11 2 6 3 5 4 3 5 4 6 8 7 9 8 10 9 12 11 2 13 1 14
REMARK H PARENT 10 10 12 12
ROOT
ATOM      1  C   UNL     1       4.606  -4.422  -1.427  1.00  0.00     0.105 A 
ATOM      2  C   UNL     1       5.036  -5.626  -1.913  1.00  0.00     0.172 A 
ATOM      3  C   UNL     1       3.366  -4.411  -0.629  1.00  0.00     0.020 A 
ATOM      4  C   UNL     1       2.933  -5.593  -0.119  1.00  0.00     0.005 A 
ATOM      5  C   UNL     1       4.761  -6.874  -1.216  1.00  0.00     0.161 A 
ATOM      6  C   UNL     1       3.579  -6.838  -0.375  1.00  0.00     0.050 A 
ENDROOT
BRANCH   1   7
ATOM      7  C   UNL     1       5.437  -3.141  -1.613  1.00  0.00     0.339 C 
ATOM      8  O   UNL     1       4.899  -2.050  -0.529  1.00  0.00    -0.246 OA
BRANCH   7   9
ATOM      9  O   UNL     1       6.283  -2.809  -2.145  1.00  0.00    -0.478 OA
ATOM     10  H   UNL     1       7.079  -2.496  -2.644  1.00  0.00     0.297 HD
ENDBRANCH   7   9
ENDBRANCH   1   7
BRANCH   2  11
ATOM     11  O   UNL     1       5.784  -5.711  -3.100  1.00  0.00    -0.504 OA
ATOM     12  H   UNL     1       6.311  -5.771  -3.936  1.00  0.00     0.293 HD
ENDBRANCH   2  11
BRANCH   5  13
ATOM     13  O   UNL     1       5.417  -7.998  -1.703  1.00  0.00    -0.493 OA
ATOM     14  C   UNL     1       6.088  -9.102  -1.695  1.00  0.00     0.278 C 
ENDBRANCH   5  13
TORSDOF 4
ENDMDL
MODEL 2
REMARK VINA RESULT:    -5.010      2.893      3.888
REMARK INTER + INTRA:          -6.158
REMARK INTER:                  -5.888
REMARK INTRA:                  -0.271
REMARK UNBOUND:                -0.270
REMARK SMILES COc1cccc(C(=O)O)c1O
REMARK SMILES IDX 7 1 11 2 6 3 5 4 3 5 4 6 8 7 9 8 10 9 12 11 2 13 1 14
REMARK H PARENT 10 10 12 12
ROOT
ATOM      1  C   UNL     1       2.190  -5.594  -0.438  1.00  0.00     0.105 A 
ATOM      2  C   UNL     1       2.894  -6.670   0.028  1.00  0.00     0.172 A 
ATOM      3  C   UNL     1       2.927  -4.577  -1.210  1.00  0.00     0.020 A 
ATOM      4  C   UNL     1       4.135  -4.928  -1.723  1.00  0.00     0.005 A 
ATOM      5  C   UNL     1       4.061  -7.182  -0.676  1.00  0.00     0.161 A 
ATOM      6  C   UNL     1       4.744  -6.196  -1.493  1.00  0.00     0.050 A 
ENDROOT
BRANCH   1   7
ATOM      7  C   UNL     1       0.665  -5.495  -0.256  1.00  0.00     0.339 C 
ATOM      8  O   UNL     1       0.117  -4.400  -1.330  1.00  0.00    -0.246 OA
BRANCH   7   9
ATOM      9  O   UNL     1      -0.109  -5.980   0.268  1.00  0.00    -0.478 OA
ATOM     10  H   UNL     1      -0.837  -6.436   0.761  1.00  0.00     0.297 HD
ENDBRANCH   7   9
ENDBRANCH   1   7
BRANCH   2  11
ATOM     11  O   UNL     1       2.508  -7.346   1.199  1.00  0.00    -0.504 OA
ATOM     12  H   UNL     1       2.237  -7.822   2.023  1.00  0.00     0.293 HD
ENDBRANCH   2  11
BRANCH   5  13
ATOM     13  O   UNL     1       4.565  -8.391  -0.213  1.00  0.00    -0.493 OA
ATOM     14  C   UNL     1       4.891  -9.641  -0.211  1.00  0.00     0.278 C 
ENDBRANCH   5  13
TORSDOF 4
ENDMDL
MODEL 3
REMARK VINA RESULT:    -4.814      2.882      4.268
REMARK INTER + INTRA:          -5.928
REMARK INTER:                  -5.444
REMARK INTRA:                  -0.484
REMARK UNBOUND:                -0.270
REMARK SMILES COc1cccc(C(=O)O)c1O
REMARK SMILES IDX 7 1 11 2 6 3 5 4 3 5 4 6 8 7 9 8 10 9 12 11 2 13 1 14
REMARK H PARENT 10 10 12 12
ROOT
ATOM      1  C   UNL     1       1.970  -5.864  -0.273  1.00  0.00     0.105 A 
ATOM      2  C   UNL     1       2.906  -5.219  -1.033  1.00  0.00     0.172 A 
ATOM      3  C   UNL     1       2.454  -6.743   0.807  1.00  0.00     0.020 A 
ATOM      4  C   UNL     1       3.738  -6.586   1.221  1.00  0.00     0.005 A 
ATOM      5  C   UNL     1       4.204  -4.844  -0.491  1.00  0.00     0.161 A 
ATOM      6  C   UNL     1       4.646  -5.667   0.619  1.00  0.00     0.050 A 
ENDROOT
BRANCH   1   7
ATOM      7  C   UNL     1       0.466  -5.602  -0.464  1.00  0.00     0.339 C 
ATOM      8  O   UNL     1       0.317  -4.271  -1.390  1.00  0.00    -0.246 OA
BRANCH   7   9
ATOM      9  O   UNL     1      -0.457  -6.068  -0.263  1.00  0.00    -0.478 OA
ATOM     10  H   UNL     1      -1.325  -6.506  -0.074  1.00  0.00     0.297 HD
ENDBRANCH   7   9
ENDBRANCH   1   7
BRANCH   2  11
ATOM     11  O   UNL     1       2.649  -4.870  -2.370  1.00  0.00    -0.504 OA
ATOM     12  H   UNL     1       2.467  -4.624  -3.312  1.00  0.00     0.293 HD
ENDBRANCH   2  11
BRANCH   5  13
ATOM     13  O   UNL     1       4.983  -4.024  -1.297  1.00  0.00    -0.493 OA
ATOM     14  C   UNL     1       5.740  -3.034  -1.639  1.00  0.00     0.278 C 
ENDBRANCH   5  13
TORSDOF 4
ENDMDL
MODEL 4
REMARK VINA RESULT:    -4.609      1.892      3.140
REMARK INTER + INTRA:          -5.687
REMARK INTER:                  -5.329
REMARK INTRA:                  -0.359
REMARK UNBOUND:                -0.270
REMARK SMILES COc1cccc(C(=O)O)c1O
REMARK SMILES IDX 7 1 11 2 6 3 5 4 3 5 4 6 8 7 9 8 10 9 12 11 2 13 1 14
REMARK H PARENT 10 10 12 12
ROOT
ATOM      1  C   UNL     1       4.852  -4.494  -1.346  1.00  0.00     0.105 A 
ATOM      2  C   UNL     1       3.538  -4.596  -0.980  1.00  0.00     0.172 A 
ATOM      3  C   UNL     1       5.606  -5.746  -1.544  1.00  0.00     0.020 A 
ATOM      4  C   UNL     1       4.895  -6.890  -1.715  1.00  0.00     0.005 A 
ATOM      5  C   UNL     1       2.720  -5.732  -1.380  1.00  0.00     0.161 A 
ATOM      6  C   UNL     1       3.472  -6.945  -1.644  1.00  0.00     0.050 A 
ENDROOT
BRANCH   1   7
ATOM      7  C   UNL     1       5.496  -3.129  -1.645  1.00  0.00     0.339 C 
ATOM      8  O   UNL     1       4.927  -2.071  -0.545  1.00  0.00    -0.246 OA
BRANCH   7   9
ATOM      9  O   UNL     1       6.242  -2.717  -2.264  1.00  0.00    -0.478 OA
ATOM     10  H   UNL     1       6.943  -2.330  -2.846  1.00  0.00     0.297 HD
ENDBRANCH   7   9
ENDBRANCH   1   7
BRANCH   2  11
ATOM     11  O   UNL     1       2.912  -3.596  -0.217  1.00  0.00    -0.504 OA
ATOM     12  H   UNL     1       2.470  -2.892   0.321  1.00  0.00     0.293 HD
ENDBRANCH   2  11
BRANCH   5  13
ATOM     13  O   UNL     1       1.361  -5.622  -1.116  1.00  0.00    -0.493 OA
ATOM     14  C   UNL     1       0.259  -5.617  -0.441  1.00  0.00     0.278 C 
ENDBRANCH   5  13
TORSDOF 4
ENDMDL
MODEL 5
REMARK VINA RESULT:    -4.258      2.678      3.577
REMARK INTER + INTRA:          -5.275
REMARK INTER:                  -4.813
REMARK INTRA:                  -0.462
REMARK UNBOUND:                -0.270
REMARK SMILES COc1cccc(C(=O)O)c1O
REMARK SMILES IDX 7 1 11 2 6 3 5 4 3 5 4 6 8 7 9 8 10 9 12 11 2 13 1 14
REMARK H PARENT 10 10 12 12
ROOT
ATOM      1  C   UNL     1       2.490  -4.909  -0.617  1.00  0.00     0.105 A 
ATOM      2  C   UNL     1       3.237  -6.028  -0.370  1.00  0.00     0.172 A 
ATOM      3  C   UNL     1       3.211  -3.649  -0.871  1.00  0.00     0.020 A 
ATOM      4  C   UNL     1       4.525  -3.729  -1.206  1.00  0.00     0.005 A 
ATOM      5  C   UNL     1       4.565  -6.202  -0.941  1.00  0.00     0.161 A 
ATOM      6  C   UNL     1       5.244  -4.959  -1.257  1.00  0.00     0.050 A 
ENDROOT
BRANCH   1   7
ATOM      7  C   UNL     1       0.957  -4.979  -0.732  1.00  0.00     0.339 C 
ATOM      8  O   UNL     1       0.420  -5.922   0.484  1.00  0.00    -0.246 OA
BRANCH   7   9
ATOM      9  O   UNL     1       0.178  -4.535  -1.282  1.00  0.00    -0.478 OA
ATOM     10  H   UNL     1      -0.556  -4.117  -1.799  1.00  0.00     0.297 HD
ENDBRANCH   7   9
ENDBRANCH   1   7
BRANCH   2  11
ATOM     11  O   UNL     1       2.746  -7.074   0.431  1.00  0.00    -0.504 OA
ATOM     12  H   UNL     1       2.400  -7.810   0.995  1.00  0.00     0.293 HD
ENDBRANCH   2  11
BRANCH   5  13
ATOM     13  O   UNL     1       5.134  -7.458  -0.779  1.00  0.00    -0.493 OA
ATOM     14  C   UNL     1       5.681  -8.586  -1.094  1.00  0.00     0.278 C 
ENDBRANCH   5  13
TORSDOF 4
ENDMDL
MODEL 6
REMARK VINA RESULT:    -4.169      1.232      1.623
REMARK INTER + INTRA:          -5.170
REMARK INTER:                  -4.763
REMARK INTRA:                  -0.406
REMARK UNBOUND:                -0.270
REMARK SMILES COc1cccc(C(=O)O)c1O
REMARK SMILES IDX 7 1 11 2 6 3 5 4 3 5 4 6 8 7 9 8 10 9 12 11 2 13 1 14
REMARK H PARENT 10 10 12 12
ROOT
ATOM      1  C   UNL     1       3.822  -4.427  -1.052  1.00  0.00     0.105 A 
ATOM      2  C   UNL     1       4.268  -5.719  -0.988  1.00  0.00     0.172 A 
ATOM      3  C   UNL     1       2.368  -4.200  -0.952  1.00  0.00     0.020 A 
ATOM      4  C   UNL     1       1.606  -5.203  -0.446  1.00  0.00     0.005 A 
ATOM      5  C   UNL     1       3.552  -6.737  -0.234  1.00  0.00     0.161 A 
ATOM      6  C   UNL     1       2.133  -6.475  -0.076  1.00  0.00     0.050 A 
ENDROOT
BRANCH   1   7
ATOM      7  C   UNL     1       4.803  -3.244  -1.118  1.00  0.00     0.339 C 
ATOM      8  O   UNL     1       5.836  -3.536  -2.344  1.00  0.00    -0.246 OA
BRANCH   7   9
ATOM      9  O   UNL     1       4.937  -2.293  -0.686  1.00  0.00    -0.478 OA
ATOM     10  H   UNL     1       5.063  -1.399  -0.280  1.00  0.00     0.297 HD
ENDBRANCH   7   9
ENDBRANCH   1   7
BRANCH   2  11
ATOM     11  O   UNL     1       5.451  -6.117  -1.633  1.00  0.00    -0.504 OA
ATOM     12  H   UNL     1       6.285  -6.397  -2.087  1.00  0.00     0.293 HD
ENDBRANCH   2  11
BRANCH   5  13
ATOM     13  O   UNL     1       4.207  -7.953  -0.084  1.00  0.00    -0.493 OA
ATOM     14  C   UNL     1       4.665  -9.123  -0.386  1.00  0.00     0.278 C 
ENDBRANCH   5  13
TORSDOF 4
ENDMDL
MODEL 7
REMARK VINA RESULT:    -4.010      2.254      4.650
REMARK INTER + INTRA:          -4.983
REMARK INTER:                  -4.702
REMARK INTRA:                  -0.280
REMARK UNBOUND:                -0.270
REMARK SMILES COc1cccc(C(=O)O)c1O
REMARK SMILES IDX 7 1 11 2 6 3 5 4 3 5 4 6 8 7 9 8 10 9 12 11 2 13 1 14
REMARK H PARENT 10 10 12 12
ROOT
ATOM      1  C   UNL     1       2.542  -6.385   0.508  1.00  0.00     0.105 A 
ATOM      2  C   UNL     1       3.553  -5.481   0.329  1.00  0.00     0.172 A 
ATOM      3  C   UNL     1       1.207  -6.027  -0.006  1.00  0.00     0.020 A 
ATOM      4  C   UNL     1       1.130  -5.030  -0.924  1.00  0.00     0.005 A 
ATOM      5  C   UNL     1       3.572  -4.571  -0.807  1.00  0.00     0.161 A 
ATOM      6  C   UNL     1       2.261  -4.277  -1.356  1.00  0.00     0.050 A 
ENDROOT
BRANCH   1   7
ATOM      7  C   UNL     1       2.805  -7.769   1.127  1.00  0.00     0.339 C 
ATOM      8  O   UNL     1       4.143  -8.372   0.419  1.00  0.00    -0.246 OA
BRANCH   7   9
ATOM      9  O   UNL     1       2.447  -8.373   1.911  1.00  0.00    -0.478 OA
ATOM     10  H   UNL     1       2.111  -8.942   2.649  1.00  0.00     0.297 HD
ENDBRANCH   7   9
ENDBRANCH   1   7
BRANCH   2  11
ATOM     11  O   UNL     1       4.633  -5.405   1.225  1.00  0.00    -0.504 OA
ATOM     12  H   UNL     1       5.394  -5.352   1.857  1.00  0.00     0.293 HD
ENDBRANCH   2  11
BRANCH   5  13
ATOM     13  O   UNL     1       4.743  -3.845  -0.982  1.00  0.00    -0.493 OA
ATOM     14  C   UNL     1       5.703  -3.231  -1.591  1.00  0.00     0.278 C 
ENDBRANCH   5  13
TORSDOF 4
ENDMDL
MODEL 8
REMARK VINA RESULT:    -3.645      2.718      4.822
REMARK INTER + INTRA:          -4.554
REMARK INTER:                  -4.236
REMARK INTRA:                  -0.318
REMARK UNBOUND:                -0.270
REMARK SMILES COc1cccc(C(=O)O)c1O
REMARK SMILES IDX 7 1 11 2 6 3 5 4 3 5 4 6 8 7 9 8 10 9 12 11 2 13 1 14
REMARK H PARENT 10 10 12 12
ROOT
ATOM      1  C   UNL     1       2.324  -5.139  -1.315  1.00  0.00     0.105 A 
ATOM      2  C   UNL     1       2.849  -3.890  -1.131  1.00  0.00     0.172 A 
ATOM      3  C   UNL     1       3.128  -6.113  -2.076  1.00  0.00     0.020 A 
ATOM      4  C   UNL     1       4.453  -5.856  -2.227  1.00  0.00     0.005 A 
ATOM      5  C   UNL     1       4.286  -3.668  -1.057  1.00  0.00     0.161 A 
ATOM      6  C   UNL     1       5.079  -4.668  -1.747  1.00  0.00     0.050 A 
ENDROOT
BRANCH   1   7
ATOM      7  C   UNL     1       0.992  -5.552  -0.665  1.00  0.00     0.339 C 
ATOM      8  O   UNL     1      -0.153  -4.527  -1.207  1.00  0.00    -0.246 OA
BRANCH   7   9
ATOM      9  O   UNL     1       0.600  -6.331  -0.074  1.00  0.00    -0.478 OA
ATOM     10  H   UNL     1       0.232  -7.063   0.481  1.00  0.00     0.297 HD
ENDBRANCH   7   9
ENDBRANCH   1   7
BRANCH   2  11
ATOM     11  O   UNL     1       2.021  -2.763  -0.982  1.00  0.00    -0.504 OA
ATOM     12  H   UNL     1       1.439  -1.970  -0.877  1.00  0.00     0.293 HD
ENDBRANCH   2  11
BRANCH   5  13
ATOM     13  O   UNL     1       4.683  -2.394  -0.671  1.00  0.00    -0.493 OA
ATOM     14  C   UNL     1       4.720  -1.295   0.007  1.00  0.00     0.278 C 
ENDBRANCH   5  13
TORSDOF 4
ENDMDL
MODEL 9
REMARK VINA RESULT:    -3.639      2.153      4.023
REMARK INTER + INTRA:          -4.547
REMARK INTER:                  -4.419
REMARK INTRA:                  -0.127
REMARK UNBOUND:                -0.270
REMARK SMILES COc1cccc(C(=O)O)c1O
REMARK SMILES IDX 7 1 11 2 6 3 5 4 3 5 4 6 8 7 9 8 10 9 12 11 2 13 1 14
REMARK H PARENT 10 10 12 12
ROOT
ATOM      1  C   UNL     1       4.844  -5.609  -2.175  1.00  0.00     0.105 A 
ATOM      2  C   UNL     1       3.491  -5.656  -1.976  1.00  0.00     0.172 A 
ATOM      3  C   UNL     1       5.525  -4.321  -1.948  1.00  0.00     0.020 A 
ATOM      4  C   UNL     1       4.869  -3.381  -1.221  1.00  0.00     0.005 A 
ATOM      5  C   UNL     1       2.832  -4.792  -1.007  1.00  0.00     0.161 A 
ATOM      6  C   UNL     1       3.541  -3.556  -0.732  1.00  0.00     0.050 A 
ENDROOT
BRANCH   1   7
ATOM      7  C   UNL     1       5.646  -6.876  -2.520  1.00  0.00     0.339 C 
ATOM      8  O   UNL     1       6.593  -6.520  -3.797  1.00  0.00    -0.246 OA
BRANCH   7   9
ATOM      9  O   UNL     1       5.828  -7.836  -2.128  1.00  0.00    -0.478 OA
ATOM     10  H   UNL     1       6.000  -8.739  -1.760  1.00  0.00     0.297 HD
ENDBRANCH   7   9
ENDBRANCH   1   7
BRANCH   2  11
ATOM     11  O   UNL     1       2.678  -6.557  -2.684  1.00  0.00    -0.504 OA
ATOM     12  H   UNL     1       2.105  -7.192  -3.183  1.00  0.00     0.293 HD
ENDBRANCH   2  11
BRANCH   5  13
ATOM     13  O   UNL     1       1.495  -5.072  -0.757  1.00  0.00    -0.493 OA
ATOM     14  C   UNL     1       0.455  -5.686  -0.297  1.00  0.00     0.278 C 
ENDBRANCH   5  13
TORSDOF 4
ENDMDL
