MODEL 1
REMARK VINA RESULT:    -4.862      0.000      0.000
REMARK INTER + INTRA:          -6.193
REMARK INTER:                  -5.715
REMARK INTRA:                  -0.478
REMARK UNBOUND:                -0.478
REMARK SMILES COc1cccc(C(=O)O)c1O
REMARK SMILES IDX 7 1 11 2 6 3 5 4 3 5 4 6 8 7 9 8 10 9 12 11 2 13 1 14
REMARK H PARENT 10 10 12 12
ROOT
ATOM      1  C   UNL     1       4.881  -0.900  -6.601  1.00  0.00     0.105 A 
ATOM      2  C   UNL     1       3.631  -0.353  -6.504  1.00  0.00     0.172 A 
ATOM      3  C   UNL     1       5.915  -0.120  -7.305  1.00  0.00     0.020 A 
ATOM      4  C   UNL     1       5.691   1.207  -7.486  1.00  0.00     0.005 A 
ATOM      5  C   UNL     1       3.429   1.088  -6.460  1.00  0.00     0.161 A 
ATOM      6  C   UNL     1       4.485   1.857  -7.091  1.00  0.00     0.050 A 
ENDROOT
BRANCH   1   7
ATOM      7  C   UNL     1       5.228  -2.231  -5.911  1.00  0.00     0.339 C 
ATOM      8  O   UNL     1       4.016  -2.575  -4.879  1.00  0.00    -0.246 OA
BRANCH   7   9
ATOM      9  O   UNL     1       5.941  -3.003  -5.980  1.00  0.00    -0.478 OA
ATOM     10  H   UNL     1       6.611  -3.729  -6.044  1.00  0.00     0.297 HD
ENDBRANCH   7   9
ENDBRANCH   1   7
BRANCH   2  11
ATOM     11  O   UNL     1       2.483  -1.160  -6.421  1.00  0.00    -0.504 OA
ATOM     12  H   UNL     1       1.675  -1.729  -6.362  1.00  0.00     0.293 HD
ENDBRANCH   2  11
BRANCH   5  13
ATOM     13  O   UNL     1       2.139   1.510  -6.162  1.00  0.00    -0.493 OA
ATOM     14  C   UNL     1       0.970   2.033  -6.335  1.00  0.00     0.278 C 
ENDBRANCH   5  13
TORSDOF 4
ENDMDL
MODEL 2
REMARK VINA RESULT:    -4.858      1.769      4.664
REMARK INTER + INTRA:          -6.188
REMARK INTER:                  -5.706
REMARK INTRA:                  -0.482
REMARK UNBOUND:                -0.478
REMARK SMILES COc1cccc(C(=O)O)c1O
REMARK SMILES IDX 7 1 11 2 6 3 5 4 3 5 4 6 8 7 9 8 10 9 12 11 2 13 1 14
REMARK H PARENT 10 10 12 12
ROOT
ATOM      1  C   UNL     1       1.914   1.133  -7.112  1.00  0.00     0.105 A 
ATOM      2  C   UNL     1       3.078   0.593  -6.638  1.00  0.00     0.172 A 
ATOM      3  C   UNL     1       1.426   0.662  -8.421  1.00  0.00     0.020 A 
ATOM      4  C   UNL     1       1.927  -0.505  -8.899  1.00  0.00     0.005 A 
ATOM      5  C   UNL     1       3.483  -0.764  -6.977  1.00  0.00     0.161 A 
ATOM      6  C   UNL     1       2.943  -1.251  -8.232  1.00  0.00     0.050 A 
ENDROOT
BRANCH   1   7
ATOM      7  C   UNL     1       1.087   2.118  -6.268  1.00  0.00     0.339 C 
ATOM      8  O   UNL     1       1.659   2.053  -4.744  1.00  0.00    -0.246 OA
BRANCH   7   9
ATOM      9  O   UNL     1       0.356   2.864  -6.401  1.00  0.00    -0.478 OA
ATOM     10  H   UNL     1      -0.332   3.566  -6.526  1.00  0.00     0.297 HD
ENDBRANCH   7   9
ENDBRANCH   1   7
BRANCH   2  11
ATOM     11  O   UNL     1       3.926   1.317  -5.783  1.00  0.00    -0.504 OA
ATOM     12  H   UNL     1       4.523   1.827  -5.180  1.00  0.00     0.293 HD
ENDBRANCH   2  11
BRANCH   5  13
ATOM     13  O   UNL     1       4.576  -1.262  -6.278  1.00  0.00    -0.493 OA
ATOM     14  C   UNL     1       5.407  -2.123  -5.791  1.00  0.00     0.278 C 
ENDBRANCH   5  13
TORSDOF 4
ENDMDL
MODEL 3
REMARK VINA RESULT:    -4.728      2.955      4.425
REMARK INTER + INTRA:          -6.036
REMARK INTER:                  -5.770
REMARK INTRA:                  -0.266
REMARK UNBOUND:                -0.478
REMARK SMILES COc1cccc(C(=O)O)c1O
REMARK SMILES IDX 7 1 11 2 6 3 5 4 3 5 4 6 8 7 9 8 10 9 12 11 2 13 1 14
REMARK H PARENT 10 10 12 12
ROOT
ATOM      1  C   UNL     1       2.157   1.049  -6.976  1.00  0.00     0.105 A 
ATOM      2  C   UNL     1       2.154   0.833  -8.326  1.00  0.00     0.172 A 
ATOM      3  C   UNL     1       3.320   0.568  -6.208  1.00  0.00     0.020 A 
ATOM      4  C   UNL     1       4.456   0.282  -6.896  1.00  0.00     0.005 A 
ATOM      5  C   UNL     1       3.391   0.765  -9.091  1.00  0.00     0.161 A 
ATOM      6  C   UNL     1       4.550   0.360  -8.317  1.00  0.00     0.050 A 
ENDROOT
BRANCH   1   7
ATOM      7  C   UNL     1       1.041   1.858  -6.293  1.00  0.00     0.339 C 
ATOM      8  O   UNL     1       1.568   2.255  -4.803  1.00  0.00    -0.246 OA
BRANCH   7   9
ATOM      9  O   UNL     1       0.114   2.298  -6.531  1.00  0.00    -0.478 OA
ATOM     10  H   UNL     1      -0.757   2.711  -6.755  1.00  0.00     0.297 HD
ENDBRANCH   7   9
ENDBRANCH   1   7
BRANCH   2  11
ATOM     11  O   UNL     1       0.953   0.686  -9.041  1.00  0.00    -0.504 OA
ATOM     12  H   UNL     1       0.107   0.583  -9.545  1.00  0.00     0.293 HD
ENDBRANCH   2  11
BRANCH   5  13
ATOM     13  O   UNL     1       3.248   0.740 -10.473  1.00  0.00    -0.493 OA
ATOM     14  C   UNL     1       3.398   1.087 -11.709  1.00  0.00     0.278 C 
ENDBRANCH   5  13
TORSDOF 4
ENDMDL
MODEL 4
REMARK VINA RESULT:    -4.658      2.139      3.145
REMARK INTER + INTRA:          -5.953
REMARK INTER:                  -5.682
REMARK INTRA:                  -0.271
REMARK UNBOUND:                -0.478
REMARK SMILES COc1cccc(C(=O)O)c1O
REMARK SMILES IDX 7 1 11 2 6 3 5 4 3 5 4 6 8 7 9 8 10 9 12 11 2 13 1 14
REMARK H PARENT 10 10 12 12
ROOT
ATOM      1  C   UNL     1       4.560  -0.814  -6.435  1.00  0.00     0.105 A 
ATOM      2  C   UNL     1       5.159  -0.208  -7.505  1.00  0.00     0.172 A 
ATOM      3  C   UNL     1       3.223  -0.336  -6.038  1.00  0.00     0.020 A 
ATOM      4  C   UNL     1       2.519   0.391  -6.943  1.00  0.00     0.005 A 
ATOM      5  C   UNL     1       4.378   0.362  -8.594  1.00  0.00     0.161 A 
ATOM      6  C   UNL     1       3.037   0.767  -8.217  1.00  0.00     0.050 A 
ENDROOT
BRANCH   1   7
ATOM      7  C   UNL     1       5.208  -2.021  -5.733  1.00  0.00     0.339 C 
ATOM      8  O   UNL     1       4.036  -2.786  -4.899  1.00  0.00    -0.246 OA
BRANCH   7   9
ATOM      9  O   UNL     1       6.127  -2.534  -5.714  1.00  0.00    -0.478 OA
ATOM     10  H   UNL     1       6.991  -3.017  -5.697  1.00  0.00     0.297 HD
ENDBRANCH   7   9
ENDBRANCH   1   7
BRANCH   2  11
ATOM     11  O   UNL     1       6.558  -0.128  -7.613  1.00  0.00    -0.504 OA
ATOM     12  H   UNL     1       7.543  -0.072  -7.689  1.00  0.00     0.293 HD
ENDBRANCH   2  11
BRANCH   5  13
ATOM     13  O   UNL     1       5.101   0.769  -9.709  1.00  0.00    -0.493 OA
ATOM     14  C   UNL     1       5.512   0.806 -10.933  1.00  0.00     0.278 C 
ENDBRANCH   5  13
TORSDOF 4
ENDMDL
MODEL 5
REMARK VINA RESULT:    -4.472      1.338      1.393
REMARK INTER + INTRA:          -5.734
REMARK INTER:                  -5.295
REMARK INTRA:                  -0.439
REMARK UNBOUND:                -0.478
REMARK SMILES COc1cccc(C(=O)O)c1O
REMARK SMILES IDX 7 1 11 2 6 3 5 4 3 5 4 6 8 7 9 8 10 9 12 11 2 13 1 14
REMARK H PARENT 10 10 12 12
ROOT
ATOM      1  C   UNL     1       4.227  -1.365  -6.744  1.00  0.00     0.105 A 
ATOM      2  C   UNL     1       3.240  -0.522  -6.312  1.00  0.00     0.172 A 
ATOM      3  C   UNL     1       4.442  -1.476  -8.198  1.00  0.00     0.020 A 
ATOM      4  C   UNL     1       3.930  -0.498  -8.989  1.00  0.00     0.005 A 
ATOM      5  C   UNL     1       2.866   0.666  -7.066  1.00  0.00     0.161 A 
ATOM      6  C   UNL     1       3.144   0.581  -8.487  1.00  0.00     0.050 A 
ENDROOT
BRANCH   1   7
ATOM      7  C   UNL     1       5.151  -2.091  -5.751  1.00  0.00     0.339 C 
ATOM      8  O   UNL     1       4.205  -2.981  -4.767  1.00  0.00    -0.246 OA
BRANCH   7   9
ATOM      9  O   UNL     1       6.179  -2.253  -5.590  1.00  0.00    -0.478 OA
ATOM     10  H   UNL     1       7.145  -2.406  -5.439  1.00  0.00     0.297 HD
ENDBRANCH   7   9
ENDBRANCH   1   7
BRANCH   2  11
ATOM     11  O   UNL     1       2.557  -0.753  -5.106  1.00  0.00    -0.504 OA
ATOM     12  H   UNL     1       2.075  -0.916  -4.256  1.00  0.00     0.293 HD
ENDBRANCH   2  11
BRANCH   5  13
ATOM     13  O   UNL     1       1.996   1.540  -6.427  1.00  0.00    -0.493 OA
ATOM     14  C   UNL     1       0.940   2.256  -6.219  1.00  0.00     0.278 C 
ENDBRANCH   5  13
TORSDOF 4
ENDMDL
MODEL 6
REMARK VINA RESULT:    -4.251      2.966      4.505
REMARK INTER + INTRA:          -5.475
REMARK INTER:                  -5.275
REMARK INTRA:                  -0.199
REMARK UNBOUND:                -0.478
REMARK SMILES COc1cccc(C(=O)O)c1O
REMARK SMILES IDX 7 1 11 2 6 3 5 4 3 5 4 6 8 7 9 8 10 9 12 11 2 13 1 14
REMARK H PARENT 10 10 12 12
ROOT
ATOM      1  C   UNL     1       2.140   0.718  -6.998  1.00  0.00     0.105 A 
ATOM      2  C   UNL     1       2.310   0.609  -8.351  1.00  0.00     0.172 A 
ATOM      3  C   UNL     1       3.082  -0.011  -6.129  1.00  0.00     0.020 A 
ATOM      4  C   UNL     1       4.250  -0.433  -6.679  1.00  0.00     0.005 A 
ATOM      5  C   UNL     1       3.624   0.392  -8.940  1.00  0.00     0.161 A 
ATOM      6  C   UNL     1       4.571  -0.263  -8.058  1.00  0.00     0.050 A 
ENDROOT
BRANCH   1   7
ATOM      7  C   UNL     1       1.073   1.651  -6.398  1.00  0.00     0.339 C 
ATOM      8  O   UNL     1       1.607   3.180  -6.575  1.00  0.00    -0.246 OA
BRANCH   7   9
ATOM      9  O   UNL     1       0.095   1.600  -6.012  1.00  0.00    -0.478 OA
ATOM     10  H   UNL     1      -0.825   1.552  -5.650  1.00  0.00     0.297 HD
ENDBRANCH   7   9
ENDBRANCH   1   7
BRANCH   2  11
ATOM     11  O   UNL     1       1.225   0.724  -9.236  1.00  0.00    -0.504 OA
ATOM     12  H   UNL     1       0.460   0.805  -9.860  1.00  0.00     0.293 HD
ENDBRANCH   2  11
BRANCH   5  13
ATOM     13  O   UNL     1       3.692   0.497 -10.323  1.00  0.00    -0.493 OA
ATOM     14  C   UNL     1       3.976   0.988 -11.484  1.00  0.00     0.278 C 
ENDBRANCH   5  13
TORSDOF 4
ENDMDL
MODEL 7
REMARK VINA RESULT:    -4.001      2.187      3.098
REMARK INTER + INTRA:          -5.181
REMARK INTER:                  -4.860
REMARK INTRA:                  -0.321
REMARK UNBOUND:                -0.478
REMARK SMILES COc1cccc(C(=O)O)c1O
REMARK SMILES IDX 7 1 11 2 6 3 5 4 3 5 4 6 8 7 9 8 10 9 12 11 2 13 1 14
REMARK H PARENT 10 10 12 12
ROOT
ATOM      1  C   UNL     1       5.515  -0.068  -7.140  1.00  0.00     0.105 A 
ATOM      2  C   UNL     1       4.506   0.836  -6.952  1.00  0.00     0.172 A 
ATOM      3  C   UNL     1       5.449  -1.333  -6.385  1.00  0.00     0.020 A 
ATOM      4  C   UNL     1       4.252  -1.686  -5.849  1.00  0.00     0.005 A 
ATOM      5  C   UNL     1       3.156   0.414  -6.607  1.00  0.00     0.161 A 
ATOM      6  C   UNL     1       3.088  -0.866  -5.926  1.00  0.00     0.050 A 
ENDROOT
BRANCH   1   7
ATOM      7  C   UNL     1       6.623   0.174  -8.179  1.00  0.00     0.339 C 
ATOM      8  O   UNL     1       5.912   0.760  -9.523  1.00  0.00    -0.246 OA
BRANCH   7   9
ATOM      9  O   UNL     1       7.674   0.166  -8.241  1.00  0.00    -0.478 OA
ATOM     10  H   UNL     1       8.663   0.159  -8.298  1.00  0.00     0.297 HD
ENDBRANCH   7   9
ENDBRANCH   1   7
BRANCH   2  11
ATOM     11  O   UNL     1       4.723   2.216  -7.106  1.00  0.00    -0.504 OA
ATOM     12  H   UNL     1       4.875   3.189  -7.214  1.00  0.00     0.293 HD
ENDBRANCH   2  11
BRANCH   5  13
ATOM     13  O   UNL     1       2.184   1.406  -6.639  1.00  0.00    -0.493 OA
ATOM     14  C   UNL     1       1.082   2.025  -6.372  1.00  0.00     0.278 C 
ENDBRANCH   5  13
TORSDOF 4
ENDMDL
MODEL 8
REMARK VINA RESULT:    -3.950      2.448      4.639
REMARK INTER + INTRA:          -5.121
REMARK INTER:                  -4.916
REMARK INTRA:                  -0.206
REMARK UNBOUND:                -0.478
REMARK SMILES COc1cccc(C(=O)O)c1O
REMARK SMILES IDX 7 1 11 2 6 3 5 4 3 5 4 6 8 7 9 8 10 9 12 11 2 13 1 14
REMARK H PARENT 10 10 12 12
ROOT
ATOM      1  C   UNL     1       1.801   0.501  -8.128  1.00  0.00     0.105 A 
ATOM      2  C   UNL     1       2.642  -0.502  -7.732  1.00  0.00     0.172 A 
ATOM      3  C   UNL     1       1.355   1.464  -7.104  1.00  0.00     0.020 A 
ATOM      4  C   UNL     1       2.067   1.531  -5.949  1.00  0.00     0.005 A 
ATOM      5  C   UNL     1       3.575  -0.325  -6.629  1.00  0.00     0.161 A 
ATOM      6  C   UNL     1       3.169   0.675  -5.659  1.00  0.00     0.050 A 
ENDROOT
BRANCH   1   7
ATOM      7  C   UNL     1       1.415   0.686  -9.606  1.00  0.00     0.339 C 
ATOM      8  O   UNL     1       2.797   0.855 -10.452  1.00  0.00    -0.246 OA
BRANCH   7   9
ATOM      9  O   UNL     1       0.561   0.638 -10.220  1.00  0.00    -0.478 OA
ATOM     10  H   UNL     1      -0.242   0.592 -10.798  1.00  0.00     0.297 HD
ENDBRANCH   7   9
ENDBRANCH   1   7
BRANCH   2  11
ATOM     11  O   UNL     1       2.658  -1.745  -8.388  1.00  0.00    -0.504 OA
ATOM     12  H   UNL     1       2.669  -2.621  -8.850  1.00  0.00     0.293 HD
ENDBRANCH   2  11
BRANCH   5  13
ATOM     13  O   UNL     1       4.506  -1.341  -6.455  1.00  0.00    -0.493 OA
ATOM     14  C   UNL     1       5.312  -2.150  -5.848  1.00  0.00     0.278 C 
ENDBRANCH   5  13
TORSDOF 4
ENDMDL
MODEL 9
REMARK VINA RESULT:    -3.741      2.236      2.781
REMARK INTER + INTRA:          -4.876
REMARK INTER:                  -4.614
REMARK INTRA:                  -0.262
REMARK UNBOUND:                -0.478
REMARK SMILES COc1cccc(C(=O)O)c1O
REMARK SMILES IDX 7 1 11 2 6 3 5 4 3 5 4 6 8 7 9 8 10 9 12 11 2 13 1 14
REMARK H PARENT 10 10 12 12
ROOT
ATOM      1  C   UNL     1       3.576  -0.473  -6.731  1.00  0.00     0.105 A 
ATOM      2  C   UNL     1       3.205  -0.185  -8.016  1.00  0.00     0.172 A 
ATOM      3  C   UNL     1       3.121   0.442  -5.667  1.00  0.00     0.020 A 
ATOM      4  C   UNL     1       2.089   1.277  -5.952  1.00  0.00     0.005 A 
ATOM      5  C   UNL     1       1.962   0.511  -8.314  1.00  0.00     0.161 A 
ATOM      6  C   UNL     1       1.479   1.356  -7.238  1.00  0.00     0.050 A 
ENDROOT
BRANCH   1   7
ATOM      7  C   UNL     1       4.348  -1.759  -6.390  1.00  0.00     0.339 C 
ATOM      8  O   UNL     1       3.826  -2.269  -4.933  1.00  0.00    -0.246 OA
BRANCH   7   9
ATOM      9  O   UNL     1       5.015  -2.434  -6.846  1.00  0.00    -0.478 OA
ATOM     10  H   UNL     1       5.643  -3.068  -7.275  1.00  0.00     0.297 HD
ENDBRANCH   7   9
ENDBRANCH   1   7
BRANCH   2  11
ATOM     11  O   UNL     1       4.000  -0.568  -9.110  1.00  0.00    -0.504 OA
ATOM     12  H   UNL     1       4.560  -0.838  -9.880  1.00  0.00     0.293 HD
ENDBRANCH   2  11
BRANCH   5  13
ATOM     13  O   UNL     1       1.606   0.567  -9.656  1.00  0.00    -0.493 OA
ATOM     14  C   UNL     1       1.029   0.981 -10.736  1.00  0.00     0.278 C 
ENDBRANCH   5  13
TORSDOF 4
ENDMDL
