MODEL 1
REMARK VINA RESULT:    -4.872      0.000      0.000
REMARK INTER + INTRA:          -5.991
REMARK INTER:                  -5.726
REMARK INTRA:                  -0.266
REMARK UNBOUND:                -0.266
REMARK SMILES COc1cccc(C(=O)O)c1O
REMARK SMILES IDX 7 1 11 2 6 3 5 4 3 5 4 6 8 7 9 8 10 9 12 11 2 13 1 14
REMARK H PARENT 10 10 12 12
ROOT
ATOM      1  C   UNL     1       5.275   2.906  -2.924  1.00  0.00     0.105 A 
ATOM      2  C   UNL     1       6.496   3.039  -3.528  1.00  0.00     0.172 A 
ATOM      3  C   UNL     1       5.098   1.788  -1.979  1.00  0.00     0.020 A 
ATOM      4  C   UNL     1       6.216   1.194  -1.487  1.00  0.00     0.005 A 
ATOM      5  C   UNL     1       7.722   2.606  -2.873  1.00  0.00     0.161 A 
ATOM      6  C   UNL     1       7.535   1.555  -1.891  1.00  0.00     0.050 A 
ENDROOT
BRANCH   1   7
ATOM      7  C   UNL     1       4.159   3.944  -3.138  1.00  0.00     0.339 C 
ATOM      8  O   UNL     1       3.118   3.803  -1.893  1.00  0.00    -0.246 OA
BRANCH   7   9
ATOM      9  O   UNL     1       3.933   4.752  -3.774  1.00  0.00    -0.478 OA
ATOM     10  H   UNL     1       3.719   5.512  -4.372  1.00  0.00     0.297 HD
ENDBRANCH   7   9
ENDBRANCH   1   7
BRANCH   2  11
ATOM     11  O   UNL     1       6.623   3.620  -4.801  1.00  0.00    -0.504 OA
ATOM     12  H   UNL     1       6.712   4.029  -5.698  1.00  0.00     0.293 HD
ENDBRANCH   2  11
BRANCH   5  13
ATOM     13  O   UNL     1       8.906   2.974  -3.501  1.00  0.00    -0.493 OA
ATOM     14  C   UNL     1       9.980   3.647  -3.753  1.00  0.00     0.278 C 
ENDBRANCH   5  13
TORSDOF 4
ENDMDL
MODEL 2
REMARK VINA RESULT:    -4.870      2.802      3.920
REMARK INTER + INTRA:          -5.990
REMARK INTER:                  -5.720
REMARK INTRA:                  -0.269
REMARK UNBOUND:                -0.266
REMARK SMILES COc1cccc(C(=O)O)c1O
REMARK SMILES IDX 7 1 11 2 6 3 5 4 3 5 4 6 8 7 9 8 10 9 12 11 2 13 1 14
REMARK H PARENT 10 10 12 12
ROOT
ATOM      1  C   UNL     1       6.319   0.556  -1.497  1.00  0.00     0.105 A 
ATOM      2  C   UNL     1       7.503   1.223  -1.337  1.00  0.00     0.172 A 
ATOM      3  C   UNL     1       5.233   1.253  -2.210  1.00  0.00     0.020 A 
ATOM      4  C   UNL     1       5.565   2.327  -2.971  1.00  0.00     0.005 A 
ATOM      5  C   UNL     1       7.958   2.212  -2.303  1.00  0.00     0.161 A 
ATOM      6  C   UNL     1       6.891   2.846  -3.055  1.00  0.00     0.050 A 
ENDROOT
BRANCH   1   7
ATOM      7  C   UNL     1       6.156  -0.905  -1.045  1.00  0.00     0.339 C 
ATOM      8  O   UNL     1       4.894  -1.531  -1.863  1.00  0.00    -0.246 OA
BRANCH   7   9
ATOM      9  O   UNL     1       6.661  -1.621  -0.460  1.00  0.00    -0.478 OA
ATOM     10  H   UNL     1       7.136  -2.293   0.091  1.00  0.00     0.297 HD
ENDBRANCH   7   9
ENDBRANCH   1   7
BRANCH   2  11
ATOM     11  O   UNL     1       8.345   0.966  -0.242  1.00  0.00    -0.504 OA
ATOM     12  H   UNL     1       8.939   0.785   0.530  1.00  0.00     0.293 HD
ENDBRANCH   2  11
BRANCH   5  13
ATOM     13  O   UNL     1       9.259   2.670  -2.134  1.00  0.00    -0.493 OA
ATOM     14  C   UNL     1      10.524   2.818  -2.349  1.00  0.00     0.278 C 
ENDBRANCH   5  13
TORSDOF 4
ENDMDL
MODEL 3
REMARK VINA RESULT:    -4.577      1.802      3.057
REMARK INTER + INTRA:          -5.646
REMARK INTER:                  -5.220
REMARK INTRA:                  -0.426
REMARK UNBOUND:                -0.266
REMARK SMILES COc1cccc(C(=O)O)c1O
REMARK SMILES IDX 7 1 11 2 6 3 5 4 3 5 4 6 8 7 9 8 10 9 12 11 2 13 1 14
REMARK H PARENT 10 10 12 12
ROOT
ATOM      1  C   UNL     1       5.420   3.280  -2.548  1.00  0.00     0.105 A 
ATOM      2  C   UNL     1       5.377   2.006  -2.050  1.00  0.00     0.172 A 
ATOM      3  C   UNL     1       6.734   3.945  -2.608  1.00  0.00     0.020 A 
ATOM      4  C   UNL     1       7.842   3.164  -2.524  1.00  0.00     0.005 A 
ATOM      5  C   UNL     1       6.505   1.095  -2.183  1.00  0.00     0.161 A 
ATOM      6  C   UNL     1       7.791   1.755  -2.313  1.00  0.00     0.050 A 
ENDROOT
BRANCH   1   7
ATOM      7  C   UNL     1       4.165   3.957  -3.123  1.00  0.00     0.339 C 
ATOM      8  O   UNL     1       3.022   3.933  -1.962  1.00  0.00    -0.246 OA
BRANCH   7   9
ATOM      9  O   UNL     1       3.871   4.499  -3.977  1.00  0.00    -0.478 OA
ATOM     10  H   UNL     1       3.594   5.008  -4.780  1.00  0.00     0.297 HD
ENDBRANCH   7   9
ENDBRANCH   1   7
BRANCH   2  11
ATOM     11  O   UNL     1       4.230   1.511  -1.406  1.00  0.00    -0.504 OA
ATOM     12  H   UNL     1       3.422   1.163  -0.952  1.00  0.00     0.293 HD
ENDBRANCH   2  11
BRANCH   5  13
ATOM     13  O   UNL     1       6.265  -0.223  -1.815  1.00  0.00    -0.493 OA
ATOM     14  C   UNL     1       6.211  -1.278  -1.071  1.00  0.00     0.278 C 
ENDBRANCH   5  13
TORSDOF 4
ENDMDL
MODEL 4
REMARK VINA RESULT:    -4.568      2.768      4.396
REMARK INTER + INTRA:          -5.634
REMARK INTER:                  -5.231
REMARK INTRA:                  -0.403
REMARK UNBOUND:                -0.266
REMARK SMILES COc1cccc(C(=O)O)c1O
REMARK SMILES IDX 7 1 11 2 6 3 5 4 3 5 4 6 8 7 9 8 10 9 12 11 2 13 1 14
REMARK H PARENT 10 10 12 12
ROOT
ATOM      1  C   UNL     1       6.398   0.284  -2.015  1.00  0.00     0.105 A 
ATOM      2  C   UNL     1       5.478   1.257  -2.294  1.00  0.00     0.172 A 
ATOM      3  C   UNL     1       7.766   0.468  -2.534  1.00  0.00     0.020 A 
ATOM      4  C   UNL     1       8.130   1.716  -2.925  1.00  0.00     0.005 A 
ATOM      5  C   UNL     1       5.869   2.648  -2.476  1.00  0.00     0.161 A 
ATOM      6  C   UNL     1       7.239   2.829  -2.919  1.00  0.00     0.050 A 
ENDROOT
BRANCH   1   7
ATOM      7  C   UNL     1       6.052  -0.907  -1.105  1.00  0.00     0.339 C 
ATOM      8  O   UNL     1       4.830  -1.720  -1.810  1.00  0.00    -0.246 OA
BRANCH   7   9
ATOM      9  O   UNL     1       6.424  -1.389  -0.245  1.00  0.00    -0.478 OA
ATOM     10  H   UNL     1       6.773  -1.841   0.563  1.00  0.00     0.297 HD
ENDBRANCH   7   9
ENDBRANCH   1   7
BRANCH   2  11
ATOM     11  O   UNL     1       4.108   0.961  -2.396  1.00  0.00    -0.504 OA
ATOM     12  H   UNL     1       3.143   0.752  -2.468  1.00  0.00     0.293 HD
ENDBRANCH   2  11
BRANCH   5  13
ATOM     13  O   UNL     1       4.827   3.564  -2.557  1.00  0.00    -0.493 OA
ATOM     14  C   UNL     1       3.928   4.326  -3.086  1.00  0.00     0.278 C 
ENDBRANCH   5  13
TORSDOF 4
ENDMDL
MODEL 5
REMARK VINA RESULT:    -4.350      2.866      3.696
REMARK INTER + INTRA:          -5.379
REMARK INTER:                  -4.914
REMARK INTRA:                  -0.464
REMARK UNBOUND:                -0.266
REMARK SMILES COc1cccc(C(=O)O)c1O
REMARK SMILES IDX 7 1 11 2 6 3 5 4 3 5 4 6 8 7 9 8 10 9 12 11 2 13 1 14
REMARK H PARENT 10 10 12 12
ROOT
ATOM      1  C   UNL     1       6.102   0.787  -1.869  1.00  0.00     0.105 A 
ATOM      2  C   UNL     1       7.365   1.219  -1.571  1.00  0.00     0.172 A 
ATOM      3  C   UNL     1       5.225   1.702  -2.623  1.00  0.00     0.020 A 
ATOM      4  C   UNL     1       5.810   2.734  -3.283  1.00  0.00     0.005 A 
ATOM      5  C   UNL     1       8.074   2.156  -2.431  1.00  0.00     0.161 A 
ATOM      6  C   UNL     1       7.208   3.008  -3.225  1.00  0.00     0.050 A 
ENDROOT
BRANCH   1   7
ATOM      7  C   UNL     1       5.643  -0.642  -1.527  1.00  0.00     0.339 C 
ATOM      8  O   UNL     1       6.142  -0.962  -0.009  1.00  0.00    -0.246 OA
BRANCH   7   9
ATOM      9  O   UNL     1       5.041  -1.405  -1.931  1.00  0.00    -0.478 OA
ATOM     10  H   UNL     1       4.474  -2.122  -2.311  1.00  0.00     0.297 HD
ENDBRANCH   7   9
ENDBRANCH   1   7
BRANCH   2  11
ATOM     11  O   UNL     1       8.045   0.761  -0.430  1.00  0.00    -0.504 OA
ATOM     12  H   UNL     1       8.524   0.439   0.374  1.00  0.00     0.293 HD
ENDBRANCH   2  11
BRANCH   5  13
ATOM     13  O   UNL     1       9.413   2.362  -2.127  1.00  0.00    -0.493 OA
ATOM     14  C   UNL     1      10.648   2.707  -2.287  1.00  0.00     0.278 C 
ENDBRANCH   5  13
TORSDOF 4
ENDMDL
MODEL 6
REMARK VINA RESULT:    -4.212      2.138      4.577
REMARK INTER + INTRA:          -5.216
REMARK INTER:                  -4.939
REMARK INTRA:                  -0.277
REMARK UNBOUND:                -0.266
REMARK SMILES COc1cccc(C(=O)O)c1O
REMARK SMILES IDX 7 1 11 2 6 3 5 4 3 5 4 6 8 7 9 8 10 9 12 11 2 13 1 14
REMARK H PARENT 10 10 12 12
ROOT
ATOM      1  C   UNL     1       7.287   1.105  -0.780  1.00  0.00     0.105 A 
ATOM      2  C   UNL     1       6.449   2.143  -1.084  1.00  0.00     0.172 A 
ATOM      3  C   UNL     1       6.764  -0.264  -0.934  1.00  0.00     0.020 A 
ATOM      4  C   UNL     1       5.653  -0.433  -1.696  1.00  0.00     0.005 A 
ATOM      5  C   UNL     1       5.404   2.010  -2.088  1.00  0.00     0.161 A 
ATOM      6  C   UNL     1       4.940   0.650  -2.289  1.00  0.00     0.050 A 
ENDROOT
BRANCH   1   7
ATOM      7  C   UNL     1       8.756   1.350  -0.392  1.00  0.00     0.339 C 
ATOM      8  O   UNL     1       9.368   2.423  -1.454  1.00  0.00    -0.246 OA
BRANCH   7   9
ATOM      9  O   UNL     1       9.426   1.114   0.385  1.00  0.00    -0.478 OA
ATOM     10  H   UNL     1      10.056   0.892   1.116  1.00  0.00     0.297 HD
ENDBRANCH   7   9
ENDBRANCH   1   7
BRANCH   2  11
ATOM     11  O   UNL     1       6.574   3.393  -0.454  1.00  0.00    -0.504 OA
ATOM     12  H   UNL     1       6.662   4.274  -0.011  1.00  0.00     0.293 HD
ENDBRANCH   2  11
BRANCH   5  13
ATOM     13  O   UNL     1       4.754   3.185  -2.445  1.00  0.00    -0.493 OA
ATOM     14  C   UNL     1       4.287   4.125  -3.198  1.00  0.00     0.278 C 
ENDBRANCH   5  13
TORSDOF 4
ENDMDL
MODEL 7
REMARK VINA RESULT:    -4.157      2.362      3.517
REMARK INTER + INTRA:          -5.152
REMARK INTER:                  -4.728
REMARK INTRA:                  -0.424
REMARK UNBOUND:                -0.266
REMARK SMILES COc1cccc(C(=O)O)c1O
REMARK SMILES IDX 7 1 11 2 6 3 5 4 3 5 4 6 8 7 9 8 10 9 12 11 2 13 1 14
REMARK H PARENT 10 10 12 12
ROOT
ATOM      1  C   UNL     1       5.665   1.282  -2.208  1.00  0.00     0.105 A 
ATOM      2  C   UNL     1       6.585   1.864  -3.035  1.00  0.00     0.172 A 
ATOM      3  C   UNL     1       4.535   2.112  -1.751  1.00  0.00     0.020 A 
ATOM      4  C   UNL     1       4.267   3.250  -2.442  1.00  0.00     0.005 A 
ATOM      5  C   UNL     1       6.220   2.936  -3.950  1.00  0.00     0.161 A 
ATOM      6  C   UNL     1       5.063   3.707  -3.534  1.00  0.00     0.050 A 
ENDROOT
BRANCH   1   7
ATOM      7  C   UNL     1       5.743  -0.212  -1.849  1.00  0.00     0.339 C 
ATOM      8  O   UNL     1       7.160  -0.456  -1.084  1.00  0.00    -0.246 OA
BRANCH   7   9
ATOM      9  O   UNL     1       5.131  -1.069  -1.864  1.00  0.00    -0.478 OA
ATOM     10  H   UNL     1       4.556  -1.875  -1.878  1.00  0.00     0.297 HD
ENDBRANCH   7   9
ENDBRANCH   1   7
BRANCH   2  11
ATOM     11  O   UNL     1       7.925   1.439  -3.054  1.00  0.00    -0.504 OA
ATOM     12  H   UNL     1       8.868   1.139  -3.067  1.00  0.00     0.293 HD
ENDBRANCH   2  11
BRANCH   5  13
ATOM     13  O   UNL     1       7.193   3.304  -4.871  1.00  0.00    -0.493 OA
ATOM     14  C   UNL     1       8.011   4.060  -5.525  1.00  0.00     0.278 C 
ENDBRANCH   5  13
TORSDOF 4
ENDMDL
MODEL 8
REMARK VINA RESULT:    -4.156      1.768      2.392
REMARK INTER + INTRA:          -5.150
REMARK INTER:                  -4.719
REMARK INTRA:                  -0.431
REMARK UNBOUND:                -0.266
REMARK SMILES COc1cccc(C(=O)O)c1O
REMARK SMILES IDX 7 1 11 2 6 3 5 4 3 5 4 6 8 7 9 8 10 9 12 11 2 13 1 14
REMARK H PARENT 10 10 12 12
ROOT
ATOM      1  C   UNL     1       5.417   2.033  -2.143  1.00  0.00     0.105 A 
ATOM      2  C   UNL     1       6.731   2.189  -1.797  1.00  0.00     0.172 A 
ATOM      3  C   UNL     1       4.892   0.658  -2.232  1.00  0.00     0.020 A 
ATOM      4  C   UNL     1       5.602  -0.329  -1.625  1.00  0.00     0.005 A 
ATOM      5  C   UNL     1       7.414   1.231  -0.940  1.00  0.00     0.161 A 
ATOM      6  C   UNL     1       6.851  -0.106  -0.974  1.00  0.00     0.050 A 
ENDROOT
BRANCH   1   7
ATOM      7  C   UNL     1       4.489   3.245  -2.332  1.00  0.00     0.339 C 
ATOM      8  O   UNL     1       5.129   4.171  -3.510  1.00  0.00    -0.246 OA
BRANCH   7   9
ATOM      9  O   UNL     1       3.548   3.588  -2.006  1.00  0.00    -0.478 OA
ATOM     10  H   UNL     1       2.664   3.912  -1.699  1.00  0.00     0.297 HD
ENDBRANCH   7   9
ENDBRANCH   1   7
BRANCH   2  11
ATOM     11  O   UNL     1       7.476   3.297  -2.236  1.00  0.00    -0.504 OA
ATOM     12  H   UNL     1       8.001   4.077  -2.545  1.00  0.00     0.293 HD
ENDBRANCH   2  11
BRANCH   5  13
ATOM     13  O   UNL     1       8.678   1.603  -0.502  1.00  0.00    -0.493 OA
ATOM     14  C   UNL     1       9.871   1.488  -0.017  1.00  0.00     0.278 C 
ENDBRANCH   5  13
TORSDOF 4
ENDMDL
MODEL 9
REMARK VINA RESULT:    -4.079      2.209      3.746
REMARK INTER + INTRA:          -5.060
REMARK INTER:                  -4.762
REMARK INTRA:                  -0.298
REMARK UNBOUND:                -0.266
REMARK SMILES COc1cccc(C(=O)O)c1O
REMARK SMILES IDX 7 1 11 2 6 3 5 4 3 5 4 6 8 7 9 8 10 9 12 11 2 13 1 14
REMARK H PARENT 10 10 12 12
ROOT
ATOM      1  C   UNL     1       6.225   2.980  -3.932  1.00  0.00     0.105 A 
ATOM      2  C   UNL     1       6.405   1.771  -3.320  1.00  0.00     0.172 A 
ATOM      3  C   UNL     1       5.018   3.751  -3.581  1.00  0.00     0.020 A 
ATOM      4  C   UNL     1       4.365   3.415  -2.439  1.00  0.00     0.005 A 
ATOM      5  C   UNL     1       5.895   1.509  -1.982  1.00  0.00     0.161 A 
ATOM      6  C   UNL     1       4.750   2.320  -1.612  1.00  0.00     0.050 A 
ENDROOT
BRANCH   1   7
ATOM      7  C   UNL     1       7.291   3.568  -4.873  1.00  0.00     0.339 C 
ATOM      8  O   UNL     1       8.747   3.276  -4.202  1.00  0.00    -0.246 OA
BRANCH   7   9
ATOM      9  O   UNL     1       7.360   3.998  -5.832  1.00  0.00    -0.478 OA
ATOM     10  H   UNL     1       7.424   4.402  -6.734  1.00  0.00     0.297 HD
ENDBRANCH   7   9
ENDBRANCH   1   7
BRANCH   2  11
ATOM     11  O   UNL     1       7.112   0.731  -3.948  1.00  0.00    -0.504 OA
ATOM     12  H   UNL     1       7.611  -0.001  -4.390  1.00  0.00     0.293 HD
ENDBRANCH   2  11
BRANCH   5  13
ATOM     13  O   UNL     1       6.312   0.320  -1.397  1.00  0.00    -0.493 OA
ATOM     14  C   UNL     1       6.360  -0.944  -1.133  1.00  0.00     0.278 C 
ENDBRANCH   5  13
TORSDOF 4
ENDMDL
