MODEL 1
REMARK VINA RESULT:    -4.999      0.000      0.000
REMARK INTER + INTRA:          -6.354
REMARK INTER:                  -5.875
REMARK INTRA:                  -0.479
REMARK UNBOUND:                -0.479
REMARK SMILES COc1cccc(C(=O)O)c1O
REMARK SMILES IDX 7 1 11 2 6 3 5 4 3 5 4 6 8 7 9 8 10 9 12 11 2 13 1 14
REMARK H PARENT 10 10 12 12
ROOT
ATOM      1  C   UNL     1       0.355   5.852   1.752  1.00  0.00     0.105 A 
ATOM      2  C   UNL     1       1.138   4.929   2.389  1.00  0.00     0.172 A 
ATOM      3  C   UNL     1       0.907   7.206   1.568  1.00  0.00     0.020 A 
ATOM      4  C   UNL     1       2.250   7.363   1.695  1.00  0.00     0.005 A 
ATOM      5  C   UNL     1       2.591   4.979   2.314  1.00  0.00     0.161 A 
ATOM      6  C   UNL     1       3.129   6.302   2.062  1.00  0.00     0.050 A 
ENDROOT
BRANCH   1   7
ATOM      7  C   UNL     1      -1.010   5.468   1.153  1.00  0.00     0.339 C 
ATOM      8  O   UNL     1      -1.092   3.841   1.133  1.00  0.00    -0.246 OA
BRANCH   7   9
ATOM      9  O   UNL     1      -1.909   5.928   0.857  1.00  0.00    -0.478 OA
ATOM     10  H   UNL     1      -2.756   6.360   0.579  1.00  0.00     0.297 HD
ENDBRANCH   7   9
ENDBRANCH   1   7
BRANCH   2  11
ATOM     11  O   UNL     1       0.573   3.875   3.128  1.00  0.00    -0.504 OA
ATOM     12  H   UNL     1       0.175   3.133   3.648  1.00  0.00     0.293 HD
ENDBRANCH   2  11
BRANCH   5  13
ATOM     13  O   UNL     1       3.262   3.879   2.835  1.00  0.00    -0.493 OA
ATOM     14  C   UNL     1       4.237   3.167   3.294  1.00  0.00     0.278 C 
ENDBRANCH   5  13
TORSDOF 4
ENDMDL
MODEL 2
REMARK VINA RESULT:    -4.930      1.751      4.704
REMARK INTER + INTRA:          -6.274
REMARK INTER:                  -5.793
REMARK INTRA:                  -0.481
REMARK UNBOUND:                -0.479
REMARK SMILES COc1cccc(C(=O)O)c1O
REMARK SMILES IDX 7 1 11 2 6 3 5 4 3 5 4 6 8 7 9 8 10 9 12 11 2 13 1 14
REMARK H PARENT 10 10 12 12
ROOT
ATOM      1  C   UNL     1       3.116   4.212   3.455  1.00  0.00     0.105 A 
ATOM      2  C   UNL     1       2.225   4.679   2.528  1.00  0.00     0.172 A 
ATOM      3  C   UNL     1       2.790   4.413   4.878  1.00  0.00     0.020 A 
ATOM      4  C   UNL     1       1.501   4.701   5.196  1.00  0.00     0.005 A 
ATOM      5  C   UNL     1       0.799   4.757   2.811  1.00  0.00     0.161 A 
ATOM      6  C   UNL     1       0.478   4.883   4.220  1.00  0.00     0.050 A 
ENDROOT
BRANCH   1   7
ATOM      7  C   UNL     1       4.362   3.412   3.035  1.00  0.00     0.339 C 
ATOM      8  O   UNL     1       4.079   2.816   1.546  1.00  0.00    -0.246 OA
BRANCH   7   9
ATOM      9  O   UNL     1       5.342   3.227   3.373  1.00  0.00    -0.478 OA
ATOM     10  H   UNL     1       6.263   3.052   3.690  1.00  0.00     0.297 HD
ENDBRANCH   7   9
ENDBRANCH   1   7
BRANCH   2  11
ATOM     11  O   UNL     1       2.645   5.085   1.249  1.00  0.00    -0.504 OA
ATOM     12  H   UNL     1       2.941   5.371   0.349  1.00  0.00     0.293 HD
ENDBRANCH   2  11
BRANCH   5  13
ATOM     13  O   UNL     1      -0.017   5.058   1.728  1.00  0.00    -0.493 OA
ATOM     14  C   UNL     1      -0.982   5.594   1.056  1.00  0.00     0.278 C 
ENDBRANCH   5  13
TORSDOF 4
ENDMDL
MODEL 3
REMARK VINA RESULT:    -4.639      2.079      3.188
REMARK INTER + INTRA:          -5.932
REMARK INTER:                  -5.672
REMARK INTRA:                  -0.259
REMARK UNBOUND:                -0.479
REMARK SMILES COc1cccc(C(=O)O)c1O
REMARK SMILES IDX 7 1 11 2 6 3 5 4 3 5 4 6 8 7 9 8 10 9 12 11 2 13 1 14
REMARK H PARENT 10 10 12 12
ROOT
ATOM      1  C   UNL     1       0.377   5.635   1.739  1.00  0.00     0.105 A 
ATOM      2  C   UNL     1       0.799   6.883   2.107  1.00  0.00     0.172 A 
ATOM      3  C   UNL     1       1.241   4.491   2.085  1.00  0.00     0.020 A 
ATOM      4  C   UNL     1       2.186   4.681   3.041  1.00  0.00     0.005 A 
ATOM      5  C   UNL     1       1.626   7.092   3.287  1.00  0.00     0.161 A 
ATOM      6  C   UNL     1       2.423   5.940   3.667  1.00  0.00     0.050 A 
ENDROOT
BRANCH   1   7
ATOM      7  C   UNL     1      -0.997   5.416   1.082  1.00  0.00     0.339 C 
ATOM      8  O   UNL     1      -1.289   3.813   1.086  1.00  0.00    -0.246 OA
BRANCH   7   9
ATOM      9  O   UNL     1      -1.815   5.981   0.735  1.00  0.00    -0.478 OA
ATOM     10  H   UNL     1      -2.583   6.514   0.408  1.00  0.00     0.297 HD
ENDBRANCH   7   9
ENDBRANCH   1   7
BRANCH   2  11
ATOM     11  O   UNL     1       0.433   8.025   1.374  1.00  0.00    -0.504 OA
ATOM     12  H   UNL     1       0.176   8.829   0.858  1.00  0.00     0.293 HD
ENDBRANCH   2  11
BRANCH   5  13
ATOM     13  O   UNL     1       1.821   8.414   3.663  1.00  0.00    -0.493 OA
ATOM     14  C   UNL     1       1.683   9.513   4.330  1.00  0.00     0.278 C 
ENDBRANCH   5  13
TORSDOF 4
ENDMDL
MODEL 4
REMARK VINA RESULT:    -4.636      3.006      4.453
REMARK INTER + INTRA:          -5.928
REMARK INTER:                  -5.662
REMARK INTRA:                  -0.266
REMARK UNBOUND:                -0.479
REMARK SMILES COc1cccc(C(=O)O)c1O
REMARK SMILES IDX 7 1 11 2 6 3 5 4 3 5 4 6 8 7 9 8 10 9 12 11 2 13 1 14
REMARK H PARENT 10 10 12 12
ROOT
ATOM      1  C   UNL     1       3.007   4.175   3.252  1.00  0.00     0.105 A 
ATOM      2  C   UNL     1       2.823   4.897   4.399  1.00  0.00     0.172 A 
ATOM      3  C   UNL     1       2.138   4.486   2.102  1.00  0.00     0.020 A 
ATOM      4  C   UNL     1       1.482   5.675   2.110  1.00  0.00     0.005 A 
ATOM      5  C   UNL     1       2.337   6.269   4.368  1.00  0.00     0.161 A 
ATOM      6  C   UNL     1       1.541   6.593   3.199  1.00  0.00     0.050 A 
ENDROOT
BRANCH   1   7
ATOM      7  C   UNL     1       4.146   3.149   3.126  1.00  0.00     0.339 C 
ATOM      8  O   UNL     1       4.300   2.783   1.546  1.00  0.00    -0.246 OA
BRANCH   7   9
ATOM      9  O   UNL     1       4.891   2.707   3.725  1.00  0.00    -0.478 OA
ATOM     10  H   UNL     1       5.592   2.290   4.287  1.00  0.00     0.297 HD
ENDBRANCH   7   9
ENDBRANCH   1   7
BRANCH   2  11
ATOM     11  O   UNL     1       3.116   4.353   5.661  1.00  0.00    -0.504 OA
ATOM     12  H   UNL     1       3.322   3.969   6.550  1.00  0.00     0.293 HD
ENDBRANCH   2  11
BRANCH   5  13
ATOM     13  O   UNL     1       2.382   6.955   5.575  1.00  0.00    -0.493 OA
ATOM     14  C   UNL     1       2.693   7.870   6.433  1.00  0.00     0.278 C 
ENDBRANCH   5  13
TORSDOF 4
ENDMDL
MODEL 5
REMARK VINA RESULT:    -4.051      2.299      4.628
REMARK INTER + INTRA:          -5.241
REMARK INTER:                  -4.973
REMARK INTRA:                  -0.268
REMARK UNBOUND:                -0.479
REMARK SMILES COc1cccc(C(=O)O)c1O
REMARK SMILES IDX 7 1 11 2 6 3 5 4 3 5 4 6 8 7 9 8 10 9 12 11 2 13 1 14
REMARK H PARENT 10 10 12 12
ROOT
ATOM      1  C   UNL     1       2.567   4.450   4.486  1.00  0.00     0.105 A 
ATOM      2  C   UNL     1       1.368   4.594   3.843  1.00  0.00     0.172 A 
ATOM      3  C   UNL     1       3.642   3.733   3.777  1.00  0.00     0.020 A 
ATOM      4  C   UNL     1       3.521   3.585   2.433  1.00  0.00     0.005 A 
ATOM      5  C   UNL     1       1.285   4.672   2.392  1.00  0.00     0.161 A 
ATOM      6  C   UNL     1       2.383   4.027   1.696  1.00  0.00     0.050 A 
ENDROOT
BRANCH   1   7
ATOM      7  C   UNL     1       2.823   5.103   5.856  1.00  0.00     0.339 C 
ATOM      8  O   UNL     1       2.294   6.642   5.769  1.00  0.00    -0.246 OA
BRANCH   7   9
ATOM      9  O   UNL     1       3.136   4.831   6.824  1.00  0.00    -0.478 OA
ATOM     10  H   UNL     1       3.430   4.575   7.734  1.00  0.00     0.297 HD
ENDBRANCH   7   9
ENDBRANCH   1   7
BRANCH   2  11
ATOM     11  O   UNL     1       0.162   4.694   4.557  1.00  0.00    -0.504 OA
ATOM     12  H   UNL     1      -0.688   4.764   5.060  1.00  0.00     0.293 HD
ENDBRANCH   2  11
BRANCH   5  13
ATOM     13  O   UNL     1       0.043   5.015   1.874  1.00  0.00    -0.493 OA
ATOM     14  C   UNL     1      -0.838   5.634   1.159  1.00  0.00     0.278 C 
ENDBRANCH   5  13
TORSDOF 4
ENDMDL
MODEL 6
REMARK VINA RESULT:    -4.024      2.165      3.248
REMARK INTER + INTRA:          -5.209
REMARK INTER:                  -4.749
REMARK INTRA:                  -0.461
REMARK UNBOUND:                -0.479
REMARK SMILES COc1cccc(C(=O)O)c1O
REMARK SMILES IDX 7 1 11 2 6 3 5 4 3 5 4 6 8 7 9 8 10 9 12 11 2 13 1 14
REMARK H PARENT 10 10 12 12
ROOT
ATOM      1  C   UNL     1       0.838   5.120   2.016  1.00  0.00     0.105 A 
ATOM      2  C   UNL     1       1.056   6.418   2.387  1.00  0.00     0.172 A 
ATOM      3  C   UNL     1       1.842   4.116   2.414  1.00  0.00     0.020 A 
ATOM      4  C   UNL     1       2.705   4.448   3.409  1.00  0.00     0.005 A 
ATOM      5  C   UNL     1       1.789   6.752   3.600  1.00  0.00     0.161 A 
ATOM      6  C   UNL     1       2.727   5.731   4.030  1.00  0.00     0.050 A 
ENDROOT
BRANCH   1   7
ATOM      7  C   UNL     1      -0.458   4.699   1.301  1.00  0.00     0.339 C 
ATOM      8  O   UNL     1      -0.762   5.811   0.150  1.00  0.00    -0.246 OA
BRANCH   7   9
ATOM      9  O   UNL     1      -1.124   3.885   1.271  1.00  0.00    -0.478 OA
ATOM     10  H   UNL     1      -1.752   3.119   1.243  1.00  0.00     0.297 HD
ENDBRANCH   7   9
ENDBRANCH   1   7
BRANCH   2  11
ATOM     11  O   UNL     1       0.563   7.490   1.625  1.00  0.00    -0.504 OA
ATOM     12  H   UNL     1       0.215   8.245   1.087  1.00  0.00     0.293 HD
ENDBRANCH   2  11
BRANCH   5  13
ATOM     13  O   UNL     1       1.772   8.091   3.969  1.00  0.00    -0.493 OA
ATOM     14  C   UNL     1       1.818   9.135   4.730  1.00  0.00     0.278 C 
ENDBRANCH   5  13
TORSDOF 4
ENDMDL
MODEL 7
REMARK VINA RESULT:    -3.998      2.162      3.115
REMARK INTER + INTRA:          -5.178
REMARK INTER:                  -4.920
REMARK INTRA:                  -0.259
REMARK UNBOUND:                -0.479
REMARK SMILES COc1cccc(C(=O)O)c1O
REMARK SMILES IDX 7 1 11 2 6 3 5 4 3 5 4 6 8 7 9 8 10 9 12 11 2 13 1 14
REMARK H PARENT 10 10 12 12
ROOT
ATOM      1  C   UNL     1       1.054   6.760   1.729  1.00  0.00     0.105 A 
ATOM      2  C   UNL     1       2.140   5.938   1.865  1.00  0.00     0.172 A 
ATOM      3  C   UNL     1      -0.233   6.137   1.370  1.00  0.00     0.020 A 
ATOM      4  C   UNL     1      -0.359   4.797   1.553  1.00  0.00     0.005 A 
ATOM      5  C   UNL     1       2.001   4.555   2.298  1.00  0.00     0.161 A 
ATOM      6  C   UNL     1       0.707   3.966   2.007  1.00  0.00     0.050 A 
ENDROOT
BRANCH   1   7
ATOM      7  C   UNL     1       1.144   8.263   2.041  1.00  0.00     0.339 C 
ATOM      8  O   UNL     1       1.923   8.420   3.463  1.00  0.00    -0.246 OA
BRANCH   7   9
ATOM      9  O   UNL     1       0.946   9.188   1.578  1.00  0.00    -0.478 OA
ATOM     10  H   UNL     1       0.760  10.057   1.141  1.00  0.00     0.297 HD
ENDBRANCH   7   9
ENDBRANCH   1   7
BRANCH   2  11
ATOM     11  O   UNL     1       3.443   6.401   1.614  1.00  0.00    -0.504 OA
ATOM     12  H   UNL     1       4.361   6.727   1.436  1.00  0.00     0.293 HD
ENDBRANCH   2  11
BRANCH   5  13
ATOM     13  O   UNL     1       3.186   3.890   2.586  1.00  0.00    -0.493 OA
ATOM     14  C   UNL     1       4.174   3.430   3.281  1.00  0.00     0.278 C 
ENDBRANCH   5  13
TORSDOF 4
ENDMDL
MODEL 8
REMARK VINA RESULT:    -3.968      7.562      8.496
REMARK INTER + INTRA:          -5.143
REMARK INTER:                  -4.880
REMARK INTRA:                  -0.263
REMARK UNBOUND:                -0.479
REMARK SMILES COc1cccc(C(=O)O)c1O
REMARK SMILES IDX 7 1 11 2 6 3 5 4 3 5 4 6 8 7 9 8 10 9 12 11 2 13 1 14
REMARK H PARENT 10 10 12 12
ROOT
ATOM      1  C   UNL     1       4.106   1.128  -4.717  1.00  0.00     0.105 A 
ATOM      2  C   UNL     1       3.166   0.614  -3.867  1.00  0.00     0.172 A 
ATOM      3  C   UNL     1       3.677   2.178  -5.658  1.00  0.00     0.020 A 
ATOM      4  C   UNL     1       2.512   2.825  -5.393  1.00  0.00     0.005 A 
ATOM      5  C   UNL     1       2.040   1.412  -3.402  1.00  0.00     0.161 A 
ATOM      6  C   UNL     1       1.664   2.491  -4.297  1.00  0.00     0.050 A 
ENDROOT
BRANCH   1   7
ATOM      7  C   UNL     1       5.583   0.704  -4.627  1.00  0.00     0.339 C 
ATOM      8  O   UNL     1       5.902   0.380  -3.063  1.00  0.00    -0.246 OA
BRANCH   7   9
ATOM      9  O   UNL     1       6.388   0.476  -5.266  1.00  0.00    -0.478 OA
ATOM     10  H   UNL     1       7.145   0.262  -5.868  1.00  0.00     0.297 HD
ENDBRANCH   7   9
ENDBRANCH   1   7
BRANCH   2  11
ATOM     11  O   UNL     1       3.255  -0.703  -3.386  1.00  0.00    -0.504 OA
ATOM     12  H   UNL     1       3.319  -1.631  -3.047  1.00  0.00     0.293 HD
ENDBRANCH   2  11
BRANCH   5  13
ATOM     13  O   UNL     1       1.271   0.845  -2.394  1.00  0.00    -0.493 OA
ATOM     14  C   UNL     1       0.967   0.107  -1.378  1.00  0.00     0.278 C 
ENDBRANCH   5  13
TORSDOF 4
ENDMDL
