MODEL 1
REMARK VINA RESULT:    -4.892      0.000      0.000
REMARK INTER + INTRA:          -6.232
REMARK INTER:                  -5.750
REMARK INTRA:                  -0.482
REMARK UNBOUND:                -0.482
REMARK SMILES COc1cccc(C(=O)O)c1O
REMARK SMILES IDX 7 1 11 2 6 3 5 4 3 5 4 6 8 7 9 8 10 9 12 11 2 13 1 14
REMARK H PARENT 10 10 12 12
ROOT
ATOM      1  C   UNL     1       3.808  -3.778   3.509  1.00  0.00     0.105 A 
ATOM      2  C   UNL     1       4.134  -2.663   2.788  1.00  0.00     0.172 A 
ATOM      3  C   UNL     1       4.459  -3.959   4.820  1.00  0.00     0.020 A 
ATOM      4  C   UNL     1       5.039  -2.872   5.392  1.00  0.00     0.005 A 
ATOM      5  C   UNL     1       4.529  -1.421   3.438  1.00  0.00     0.161 A 
ATOM      6  C   UNL     1       5.104  -1.597   4.759  1.00  0.00     0.050 A 
ENDROOT
BRANCH   1   7
ATOM      7  C   UNL     1       2.724  -4.756   3.024  1.00  0.00     0.339 C 
ATOM      8  O   UNL     1       1.835  -3.980   1.902  1.00  0.00    -0.246 OA
BRANCH   7   9
ATOM      9  O   UNL     1       2.461  -5.770   3.128  1.00  0.00    -0.478 OA
ATOM     10  H   UNL     1       2.213  -6.724   3.225  1.00  0.00     0.297 HD
ENDBRANCH   7   9
ENDBRANCH   1   7
BRANCH   2  11
ATOM     11  O   UNL     1       4.082  -2.658   1.384  1.00  0.00    -0.504 OA
ATOM     12  H   UNL     1       4.045  -2.655   0.394  1.00  0.00     0.293 HD
ENDBRANCH   2  11
BRANCH   5  13
ATOM     13  O   UNL     1       4.641  -0.312   2.609  1.00  0.00    -0.493 OA
ATOM     14  C   UNL     1       5.197   0.641   1.937  1.00  0.00     0.278 C 
ENDBRANCH   5  13
TORSDOF 4
ENDMDL
MODEL 2
REMARK VINA RESULT:    -4.861      1.781      4.659
REMARK INTER + INTRA:          -6.195
REMARK INTER:                  -5.818
REMARK INTRA:                  -0.377
REMARK UNBOUND:                -0.482
REMARK SMILES COc1cccc(C(=O)O)c1O
REMARK SMILES IDX 7 1 11 2 6 3 5 4 3 5 4 6 8 7 9 8 10 9 12 11 2 13 1 14
REMARK H PARENT 10 10 12 12
ROOT
ATOM      1  C   UNL     1       5.352  -0.920   2.120  1.00  0.00     0.105 A 
ATOM      2  C   UNL     1       4.450  -1.819   2.619  1.00  0.00     0.172 A 
ATOM      3  C   UNL     1       6.579  -1.454   1.500  1.00  0.00     0.020 A 
ATOM      4  C   UNL     1       6.581  -2.760   1.130  1.00  0.00     0.005 A 
ATOM      5  C   UNL     1       4.302  -3.149   2.045  1.00  0.00     0.161 A 
ATOM      6  C   UNL     1       5.488  -3.644   1.373  1.00  0.00     0.050 A 
ENDROOT
BRANCH   1   7
ATOM      7  C   UNL     1       5.055   0.590   2.110  1.00  0.00     0.339 C 
ATOM      8  O   UNL     1       3.520   0.788   2.618  1.00  0.00    -0.246 OA
BRANCH   7   9
ATOM      9  O   UNL     1       5.562   1.502   1.971  1.00  0.00    -0.478 OA
ATOM     10  H   UNL     1       6.039   2.360   1.840  1.00  0.00     0.297 HD
ENDBRANCH   7   9
ENDBRANCH   1   7
BRANCH   2  11
ATOM     11  O   UNL     1       3.608  -1.491   3.695  1.00  0.00    -0.504 OA
ATOM     12  H   UNL     1       3.015  -1.260   4.453  1.00  0.00     0.293 HD
ENDBRANCH   2  11
BRANCH   5  13
ATOM     13  O   UNL     1       3.222  -3.891   2.508  1.00  0.00    -0.493 OA
ATOM     14  C   UNL     1       2.551  -4.721   3.237  1.00  0.00     0.278 C 
ENDBRANCH   5  13
TORSDOF 4
ENDMDL
MODEL 3
REMARK VINA RESULT:    -4.640      2.234      3.247
REMARK INTER + INTRA:          -5.935
REMARK INTER:                  -5.665
REMARK INTRA:                  -0.271
REMARK UNBOUND:                -0.482
REMARK SMILES COc1cccc(C(=O)O)c1O
REMARK SMILES IDX 7 1 11 2 6 3 5 4 3 5 4 6 8 7 9 8 10 9 12 11 2 13 1 14
REMARK H PARENT 10 10 12 12
ROOT
ATOM      1  C   UNL     1       3.783  -3.522   3.382  1.00  0.00     0.105 A 
ATOM      2  C   UNL     1       4.854  -3.778   4.194  1.00  0.00     0.172 A 
ATOM      3  C   UNL     1       3.871  -2.358   2.482  1.00  0.00     0.020 A 
ATOM      4  C   UNL     1       5.102  -1.839   2.239  1.00  0.00     0.005 A 
ATOM      5  C   UNL     1       6.210  -3.423   3.803  1.00  0.00     0.161 A 
ATOM      6  C   UNL     1       6.290  -2.321   2.862  1.00  0.00     0.050 A 
ENDROOT
BRANCH   1   7
ATOM      7  C   UNL     1       2.574  -4.472   3.328  1.00  0.00     0.339 C 
ATOM      8  O   UNL     1       1.799  -4.196   1.922  1.00  0.00    -0.246 OA
BRANCH   7   9
ATOM      9  O   UNL     1       2.173  -5.284   3.865  1.00  0.00    -0.478 OA
ATOM     10  H   UNL     1       1.796  -6.048   4.371  1.00  0.00     0.297 HD
ENDBRANCH   7   9
ENDBRANCH   1   7
BRANCH   2  11
ATOM     11  O   UNL     1       4.694  -4.418   5.435  1.00  0.00    -0.504 OA
ATOM     12  H   UNL     1       4.581  -4.868   6.310  1.00  0.00     0.293 HD
ENDBRANCH   2  11
BRANCH   5  13
ATOM     13  O   UNL     1       7.223  -3.911   4.619  1.00  0.00    -0.493 OA
ATOM     14  C   UNL     1       8.249  -4.607   4.985  1.00  0.00     0.278 C 
ENDBRANCH   5  13
TORSDOF 4
ENDMDL
MODEL 4
REMARK VINA RESULT:    -4.611      2.852      4.381
REMARK INTER + INTRA:          -5.901
REMARK INTER:                  -5.632
REMARK INTRA:                  -0.269
REMARK UNBOUND:                -0.482
REMARK SMILES COc1cccc(C(=O)O)c1O
REMARK SMILES IDX 7 1 11 2 6 3 5 4 3 5 4 6 8 7 9 8 10 9 12 11 2 13 1 14
REMARK H PARENT 10 10 12 12
ROOT
ATOM      1  C   UNL     1       5.084  -1.046   2.289  1.00  0.00     0.105 A 
ATOM      2  C   UNL     1       6.278  -1.708   2.201  1.00  0.00     0.172 A 
ATOM      3  C   UNL     1       3.917  -1.804   2.776  1.00  0.00     0.020 A 
ATOM      4  C   UNL     1       4.151  -2.964   3.442  1.00  0.00     0.005 A 
ATOM      5  C   UNL     1       6.608  -2.810   3.094  1.00  0.00     0.161 A 
ATOM      6  C   UNL     1       5.455  -3.509   3.628  1.00  0.00     0.050 A 
ENDROOT
BRANCH   1   7
ATOM      7  C   UNL     1       4.981   0.460   1.994  1.00  0.00     0.339 C 
ATOM      8  O   UNL     1       3.583   0.989   2.643  1.00  0.00    -0.246 OA
BRANCH   7   9
ATOM      9  O   UNL     1       5.570   1.238   1.598  1.00  0.00    -0.478 OA
ATOM     10  H   UNL     1       6.124   1.970   1.227  1.00  0.00     0.297 HD
ENDBRANCH   7   9
ENDBRANCH   1   7
BRANCH   2  11
ATOM     11  O   UNL     1       7.251  -1.339   1.256  1.00  0.00    -0.504 OA
ATOM     12  H   UNL     1       7.937  -1.079   0.590  1.00  0.00     0.293 HD
ENDBRANCH   2  11
BRANCH   5  13
ATOM     13  O   UNL     1       7.920  -3.265   3.034  1.00  0.00    -0.493 OA
ATOM     14  C   UNL     1       9.147  -3.458   3.388  1.00  0.00     0.278 C 
ENDBRANCH   5  13
TORSDOF 4
ENDMDL
MODEL 5
REMARK VINA RESULT:    -4.153      2.345      4.714
REMARK INTER + INTRA:          -5.363
REMARK INTER:                  -4.920
REMARK INTRA:                  -0.442
REMARK UNBOUND:                -0.482
REMARK SMILES COc1cccc(C(=O)O)c1O
REMARK SMILES IDX 7 1 11 2 6 3 5 4 3 5 4 6 8 7 9 8 10 9 12 11 2 13 1 14
REMARK H PARENT 10 10 12 12
ROOT
ATOM      1  C   UNL     1       5.722  -0.649   2.402  1.00  0.00     0.105 A 
ATOM      2  C   UNL     1       5.396  -1.366   3.520  1.00  0.00     0.172 A 
ATOM      3  C   UNL     1       6.655  -1.266   1.442  1.00  0.00     0.020 A 
ATOM      4  C   UNL     1       6.844  -2.608   1.519  1.00  0.00     0.005 A 
ATOM      5  C   UNL     1       5.374  -2.822   3.513  1.00  0.00     0.161 A 
ATOM      6  C   UNL     1       6.240  -3.427   2.518  1.00  0.00     0.050 A 
ENDROOT
BRANCH   1   7
ATOM      7  C   UNL     1       5.061   0.708   2.101  1.00  0.00     0.339 C 
ATOM      8  O   UNL     1       3.558   0.667   2.728  1.00  0.00    -0.246 OA
BRANCH   7   9
ATOM      9  O   UNL     1       5.318   1.652   1.712  1.00  0.00    -0.478 OA
ATOM     10  H   UNL     1       5.560   2.539   1.346  1.00  0.00     0.297 HD
ENDBRANCH   7   9
ENDBRANCH   1   7
BRANCH   2  11
ATOM     11  O   UNL     1       5.046  -0.729   4.723  1.00  0.00    -0.504 OA
ATOM     12  H   UNL     1       4.799  -0.280   5.570  1.00  0.00     0.293 HD
ENDBRANCH   2  11
BRANCH   5  13
ATOM     13  O   UNL     1       4.838  -3.425   4.644  1.00  0.00    -0.493 OA
ATOM     14  C   UNL     1       4.739  -4.228   5.652  1.00  0.00     0.278 C 
ENDBRANCH   5  13
TORSDOF 4
ENDMDL
MODEL 6
REMARK VINA RESULT:    -3.998      2.641      4.254
REMARK INTER + INTRA:          -5.181
REMARK INTER:                  -4.719
REMARK INTRA:                  -0.462
REMARK UNBOUND:                -0.482
REMARK SMILES COc1cccc(C(=O)O)c1O
REMARK SMILES IDX 7 1 11 2 6 3 5 4 3 5 4 6 8 7 9 8 10 9 12 11 2 13 1 14
REMARK H PARENT 10 10 12 12
ROOT
ATOM      1  C   UNL     1       4.417  -1.389   2.339  1.00  0.00     0.105 A 
ATOM      2  C   UNL     1       5.600  -2.068   2.441  1.00  0.00     0.172 A 
ATOM      3  C   UNL     1       3.171  -2.177   2.384  1.00  0.00     0.020 A 
ATOM      4  C   UNL     1       3.240  -3.438   2.882  1.00  0.00     0.005 A 
ATOM      5  C   UNL     1       5.704  -3.312   3.189  1.00  0.00     0.161 A 
ATOM      6  C   UNL     1       4.459  -4.051   3.294  1.00  0.00     0.050 A 
ENDROOT
BRANCH   1   7
ATOM      7  C   UNL     1       4.378   0.148   2.284  1.00  0.00     0.339 C 
ATOM      8  O   UNL     1       5.545   0.629   1.255  1.00  0.00    -0.246 OA
BRANCH   7   9
ATOM      9  O   UNL     1       3.778   0.943   2.626  1.00  0.00    -0.478 OA
ATOM     10  H   UNL     1       3.215   1.691   2.948  1.00  0.00     0.297 HD
ENDBRANCH   7   9
ENDBRANCH   1   7
BRANCH   2  11
ATOM     11  O   UNL     1       6.776  -1.582   1.845  1.00  0.00    -0.504 OA
ATOM     12  H   UNL     1       7.605  -1.239   1.425  1.00  0.00     0.293 HD
ENDBRANCH   2  11
BRANCH   5  13
ATOM     13  O   UNL     1       6.992  -3.796   3.384  1.00  0.00    -0.493 OA
ATOM     14  C   UNL     1       8.036  -4.232   4.007  1.00  0.00     0.278 C 
ENDBRANCH   5  13
TORSDOF 4
ENDMDL
MODEL 7
REMARK VINA RESULT:    -3.969      2.150      3.085
REMARK INTER + INTRA:          -5.147
REMARK INTER:                  -4.882
REMARK INTRA:                  -0.265
REMARK UNBOUND:                -0.482
REMARK SMILES COc1cccc(C(=O)O)c1O
REMARK SMILES IDX 7 1 11 2 6 3 5 4 3 5 4 6 8 7 9 8 10 9 12 11 2 13 1 14
REMARK H PARENT 10 10 12 12
ROOT
ATOM      1  C   UNL     1       4.350  -3.662   4.476  1.00  0.00     0.105 A 
ATOM      2  C   UNL     1       4.532  -2.344   4.160  1.00  0.00     0.172 A 
ATOM      3  C   UNL     1       3.290  -4.396   3.761  1.00  0.00     0.020 A 
ATOM      4  C   UNL     1       2.818  -3.858   2.607  1.00  0.00     0.005 A 
ATOM      5  C   UNL     1       4.240  -1.830   2.830  1.00  0.00     0.161 A 
ATOM      6  C   UNL     1       3.248  -2.597   2.100  1.00  0.00     0.050 A 
ENDROOT
BRANCH   1   7
ATOM      7  C   UNL     1       5.282  -4.385   5.464  1.00  0.00     0.339 C 
ATOM      8  O   UNL     1       6.813  -4.006   5.055  1.00  0.00    -0.246 OA
BRANCH   7   9
ATOM      9  O   UNL     1       5.222  -4.950   6.350  1.00  0.00    -0.478 OA
ATOM     10  H   UNL     1       5.165  -5.482   7.184  1.00  0.00     0.297 HD
ENDBRANCH   7   9
ENDBRANCH   1   7
BRANCH   2  11
ATOM     11  O   UNL     1       5.032  -1.428   5.102  1.00  0.00    -0.504 OA
ATOM     12  H   UNL     1       5.384  -0.783   5.765  1.00  0.00     0.293 HD
ENDBRANCH   2  11
BRANCH   5  13
ATOM     13  O   UNL     1       4.653  -0.528   2.579  1.00  0.00    -0.493 OA
ATOM     14  C   UNL     1       5.272   0.455   2.012  1.00  0.00     0.278 C 
ENDBRANCH   5  13
TORSDOF 4
ENDMDL
MODEL 8
REMARK VINA RESULT:    -3.924      2.232      3.033
REMARK INTER + INTRA:          -5.094
REMARK INTER:                  -4.645
REMARK INTRA:                  -0.449
REMARK UNBOUND:                -0.482
REMARK SMILES COc1cccc(C(=O)O)c1O
REMARK SMILES IDX 7 1 11 2 6 3 5 4 3 5 4 6 8 7 9 8 10 9 12 11 2 13 1 14
REMARK H PARENT 10 10 12 12
ROOT
ATOM      1  C   UNL     1       3.877  -2.810   2.846  1.00  0.00     0.105 A 
ATOM      2  C   UNL     1       5.168  -3.147   3.148  1.00  0.00     0.172 A 
ATOM      3  C   UNL     1       3.597  -1.401   2.517  1.00  0.00     0.020 A 
ATOM      4  C   UNL     1       4.648  -0.612   2.175  1.00  0.00     0.005 A 
ATOM      5  C   UNL     1       6.298  -2.429   2.576  1.00  0.00     0.161 A 
ATOM      6  C   UNL     1       6.001  -1.063   2.187  1.00  0.00     0.050 A 
ENDROOT
BRANCH   1   7
ATOM      7  C   UNL     1       2.774  -3.878   2.748  1.00  0.00     0.339 C 
ATOM      8  O   UNL     1       2.782  -4.716   4.146  1.00  0.00    -0.246 OA
BRANCH   7   9
ATOM      9  O   UNL     1       1.982  -4.151   2.110  1.00  0.00    -0.478 OA
ATOM     10  H   UNL     1       1.237  -4.407   1.511  1.00  0.00     0.297 HD
ENDBRANCH   7   9
ENDBRANCH   1   7
BRANCH   2  11
ATOM     11  O   UNL     1       5.463  -4.217   4.010  1.00  0.00    -0.504 OA
ATOM     12  H   UNL     1       5.670  -4.971   4.617  1.00  0.00     0.293 HD
ENDBRANCH   2  11
BRANCH   5  13
ATOM     13  O   UNL     1       7.549  -2.989   2.803  1.00  0.00    -0.493 OA
ATOM     14  C   UNL     1       8.730  -3.143   3.304  1.00  0.00     0.278 C 
ENDBRANCH   5  13
TORSDOF 4
ENDMDL
MODEL 9
REMARK VINA RESULT:    -3.342      2.566      3.782
REMARK INTER + INTRA:          -4.410
REMARK INTER:                  -3.934
REMARK INTRA:                  -0.477
REMARK UNBOUND:                -0.482
REMARK SMILES COc1cccc(C(=O)O)c1O
REMARK SMILES IDX 7 1 11 2 6 3 5 4 3 5 4 6 8 7 9 8 10 9 12 11 2 13 1 14
REMARK H PARENT 10 10 12 12
ROOT
ATOM      1  C   UNL     1       4.477  -1.888   2.688  1.00  0.00     0.105 A 
ATOM      2  C   UNL     1       5.108  -2.646   3.636  1.00  0.00     0.172 A 
ATOM      3  C   UNL     1       5.319  -1.081   1.786  1.00  0.00     0.020 A 
ATOM      4  C   UNL     1       6.635  -1.403   1.695  1.00  0.00     0.005 A 
ATOM      5  C   UNL     1       6.442  -3.187   3.417  1.00  0.00     0.161 A 
ATOM      6  C   UNL     1       7.244  -2.430   2.474  1.00  0.00     0.050 A 
ENDROOT
BRANCH   1   7
ATOM      7  C   UNL     1       2.952  -1.953   2.497  1.00  0.00     0.339 C 
ATOM      8  O   UNL     1       2.444  -3.375   3.108  1.00  0.00    -0.246 OA
BRANCH   7   9
ATOM      9  O   UNL     1       2.159  -1.332   2.190  1.00  0.00    -0.478 OA
ATOM     10  H   UNL     1       1.413  -0.748   1.901  1.00  0.00     0.297 HD
ENDBRANCH   7   9
ENDBRANCH   1   7
BRANCH   2  11
ATOM     11  O   UNL     1       4.487  -2.956   4.858  1.00  0.00    -0.504 OA
ATOM     12  H   UNL     1       4.049  -3.174   5.719  1.00  0.00     0.293 HD
ENDBRANCH   2  11
BRANCH   5  13
ATOM     13  O   UNL     1       6.889  -4.098   4.365  1.00  0.00    -0.493 OA
ATOM     14  C   UNL     1       7.713  -4.762   5.107  1.00  0.00     0.278 C 
ENDBRANCH   5  13
TORSDOF 4
ENDMDL
