MODEL 1
REMARK VINA RESULT:    -4.915      0.000      0.000
REMARK INTER + INTRA:          -6.048
REMARK INTER:                  -5.777
REMARK INTRA:                  -0.271
REMARK UNBOUND:                -0.271
REMARK SMILES COc1cccc(C(=O)O)c1O
REMARK SMILES IDX 7 1 11 2 6 3 5 4 3 5 4 6 8 7 9 8 10 9 12 11 2 13 1 14
REMARK H PARENT 10 10 12 12
ROOT
ATOM      1  C   UNL     1       4.717  -1.152  -0.101  1.00  0.00     0.105 A 
ATOM      2  C   UNL     1       5.950  -1.395   0.438  1.00  0.00     0.172 A 
ATOM      3  C   UNL     1       3.984   0.034   0.378  1.00  0.00     0.020 A 
ATOM      4  C   UNL     1       4.692   0.995   1.026  1.00  0.00     0.005 A 
ATOM      5  C   UNL     1       6.803  -0.315   0.915  1.00  0.00     0.161 A 
ATOM      6  C   UNL     1       6.082   0.878   1.319  1.00  0.00     0.050 A 
ENDROOT
BRANCH   1   7
ATOM      7  C   UNL     1       4.157  -2.019  -1.241  1.00  0.00     0.339 C 
ATOM      8  O   UNL     1       3.031  -1.134  -2.018  1.00  0.00    -0.246 OA
BRANCH   7   9
ATOM      9  O   UNL     1       4.349  -2.942  -1.710  1.00  0.00    -0.478 OA
ATOM     10  H   UNL     1       4.530  -3.810  -2.151  1.00  0.00     0.297 HD
ENDBRANCH   7   9
ENDBRANCH   1   7
BRANCH   2  11
ATOM     11  O   UNL     1       6.460  -2.701   0.537  1.00  0.00    -0.504 OA
ATOM     12  H   UNL     1       6.820  -3.621   0.607  1.00  0.00     0.293 HD
ENDBRANCH   2  11
BRANCH   5  13
ATOM     13  O   UNL     1       8.101  -0.673   1.254  1.00  0.00    -0.493 OA
ATOM     14  C   UNL     1       9.393  -0.654   1.271  1.00  0.00     0.278 C 
ENDBRANCH   5  13
TORSDOF 4
ENDMDL
MODEL 2
REMARK VINA RESULT:    -4.914      2.886      3.922
REMARK INTER + INTRA:          -6.046
REMARK INTER:                  -5.777
REMARK INTRA:                  -0.269
REMARK UNBOUND:                -0.271
REMARK SMILES COc1cccc(C(=O)O)c1O
REMARK SMILES IDX 7 1 11 2 6 3 5 4 3 5 4 6 8 7 9 8 10 9 12 11 2 13 1 14
REMARK H PARENT 10 10 12 12
ROOT
ATOM      1  C   UNL     1       4.436   1.184   1.642  1.00  0.00     0.105 A 
ATOM      2  C   UNL     1       5.738   1.539   1.420  1.00  0.00     0.172 A 
ATOM      3  C   UNL     1       3.957  -0.072   1.036  1.00  0.00     0.020 A 
ATOM      4  C   UNL     1       4.888  -0.967   0.620  1.00  0.00     0.005 A 
ATOM      5  C   UNL     1       6.776   0.540   1.209  1.00  0.00     0.161 A 
ATOM      6  C   UNL     1       6.291  -0.721   0.679  1.00  0.00     0.050 A 
ENDROOT
BRANCH   1   7
ATOM      7  C   UNL     1       3.531   2.006   2.576  1.00  0.00     0.339 C 
ATOM      8  O   UNL     1       2.317   1.033   3.059  1.00  0.00    -0.246 OA
BRANCH   7   9
ATOM      9  O   UNL     1       3.520   2.944   3.054  1.00  0.00    -0.478 OA
ATOM     10  H   UNL     1       3.510   3.827   3.504  1.00  0.00     0.297 HD
ENDBRANCH   7   9
ENDBRANCH   1   7
BRANCH   2  11
ATOM     11  O   UNL     1       6.137   2.886   1.406  1.00  0.00    -0.504 OA
ATOM     12  H   UNL     1       6.419   3.835   1.397  1.00  0.00     0.293 HD
ENDBRANCH   2  11
BRANCH   5  13
ATOM     13  O   UNL     1       8.081   1.017   1.193  1.00  0.00    -0.493 OA
ATOM     14  C   UNL     1       9.359   1.044   1.382  1.00  0.00     0.278 C 
ENDBRANCH   5  13
TORSDOF 4
ENDMDL
MODEL 3
REMARK VINA RESULT:    -4.806      2.802      4.340
REMARK INTER + INTRA:          -5.920
REMARK INTER:                  -5.498
REMARK INTRA:                  -0.422
REMARK UNBOUND:                -0.271
REMARK SMILES COc1cccc(C(=O)O)c1O
REMARK SMILES IDX 7 1 11 2 6 3 5 4 3 5 4 6 8 7 9 8 10 9 12 11 2 13 1 14
REMARK H PARENT 10 10 12 12
ROOT
ATOM      1  C   UNL     1       4.582   1.405   1.764  1.00  0.00     0.105 A 
ATOM      2  C   UNL     1       4.378   0.292   0.995  1.00  0.00     0.172 A 
ATOM      3  C   UNL     1       5.702   2.292   1.400  1.00  0.00     0.020 A 
ATOM      4  C   UNL     1       6.222   2.172   0.151  1.00  0.00     0.005 A 
ATOM      5  C   UNL     1       4.729   0.266  -0.418  1.00  0.00     0.161 A 
ATOM      6  C   UNL     1       5.784   1.191  -0.787  1.00  0.00     0.050 A 
ENDROOT
BRANCH   1   7
ATOM      7  C   UNL     1       3.617   1.779   2.903  1.00  0.00     0.339 C 
ATOM      8  O   UNL     1       2.261   0.899   2.700  1.00  0.00    -0.246 OA
BRANCH   7   9
ATOM      9  O   UNL     1       3.614   2.339   3.794  1.00  0.00    -0.478 OA
ATOM     10  H   UNL     1       3.610   2.866   4.632  1.00  0.00     0.297 HD
ENDBRANCH   7   9
ENDBRANCH   1   7
BRANCH   2  11
ATOM     11  O   UNL     1       3.799  -0.871   1.530  1.00  0.00    -0.504 OA
ATOM     12  H   UNL     1       3.392  -1.691   1.908  1.00  0.00     0.293 HD
ENDBRANCH   2  11
BRANCH   5  13
ATOM     13  O   UNL     1       4.293  -0.845  -1.129  1.00  0.00    -0.493 OA
ATOM     14  C   UNL     1       4.228  -2.071  -1.533  1.00  0.00     0.278 C 
ENDBRANCH   5  13
TORSDOF 4
ENDMDL
MODEL 4
REMARK VINA RESULT:    -4.644      2.814      4.412
REMARK INTER + INTRA:          -5.729
REMARK INTER:                  -5.314
REMARK INTRA:                  -0.415
REMARK UNBOUND:                -0.271
REMARK SMILES COc1cccc(C(=O)O)c1O
REMARK SMILES IDX 7 1 11 2 6 3 5 4 3 5 4 6 8 7 9 8 10 9 12 11 2 13 1 14
REMARK H PARENT 10 10 12 12
ROOT
ATOM      1  C   UNL     1       4.349   0.730   2.198  1.00  0.00     0.105 A 
ATOM      2  C   UNL     1       3.998  -0.065   1.141  1.00  0.00     0.172 A 
ATOM      3  C   UNL     1       5.695   0.549   2.771  1.00  0.00     0.020 A 
ATOM      4  C   UNL     1       6.619  -0.104   2.020  1.00  0.00     0.005 A 
ATOM      5  C   UNL     1       4.989  -0.565   0.199  1.00  0.00     0.161 A 
ATOM      6  C   UNL     1       6.328  -0.674   0.746  1.00  0.00     0.050 A 
ENDROOT
BRANCH   1   7
ATOM      7  C   UNL     1       3.418   1.845   2.705  1.00  0.00     0.339 C 
ATOM      8  O   UNL     1       2.037   1.138   3.203  1.00  0.00    -0.246 OA
BRANCH   7   9
ATOM      9  O   UNL     1       3.447   2.877   2.908  1.00  0.00    -0.478 OA
ATOM     10  H   UNL     1       3.474   3.849   3.100  1.00  0.00     0.297 HD
ENDBRANCH   7   9
ENDBRANCH   1   7
BRANCH   2  11
ATOM     11  O   UNL     1       2.658  -0.418   0.905  1.00  0.00    -0.504 OA
ATOM     12  H   UNL     1       1.714  -0.667   0.739  1.00  0.00     0.293 HD
ENDBRANCH   2  11
BRANCH   5  13
ATOM     13  O   UNL     1       4.485  -1.191  -0.934  1.00  0.00    -0.493 OA
ATOM     14  C   UNL     1       4.169  -2.146  -1.746  1.00  0.00     0.278 C 
ENDBRANCH   5  13
TORSDOF 4
ENDMDL
MODEL 5
REMARK VINA RESULT:    -4.618      1.914      3.094
REMARK INTER + INTRA:          -5.699
REMARK INTER:                  -5.309
REMARK INTRA:                  -0.389
REMARK UNBOUND:                -0.271
REMARK SMILES COc1cccc(C(=O)O)c1O
REMARK SMILES IDX 7 1 11 2 6 3 5 4 3 5 4 6 8 7 9 8 10 9 12 11 2 13 1 14
REMARK H PARENT 10 10 12 12
ROOT
ATOM      1  C   UNL     1       4.803  -0.697  -0.656  1.00  0.00     0.105 A 
ATOM      2  C   UNL     1       4.163   0.064   0.283  1.00  0.00     0.172 A 
ATOM      3  C   UNL     1       6.233  -0.430  -0.894  1.00  0.00     0.020 A 
ATOM      4  C   UNL     1       6.910   0.269   0.054  1.00  0.00     0.005 A 
ATOM      5  C   UNL     1       4.869   0.611   1.433  1.00  0.00     0.161 A 
ATOM      6  C   UNL     1       6.291   0.807   1.220  1.00  0.00     0.050 A 
ENDROOT
BRANCH   1   7
ATOM      7  C   UNL     1       4.088  -1.860  -1.366  1.00  0.00     0.339 C 
ATOM      8  O   UNL     1       2.816  -1.234  -2.167  1.00  0.00    -0.246 OA
BRANCH   7   9
ATOM      9  O   UNL     1       4.231  -2.885  -1.560  1.00  0.00    -0.478 OA
ATOM     10  H   UNL     1       4.366  -3.849  -1.742  1.00  0.00     0.297 HD
ENDBRANCH   7   9
ENDBRANCH   1   7
BRANCH   2  11
ATOM     11  O   UNL     1       2.787   0.333   0.193  1.00  0.00    -0.504 OA
ATOM     12  H   UNL     1       1.817   0.523   0.129  1.00  0.00     0.293 HD
ENDBRANCH   2  11
BRANCH   5  13
ATOM     13  O   UNL     1       4.074   1.194   2.411  1.00  0.00    -0.493 OA
ATOM     14  C   UNL     1       3.382   2.097   3.025  1.00  0.00     0.278 C 
ENDBRANCH   5  13
TORSDOF 4
ENDMDL
MODEL 6
REMARK VINA RESULT:    -4.360      2.738      3.667
REMARK INTER + INTRA:          -5.396
REMARK INTER:                  -4.942
REMARK INTRA:                  -0.453
REMARK UNBOUND:                -0.271
REMARK SMILES COc1cccc(C(=O)O)c1O
REMARK SMILES IDX 7 1 11 2 6 3 5 4 3 5 4 6 8 7 9 8 10 9 12 11 2 13 1 14
REMARK H PARENT 10 10 12 12
ROOT
ATOM      1  C   UNL     1       3.973   0.748   1.258  1.00  0.00     0.105 A 
ATOM      2  C   UNL     1       5.308   1.001   1.101  1.00  0.00     0.172 A 
ATOM      3  C   UNL     1       3.340  -0.191   0.313  1.00  0.00     0.020 A 
ATOM      4  C   UNL     1       4.152  -1.012  -0.400  1.00  0.00     0.005 A 
ATOM      5  C   UNL     1       6.214   0.006   0.546  1.00  0.00     0.161 A 
ATOM      6  C   UNL     1       5.575  -0.960  -0.328  1.00  0.00     0.050 A 
ENDROOT
BRANCH   1   7
ATOM      7  C   UNL     1       3.181   1.334   2.439  1.00  0.00     0.339 C 
ATOM      8  O   UNL     1       3.629   2.892   2.600  1.00  0.00    -0.246 OA
BRANCH   7   9
ATOM      9  O   UNL     1       2.393   1.065   3.084  1.00  0.00    -0.478 OA
ATOM     10  H   UNL     1       1.653   0.811   3.691  1.00  0.00     0.297 HD
ENDBRANCH   7   9
ENDBRANCH   1   7
BRANCH   2  11
ATOM     11  O   UNL     1       5.870   2.229   1.489  1.00  0.00    -0.504 OA
ATOM     12  H   UNL     1       6.266   3.095   1.762  1.00  0.00     0.293 HD
ENDBRANCH   2  11
BRANCH   5  13
ATOM     13  O   UNL     1       7.567   0.310   0.622  1.00  0.00    -0.493 OA
ATOM     14  C   UNL     1       8.786   0.294   1.051  1.00  0.00     0.278 C 
ENDBRANCH   5  13
TORSDOF 4
ENDMDL
MODEL 7
REMARK VINA RESULT:    -4.341      0.841      1.256
REMARK INTER + INTRA:          -5.373
REMARK INTER:                  -4.921
REMARK INTRA:                  -0.452
REMARK UNBOUND:                -0.271
REMARK SMILES COc1cccc(C(=O)O)c1O
REMARK SMILES IDX 7 1 11 2 6 3 5 4 3 5 4 6 8 7 9 8 10 9 12 11 2 13 1 14
REMARK H PARENT 10 10 12 12
ROOT
ATOM      1  C   UNL     1       4.168  -0.739   0.143  1.00  0.00     0.105 A 
ATOM      2  C   UNL     1       5.441  -0.885   0.622  1.00  0.00     0.172 A 
ATOM      3  C   UNL     1       3.250   0.134   0.897  1.00  0.00     0.020 A 
ATOM      4  C   UNL     1       3.795   1.011   1.779  1.00  0.00     0.005 A 
ATOM      5  C   UNL     1       6.101   0.175   1.372  1.00  0.00     0.161 A 
ATOM      6  C   UNL     1       5.192   1.076   2.055  1.00  0.00     0.050 A 
ENDROOT
BRANCH   1   7
ATOM      7  C   UNL     1       3.737  -1.375  -1.190  1.00  0.00     0.339 C 
ATOM      8  O   UNL     1       4.329  -2.892  -1.219  1.00  0.00    -0.246 OA
BRANCH   7   9
ATOM      9  O   UNL     1       3.114  -1.161  -2.011  1.00  0.00    -0.478 OA
ATOM     10  H   UNL     1       2.527  -0.960  -2.783  1.00  0.00     0.297 HD
ENDBRANCH   7   9
ENDBRANCH   1   7
BRANCH   2  11
ATOM     11  O   UNL     1       6.179  -2.059   0.393  1.00  0.00    -0.504 OA
ATOM     12  H   UNL     1       6.699  -2.886   0.232  1.00  0.00     0.293 HD
ENDBRANCH   2  11
BRANCH   5  13
ATOM     13  O   UNL     1       7.452  -0.017   1.630  1.00  0.00    -0.493 OA
ATOM     14  C   UNL     1       8.733   0.093   1.501  1.00  0.00     0.278 C 
ENDBRANCH   5  13
TORSDOF 4
ENDMDL
MODEL 8
REMARK VINA RESULT:    -4.195      2.251      4.628
REMARK INTER + INTRA:          -5.201
REMARK INTER:                  -4.893
REMARK INTRA:                  -0.309
REMARK UNBOUND:                -0.271
REMARK SMILES COc1cccc(C(=O)O)c1O
REMARK SMILES IDX 7 1 11 2 6 3 5 4 3 5 4 6 8 7 9 8 10 9 12 11 2 13 1 14
REMARK H PARENT 10 10 12 12
ROOT
ATOM      1  C   UNL     1       5.426   2.012   1.231  1.00  0.00     0.105 A 
ATOM      2  C   UNL     1       5.270   1.124   0.202  1.00  0.00     0.172 A 
ATOM      3  C   UNL     1       4.350   2.089   2.235  1.00  0.00     0.020 A 
ATOM      4  C   UNL     1       3.471   1.056   2.299  1.00  0.00     0.005 A 
ATOM      5  C   UNL     1       4.513  -0.108   0.365  1.00  0.00     0.161 A 
ATOM      6  C   UNL     1       3.501  -0.053   1.404  1.00  0.00     0.050 A 
ENDROOT
BRANCH   1   7
ATOM      7  C   UNL     1       6.721   2.826   1.396  1.00  0.00     0.339 C 
ATOM      8  O   UNL     1       7.970   1.814   1.134  1.00  0.00    -0.246 OA
BRANCH   7   9
ATOM      9  O   UNL     1       7.023   3.826   1.527  1.00  0.00    -0.478 OA
ATOM     10  H   UNL     1       7.308   4.767   1.648  1.00  0.00     0.297 HD
ENDBRANCH   7   9
ENDBRANCH   1   7
BRANCH   2  11
ATOM     11  O   UNL     1       5.855   1.352  -1.056  1.00  0.00    -0.504 OA
ATOM     12  H   UNL     1       6.267   1.512  -1.942  1.00  0.00     0.293 HD
ENDBRANCH   2  11
BRANCH   5  13
ATOM     13  O   UNL     1       4.595  -1.013  -0.686  1.00  0.00    -0.493 OA
ATOM     14  C   UNL     1       4.325  -2.047  -1.414  1.00  0.00     0.278 C 
ENDBRANCH   5  13
TORSDOF 4
ENDMDL
MODEL 9
REMARK VINA RESULT:    -4.163      2.245      3.730
REMARK INTER + INTRA:          -5.164
REMARK INTER:                  -4.834
REMARK INTRA:                  -0.330
REMARK UNBOUND:                -0.271
REMARK SMILES COc1cccc(C(=O)O)c1O
REMARK SMILES IDX 7 1 11 2 6 3 5 4 3 5 4 6 8 7 9 8 10 9 12 11 2 13 1 14
REMARK H PARENT 10 10 12 12
ROOT
ATOM      1  C   UNL     1       5.679  -1.872   0.518  1.00  0.00     0.105 A 
ATOM      2  C   UNL     1       5.240  -0.966   1.444  1.00  0.00     0.172 A 
ATOM      3  C   UNL     1       4.869  -2.052  -0.701  1.00  0.00     0.020 A 
ATOM      4  C   UNL     1       3.969  -1.082  -1.009  1.00  0.00     0.005 A 
ATOM      5  C   UNL     1       4.469   0.207   1.058  1.00  0.00     0.161 A 
ATOM      6  C   UNL     1       3.728   0.053  -0.180  1.00  0.00     0.050 A 
ENDROOT
BRANCH   1   7
ATOM      7  C   UNL     1       7.023  -2.602   0.687  1.00  0.00     0.339 C 
ATOM      8  O   UNL     1       8.109  -1.508   1.213  1.00  0.00    -0.246 OA
BRANCH   7   9
ATOM      9  O   UNL     1       7.408  -3.582   0.660  1.00  0.00    -0.478 OA
ATOM     10  H   UNL     1       7.769  -4.504   0.634  1.00  0.00     0.297 HD
ENDBRANCH   7   9
ENDBRANCH   1   7
BRANCH   2  11
ATOM     11  O   UNL     1       5.532  -1.116   2.810  1.00  0.00    -0.504 OA
ATOM     12  H   UNL     1       5.738  -1.222   3.773  1.00  0.00     0.293 HD
ENDBRANCH   2  11
BRANCH   5  13
ATOM     13  O   UNL     1       4.255   1.147   2.059  1.00  0.00    -0.493 OA
ATOM     14  C   UNL     1       3.635   2.019   2.783  1.00  0.00     0.278 C 
ENDBRANCH   5  13
TORSDOF 4
ENDMDL
