MODEL 1
REMARK VINA RESULT:    -4.840      0.000      0.000
REMARK INTER + INTRA:          -6.146
REMARK INTER:                  -5.689
REMARK INTRA:                  -0.457
REMARK UNBOUND:                -0.457
REMARK SMILES COc1cccc(C(=O)O)c1O
REMARK SMILES IDX 7 1 11 2 6 3 5 4 3 5 4 6 8 7 9 8 10 9 12 11 2 13 1 14
REMARK H PARENT 10 10 12 12
ROOT
ATOM      1  C   UNL     1       3.553   2.998  -5.238  1.00  0.00     0.105 A 
ATOM      2  C   UNL     1       2.186   2.958  -5.200  1.00  0.00     0.172 A 
ATOM      3  C   UNL     1       4.196   4.320  -5.354  1.00  0.00     0.020 A 
ATOM      4  C   UNL     1       3.449   5.413  -5.051  1.00  0.00     0.005 A 
ATOM      5  C   UNL     1       1.406   4.055  -4.646  1.00  0.00     0.161 A 
ATOM      6  C   UNL     1       2.070   5.344  -4.696  1.00  0.00     0.050 A 
ENDROOT
BRANCH   1   7
ATOM      7  C   UNL     1       4.396   1.723  -5.060  1.00  0.00     0.339 C 
ATOM      8  O   UNL     1       3.404   0.557  -4.503  1.00  0.00    -0.246 OA
BRANCH   7   9
ATOM      9  O   UNL     1       5.364   1.370  -5.278  1.00  0.00    -0.478 OA
ATOM     10  H   UNL     1       6.274   1.038  -5.481  1.00  0.00     0.297 HD
ENDBRANCH   7   9
ENDBRANCH   1   7
BRANCH   2  11
ATOM     11  O   UNL     1       1.473   1.845  -5.676  1.00  0.00    -0.504 OA
ATOM     12  H   UNL     1       0.971   1.060  -6.011  1.00  0.00     0.293 HD
ENDBRANCH   2  11
BRANCH   5  13
ATOM     13  O   UNL     1       0.048   3.811  -4.484  1.00  0.00    -0.493 OA
ATOM     14  C   UNL     1      -1.211   3.751  -4.771  1.00  0.00     0.278 C 
ENDBRANCH   5  13
TORSDOF 4
ENDMDL
MODEL 2
REMARK VINA RESULT:    -4.806      1.794      4.632
REMARK INTER + INTRA:          -6.106
REMARK INTER:                  -5.621
REMARK INTRA:                  -0.485
REMARK UNBOUND:                -0.457
REMARK SMILES COc1cccc(C(=O)O)c1O
REMARK SMILES IDX 7 1 11 2 6 3 5 4 3 5 4 6 8 7 9 8 10 9 12 11 2 13 1 14
REMARK H PARENT 10 10 12 12
ROOT
ATOM      1  C   UNL     1       0.096   3.688  -5.624  1.00  0.00     0.105 A 
ATOM      2  C   UNL     1       1.381   3.532  -5.185  1.00  0.00     0.172 A 
ATOM      3  C   UNL     1      -0.139   3.644  -7.079  1.00  0.00     0.020 A 
ATOM      4  C   UNL     1       0.829   3.097  -7.859  1.00  0.00     0.005 A 
ATOM      5  C   UNL     1       2.349   2.734  -5.924  1.00  0.00     0.161 A 
ATOM      6  C   UNL     1       2.076   2.633  -7.346  1.00  0.00     0.050 A 
ENDROOT
BRANCH   1   7
ATOM      7  C   UNL     1      -1.080   3.801  -4.638  1.00  0.00     0.339 C 
ATOM      8  O   UNL     1      -0.535   3.333  -3.176  1.00  0.00    -0.246 OA
BRANCH   7   9
ATOM      9  O   UNL     1      -2.065   4.172  -4.610  1.00  0.00    -0.478 OA
ATOM     10  H   UNL     1      -2.991   4.520  -4.584  1.00  0.00     0.297 HD
ENDBRANCH   7   9
ENDBRANCH   1   7
BRANCH   2  11
ATOM     11  O   UNL     1       1.821   4.117  -3.985  1.00  0.00    -0.504 OA
ATOM     12  H   UNL     1       2.130   4.529  -3.140  1.00  0.00     0.293 HD
ENDBRANCH   2  11
BRANCH   5  13
ATOM     13  O   UNL     1       3.554   2.491  -5.277  1.00  0.00    -0.493 OA
ATOM     14  C   UNL     1       4.576   1.835  -4.835  1.00  0.00     0.278 C 
ENDBRANCH   5  13
TORSDOF 4
ENDMDL
MODEL 3
REMARK VINA RESULT:    -4.692      2.183      3.170
REMARK INTER + INTRA:          -5.972
REMARK INTER:                  -5.702
REMARK INTRA:                  -0.270
REMARK UNBOUND:                -0.457
REMARK SMILES COc1cccc(C(=O)O)c1O
REMARK SMILES IDX 7 1 11 2 6 3 5 4 3 5 4 6 8 7 9 8 10 9 12 11 2 13 1 14
REMARK H PARENT 10 10 12 12
ROOT
ATOM      1  C   UNL     1       3.231   2.860  -5.182  1.00  0.00     0.105 A 
ATOM      2  C   UNL     1       3.537   4.048  -5.786  1.00  0.00     0.172 A 
ATOM      3  C   UNL     1       1.805   2.547  -4.972  1.00  0.00     0.020 A 
ATOM      4  C   UNL     1       0.892   3.247  -5.693  1.00  0.00     0.005 A 
ATOM      5  C   UNL     1       2.638   4.670  -6.748  1.00  0.00     0.161 A 
ATOM      6  C   UNL     1       1.244   4.305  -6.583  1.00  0.00     0.050 A 
ENDROOT
BRANCH   1   7
ATOM      7  C   UNL     1       4.324   1.836  -4.830  1.00  0.00     0.339 C 
ATOM      8  O   UNL     1       3.592   0.396  -4.618  1.00  0.00    -0.246 OA
BRANCH   7   9
ATOM      9  O   UNL     1       5.374   1.773  -4.785  1.00  0.00    -0.478 OA
ATOM     10  H   UNL     1       6.361   1.715  -4.743  1.00  0.00     0.297 HD
ENDBRANCH   7   9
ENDBRANCH   1   7
BRANCH   2  11
ATOM     11  O   UNL     1       4.746   4.714  -5.520  1.00  0.00    -0.504 OA
ATOM     12  H   UNL     1       5.597   5.183  -5.332  1.00  0.00     0.293 HD
ENDBRANCH   2  11
BRANCH   5  13
ATOM     13  O   UNL     1       3.149   5.765  -7.434  1.00  0.00    -0.493 OA
ATOM     14  C   UNL     1       3.502   6.508  -8.431  1.00  0.00     0.278 C 
ENDBRANCH   5  13
TORSDOF 4
ENDMDL
MODEL 4
REMARK VINA RESULT:    -4.608      2.775      4.417
REMARK INTER + INTRA:          -5.873
REMARK INTER:                  -5.604
REMARK INTRA:                  -0.268
REMARK UNBOUND:                -0.457
REMARK SMILES COc1cccc(C(=O)O)c1O
REMARK SMILES IDX 7 1 11 2 6 3 5 4 3 5 4 6 8 7 9 8 10 9 12 11 2 13 1 14
REMARK H PARENT 10 10 12 12
ROOT
ATOM      1  C   UNL     1       0.365   3.360  -5.217  1.00  0.00     0.105 A 
ATOM      2  C   UNL     1       0.720   3.837  -6.449  1.00  0.00     0.172 A 
ATOM      3  C   UNL     1       1.344   2.523  -4.500  1.00  0.00     0.020 A 
ATOM      4  C   UNL     1       2.638   2.573  -4.910  1.00  0.00     0.005 A 
ATOM      5  C   UNL     1       2.109   4.113  -6.790  1.00  0.00     0.161 A 
ATOM      6  C   UNL     1       3.073   3.338  -6.032  1.00  0.00     0.050 A 
ENDROOT
BRANCH   1   7
ATOM      7  C   UNL     1      -0.962   3.767  -4.554  1.00  0.00     0.339 C 
ATOM      8  O   UNL     1      -0.849   3.398  -2.971  1.00  0.00    -0.246 OA
BRANCH   7   9
ATOM      9  O   UNL     1      -1.848   4.283  -4.793  1.00  0.00    -0.478 OA
ATOM     10  H   UNL     1      -2.682   4.768  -5.017  1.00  0.00     0.297 HD
ENDBRANCH   7   9
ENDBRANCH   1   7
BRANCH   2  11
ATOM     11  O   UNL     1      -0.244   4.104  -7.436  1.00  0.00    -0.504 OA
ATOM     12  H   UNL     1      -0.923   4.293  -8.131  1.00  0.00     0.293 HD
ENDBRANCH   2  11
BRANCH   5  13
ATOM     13  O   UNL     1       2.317   4.776  -7.993  1.00  0.00    -0.493 OA
ATOM     14  C   UNL     1       2.578   5.744  -8.808  1.00  0.00     0.278 C 
ENDBRANCH   5  13
TORSDOF 4
ENDMDL
MODEL 5
REMARK VINA RESULT:    -4.127      2.162      3.090
REMARK INTER + INTRA:          -5.308
REMARK INTER:                  -5.007
REMARK INTRA:                  -0.300
REMARK UNBOUND:                -0.457
REMARK SMILES COc1cccc(C(=O)O)c1O
REMARK SMILES IDX 7 1 11 2 6 3 5 4 3 5 4 6 8 7 9 8 10 9 12 11 2 13 1 14
REMARK H PARENT 10 10 12 12
ROOT
ATOM      1  C   UNL     1       3.833   4.082  -5.251  1.00  0.00     0.105 A 
ATOM      2  C   UNL     1       2.543   4.336  -4.874  1.00  0.00     0.172 A 
ATOM      3  C   UNL     1       4.331   2.703  -5.099  1.00  0.00     0.020 A 
ATOM      4  C   UNL     1       3.412   1.713  -4.953  1.00  0.00     0.005 A 
ATOM      5  C   UNL     1       1.509   3.314  -4.952  1.00  0.00     0.161 A 
ATOM      6  C   UNL     1       2.009   1.954  -4.873  1.00  0.00     0.050 A 
ENDROOT
BRANCH   1   7
ATOM      7  C   UNL     1       4.703   5.167  -5.908  1.00  0.00     0.339 C 
ATOM      8  O   UNL     1       3.781   5.924  -7.019  1.00  0.00    -0.246 OA
BRANCH   7   9
ATOM      9  O   UNL     1       5.649   5.613  -5.788  1.00  0.00    -0.478 OA
ATOM     10  H   UNL     1       6.540   6.032  -5.674  1.00  0.00     0.297 HD
ENDBRANCH   7   9
ENDBRANCH   1   7
BRANCH   2  11
ATOM     11  O   UNL     1       2.151   5.605  -4.413  1.00  0.00    -0.504 OA
ATOM     12  H   UNL     1       1.876   6.499  -4.089  1.00  0.00     0.293 HD
ENDBRANCH   2  11
BRANCH   5  13
ATOM     13  O   UNL     1       0.209   3.749  -4.730  1.00  0.00    -0.493 OA
ATOM     14  C   UNL     1      -1.081   3.783  -4.798  1.00  0.00     0.278 C 
ENDBRANCH   5  13
TORSDOF 4
ENDMDL
MODEL 6
REMARK VINA RESULT:    -4.102      2.369      4.616
REMARK INTER + INTRA:          -5.279
REMARK INTER:                  -4.978
REMARK INTRA:                  -0.301
REMARK UNBOUND:                -0.457
REMARK SMILES COc1cccc(C(=O)O)c1O
REMARK SMILES IDX 7 1 11 2 6 3 5 4 3 5 4 6 8 7 9 8 10 9 12 11 2 13 1 14
REMARK H PARENT 10 10 12 12
ROOT
ATOM      1  C   UNL     1       0.176   3.547  -6.673  1.00  0.00     0.105 A 
ATOM      2  C   UNL     1       1.312   2.804  -6.505  1.00  0.00     0.172 A 
ATOM      3  C   UNL     1      -0.690   3.749  -5.497  1.00  0.00     0.020 A 
ATOM      4  C   UNL     1      -0.153   3.517  -4.271  1.00  0.00     0.005 A 
ATOM      5  C   UNL     1       2.013   2.759  -5.230  1.00  0.00     0.161 A 
ATOM      6  C   UNL     1       1.173   3.028  -4.078  1.00  0.00     0.050 A 
ENDROOT
BRANCH   1   7
ATOM      7  C   UNL     1      -0.138   4.238  -8.011  1.00  0.00     0.339 C 
ATOM      8  O   UNL     1       1.240   4.930  -8.537  1.00  0.00    -0.246 OA
BRANCH   7   9
ATOM      9  O   UNL     1      -0.925   4.309  -8.708  1.00  0.00    -0.478 OA
ATOM     10  H   UNL     1      -1.664   4.376  -9.363  1.00  0.00     0.297 HD
ENDBRANCH   7   9
ENDBRANCH   1   7
BRANCH   2  11
ATOM     11  O   UNL     1       1.866   2.066  -7.565  1.00  0.00    -0.504 OA
ATOM     12  H   UNL     1       2.257   1.546  -8.311  1.00  0.00     0.293 HD
ENDBRANCH   2  11
BRANCH   5  13
ATOM     13  O   UNL     1       3.253   2.134  -5.243  1.00  0.00    -0.493 OA
ATOM     14  C   UNL     1       4.500   1.919  -4.979  1.00  0.00     0.278 C 
ENDBRANCH   5  13
TORSDOF 4
ENDMDL
MODEL 7
REMARK VINA RESULT:    -3.916      2.246      4.368
REMARK INTER + INTRA:          -5.059
REMARK INTER:                  -4.635
REMARK INTRA:                  -0.425
REMARK UNBOUND:                -0.457
REMARK SMILES COc1cccc(C(=O)O)c1O
REMARK SMILES IDX 7 1 11 2 6 3 5 4 3 5 4 6 8 7 9 8 10 9 12 11 2 13 1 14
REMARK H PARENT 10 10 12 12
ROOT
ATOM      1  C   UNL     1       1.559   3.221  -4.913  1.00  0.00     0.105 A 
ATOM      2  C   UNL     1       2.382   4.176  -5.443  1.00  0.00     0.172 A 
ATOM      3  C   UNL     1       2.086   1.848  -4.805  1.00  0.00     0.020 A 
ATOM      4  C   UNL     1       3.432   1.681  -4.881  1.00  0.00     0.005 A 
ATOM      5  C   UNL     1       3.830   4.099  -5.305  1.00  0.00     0.161 A 
ATOM      6  C   UNL     1       4.340   2.752  -5.127  1.00  0.00     0.050 A 
ENDROOT
BRANCH   1   7
ATOM      7  C   UNL     1       0.173   3.581  -4.352  1.00  0.00     0.339 C 
ATOM      8  O   UNL     1      -0.692   4.231  -5.570  1.00  0.00    -0.246 OA
BRANCH   7   9
ATOM      9  O   UNL     1      -0.392   3.445  -3.474  1.00  0.00    -0.478 OA
ATOM     10  H   UNL     1      -0.924   3.317  -2.648  1.00  0.00     0.297 HD
ENDBRANCH   7   9
ENDBRANCH   1   7
BRANCH   2  11
ATOM     11  O   UNL     1       1.865   5.290  -6.126  1.00  0.00    -0.504 OA
ATOM     12  H   UNL     1       1.501   6.074  -6.608  1.00  0.00     0.293 HD
ENDBRANCH   2  11
BRANCH   5  13
ATOM     13  O   UNL     1       4.538   5.223  -5.710  1.00  0.00    -0.493 OA
ATOM     14  C   UNL     1       5.320   5.966  -6.422  1.00  0.00     0.278 C 
ENDBRANCH   5  13
TORSDOF 4
ENDMDL
MODEL 8
REMARK VINA RESULT:    -3.740      2.140      2.663
REMARK INTER + INTRA:          -4.853
REMARK INTER:                  -4.596
REMARK INTRA:                  -0.257
REMARK UNBOUND:                -0.457
REMARK SMILES COc1cccc(C(=O)O)c1O
REMARK SMILES IDX 7 1 11 2 6 3 5 4 3 5 4 6 8 7 9 8 10 9 12 11 2 13 1 14
REMARK H PARENT 10 10 12 12
ROOT
ATOM      1  C   UNL     1       2.473   2.788  -5.366  1.00  0.00     0.105 A 
ATOM      2  C   UNL     1       2.043   3.489  -6.460  1.00  0.00     0.172 A 
ATOM      3  C   UNL     1       1.631   2.824  -4.157  1.00  0.00     0.020 A 
ATOM      4  C   UNL     1       0.340   3.221  -4.299  1.00  0.00     0.005 A 
ATOM      5  C   UNL     1       0.627   3.702  -6.722  1.00  0.00     0.161 A 
ATOM      6  C   UNL     1      -0.210   3.665  -5.537  1.00  0.00     0.050 A 
ENDROOT
BRANCH   1   7
ATOM      7  C   UNL     1       3.734   1.909  -5.425  1.00  0.00     0.339 C 
ATOM      8  O   UNL     1       3.431   0.565  -4.556  1.00  0.00    -0.246 OA
BRANCH   7   9
ATOM      9  O   UNL     1       4.662   1.875  -5.923  1.00  0.00    -0.478 OA
ATOM     10  H   UNL     1       5.534   1.845  -6.391  1.00  0.00     0.297 HD
ENDBRANCH   7   9
ENDBRANCH   1   7
BRANCH   2  11
ATOM     11  O   UNL     1       2.951   4.018  -7.393  1.00  0.00    -0.504 OA
ATOM     12  H   UNL     1       3.590   4.391  -8.051  1.00  0.00     0.293 HD
ENDBRANCH   2  11
BRANCH   5  13
ATOM     13  O   UNL     1       0.316   4.252  -7.958  1.00  0.00    -0.493 OA
ATOM     14  C   UNL     1      -0.403   4.665  -8.950  1.00  0.00     0.278 C 
ENDBRANCH   5  13
TORSDOF 4
ENDMDL
MODEL 9
REMARK VINA RESULT:    -3.581      1.942      2.035
REMARK INTER + INTRA:          -4.666
REMARK INTER:                  -4.465
REMARK INTRA:                  -0.200
REMARK UNBOUND:                -0.457
REMARK SMILES COc1cccc(C(=O)O)c1O
REMARK SMILES IDX 7 1 11 2 6 3 5 4 3 5 4 6 8 7 9 8 10 9 12 11 2 13 1 14
REMARK H PARENT 10 10 12 12
ROOT
ATOM      1  C   UNL     1       3.385   2.646  -5.630  1.00  0.00     0.105 A 
ATOM      2  C   UNL     1       2.453   2.761  -6.625  1.00  0.00     0.172 A 
ATOM      3  C   UNL     1       4.237   3.817  -5.353  1.00  0.00     0.020 A 
ATOM      4  C   UNL     1       3.823   5.023  -5.819  1.00  0.00     0.005 A 
ATOM      5  C   UNL     1       1.840   4.040  -6.953  1.00  0.00     0.161 A 
ATOM      6  C   UNL     1       2.651   5.194  -6.614  1.00  0.00     0.050 A 
ENDROOT
BRANCH   1   7
ATOM      7  C   UNL     1       3.473   1.381  -4.759  1.00  0.00     0.339 C 
ATOM      8  O   UNL     1       2.136   1.336  -3.830  1.00  0.00    -0.246 OA
BRANCH   7   9
ATOM      9  O   UNL     1       4.070   0.520  -4.661  1.00  0.00    -0.478 OA
ATOM     10  H   UNL     1       4.632  -0.291  -4.570  1.00  0.00     0.297 HD
ENDBRANCH   7   9
ENDBRANCH   1   7
BRANCH   2  11
ATOM     11  O   UNL     1       2.029   1.643  -7.364  1.00  0.00    -0.504 OA
ATOM     12  H   UNL     1       1.731   0.855  -7.884  1.00  0.00     0.293 HD
ENDBRANCH   2  11
BRANCH   5  13
ATOM     13  O   UNL     1       0.772   3.990  -7.840  1.00  0.00    -0.493 OA
ATOM     14  C   UNL     1      -0.284   4.370  -8.481  1.00  0.00     0.278 C 
ENDBRANCH   5  13
TORSDOF 4
ENDMDL
