MODEL 1
REMARK VINA RESULT:    -4.918      0.000      0.000
REMARK INTER + INTRA:          -6.263
REMARK INTER:                  -5.780
REMARK INTRA:                  -0.483
REMARK UNBOUND:                -0.483
REMARK SMILES COc1cccc(C(=O)O)c1O
REMARK SMILES IDX 7 1 11 2 6 3 5 4 3 5 4 6 8 7 9 8 10 9 12 11 2 13 1 14
REMARK H PARENT 10 10 12 12
ROOT
ATOM      1  C   UNL     1       5.979   5.522  -0.327  1.00  0.00     0.105 A 
ATOM      2  C   UNL     1       5.652   4.816   0.798  1.00  0.00     0.172 A 
ATOM      3  C   UNL     1       7.408   5.784  -0.579  1.00  0.00     0.020 A 
ATOM      4  C   UNL     1       8.316   5.024   0.087  1.00  0.00     0.005 A 
ATOM      5  C   UNL     1       6.553   3.823   1.365  1.00  0.00     0.161 A 
ATOM      6  C   UNL     1       7.953   4.043   1.057  1.00  0.00     0.050 A 
ENDROOT
BRANCH   1   7
ATOM      7  C   UNL     1       4.909   5.936  -1.351  1.00  0.00     0.339 C 
ATOM      8  O   UNL     1       3.552   5.106  -1.001  1.00  0.00    -0.246 OA
BRANCH   7   9
ATOM      9  O   UNL     1       4.770   6.644  -2.119  1.00  0.00    -0.478 OA
ATOM     10  H   UNL     1       4.640   7.309  -2.841  1.00  0.00     0.297 HD
ENDBRANCH   7   9
ENDBRANCH   1   7
BRANCH   2  11
ATOM     11  O   UNL     1       4.420   5.004   1.446  1.00  0.00    -0.504 OA
ATOM     12  H   UNL     1       3.551   5.136   1.903  1.00  0.00     0.293 HD
ENDBRANCH   2  11
BRANCH   5  13
ATOM     13  O   UNL     1       6.026   3.040   2.384  1.00  0.00    -0.493 OA
ATOM     14  C   UNL     1       5.977   2.153   3.324  1.00  0.00     0.278 C 
ENDBRANCH   5  13
TORSDOF 4
ENDMDL
MODEL 2
REMARK VINA RESULT:    -4.816      1.789      4.705
REMARK INTER + INTRA:          -6.143
REMARK INTER:                  -5.660
REMARK INTRA:                  -0.483
REMARK UNBOUND:                -0.483
REMARK SMILES COc1cccc(C(=O)O)c1O
REMARK SMILES IDX 7 1 11 2 6 3 5 4 3 5 4 6 8 7 9 8 10 9 12 11 2 13 1 14
REMARK H PARENT 10 10 12 12
ROOT
ATOM      1  C   UNL     1       6.156   3.530   2.838  1.00  0.00     0.105 A 
ATOM      2  C   UNL     1       6.216   3.952   1.538  1.00  0.00     0.172 A 
ATOM      3  C   UNL     1       6.049   4.561   3.887  1.00  0.00     0.020 A 
ATOM      4  C   UNL     1       5.653   5.804   3.512  1.00  0.00     0.005 A 
ATOM      5  C   UNL     1       5.573   5.184   1.105  1.00  0.00     0.161 A 
ATOM      6  C   UNL     1       5.405   6.170   2.156  1.00  0.00     0.050 A 
ENDROOT
BRANCH   1   7
ATOM      7  C   UNL     1       6.094   2.034   3.192  1.00  0.00     0.339 C 
ATOM      8  O   UNL     1       5.769   1.221   1.818  1.00  0.00    -0.246 OA
BRANCH   7   9
ATOM      9  O   UNL     1       6.290   1.398   4.008  1.00  0.00    -0.478 OA
ATOM     10  H   UNL     1       6.474   0.800   4.776  1.00  0.00     0.297 HD
ENDBRANCH   7   9
ENDBRANCH   1   7
BRANCH   2  11
ATOM     11  O   UNL     1       6.884   3.201   0.556  1.00  0.00    -0.504 OA
ATOM     12  H   UNL     1       7.355   2.673  -0.137  1.00  0.00     0.293 HD
ENDBRANCH   2  11
BRANCH   5  13
ATOM     13  O   UNL     1       5.537   5.399  -0.267  1.00  0.00    -0.493 OA
ATOM     14  C   UNL     1       5.123   5.836  -1.410  1.00  0.00     0.278 C 
ENDBRANCH   5  13
TORSDOF 4
ENDMDL
MODEL 3
REMARK VINA RESULT:    -4.735      2.178      3.186
REMARK INTER + INTRA:          -6.049
REMARK INTER:                  -5.778
REMARK INTRA:                  -0.270
REMARK UNBOUND:                -0.483
REMARK SMILES COc1cccc(C(=O)O)c1O
REMARK SMILES IDX 7 1 11 2 6 3 5 4 3 5 4 6 8 7 9 8 10 9 12 11 2 13 1 14
REMARK H PARENT 10 10 12 12
ROOT
ATOM      1  C   UNL     1       5.852   5.285  -0.096  1.00  0.00     0.105 A 
ATOM      2  C   UNL     1       7.060   5.856   0.195  1.00  0.00     0.172 A 
ATOM      3  C   UNL     1       5.283   4.348   0.890  1.00  0.00     0.020 A 
ATOM      4  C   UNL     1       5.781   4.383   2.153  1.00  0.00     0.005 A 
ATOM      5  C   UNL     1       7.477   6.105   1.568  1.00  0.00     0.161 A 
ATOM      6  C   UNL     1       6.861   5.227   2.545  1.00  0.00     0.050 A 
ENDROOT
BRANCH   1   7
ATOM      7  C   UNL     1       5.061   5.684  -1.354  1.00  0.00     0.339 C 
ATOM      8  O   UNL     1       3.512   5.240  -1.116  1.00  0.00    -0.246 OA
BRANCH   7   9
ATOM      9  O   UNL     1       5.200   6.226  -2.246  1.00  0.00    -0.478 OA
ATOM     10  H   UNL     1       5.331   6.736  -3.085  1.00  0.00     0.297 HD
ENDBRANCH   7   9
ENDBRANCH   1   7
BRANCH   2  11
ATOM     11  O   UNL     1       7.948   6.249  -0.822  1.00  0.00    -0.504 OA
ATOM     12  H   UNL     1       8.573   6.526  -1.538  1.00  0.00     0.293 HD
ENDBRANCH   2  11
BRANCH   5  13
ATOM     13  O   UNL     1       8.629   6.865   1.723  1.00  0.00    -0.493 OA
ATOM     14  C   UNL     1       9.378   7.875   2.020  1.00  0.00     0.278 C 
ENDBRANCH   5  13
TORSDOF 4
ENDMDL
MODEL 4
REMARK VINA RESULT:    -4.699      2.963      4.421
REMARK INTER + INTRA:          -6.006
REMARK INTER:                  -5.737
REMARK INTRA:                  -0.269
REMARK UNBOUND:                -0.483
REMARK SMILES COc1cccc(C(=O)O)c1O
REMARK SMILES IDX 7 1 11 2 6 3 5 4 3 5 4 6 8 7 9 8 10 9 12 11 2 13 1 14
REMARK H PARENT 10 10 12 12
ROOT
ATOM      1  C   UNL     1       6.029   3.526   2.457  1.00  0.00     0.105 A 
ATOM      2  C   UNL     1       6.502   4.607   3.150  1.00  0.00     0.172 A 
ATOM      3  C   UNL     1       5.722   3.712   1.027  1.00  0.00     0.020 A 
ATOM      4  C   UNL     1       6.255   4.793   0.402  1.00  0.00     0.005 A 
ATOM      5  C   UNL     1       7.284   5.648   2.499  1.00  0.00     0.161 A 
ATOM      6  C   UNL     1       7.032   5.781   1.076  1.00  0.00     0.050 A 
ENDROOT
BRANCH   1   7
ATOM      7  C   UNL     1       5.919   2.139   3.115  1.00  0.00     0.339 C 
ATOM      8  O   UNL     1       5.773   1.043   1.919  1.00  0.00    -0.246 OA
BRANCH   7   9
ATOM      9  O   UNL     1       6.007   1.699   4.067  1.00  0.00    -0.478 OA
ATOM     10  H   UNL     1       6.090   1.285   4.963  1.00  0.00     0.297 HD
ENDBRANCH   7   9
ENDBRANCH   1   7
BRANCH   2  11
ATOM     11  O   UNL     1       6.272   4.750   4.529  1.00  0.00    -0.504 OA
ATOM     12  H   UNL     1       6.110   4.850   5.500  1.00  0.00     0.293 HD
ENDBRANCH   2  11
BRANCH   5  13
ATOM     13  O   UNL     1       7.871   6.582   3.343  1.00  0.00    -0.493 OA
ATOM     14  C   UNL     1       8.793   7.203   4.002  1.00  0.00     0.278 C 
ENDBRANCH   5  13
TORSDOF 4
ENDMDL
MODEL 5
REMARK VINA RESULT:    -4.007      2.122      2.968
REMARK INTER + INTRA:          -5.192
REMARK INTER:                  -4.749
REMARK INTRA:                  -0.443
REMARK UNBOUND:                -0.483
REMARK SMILES COc1cccc(C(=O)O)c1O
REMARK SMILES IDX 7 1 11 2 6 3 5 4 3 5 4 6 8 7 9 8 10 9 12 11 2 13 1 14
REMARK H PARENT 10 10 12 12
ROOT
ATOM      1  C   UNL     1       5.591   4.678   0.520  1.00  0.00     0.105 A 
ATOM      2  C   UNL     1       6.498   5.443   1.199  1.00  0.00     0.172 A 
ATOM      3  C   UNL     1       5.340   3.313   1.017  1.00  0.00     0.020 A 
ATOM      4  C   UNL     1       5.721   3.024   2.288  1.00  0.00     0.005 A 
ATOM      5  C   UNL     1       6.721   5.275   2.628  1.00  0.00     0.161 A 
ATOM      6  C   UNL     1       6.405   3.950   3.128  1.00  0.00     0.050 A 
ENDROOT
BRANCH   1   7
ATOM      7  C   UNL     1       4.781   5.251  -0.656  1.00  0.00     0.339 C 
ATOM      8  O   UNL     1       5.843   5.903  -1.707  1.00  0.00    -0.246 OA
BRANCH   7   9
ATOM      9  O   UNL     1       3.792   5.258  -1.016  1.00  0.00    -0.478 OA
ATOM     10  H   UNL     1       2.861   5.264  -1.353  1.00  0.00     0.297 HD
ENDBRANCH   7   9
ENDBRANCH   1   7
BRANCH   2  11
ATOM     11  O   UNL     1       7.242   6.444   0.551  1.00  0.00    -0.504 OA
ATOM     12  H   UNL     1       7.766   7.150   0.094  1.00  0.00     0.293 HD
ENDBRANCH   2  11
BRANCH   5  13
ATOM     13  O   UNL     1       7.516   6.239   3.234  1.00  0.00    -0.493 OA
ATOM     14  C   UNL     1       8.572   6.797   3.729  1.00  0.00     0.278 C 
ENDBRANCH   5  13
TORSDOF 4
ENDMDL
MODEL 6
REMARK VINA RESULT:    -3.992      2.181      3.105
REMARK INTER + INTRA:          -5.175
REMARK INTER:                  -4.971
REMARK INTRA:                  -0.203
REMARK UNBOUND:                -0.483
REMARK SMILES COc1cccc(C(=O)O)c1O
REMARK SMILES IDX 7 1 11 2 6 3 5 4 3 5 4 6 8 7 9 8 10 9 12 11 2 13 1 14
REMARK H PARENT 10 10 12 12
ROOT
ATOM      1  C   UNL     1       7.163   5.528  -0.266  1.00  0.00     0.105 A 
ATOM      2  C   UNL     1       7.213   4.434   0.553  1.00  0.00     0.172 A 
ATOM      3  C   UNL     1       5.873   5.845  -0.905  1.00  0.00     0.020 A 
ATOM      4  C   UNL     1       4.753   5.284  -0.380  1.00  0.00     0.005 A 
ATOM      5  C   UNL     1       6.047   3.986   1.301  1.00  0.00     0.161 A 
ATOM      6  C   UNL     1       4.777   4.361   0.706  1.00  0.00     0.050 A 
ENDROOT
BRANCH   1   7
ATOM      7  C   UNL     1       8.377   6.458  -0.433  1.00  0.00     0.339 C 
ATOM      8  O   UNL     1       8.741   7.053   1.039  1.00  0.00    -0.246 OA
BRANCH   7   9
ATOM      9  O   UNL     1       9.074   6.735  -1.172  1.00  0.00    -0.478 OA
ATOM     10  H   UNL     1       9.729   6.995  -1.867  1.00  0.00     0.297 HD
ENDBRANCH   7   9
ENDBRANCH   1   7
BRANCH   2  11
ATOM     11  O   UNL     1       8.401   3.703   0.726  1.00  0.00    -0.504 OA
ATOM     12  H   UNL     1       9.238   3.189   0.849  1.00  0.00     0.293 HD
ENDBRANCH   2  11
BRANCH   5  13
ATOM     13  O   UNL     1       6.277   2.990   2.242  1.00  0.00    -0.493 OA
ATOM     14  C   UNL     1       6.070   2.217   3.257  1.00  0.00     0.278 C 
ENDBRANCH   5  13
TORSDOF 4
ENDMDL
MODEL 7
REMARK VINA RESULT:    -3.915      2.236      4.666
REMARK INTER + INTRA:          -5.085
REMARK INTER:                  -4.778
REMARK INTRA:                  -0.306
REMARK UNBOUND:                -0.483
REMARK SMILES COc1cccc(C(=O)O)c1O
REMARK SMILES IDX 7 1 11 2 6 3 5 4 3 5 4 6 8 7 9 8 10 9 12 11 2 13 1 14
REMARK H PARENT 10 10 12 12
ROOT
ATOM      1  C   UNL     1       5.983   4.436   3.399  1.00  0.00     0.105 A 
ATOM      2  C   UNL     1       5.451   5.047   2.297  1.00  0.00     0.172 A 
ATOM      3  C   UNL     1       6.072   2.965   3.390  1.00  0.00     0.020 A 
ATOM      4  C   UNL     1       5.976   2.334   2.190  1.00  0.00     0.005 A 
ATOM      5  C   UNL     1       5.569   4.462   0.969  1.00  0.00     0.161 A 
ATOM      6  C   UNL     1       5.728   3.019   0.965  1.00  0.00     0.050 A 
ENDROOT
BRANCH   1   7
ATOM      7  C   UNL     1       6.566   5.255   4.564  1.00  0.00     0.339 C 
ATOM      8  O   UNL     1       7.459   6.454   3.918  1.00  0.00    -0.246 OA
BRANCH   7   9
ATOM      9  O   UNL     1       6.481   5.325   5.611  1.00  0.00    -0.478 OA
ATOM     10  H   UNL     1       6.401   5.391   6.596  1.00  0.00     0.297 HD
ENDBRANCH   7   9
ENDBRANCH   1   7
BRANCH   2  11
ATOM     11  O   UNL     1       4.784   6.280   2.394  1.00  0.00    -0.504 OA
ATOM     12  H   UNL     1       4.314   7.148   2.462  1.00  0.00     0.293 HD
ENDBRANCH   2  11
BRANCH   5  13
ATOM     13  O   UNL     1       5.164   5.269  -0.087  1.00  0.00    -0.493 OA
ATOM     14  C   UNL     1       5.238   5.953  -1.181  1.00  0.00     0.278 C 
ENDBRANCH   5  13
TORSDOF 4
ENDMDL
MODEL 8
REMARK VINA RESULT:    -3.861      2.301      4.417
REMARK INTER + INTRA:          -5.021
REMARK INTER:                  -4.574
REMARK INTRA:                  -0.447
REMARK UNBOUND:                -0.483
REMARK SMILES COc1cccc(C(=O)O)c1O
REMARK SMILES IDX 7 1 11 2 6 3 5 4 3 5 4 6 8 7 9 8 10 9 12 11 2 13 1 14
REMARK H PARENT 10 10 12 12
ROOT
ATOM      1  C   UNL     1       5.930   4.038   1.145  1.00  0.00     0.105 A 
ATOM      2  C   UNL     1       6.995   4.876   0.958  1.00  0.00     0.172 A 
ATOM      3  C   UNL     1       4.667   4.376   0.463  1.00  0.00     0.020 A 
ATOM      4  C   UNL     1       4.723   5.254  -0.571  1.00  0.00     0.005 A 
ATOM      5  C   UNL     1       7.162   5.637  -0.272  1.00  0.00     0.161 A 
ATOM      6  C   UNL     1       5.924   5.907  -0.978  1.00  0.00     0.050 A 
ENDROOT
BRANCH   1   7
ATOM      7  C   UNL     1       6.069   2.734   1.948  1.00  0.00     0.339 C 
ATOM      8  O   UNL     1       6.629   3.129   3.426  1.00  0.00    -0.246 OA
BRANCH   7   9
ATOM      9  O   UNL     1       5.825   1.713   1.861  1.00  0.00    -0.478 OA
ATOM     10  H   UNL     1       5.596   0.753   1.779  1.00  0.00     0.297 HD
ENDBRANCH   7   9
ENDBRANCH   1   7
BRANCH   2  11
ATOM     11  O   UNL     1       7.990   5.024   1.940  1.00  0.00    -0.504 OA
ATOM     12  H   UNL     1       8.691   5.129   2.631  1.00  0.00     0.293 HD
ENDBRANCH   2  11
BRANCH   5  13
ATOM     13  O   UNL     1       8.378   6.293  -0.418  1.00  0.00    -0.493 OA
ATOM     14  C   UNL     1       9.211   7.258  -0.627  1.00  0.00     0.278 C 
ENDBRANCH   5  13
TORSDOF 4
ENDMDL
MODEL 9
REMARK VINA RESULT:    -3.854      7.297      7.799
REMARK INTER + INTRA:          -5.013
REMARK INTER:                  -4.784
REMARK INTRA:                  -0.229
REMARK UNBOUND:                -0.483
REMARK SMILES COc1cccc(C(=O)O)c1O
REMARK SMILES IDX 7 1 11 2 6 3 5 4 3 5 4 6 8 7 9 8 10 9 12 11 2 13 1 14
REMARK H PARENT 10 10 12 12
ROOT
ATOM      1  C   UNL     1       5.199  -1.443  -3.843  1.00  0.00     0.105 A 
ATOM      2  C   UNL     1       4.197  -0.938  -3.061  1.00  0.00     0.172 A 
ATOM      3  C   UNL     1       5.861  -2.681  -3.392  1.00  0.00     0.020 A 
ATOM      4  C   UNL     1       5.222  -3.434  -2.460  1.00  0.00     0.005 A 
ATOM      5  C   UNL     1       3.359  -1.801  -2.241  1.00  0.00     0.161 A 
ATOM      6  C   UNL     1       3.988  -3.051  -1.857  1.00  0.00     0.050 A 
ENDROOT
BRANCH   1   7
ATOM      7  C   UNL     1       5.554  -0.807  -5.199  1.00  0.00     0.339 C 
ATOM      8  O   UNL     1       4.178  -0.203  -5.828  1.00  0.00    -0.246 OA
BRANCH   7   9
ATOM      9  O   UNL     1       6.406  -0.570  -5.770  1.00  0.00    -0.478 OA
ATOM     10  H   UNL     1       7.207  -0.347  -6.307  1.00  0.00     0.297 HD
ENDBRANCH   7   9
ENDBRANCH   1   7
BRANCH   2  11
ATOM     11  O   UNL     1       3.918   0.439  -3.029  1.00  0.00    -0.504 OA
ATOM     12  H   UNL     1       3.720   1.409  -3.007  1.00  0.00     0.293 HD
ENDBRANCH   2  11
BRANCH   5  13
ATOM     13  O   UNL     1       2.259  -1.193  -1.651  1.00  0.00    -0.493 OA
ATOM     14  C   UNL     1       1.380  -0.283  -1.384  1.00  0.00     0.278 C 
ENDBRANCH   5  13
TORSDOF 4
ENDMDL
