MODEL 1
REMARK VINA RESULT:    -4.872      0.000      0.000
REMARK INTER + INTRA:          -6.156
REMARK INTER:                  -5.727
REMARK INTRA:                  -0.429
REMARK UNBOUND:                -0.429
REMARK SMILES COc1cccc(C(=O)O)c1O
REMARK SMILES IDX 7 1 11 2 6 3 5 4 3 5 4 6 8 7 9 8 10 9 12 11 2 13 1 14
REMARK H PARENT 10 10 12 12
ROOT
ATOM      1  C   UNL     1       5.829   3.708  -3.855  1.00  0.00     0.105 A 
ATOM      2  C   UNL     1       5.808   2.862  -2.780  1.00  0.00     0.172 A 
ATOM      3  C   UNL     1       6.798   3.424  -4.929  1.00  0.00     0.020 A 
ATOM      4  C   UNL     1       7.338   2.179  -4.979  1.00  0.00     0.005 A 
ATOM      5  C   UNL     1       6.166   1.457  -2.907  1.00  0.00     0.161 A 
ATOM      6  C   UNL     1       7.065   1.169  -4.010  1.00  0.00     0.050 A 
ENDROOT
BRANCH   1   7
ATOM      7  C   UNL     1       4.812   4.854  -3.992  1.00  0.00     0.339 C 
ATOM      8  O   UNL     1       3.699   4.660  -2.818  1.00  0.00    -0.246 OA
BRANCH   7   9
ATOM      9  O   UNL     1       4.683   5.745  -4.537  1.00  0.00    -0.478 OA
ATOM     10  H   UNL     1       4.562   6.584  -5.049  1.00  0.00     0.297 HD
ENDBRANCH   7   9
ENDBRANCH   1   7
BRANCH   2  11
ATOM     11  O   UNL     1       5.415   3.307  -1.506  1.00  0.00    -0.504 OA
ATOM     12  H   UNL     1       5.139   3.621  -0.609  1.00  0.00     0.293 HD
ENDBRANCH   2  11
BRANCH   5  13
ATOM     13  O   UNL     1       5.914   0.664  -1.795  1.00  0.00    -0.493 OA
ATOM     14  C   UNL     1       6.141  -0.139  -0.808  1.00  0.00     0.278 C 
ENDBRANCH   5  13
TORSDOF 4
ENDMDL
MODEL 2
REMARK VINA RESULT:    -4.833      2.287      3.295
REMARK INTER + INTRA:          -6.110
REMARK INTER:                  -5.840
REMARK INTRA:                  -0.270
REMARK UNBOUND:                -0.429
REMARK SMILES COc1cccc(C(=O)O)c1O
REMARK SMILES IDX 7 1 11 2 6 3 5 4 3 5 4 6 8 7 9 8 10 9 12 11 2 13 1 14
REMARK H PARENT 10 10 12 12
ROOT
ATOM      1  C   UNL     1       5.878   3.613  -3.561  1.00  0.00     0.105 A 
ATOM      2  C   UNL     1       7.101   3.460  -4.153  1.00  0.00     0.172 A 
ATOM      3  C   UNL     1       5.621   2.862  -2.319  1.00  0.00     0.020 A 
ATOM      4  C   UNL     1       6.693   2.371  -1.645  1.00  0.00     0.005 A 
ATOM      5  C   UNL     1       8.295   3.164  -3.374  1.00  0.00     0.161 A 
ATOM      6  C   UNL     1       8.033   2.488  -2.117  1.00  0.00     0.050 A 
ENDROOT
BRANCH   1   7
ATOM      7  C   UNL     1       4.843   4.611  -4.109  1.00  0.00     0.339 C 
ATOM      8  O   UNL     1       3.749   4.874  -2.931  1.00  0.00    -0.246 OA
BRANCH   7   9
ATOM      9  O   UNL     1       4.695   5.225  -4.951  1.00  0.00    -0.478 OA
ATOM     10  H   UNL     1       4.555   5.803  -5.743  1.00  0.00     0.297 HD
ENDBRANCH   7   9
ENDBRANCH   1   7
BRANCH   2  11
ATOM     11  O   UNL     1       7.266   3.604  -5.542  1.00  0.00    -0.504 OA
ATOM     12  H   UNL     1       7.381   3.705  -6.520  1.00  0.00     0.293 HD
ENDBRANCH   2  11
BRANCH   5  13
ATOM     13  O   UNL     1       9.499   3.230  -4.063  1.00  0.00    -0.493 OA
ATOM     14  C   UNL     1      10.705   3.593  -4.355  1.00  0.00     0.278 C 
ENDBRANCH   5  13
TORSDOF 4
ENDMDL
MODEL 3
REMARK VINA RESULT:    -4.830      2.896      4.347
REMARK INTER + INTRA:          -6.106
REMARK INTER:                  -5.835
REMARK INTRA:                  -0.271
REMARK UNBOUND:                -0.429
REMARK SMILES COc1cccc(C(=O)O)c1O
REMARK SMILES IDX 7 1 11 2 6 3 5 4 3 5 4 6 8 7 9 8 10 9 12 11 2 13 1 14
REMARK H PARENT 10 10 12 12
ROOT
ATOM      1  C   UNL     1       6.456   1.398  -1.693  1.00  0.00     0.105 A 
ATOM      2  C   UNL     1       7.699   1.918  -1.457  1.00  0.00     0.172 A 
ATOM      3  C   UNL     1       5.655   2.004  -2.772  1.00  0.00     0.020 A 
ATOM      4  C   UNL     1       6.305   2.765  -3.689  1.00  0.00     0.005 A 
ATOM      5  C   UNL     1       8.487   2.525  -2.521  1.00  0.00     0.161 A 
ATOM      6  C   UNL     1       7.699   3.057  -3.617  1.00  0.00     0.050 A 
ENDROOT
BRANCH   1   7
ATOM      7  C   UNL     1       5.950   0.159  -0.934  1.00  0.00     0.339 C 
ATOM      8  O   UNL     1       4.701  -0.454  -1.780  1.00  0.00    -0.246 OA
BRANCH   7   9
ATOM      9  O   UNL     1       6.226  -0.442  -0.114  1.00  0.00    -0.478 OA
ATOM     10  H   UNL     1       6.485  -1.007   0.656  1.00  0.00     0.297 HD
ENDBRANCH   7   9
ENDBRANCH   1   7
BRANCH   2  11
ATOM     11  O   UNL     1       8.282   1.871  -0.179  1.00  0.00    -0.504 OA
ATOM     12  H   UNL     1       8.693   1.837   0.721  1.00  0.00     0.293 HD
ENDBRANCH   2  11
BRANCH   5  13
ATOM     13  O   UNL     1       9.803   2.834  -2.199  1.00  0.00    -0.493 OA
ATOM     14  C   UNL     1      11.094   2.792  -2.226  1.00  0.00     0.278 C 
ENDBRANCH   5  13
TORSDOF 4
ENDMDL
MODEL 4
REMARK VINA RESULT:    -4.413      1.286      1.363
REMARK INTER + INTRA:          -5.616
REMARK INTER:                  -5.176
REMARK INTRA:                  -0.440
REMARK UNBOUND:                -0.429
REMARK SMILES COc1cccc(C(=O)O)c1O
REMARK SMILES IDX 7 1 11 2 6 3 5 4 3 5 4 6 8 7 9 8 10 9 12 11 2 13 1 14
REMARK H PARENT 10 10 12 12
ROOT
ATOM      1  C   UNL     1       5.894   4.019  -3.125  1.00  0.00     0.105 A 
ATOM      2  C   UNL     1       5.614   2.856  -2.463  1.00  0.00     0.172 A 
ATOM      3  C   UNL     1       7.281   4.518  -3.074  1.00  0.00     0.020 A 
ATOM      4  C   UNL     1       8.252   3.643  -2.706  1.00  0.00     0.005 A 
ATOM      5  C   UNL     1       6.618   1.817  -2.285  1.00  0.00     0.161 A 
ATOM      6  C   UNL     1       7.986   2.301  -2.307  1.00  0.00     0.050 A 
ENDROOT
BRANCH   1   7
ATOM      7  C   UNL     1       4.831   4.729  -3.981  1.00  0.00     0.339 C 
ATOM      8  O   UNL     1       3.554   5.035  -3.017  1.00  0.00    -0.246 OA
BRANCH   7   9
ATOM      9  O   UNL     1       4.729   5.147  -4.943  1.00  0.00    -0.478 OA
ATOM     10  H   UNL     1       4.633   5.540  -5.846  1.00  0.00     0.297 HD
ENDBRANCH   7   9
ENDBRANCH   1   7
BRANCH   2  11
ATOM     11  O   UNL     1       4.334   2.601  -1.942  1.00  0.00    -0.504 OA
ATOM     12  H   UNL     1       3.432   2.421  -1.574  1.00  0.00     0.293 HD
ENDBRANCH   2  11
BRANCH   5  13
ATOM     13  O   UNL     1       6.157   0.610  -1.775  1.00  0.00    -0.493 OA
ATOM     14  C   UNL     1       5.978  -0.356  -0.935  1.00  0.00     0.278 C 
ENDBRANCH   5  13
TORSDOF 4
ENDMDL
MODEL 5
REMARK VINA RESULT:    -4.389      1.464      4.237
REMARK INTER + INTRA:          -5.588
REMARK INTER:                  -5.234
REMARK INTRA:                  -0.355
REMARK UNBOUND:                -0.429
REMARK SMILES COc1cccc(C(=O)O)c1O
REMARK SMILES IDX 7 1 11 2 6 3 5 4 3 5 4 6 8 7 9 8 10 9 12 11 2 13 1 14
REMARK H PARENT 10 10 12 12
ROOT
ATOM      1  C   UNL     1       6.399   0.977  -2.246  1.00  0.00     0.105 A 
ATOM      2  C   UNL     1       5.681   2.039  -2.724  1.00  0.00     0.172 A 
ATOM      3  C   UNL     1       7.762   0.780  -2.773  1.00  0.00     0.020 A 
ATOM      4  C   UNL     1       8.354   1.830  -3.398  1.00  0.00     0.005 A 
ATOM      5  C   UNL     1       6.333   3.261  -3.174  1.00  0.00     0.161 A 
ATOM      6  C   UNL     1       7.699   3.076  -3.625  1.00  0.00     0.050 A 
ENDROOT
BRANCH   1   7
ATOM      7  C   UNL     1       5.850   0.081  -1.122  1.00  0.00     0.339 C 
ATOM      8  O   UNL     1       4.509  -0.648  -1.692  1.00  0.00    -0.246 OA
BRANCH   7   9
ATOM      9  O   UNL     1       6.129  -0.261  -0.167  1.00  0.00    -0.478 OA
ATOM     10  H   UNL     1       6.391  -0.584   0.732  1.00  0.00     0.297 HD
ENDBRANCH   7   9
ENDBRANCH   1   7
BRANCH   2  11
ATOM     11  O   UNL     1       4.277   2.006  -2.784  1.00  0.00    -0.504 OA
ATOM     12  H   UNL     1       3.288   1.983  -2.826  1.00  0.00     0.293 HD
ENDBRANCH   2  11
BRANCH   5  13
ATOM     13  O   UNL     1       5.490   4.331  -3.448  1.00  0.00    -0.493 OA
ATOM     14  C   UNL     1       4.650   5.071  -4.092  1.00  0.00     0.278 C 
ENDBRANCH   5  13
TORSDOF 4
ENDMDL
MODEL 6
REMARK VINA RESULT:    -4.040      2.833      4.117
REMARK INTER + INTRA:          -5.178
REMARK INTER:                  -4.741
REMARK INTRA:                  -0.437
REMARK UNBOUND:                -0.429
REMARK SMILES COc1cccc(C(=O)O)c1O
REMARK SMILES IDX 7 1 11 2 6 3 5 4 3 5 4 6 8 7 9 8 10 9 12 11 2 13 1 14
REMARK H PARENT 10 10 12 12
ROOT
ATOM      1  C   UNL     1       6.084   1.648  -1.985  1.00  0.00     0.105 A 
ATOM      2  C   UNL     1       7.378   1.962  -1.671  1.00  0.00     0.172 A 
ATOM      3  C   UNL     1       5.359   2.560  -2.889  1.00  0.00     0.020 A 
ATOM      4  C   UNL     1       6.094   3.426  -3.633  1.00  0.00     0.005 A 
ATOM      5  C   UNL     1       8.232   2.694  -2.595  1.00  0.00     0.161 A 
ATOM      6  C   UNL     1       7.512   3.538  -3.531  1.00  0.00     0.050 A 
ENDROOT
BRANCH   1   7
ATOM      7  C   UNL     1       5.438   0.338  -1.502  1.00  0.00     0.339 C 
ATOM      8  O   UNL     1       5.884   0.118   0.049  1.00  0.00    -0.246 OA
BRANCH   7   9
ATOM      9  O   UNL     1       4.741  -0.378  -1.835  1.00  0.00    -0.478 OA
ATOM     10  H   UNL     1       4.086  -1.052  -2.147  1.00  0.00     0.297 HD
ENDBRANCH   7   9
ENDBRANCH   1   7
BRANCH   2  11
ATOM     11  O   UNL     1       7.949   1.571  -0.448  1.00  0.00    -0.504 OA
ATOM     12  H   UNL     1       8.351   1.296   0.414  1.00  0.00     0.293 HD
ENDBRANCH   2  11
BRANCH   5  13
ATOM     13  O   UNL     1       9.573   2.776  -2.244  1.00  0.00    -0.493 OA
ATOM     14  C   UNL     1      10.858   2.784  -2.380  1.00  0.00     0.278 C 
ENDBRANCH   5  13
TORSDOF 4
ENDMDL
MODEL 7
REMARK VINA RESULT:    -3.817      2.170      3.076
REMARK INTER + INTRA:          -4.916
REMARK INTER:                  -4.649
REMARK INTRA:                  -0.267
REMARK UNBOUND:                -0.429
REMARK SMILES COc1cccc(C(=O)O)c1O
REMARK SMILES IDX 7 1 11 2 6 3 5 4 3 5 4 6 8 7 9 8 10 9 12 11 2 13 1 14
REMARK H PARENT 10 10 12 12
ROOT
ATOM      1  C   UNL     1       6.545   3.360  -4.618  1.00  0.00     0.105 A 
ATOM      2  C   UNL     1       6.480   2.174  -3.939  1.00  0.00     0.172 A 
ATOM      3  C   UNL     1       5.495   4.360  -4.351  1.00  0.00     0.020 A 
ATOM      4  C   UNL     1       4.761   4.216  -3.218  1.00  0.00     0.005 A 
ATOM      5  C   UNL     1       5.894   2.088  -2.608  1.00  0.00     0.161 A 
ATOM      6  C   UNL     1       4.912   3.117  -2.322  1.00  0.00     0.050 A 
ENDROOT
BRANCH   1   7
ATOM      7  C   UNL     1       7.727   3.685  -5.548  1.00  0.00     0.339 C 
ATOM      8  O   UNL     1       9.094   3.296  -4.753  1.00  0.00    -0.246 OA
BRANCH   7   9
ATOM      9  O   UNL     1       7.901   3.979  -6.544  1.00  0.00    -0.478 OA
ATOM     10  H   UNL     1       8.064   4.256  -7.481  1.00  0.00     0.297 HD
ENDBRANCH   7   9
ENDBRANCH   1   7
BRANCH   2  11
ATOM     11  O   UNL     1       6.996   0.987  -4.486  1.00  0.00    -0.504 OA
ATOM     12  H   UNL     1       7.359   0.151  -4.873  1.00  0.00     0.293 HD
ENDBRANCH   2  11
BRANCH   5  13
ATOM     13  O   UNL     1       6.066   0.878  -1.948  1.00  0.00    -0.493 OA
ATOM     14  C   UNL     1       6.189   0.043  -0.969  1.00  0.00     0.278 C 
ENDBRANCH   5  13
TORSDOF 4
ENDMDL
MODEL 8
REMARK VINA RESULT:    -3.772      2.306      4.617
REMARK INTER + INTRA:          -4.862
REMARK INTER:                  -4.657
REMARK INTRA:                  -0.205
REMARK UNBOUND:                -0.429
REMARK SMILES COc1cccc(C(=O)O)c1O
REMARK SMILES IDX 7 1 11 2 6 3 5 4 3 5 4 6 8 7 9 8 10 9 12 11 2 13 1 14
REMARK H PARENT 10 10 12 12
ROOT
ATOM      1  C   UNL     1       7.233   1.886  -0.903  1.00  0.00     0.105 A 
ATOM      2  C   UNL     1       6.585   2.943  -1.482  1.00  0.00     0.172 A 
ATOM      3  C   UNL     1       6.540   0.585  -0.886  1.00  0.00     0.020 A 
ATOM      4  C   UNL     1       5.498   0.414  -1.741  1.00  0.00     0.005 A 
ATOM      5  C   UNL     1       5.638   2.754  -2.571  1.00  0.00     0.161 A 
ATOM      6  C   UNL     1       5.009   1.447  -2.594  1.00  0.00     0.050 A 
ENDROOT
BRANCH   1   7
ATOM      7  C   UNL     1       8.675   2.019  -0.383  1.00  0.00     0.339 C 
ATOM      8  O   UNL     1       9.588   2.569  -1.614  1.00  0.00    -0.246 OA
BRANCH   7   9
ATOM      9  O   UNL     1       9.205   1.956   0.525  1.00  0.00    -0.478 OA
ATOM     10  H   UNL     1       9.702   1.896   1.379  1.00  0.00     0.297 HD
ENDBRANCH   7   9
ENDBRANCH   1   7
BRANCH   2  11
ATOM     11  O   UNL     1       6.822   4.264  -1.063  1.00  0.00    -0.504 OA
ATOM     12  H   UNL     1       6.988   5.194  -0.769  1.00  0.00     0.293 HD
ENDBRANCH   2  11
BRANCH   5  13
ATOM     13  O   UNL     1       5.201   3.913  -3.201  1.00  0.00    -0.493 OA
ATOM     14  C   UNL     1       5.066   4.809  -4.122  1.00  0.00     0.278 C 
ENDBRANCH   5  13
TORSDOF 4
ENDMDL
MODEL 9
REMARK VINA RESULT:    -2.843      7.943      9.472
REMARK INTER + INTRA:          -3.770
REMARK INTER:                  -3.285
REMARK INTRA:                  -0.485
REMARK UNBOUND:                -0.429
REMARK SMILES COc1cccc(C(=O)O)c1O
REMARK SMILES IDX 7 1 11 2 6 3 5 4 3 5 4 6 8 7 9 8 10 9 12 11 2 13 1 14
REMARK H PARENT 10 10 12 12
ROOT
ATOM      1  C   UNL     1      13.965   0.959  -4.444  1.00  0.00     0.105 A 
ATOM      2  C   UNL     1      14.506   2.143  -4.024  1.00  0.00     0.172 A 
ATOM      3  C   UNL     1      12.587   0.649  -4.022  1.00  0.00     0.020 A 
ATOM      4  C   UNL     1      11.819   1.675  -3.572  1.00  0.00     0.005 A 
ATOM      5  C   UNL     1      13.678   3.314  -3.773  1.00  0.00     0.161 A 
ATOM      6  C   UNL     1      12.303   3.008  -3.427  1.00  0.00     0.050 A 
ENDROOT
BRANCH   1   7
ATOM      7  C   UNL     1      14.723   0.030  -5.408  1.00  0.00     0.339 C 
ATOM      8  O   UNL     1      15.970   0.879  -6.023  1.00  0.00    -0.246 OA
BRANCH   7   9
ATOM      9  O   UNL     1      14.731  -0.982  -5.701  1.00  0.00    -0.478 OA
ATOM     10  H   UNL     1      14.739  -1.933  -5.975  1.00  0.00     0.297 HD
ENDBRANCH   7   9
ENDBRANCH   1   7
BRANCH   2  11
ATOM     11  O   UNL     1      15.891   2.289  -3.837  1.00  0.00    -0.504 OA
ATOM     12  H   UNL     1      16.867   2.391  -3.705  1.00  0.00     0.293 HD
ENDBRANCH   2  11
BRANCH   5  13
ATOM     13  O   UNL     1      14.363   4.501  -3.545  1.00  0.00    -0.493 OA
ATOM     14  C   UNL     1      14.761   5.718  -3.720  1.00  0.00     0.278 C 
ENDBRANCH   5  13
TORSDOF 4
ENDMDL
