MODEL 1
REMARK VINA RESULT:    -4.806      0.000      0.000
REMARK INTER + INTRA:          -6.132
REMARK INTER:                  -5.649
REMARK INTRA:                  -0.483
REMARK UNBOUND:                -0.483
REMARK SMILES COc1cccc(C(=O)O)c1O
REMARK SMILES IDX 7 1 11 2 6 3 5 4 3 5 4 6 8 7 9 8 10 9 12 11 2 13 1 14
REMARK H PARENT 10 10 12 12
ROOT
ATOM      1  C   UNL     1       1.719  -5.521  -2.730  1.00  0.00     0.105 A 
ATOM      2  C   UNL     1       2.652  -4.526  -2.836  1.00  0.00     0.172 A 
ATOM      3  C   UNL     1       2.208  -6.902  -2.569  1.00  0.00     0.020 A 
ATOM      4  C   UNL     1       3.496  -7.073  -2.172  1.00  0.00     0.005 A 
ATOM      5  C   UNL     1       3.955  -4.629  -2.195  1.00  0.00     0.161 A 
ATOM      6  C   UNL     1       4.403  -5.992  -1.973  1.00  0.00     0.050 A 
ENDROOT
BRANCH   1   7
ATOM      7  C   UNL     1       0.214  -5.205  -2.674  1.00  0.00     0.339 C 
ATOM      8  O   UNL     1       0.062  -3.626  -2.304  1.00  0.00    -0.246 OA
BRANCH   7   9
ATOM      9  O   UNL     1      -0.707  -5.666  -2.893  1.00  0.00    -0.478 OA
ATOM     10  H   UNL     1      -1.573  -6.100  -3.098  1.00  0.00     0.297 HD
ENDBRANCH   7   9
ENDBRANCH   1   7
BRANCH   2  11
ATOM     11  O   UNL     1       2.385  -3.347  -3.553  1.00  0.00    -0.504 OA
ATOM     12  H   UNL     1       2.197  -2.516  -4.057  1.00  0.00     0.293 HD
ENDBRANCH   2  11
BRANCH   5  13
ATOM     13  O   UNL     1       4.731  -3.477  -2.212  1.00  0.00    -0.493 OA
ATOM     14  C   UNL     1       5.702  -2.680  -2.514  1.00  0.00     0.278 C 
ENDBRANCH   5  13
TORSDOF 4
ENDMDL
MODEL 2
REMARK VINA RESULT:    -4.749      2.856      4.351
REMARK INTER + INTRA:          -6.065
REMARK INTER:                  -5.794
REMARK INTRA:                  -0.271
REMARK UNBOUND:                -0.483
REMARK SMILES COc1cccc(C(=O)O)c1O
REMARK SMILES IDX 7 1 11 2 6 3 5 4 3 5 4 6 8 7 9 8 10 9 12 11 2 13 1 14
REMARK H PARENT 10 10 12 12
ROOT
ATOM      1  C   UNL     1       4.407  -3.759  -3.036  1.00  0.00     0.105 A 
ATOM      2  C   UNL     1       4.633  -4.376  -4.235  1.00  0.00     0.172 A 
ATOM      3  C   UNL     1       3.257  -4.220  -2.236  1.00  0.00     0.020 A 
ATOM      4  C   UNL     1       2.726  -5.434  -2.536  1.00  0.00     0.005 A 
ATOM      5  C   UNL     1       4.266  -5.767  -4.459  1.00  0.00     0.161 A 
ATOM      6  C   UNL     1       3.181  -6.240  -3.620  1.00  0.00     0.050 A 
ENDROOT
BRANCH   1   7
ATOM      7  C   UNL     1       5.374  -2.695  -2.488  1.00  0.00     0.339 C 
ATOM      8  O   UNL     1       5.093  -2.560  -0.889  1.00  0.00    -0.246 OA
BRANCH   7   9
ATOM      9  O   UNL     1       6.198  -2.124  -2.810  1.00  0.00    -0.478 OA
ATOM     10  H   UNL     1       6.972  -1.587  -3.113  1.00  0.00     0.297 HD
ENDBRANCH   7   9
ENDBRANCH   1   7
BRANCH   2  11
ATOM     11  O   UNL     1       5.252  -3.700  -5.300  1.00  0.00    -0.504 OA
ATOM     12  H   UNL     1       5.688  -3.224  -6.051  1.00  0.00     0.293 HD
ENDBRANCH   2  11
BRANCH   5  13
ATOM     13  O   UNL     1       4.726  -6.332  -5.643  1.00  0.00    -0.493 OA
ATOM     14  C   UNL     1       5.359  -7.138  -6.430  1.00  0.00     0.278 C 
ENDBRANCH   5  13
TORSDOF 4
ENDMDL
MODEL 3
REMARK VINA RESULT:    -4.679      2.193      3.184
REMARK INTER + INTRA:          -5.982
REMARK INTER:                  -5.712
REMARK INTRA:                  -0.271
REMARK UNBOUND:                -0.483
REMARK SMILES COc1cccc(C(=O)O)c1O
REMARK SMILES IDX 7 1 11 2 6 3 5 4 3 5 4 6 8 7 9 8 10 9 12 11 2 13 1 14
REMARK H PARENT 10 10 12 12
ROOT
ATOM      1  C   UNL     1       1.868  -5.251  -2.666  1.00  0.00     0.105 A 
ATOM      2  C   UNL     1       2.506  -6.379  -3.104  1.00  0.00     0.172 A 
ATOM      3  C   UNL     1       2.652  -4.004  -2.601  1.00  0.00     0.020 A 
ATOM      4  C   UNL     1       3.813  -3.951  -3.305  1.00  0.00     0.005 A 
ATOM      5  C   UNL     1       3.607  -6.314  -4.054  1.00  0.00     0.161 A 
ATOM      6  C   UNL     1       4.334  -5.058  -4.038  1.00  0.00     0.050 A 
ENDROOT
BRANCH   1   7
ATOM      7  C   UNL     1       0.362  -5.254  -2.352  1.00  0.00     0.339 C 
ATOM      8  O   UNL     1      -0.136  -3.703  -2.343  1.00  0.00    -0.246 OA
BRANCH   7   9
ATOM      9  O   UNL     1      -0.430  -5.940  -2.245  1.00  0.00    -0.478 OA
ATOM     10  H   UNL     1      -1.174  -6.585  -2.143  1.00  0.00     0.297 HD
ENDBRANCH   7   9
ENDBRANCH   1   7
BRANCH   2  11
ATOM     11  O   UNL     1       2.111  -7.657  -2.673  1.00  0.00    -0.504 OA
ATOM     12  H   UNL     1       1.832  -8.557  -2.369  1.00  0.00     0.293 HD
ENDBRANCH   2  11
BRANCH   5  13
ATOM     13  O   UNL     1       4.036  -7.531  -4.568  1.00  0.00    -0.493 OA
ATOM     14  C   UNL     1       4.247  -8.470  -5.431  1.00  0.00     0.278 C 
ENDBRANCH   5  13
TORSDOF 4
ENDMDL
MODEL 4
REMARK VINA RESULT:    -3.970      1.704      1.704
REMARK INTER + INTRA:          -5.149
REMARK INTER:                  -4.666
REMARK INTRA:                  -0.483
REMARK UNBOUND:                -0.483
REMARK SMILES COc1cccc(C(=O)O)c1O
REMARK SMILES IDX 7 1 11 2 6 3 5 4 3 5 4 6 8 7 9 8 10 9 12 11 2 13 1 14
REMARK H PARENT 10 10 12 12
ROOT
ATOM      1  C   UNL     1       1.634  -5.814  -3.070  1.00  0.00     0.105 A 
ATOM      2  C   UNL     1       2.307  -5.029  -3.965  1.00  0.00     0.172 A 
ATOM      3  C   UNL     1       2.159  -7.168  -2.819  1.00  0.00     0.020 A 
ATOM      4  C   UNL     1       3.441  -7.427  -3.185  1.00  0.00     0.005 A 
ATOM      5  C   UNL     1       3.742  -5.164  -4.171  1.00  0.00     0.161 A 
ATOM      6  C   UNL     1       4.268  -6.479  -3.855  1.00  0.00     0.050 A 
ENDROOT
BRANCH   1   7
ATOM      7  C   UNL     1       0.435  -5.271  -2.272  1.00  0.00     0.339 C 
ATOM      8  O   UNL     1       0.427  -3.651  -2.447  1.00  0.00    -0.246 OA
BRANCH   7   9
ATOM      9  O   UNL     1      -0.405  -5.631  -1.750  1.00  0.00    -0.478 OA
ATOM     10  H   UNL     1      -1.194  -5.971  -1.258  1.00  0.00     0.297 HD
ENDBRANCH   7   9
ENDBRANCH   1   7
BRANCH   2  11
ATOM     11  O   UNL     1       1.646  -4.040  -4.713  1.00  0.00    -0.504 OA
ATOM     12  H   UNL     1       1.180  -3.342  -5.240  1.00  0.00     0.293 HD
ENDBRANCH   2  11
BRANCH   5  13
ATOM     13  O   UNL     1       4.336  -4.183  -4.955  1.00  0.00    -0.493 OA
ATOM     14  C   UNL     1       5.210  -3.609  -5.715  1.00  0.00     0.278 C 
ENDBRANCH   5  13
TORSDOF 4
ENDMDL
MODEL 5
REMARK VINA RESULT:    -3.858      2.176      3.088
REMARK INTER + INTRA:          -5.018
REMARK INTER:                  -4.734
REMARK INTRA:                  -0.284
REMARK UNBOUND:                -0.483
REMARK SMILES COc1cccc(C(=O)O)c1O
REMARK SMILES IDX 7 1 11 2 6 3 5 4 3 5 4 6 8 7 9 8 10 9 12 11 2 13 1 14
REMARK H PARENT 10 10 12 12
ROOT
ATOM      1  C   UNL     1       2.281  -6.515  -2.540  1.00  0.00     0.105 A 
ATOM      2  C   UNL     1       3.384  -5.753  -2.266  1.00  0.00     0.172 A 
ATOM      3  C   UNL     1       0.966  -5.849  -2.509  1.00  0.00     0.020 A 
ATOM      4  C   UNL     1       0.943  -4.493  -2.578  1.00  0.00     0.005 A 
ATOM      5  C   UNL     1       3.425  -4.330  -2.571  1.00  0.00     0.161 A 
ATOM      6  C   UNL     1       2.122  -3.692  -2.610  1.00  0.00     0.050 A 
ENDROOT
BRANCH   1   7
ATOM      7  C   UNL     1       2.411  -7.986  -2.969  1.00  0.00     0.339 C 
ATOM      8  O   UNL     1       3.593  -8.065  -4.088  1.00  0.00    -0.246 OA
BRANCH   7   9
ATOM      9  O   UNL     1       2.044  -8.934  -2.692  1.00  0.00    -0.478 OA
ATOM     10  H   UNL     1       1.699  -9.824  -2.431  1.00  0.00     0.297 HD
ENDBRANCH   7   9
ENDBRANCH   1   7
BRANCH   2  11
ATOM     11  O   UNL     1       4.538  -6.317  -1.695  1.00  0.00    -0.504 OA
ATOM     12  H   UNL     1       5.351  -6.713  -1.292  1.00  0.00     0.293 HD
ENDBRANCH   2  11
BRANCH   5  13
ATOM     13  O   UNL     1       4.662  -3.716  -2.429  1.00  0.00    -0.493 OA
ATOM     14  C   UNL     1       5.587  -2.821  -2.550  1.00  0.00     0.278 C 
ENDBRANCH   5  13
TORSDOF 4
ENDMDL
MODEL 6
REMARK VINA RESULT:    -3.839      2.327      4.571
REMARK INTER + INTRA:          -4.996
REMARK INTER:                  -4.740
REMARK INTRA:                  -0.256
REMARK UNBOUND:                -0.483
REMARK SMILES COc1cccc(C(=O)O)c1O
REMARK SMILES IDX 7 1 11 2 6 3 5 4 3 5 4 6 8 7 9 8 10 9 12 11 2 13 1 14
REMARK H PARENT 10 10 12 12
ROOT
ATOM      1  C   UNL     1       4.528  -3.747  -4.291  1.00  0.00     0.105 A 
ATOM      2  C   UNL     1       3.198  -4.002  -4.096  1.00  0.00     0.172 A 
ATOM      3  C   UNL     1       5.274  -3.121  -3.184  1.00  0.00     0.020 A 
ATOM      4  C   UNL     1       4.722  -3.170  -1.944  1.00  0.00     0.005 A 
ATOM      5  C   UNL     1       2.662  -4.289  -2.773  1.00  0.00     0.161 A 
ATOM      6  C   UNL     1       3.438  -3.732  -1.681  1.00  0.00     0.050 A 
ENDROOT
BRANCH   1   7
ATOM      7  C   UNL     1       5.247  -4.193  -5.576  1.00  0.00     0.339 C 
ATOM      8  O   UNL     1       4.832  -5.743  -5.854  1.00  0.00    -0.246 OA
BRANCH   7   9
ATOM      9  O   UNL     1       5.826  -3.777  -6.351  1.00  0.00    -0.478 OA
ATOM     10  H   UNL     1       6.371  -3.386  -7.080  1.00  0.00     0.297 HD
ENDBRANCH   7   9
ENDBRANCH   1   7
BRANCH   2  11
ATOM     11  O   UNL     1       2.291  -4.018  -5.169  1.00  0.00    -0.504 OA
ATOM     12  H   UNL     1       1.651  -4.030  -5.925  1.00  0.00     0.293 HD
ENDBRANCH   2  11
BRANCH   5  13
ATOM     13  O   UNL     1       1.343  -4.723  -2.735  1.00  0.00    -0.493 OA
ATOM     14  C   UNL     1       0.332  -5.497  -2.511  1.00  0.00     0.278 C 
ENDBRANCH   5  13
TORSDOF 4
ENDMDL
MODEL 7
REMARK VINA RESULT:    -3.550      2.252      4.409
REMARK INTER + INTRA:          -4.656
REMARK INTER:                  -4.422
REMARK INTRA:                  -0.233
REMARK UNBOUND:                -0.483
REMARK SMILES COc1cccc(C(=O)O)c1O
REMARK SMILES IDX 7 1 11 2 6 3 5 4 3 5 4 6 8 7 9 8 10 9 12 11 2 13 1 14
REMARK H PARENT 10 10 12 12
ROOT
ATOM      1  C   UNL     1       3.565  -4.400  -2.746  1.00  0.00     0.105 A 
ATOM      2  C   UNL     1       3.548  -5.737  -3.032  1.00  0.00     0.172 A 
ATOM      3  C   UNL     1       2.269  -3.699  -2.680  1.00  0.00     0.020 A 
ATOM      4  C   UNL     1       1.149  -4.455  -2.539  1.00  0.00     0.005 A 
ATOM      5  C   UNL     1       2.426  -6.585  -2.654  1.00  0.00     0.161 A 
ATOM      6  C   UNL     1       1.165  -5.880  -2.521  1.00  0.00     0.050 A 
ENDROOT
BRANCH   1   7
ATOM      7  C   UNL     1       4.875  -3.671  -2.400  1.00  0.00     0.339 C 
ATOM      8  O   UNL     1       4.605  -2.797  -1.052  1.00  0.00    -0.246 OA
BRANCH   7   9
ATOM      9  O   UNL     1       5.881  -3.649  -2.709  1.00  0.00    -0.478 OA
ATOM     10  H   UNL     1       6.828  -3.629  -2.999  1.00  0.00     0.297 HD
ENDBRANCH   7   9
ENDBRANCH   1   7
BRANCH   2  11
ATOM     11  O   UNL     1       4.626  -6.359  -3.685  1.00  0.00    -0.504 OA
ATOM     12  H   UNL     1       5.386  -6.797  -4.145  1.00  0.00     0.293 HD
ENDBRANCH   2  11
BRANCH   5  13
ATOM     13  O   UNL     1       2.617  -7.951  -2.822  1.00  0.00    -0.493 OA
ATOM     14  C   UNL     1       2.462  -9.142  -3.300  1.00  0.00     0.278 C 
ENDBRANCH   5  13
TORSDOF 4
ENDMDL
MODEL 8
REMARK VINA RESULT:    -3.031      2.854      3.638
REMARK INTER + INTRA:          -4.046
REMARK INTER:                  -3.564
REMARK INTRA:                  -0.482
REMARK UNBOUND:                -0.483
REMARK SMILES COc1cccc(C(=O)O)c1O
REMARK SMILES IDX 7 1 11 2 6 3 5 4 3 5 4 6 8 7 9 8 10 9 12 11 2 13 1 14
REMARK H PARENT 10 10 12 12
ROOT
ATOM      1  C   UNL     1       2.438  -7.158  -3.135  1.00  0.00     0.105 A 
ATOM      2  C   UNL     1       3.411  -6.435  -3.769  1.00  0.00     0.172 A 
ATOM      3  C   UNL     1       1.384  -6.409  -2.426  1.00  0.00     0.020 A 
ATOM      4  C   UNL     1       1.222  -5.098  -2.738  1.00  0.00     0.005 A 
ATOM      5  C   UNL     1       3.147  -5.111  -4.313  1.00  0.00     0.161 A 
ATOM      6  C   UNL     1       2.061  -4.404  -3.659  1.00  0.00     0.050 A 
ENDROOT
BRANCH   1   7
ATOM      7  C   UNL     1       2.381  -8.691  -3.243  1.00  0.00     0.339 C 
ATOM      8  O   UNL     1       3.387  -9.132  -4.446  1.00  0.00    -0.246 OA
BRANCH   7   9
ATOM      9  O   UNL     1       1.976  -9.513  -2.724  1.00  0.00    -0.478 OA
ATOM     10  H   UNL     1       1.595 -10.286  -2.236  1.00  0.00     0.297 HD
ENDBRANCH   7   9
ENDBRANCH   1   7
BRANCH   2  11
ATOM     11  O   UNL     1       4.707  -6.949  -3.944  1.00  0.00    -0.504 OA
ATOM     12  H   UNL     1       5.620  -7.312  -4.067  1.00  0.00     0.293 HD
ENDBRANCH   2  11
BRANCH   5  13
ATOM     13  O   UNL     1       4.153  -4.568  -5.102  1.00  0.00    -0.493 OA
ATOM     14  C   UNL     1       5.124  -3.792  -5.455  1.00  0.00     0.278 C 
ENDBRANCH   5  13
TORSDOF 4
ENDMDL
MODEL 9
REMARK VINA RESULT:    -3.001      1.375      4.137
REMARK INTER + INTRA:          -4.011
REMARK INTER:                  -3.984
REMARK INTRA:                  -0.027
REMARK UNBOUND:                -0.483
REMARK SMILES COc1cccc(C(=O)O)c1O
REMARK SMILES IDX 7 1 11 2 6 3 5 4 3 5 4 6 8 7 9 8 10 9 12 11 2 13 1 14
REMARK H PARENT 10 10 12 12
ROOT
ATOM      1  C   UNL     1       4.160  -4.206  -2.206  1.00  0.00     0.105 A 
ATOM      2  C   UNL     1       2.887  -3.760  -1.982  1.00  0.00     0.172 A 
ATOM      3  C   UNL     1       4.360  -5.661  -2.341  1.00  0.00     0.020 A 
ATOM      4  C   UNL     1       3.270  -6.427  -2.602  1.00  0.00     0.005 A 
ATOM      5  C   UNL     1       1.725  -4.482  -2.482  1.00  0.00     0.161 A 
ATOM      6  C   UNL     1       1.946  -5.902  -2.682  1.00  0.00     0.050 A 
ENDROOT
BRANCH   1   7
ATOM      7  C   UNL     1       5.326  -3.226  -2.417  1.00  0.00     0.339 C 
ATOM      8  O   UNL     1       5.394  -2.884  -4.008  1.00  0.00    -0.246 OA
BRANCH   7   9
ATOM      9  O   UNL     1       6.003  -2.657  -1.845  1.00  0.00    -0.478 OA
ATOM     10  H   UNL     1       6.640  -2.121  -1.308  1.00  0.00     0.297 HD
ENDBRANCH   7   9
ENDBRANCH   1   7
BRANCH   2  11
ATOM     11  O   UNL     1       2.642  -2.570  -1.275  1.00  0.00    -0.504 OA
ATOM     12  H   UNL     1       2.470  -1.732  -0.777  1.00  0.00     0.293 HD
ENDBRANCH   2  11
BRANCH   5  13
ATOM     13  O   UNL     1       0.506  -3.826  -2.360  1.00  0.00    -0.493 OA
ATOM     14  C   UNL     1      -0.337  -2.850  -2.281  1.00  0.00     0.278 C 
ENDBRANCH   5  13
TORSDOF 4
ENDMDL
