MODEL 1
REMARK VINA RESULT:    -4.945      0.000      0.000
REMARK INTER + INTRA:          -6.082
REMARK INTER:                  -5.812
REMARK INTRA:                  -0.270
REMARK UNBOUND:                -0.270
REMARK SMILES COc1cccc(C(=O)O)c1O
REMARK SMILES IDX 7 1 11 2 6 3 5 4 3 5 4 6 8 7 9 8 10 9 12 11 2 13 1 14
REMARK H PARENT 10 10 12 12
ROOT
ATOM      1  C   UNL     1       6.347  -5.340  -3.249  1.00  0.00     0.105 A 
ATOM      2  C   UNL     1       7.121  -6.385  -2.824  1.00  0.00     0.172 A 
ATOM      3  C   UNL     1       6.542  -4.035  -2.592  1.00  0.00     0.020 A 
ATOM      4  C   UNL     1       7.690  -3.846  -1.891  1.00  0.00     0.005 A 
ATOM      5  C   UNL     1       8.459  -6.177  -2.289  1.00  0.00     0.161 A 
ATOM      6  C   UNL     1       8.670  -4.864  -1.707  1.00  0.00     0.050 A 
ENDROOT
BRANCH   1   7
ATOM      7  C   UNL     1       5.383  -5.490  -4.438  1.00  0.00     0.339 C 
ATOM      8  O   UNL     1       5.063  -3.994  -4.997  1.00  0.00    -0.246 OA
BRANCH   7   9
ATOM      9  O   UNL     1       4.964  -6.250  -5.035  1.00  0.00    -0.478 OA
ATOM     10  H   UNL     1       4.570  -6.964  -5.597  1.00  0.00     0.297 HD
ENDBRANCH   7   9
ENDBRANCH   1   7
BRANCH   2  11
ATOM     11  O   UNL     1       6.666  -7.713  -2.905  1.00  0.00    -0.504 OA
ATOM     12  H   UNL     1       6.345  -8.648  -2.962  1.00  0.00     0.293 HD
ENDBRANCH   2  11
BRANCH   5  13
ATOM     13  O   UNL     1       9.213  -7.325  -2.080  1.00  0.00    -0.493 OA
ATOM     14  C   UNL     1      10.227  -8.124  -2.109  1.00  0.00     0.278 C 
ENDBRANCH   5  13
TORSDOF 4
ENDMDL
MODEL 2
REMARK VINA RESULT:    -4.938      3.021      4.025
REMARK INTER + INTRA:          -6.074
REMARK INTER:                  -5.805
REMARK INTRA:                  -0.269
REMARK UNBOUND:                -0.270
REMARK SMILES COc1cccc(C(=O)O)c1O
REMARK SMILES IDX 7 1 11 2 6 3 5 4 3 5 4 6 8 7 9 8 10 9 12 11 2 13 1 14
REMARK H PARENT 10 10 12 12
ROOT
ATOM      1  C   UNL     1       7.466  -3.596  -1.010  1.00  0.00     0.105 A 
ATOM      2  C   UNL     1       8.740  -4.021  -1.271  1.00  0.00     0.172 A 
ATOM      3  C   UNL     1       6.366  -4.236  -1.753  1.00  0.00     0.020 A 
ATOM      4  C   UNL     1       6.621  -5.425  -2.357  1.00  0.00     0.005 A 
ATOM      5  C   UNL     1       9.017  -5.386  -1.694  1.00  0.00     0.161 A 
ATOM      6  C   UNL     1       7.908  -6.039  -2.363  1.00  0.00     0.050 A 
ENDROOT
BRANCH   1   7
ATOM      7  C   UNL     1       7.178  -2.563   0.094  1.00  0.00     0.339 C 
ATOM      8  O   UNL     1       5.605  -2.705   0.495  1.00  0.00    -0.246 OA
BRANCH   7   9
ATOM      9  O   UNL     1       7.699  -1.887   0.710  1.00  0.00    -0.478 OA
ATOM     10  H   UNL     1       8.190  -1.251   1.290  1.00  0.00     0.297 HD
ENDBRANCH   7   9
ENDBRANCH   1   7
BRANCH   2  11
ATOM     11  O   UNL     1       9.843  -3.163  -1.121  1.00  0.00    -0.504 OA
ATOM     12  H   UNL     1      10.620  -2.558  -1.015  1.00  0.00     0.293 HD
ENDBRANCH   2  11
BRANCH   5  13
ATOM     13  O   UNL     1      10.358  -5.746  -1.735  1.00  0.00    -0.493 OA
ATOM     14  C   UNL     1      11.411  -6.491  -1.654  1.00  0.00     0.278 C 
ENDBRANCH   5  13
TORSDOF 4
ENDMDL
MODEL 3
REMARK VINA RESULT:    -4.868      2.920      4.318
REMARK INTER + INTRA:          -5.992
REMARK INTER:                  -5.508
REMARK INTRA:                  -0.484
REMARK UNBOUND:                -0.270
REMARK SMILES COc1cccc(C(=O)O)c1O
REMARK SMILES IDX 7 1 11 2 6 3 5 4 3 5 4 6 8 7 9 8 10 9 12 11 2 13 1 14
REMARK H PARENT 10 10 12 12
ROOT
ATOM      1  C   UNL     1       7.703  -3.515  -0.842  1.00  0.00     0.105 A 
ATOM      2  C   UNL     1       6.934  -4.363  -1.590  1.00  0.00     0.172 A 
ATOM      3  C   UNL     1       9.104  -3.318  -1.257  1.00  0.00     0.020 A 
ATOM      4  C   UNL     1       9.444  -3.674  -2.522  1.00  0.00     0.005 A 
ATOM      5  C   UNL     1       7.169  -4.551  -3.015  1.00  0.00     0.161 A 
ATOM      6  C   UNL     1       8.533  -4.287  -3.433  1.00  0.00     0.050 A 
ENDROOT
BRANCH   1   7
ATOM      7  C   UNL     1       7.106  -2.713   0.327  1.00  0.00     0.339 C 
ATOM      8  O   UNL     1       5.484  -2.811   0.206  1.00  0.00    -0.246 OA
BRANCH   7   9
ATOM      9  O   UNL     1       7.423  -2.223   1.204  1.00  0.00    -0.478 OA
ATOM     10  H   UNL     1       7.722  -1.762   2.027  1.00  0.00     0.297 HD
ENDBRANCH   7   9
ENDBRANCH   1   7
BRANCH   2  11
ATOM     11  O   UNL     1       5.864  -5.075  -1.021  1.00  0.00    -0.504 OA
ATOM     12  H   UNL     1       5.111  -5.577  -0.620  1.00  0.00     0.293 HD
ENDBRANCH   2  11
BRANCH   5  13
ATOM     13  O   UNL     1       6.203  -5.279  -3.697  1.00  0.00    -0.493 OA
ATOM     14  C   UNL     1       5.367  -5.599  -4.630  1.00  0.00     0.278 C 
ENDBRANCH   5  13
TORSDOF 4
ENDMDL
MODEL 4
REMARK VINA RESULT:    -4.859      2.233      3.215
REMARK INTER + INTRA:          -5.981
REMARK INTER:                  -5.621
REMARK INTRA:                  -0.360
REMARK UNBOUND:                -0.270
REMARK SMILES COc1cccc(C(=O)O)c1O
REMARK SMILES IDX 7 1 11 2 6 3 5 4 3 5 4 6 8 7 9 8 10 9 12 11 2 13 1 14
REMARK H PARENT 10 10 12 12
ROOT
ATOM      1  C   UNL     1       6.255  -5.621  -3.411  1.00  0.00     0.105 A 
ATOM      2  C   UNL     1       6.567  -4.576  -2.585  1.00  0.00     0.172 A 
ATOM      3  C   UNL     1       6.625  -6.977  -2.967  1.00  0.00     0.020 A 
ATOM      4  C   UNL     1       6.904  -7.156  -1.650  1.00  0.00     0.005 A 
ATOM      5  C   UNL     1       6.628  -4.738  -1.140  1.00  0.00     0.161 A 
ATOM      6  C   UNL     1       6.922  -6.090  -0.703  1.00  0.00     0.050 A 
ENDROOT
BRANCH   1   7
ATOM      7  C   UNL     1       5.455  -5.406  -4.707  1.00  0.00     0.339 C 
ATOM      8  O   UNL     1       5.058  -3.827  -4.778  1.00  0.00    -0.246 OA
BRANCH   7   9
ATOM      9  O   UNL     1       5.184  -5.936  -5.575  1.00  0.00    -0.478 OA
ATOM     10  H   UNL     1       4.930  -6.436  -6.392  1.00  0.00     0.297 HD
ENDBRANCH   7   9
ENDBRANCH   1   7
BRANCH   2  11
ATOM     11  O   UNL     1       6.821  -3.291  -3.095  1.00  0.00    -0.504 OA
ATOM     12  H   UNL     1       7.000  -2.386  -3.454  1.00  0.00     0.293 HD
ENDBRANCH   2  11
BRANCH   5  13
ATOM     13  O   UNL     1       6.758  -3.566  -0.404  1.00  0.00    -0.493 OA
ATOM     14  C   UNL     1       7.321  -2.629   0.285  1.00  0.00     0.278 C 
ENDBRANCH   5  13
TORSDOF 4
ENDMDL
MODEL 5
REMARK VINA RESULT:    -4.310      0.904      1.308
REMARK INTER + INTRA:          -5.335
REMARK INTER:                  -4.872
REMARK INTRA:                  -0.463
REMARK UNBOUND:                -0.270
REMARK SMILES COc1cccc(C(=O)O)c1O
REMARK SMILES IDX 7 1 11 2 6 3 5 4 3 5 4 6 8 7 9 8 10 9 12 11 2 13 1 14
REMARK H PARENT 10 10 12 12
ROOT
ATOM      1  C   UNL     1       6.126  -4.734  -2.874  1.00  0.00     0.105 A 
ATOM      2  C   UNL     1       7.024  -5.702  -2.517  1.00  0.00     0.172 A 
ATOM      3  C   UNL     1       5.906  -3.623  -1.930  1.00  0.00     0.020 A 
ATOM      4  C   UNL     1       6.839  -3.422  -0.964  1.00  0.00     0.005 A 
ATOM      5  C   UNL     1       8.165  -5.407  -1.662  1.00  0.00     0.161 A 
ATOM      6  C   UNL     1       7.972  -4.268  -0.783  1.00  0.00     0.050 A 
ENDROOT
BRANCH   1   7
ATOM      7  C   UNL     1       5.448  -4.743  -4.255  1.00  0.00     0.339 C 
ATOM      8  O   UNL     1       4.983  -6.275  -4.559  1.00  0.00    -0.246 OA
BRANCH   7   9
ATOM      9  O   UNL     1       5.120  -4.061  -4.987  1.00  0.00    -0.478 OA
ATOM     10  H   UNL     1       4.812  -3.420  -5.676  1.00  0.00     0.297 HD
ENDBRANCH   7   9
ENDBRANCH   1   7
BRANCH   2  11
ATOM     11  O   UNL     1       6.898  -7.024  -2.977  1.00  0.00    -0.504 OA
ATOM     12  H   UNL     1       6.808  -7.955  -3.302  1.00  0.00     0.293 HD
ENDBRANCH   2  11
BRANCH   5  13
ATOM     13  O   UNL     1       9.106  -6.421  -1.535  1.00  0.00    -0.493 OA
ATOM     14  C   UNL     1      10.231  -7.046  -1.651  1.00  0.00     0.278 C 
ENDBRANCH   5  13
TORSDOF 4
ENDMDL
MODEL 6
REMARK VINA RESULT:    -4.242      7.827      8.900
REMARK INTER + INTRA:          -5.256
REMARK INTER:                  -4.985
REMARK INTRA:                  -0.271
REMARK UNBOUND:                -0.270
REMARK SMILES COc1cccc(C(=O)O)c1O
REMARK SMILES IDX 7 1 11 2 6 3 5 4 3 5 4 6 8 7 9 8 10 9 12 11 2 13 1 14
REMARK H PARENT 10 10 12 12
ROOT
ATOM      1  C   UNL     1       3.284   2.136  -5.879  1.00  0.00     0.105 A 
ATOM      2  C   UNL     1       2.695   1.415  -4.877  1.00  0.00     0.172 A 
ATOM      3  C   UNL     1       4.254   3.177  -5.493  1.00  0.00     0.020 A 
ATOM      4  C   UNL     1       4.778   3.118  -4.242  1.00  0.00     0.005 A 
ATOM      5  C   UNL     1       3.379   1.160  -3.617  1.00  0.00     0.161 A 
ATOM      6  C   UNL     1       4.385   2.148  -3.274  1.00  0.00     0.050 A 
ENDROOT
BRANCH   1   7
ATOM      7  C   UNL     1       3.026   1.807  -7.360  1.00  0.00     0.339 C 
ATOM      8  O   UNL     1       2.648   0.225  -7.448  1.00  0.00    -0.246 OA
BRANCH   7   9
ATOM      9  O   UNL     1       2.928   2.305  -8.282  1.00  0.00    -0.478 OA
ATOM     10  H   UNL     1       2.836   2.773  -9.150  1.00  0.00     0.297 HD
ENDBRANCH   7   9
ENDBRANCH   1   7
BRANCH   2  11
ATOM     11  O   UNL     1       1.409   0.868  -5.027  1.00  0.00    -0.504 OA
ATOM     12  H   UNL     1       0.503   0.483  -5.132  1.00  0.00     0.293 HD
ENDBRANCH   2  11
BRANCH   5  13
ATOM     13  O   UNL     1       2.760   0.255  -2.764  1.00  0.00    -0.493 OA
ATOM     14  C   UNL     1       1.952  -0.674  -2.370  1.00  0.00     0.278 C 
ENDBRANCH   5  13
TORSDOF 4
ENDMDL
MODEL 7
REMARK VINA RESULT:    -4.067      2.286      4.628
REMARK INTER + INTRA:          -5.050
REMARK INTER:                  -4.723
REMARK INTRA:                  -0.326
REMARK UNBOUND:                -0.270
REMARK SMILES COc1cccc(C(=O)O)c1O
REMARK SMILES IDX 7 1 11 2 6 3 5 4 3 5 4 6 8 7 9 8 10 9 12 11 2 13 1 14
REMARK H PARENT 10 10 12 12
ROOT
ATOM      1  C   UNL     1       8.722  -3.570  -1.437  1.00  0.00     0.105 A 
ATOM      2  C   UNL     1       8.097  -4.040  -2.560  1.00  0.00     0.172 A 
ATOM      3  C   UNL     1       7.876  -3.005  -0.370  1.00  0.00     0.020 A 
ATOM      4  C   UNL     1       6.552  -3.307  -0.387  1.00  0.00     0.005 A 
ATOM      5  C   UNL     1       6.748  -4.586  -2.511  1.00  0.00     0.161 A 
ATOM      6  C   UNL     1       5.940  -4.081  -1.417  1.00  0.00     0.050 A 
ENDROOT
BRANCH   1   7
ATOM      7  C   UNL     1      10.241  -3.720  -1.245  1.00  0.00     0.339 C 
ATOM      8  O   UNL     1      10.648  -5.220  -1.734  1.00  0.00    -0.246 OA
BRANCH   7   9
ATOM      9  O   UNL     1      11.075  -3.129  -0.993  1.00  0.00    -0.478 OA
ATOM     10  H   UNL     1      11.860  -2.573  -0.757  1.00  0.00     0.297 HD
ENDBRANCH   7   9
ENDBRANCH   1   7
BRANCH   2  11
ATOM     11  O   UNL     1       8.739  -4.036  -3.810  1.00  0.00    -0.504 OA
ATOM     12  H   UNL     1       9.192  -4.034  -4.691  1.00  0.00     0.293 HD
ENDBRANCH   2  11
BRANCH   5  13
ATOM     13  O   UNL     1       6.305  -5.208  -3.672  1.00  0.00    -0.493 OA
ATOM     14  C   UNL     1       5.510  -5.541  -4.635  1.00  0.00     0.278 C 
ENDBRANCH   5  13
TORSDOF 4
ENDMDL
MODEL 8
REMARK VINA RESULT:    -4.036      2.244      3.753
REMARK INTER + INTRA:          -5.014
REMARK INTER:                  -4.682
REMARK INTRA:                  -0.332
REMARK UNBOUND:                -0.270
REMARK SMILES COc1cccc(C(=O)O)c1O
REMARK SMILES IDX 7 1 11 2 6 3 5 4 3 5 4 6 8 7 9 8 10 9 12 11 2 13 1 14
REMARK H PARENT 10 10 12 12
ROOT
ATOM      1  C   UNL     1       6.618  -6.546  -2.754  1.00  0.00     0.105 A 
ATOM      2  C   UNL     1       6.813  -5.702  -1.696  1.00  0.00     0.172 A 
ATOM      3  C   UNL     1       5.908  -6.013  -3.932  1.00  0.00     0.020 A 
ATOM      4  C   UNL     1       5.819  -4.664  -4.058  1.00  0.00     0.005 A 
ATOM      5  C   UNL     1       6.954  -4.265  -1.881  1.00  0.00     0.161 A 
ATOM      6  C   UNL     1       6.315  -3.753  -3.079  1.00  0.00     0.050 A 
ENDROOT
BRANCH   1   7
ATOM      7  C   UNL     1       7.208  -7.967  -2.764  1.00  0.00     0.339 C 
ATOM      8  O   UNL     1       8.718  -7.872  -2.160  1.00  0.00    -0.246 OA
BRANCH   7   9
ATOM      9  O   UNL     1       6.900  -8.958  -2.946  1.00  0.00    -0.478 OA
ATOM     10  H   UNL     1       6.610  -9.889  -3.118  1.00  0.00     0.297 HD
ENDBRANCH   7   9
ENDBRANCH   1   7
BRANCH   2  11
ATOM     11  O   UNL     1       6.909  -6.188  -0.381  1.00  0.00    -0.504 OA
ATOM     12  H   UNL     1       6.976  -6.530   0.546  1.00  0.00     0.293 HD
ENDBRANCH   2  11
BRANCH   5  13
ATOM     13  O   UNL     1       7.344  -3.545  -0.759  1.00  0.00    -0.493 OA
ATOM     14  C   UNL     1       7.254  -2.755   0.260  1.00  0.00     0.278 C 
ENDBRANCH   5  13
TORSDOF 4
ENDMDL
MODEL 9
REMARK VINA RESULT:    -3.936      2.398      3.484
REMARK INTER + INTRA:          -4.897
REMARK INTER:                  -4.530
REMARK INTRA:                  -0.367
REMARK UNBOUND:                -0.270
REMARK SMILES COc1cccc(C(=O)O)c1O
REMARK SMILES IDX 7 1 11 2 6 3 5 4 3 5 4 6 8 7 9 8 10 9 12 11 2 13 1 14
REMARK H PARENT 10 10 12 12
ROOT
ATOM      1  C   UNL     1       6.637  -4.306  -1.849  1.00  0.00     0.105 A 
ATOM      2  C   UNL     1       7.147  -5.575  -1.890  1.00  0.00     0.172 A 
ATOM      3  C   UNL     1       6.039  -3.769  -3.085  1.00  0.00     0.020 A 
ATOM      4  C   UNL     1       5.698  -4.655  -4.057  1.00  0.00     0.005 A 
ATOM      5  C   UNL     1       6.602  -6.588  -2.782  1.00  0.00     0.161 A 
ATOM      6  C   UNL     1       5.951  -6.055  -3.964  1.00  0.00     0.050 A 
ENDROOT
BRANCH   1   7
ATOM      7  C   UNL     1       6.590  -3.504  -0.537  1.00  0.00     0.339 C 
ATOM      8  O   UNL     1       8.128  -3.176  -0.111  1.00  0.00    -0.246 OA
BRANCH   7   9
ATOM      9  O   UNL     1       5.882  -3.039   0.089  1.00  0.00    -0.478 OA
ATOM     10  H   UNL     1       5.217  -2.601   0.677  1.00  0.00     0.297 HD
ENDBRANCH   7   9
ENDBRANCH   1   7
BRANCH   2  11
ATOM     11  O   UNL     1       8.208  -5.964  -1.055  1.00  0.00    -0.504 OA
ATOM     12  H   UNL     1       8.956  -6.238  -0.467  1.00  0.00     0.293 HD
ENDBRANCH   2  11
BRANCH   5  13
ATOM     13  O   UNL     1       7.071  -7.881  -2.588  1.00  0.00    -0.493 OA
ATOM     14  C   UNL     1       7.735  -8.970  -2.801  1.00  0.00     0.278 C 
ENDBRANCH   5  13
TORSDOF 4
ENDMDL
