MODEL 1
REMARK VINA RESULT:    -4.964      0.000      0.000
REMARK INTER + INTRA:          -6.320
REMARK INTER:                  -5.835
REMARK INTRA:                  -0.485
REMARK UNBOUND:                -0.485
REMARK SMILES COc1cccc(C(=O)O)c1O
REMARK SMILES IDX 7 1 11 2 6 3 5 4 3 5 4 6 8 7 9 8 10 9 12 11 2 13 1 14
REMARK H PARENT 10 10 12 12
ROOT
ATOM      1  C   UNL     1       1.460  -0.379   7.104  1.00  0.00     0.105 A 
ATOM      2  C   UNL     1       2.631   0.024   6.522  1.00  0.00     0.172 A 
ATOM      3  C   UNL     1       1.162   0.124   8.458  1.00  0.00     0.020 A 
ATOM      4  C   UNL     1       1.848   1.212   8.893  1.00  0.00     0.005 A 
ATOM      5  C   UNL     1       3.232   1.314   6.829  1.00  0.00     0.161 A 
ATOM      6  C   UNL     1       2.880   1.840   8.135  1.00  0.00     0.050 A 
ENDROOT
BRANCH   1   7
ATOM      7  C   UNL     1       0.439  -1.238   6.338  1.00  0.00     0.339 C 
ATOM      8  O   UNL     1       0.864  -1.212   4.766  1.00  0.00    -0.246 OA
BRANCH   7   9
ATOM      9  O   UNL     1      -0.362  -1.892   6.537  1.00  0.00    -0.478 OA
ATOM     10  H   UNL     1      -1.115  -2.507   6.723  1.00  0.00     0.297 HD
ENDBRANCH   7   9
ENDBRANCH   1   7
BRANCH   2  11
ATOM     11  O   UNL     1       3.296  -0.783   5.583  1.00  0.00    -0.504 OA
ATOM     12  H   UNL     1       3.765  -1.351   4.921  1.00  0.00     0.293 HD
ENDBRANCH   2  11
BRANCH   5  13
ATOM     13  O   UNL     1       4.306   1.687   6.030  1.00  0.00    -0.493 OA
ATOM     14  C   UNL     1       5.517   1.995   5.703  1.00  0.00     0.278 C 
ENDBRANCH   5  13
TORSDOF 4
ENDMDL
MODEL 2
REMARK VINA RESULT:    -4.950      1.762      4.679
REMARK INTER + INTRA:          -6.303
REMARK INTER:                  -5.860
REMARK INTRA:                  -0.443
REMARK UNBOUND:                -0.485
REMARK SMILES COc1cccc(C(=O)O)c1O
REMARK SMILES IDX 7 1 11 2 6 3 5 4 3 5 4 6 8 7 9 8 10 9 12 11 2 13 1 14
REMARK H PARENT 10 10 12 12
ROOT
ATOM      1  C   UNL     1       4.772   0.893   6.452  1.00  0.00     0.105 A 
ATOM      2  C   UNL     1       3.422   0.675   6.433  1.00  0.00     0.172 A 
ATOM      3  C   UNL     1       5.621  -0.132   7.087  1.00  0.00     0.020 A 
ATOM      4  C   UNL     1       5.086  -1.365   7.279  1.00  0.00     0.005 A 
ATOM      5  C   UNL     1       2.866  -0.671   6.398  1.00  0.00     0.161 A 
ATOM      6  C   UNL     1       3.734  -1.689   6.960  1.00  0.00     0.050 A 
ENDROOT
BRANCH   1   7
ATOM      7  C   UNL     1       5.396   2.108   5.745  1.00  0.00     0.339 C 
ATOM      8  O   UNL     1       4.223   2.813   4.860  1.00  0.00    -0.246 OA
BRANCH   7   9
ATOM      9  O   UNL     1       6.297   2.654   5.742  1.00  0.00    -0.478 OA
ATOM     10  H   UNL     1       7.144   3.167   5.740  1.00  0.00     0.297 HD
ENDBRANCH   7   9
ENDBRANCH   1   7
BRANCH   2  11
ATOM     11  O   UNL     1       2.508   1.743   6.424  1.00  0.00    -0.504 OA
ATOM     12  H   UNL     1       1.865   2.495   6.419  1.00  0.00     0.293 HD
ENDBRANCH   2  11
BRANCH   5  13
ATOM     13  O   UNL     1       1.496  -0.754   6.182  1.00  0.00    -0.493 OA
ATOM     14  C   UNL     1       0.257  -1.057   6.391  1.00  0.00     0.278 C 
ENDBRANCH   5  13
TORSDOF 4
ENDMDL
MODEL 3
REMARK VINA RESULT:    -4.612      2.227      3.274
REMARK INTER + INTRA:          -5.906
REMARK INTER:                  -5.637
REMARK INTRA:                  -0.269
REMARK UNBOUND:                -0.485
REMARK SMILES COc1cccc(C(=O)O)c1O
REMARK SMILES IDX 7 1 11 2 6 3 5 4 3 5 4 6 8 7 9 8 10 9 12 11 2 13 1 14
REMARK H PARENT 10 10 12 12
ROOT
ATOM      1  C   UNL     1       1.621  -0.344   6.910  1.00  0.00     0.105 A 
ATOM      2  C   UNL     1       1.752  -0.195   8.264  1.00  0.00     0.172 A 
ATOM      3  C   UNL     1       2.799  -0.052   6.073  1.00  0.00     0.020 A 
ATOM      4  C   UNL     1       4.013  -0.015   6.682  1.00  0.00     0.005 A 
ATOM      5  C   UNL     1       3.029  -0.396   8.934  1.00  0.00     0.161 A 
ATOM      6  C   UNL     1       4.187  -0.177   8.088  1.00  0.00     0.050 A 
ENDROOT
BRANCH   1   7
ATOM      7  C   UNL     1       0.328  -0.898   6.287  1.00  0.00     0.339 C 
ATOM      8  O   UNL     1       0.699  -1.442   4.797  1.00  0.00    -0.246 OA
BRANCH   7   9
ATOM      9  O   UNL     1      -0.665  -1.110   6.566  1.00  0.00    -0.478 OA
ATOM     10  H   UNL     1      -1.598  -1.311   6.829  1.00  0.00     0.297 HD
ENDBRANCH   7   9
ENDBRANCH   1   7
BRANCH   2  11
ATOM     11  O   UNL     1       0.652   0.138   9.073  1.00  0.00    -0.504 OA
ATOM     12  H   UNL     1      -0.122   0.372   9.643  1.00  0.00     0.293 HD
ENDBRANCH   2  11
BRANCH   5  13
ATOM     13  O   UNL     1       2.988  -0.411  10.323  1.00  0.00    -0.493 OA
ATOM     14  C   UNL     1       3.280  -0.748  11.536  1.00  0.00     0.278 C 
ENDBRANCH   5  13
TORSDOF 4
ENDMDL
MODEL 4
REMARK VINA RESULT:    -4.585      2.877      4.416
REMARK INTER + INTRA:          -5.874
REMARK INTER:                  -5.604
REMARK INTRA:                  -0.270
REMARK UNBOUND:                -0.485
REMARK SMILES COc1cccc(C(=O)O)c1O
REMARK SMILES IDX 7 1 11 2 6 3 5 4 3 5 4 6 8 7 9 8 10 9 12 11 2 13 1 14
REMARK H PARENT 10 10 12 12
ROOT
ATOM      1  C   UNL     1       4.415   0.923   6.369  1.00  0.00     0.105 A 
ATOM      2  C   UNL     1       4.905   0.150   7.386  1.00  0.00     0.172 A 
ATOM      3  C   UNL     1       2.979   0.809   6.054  1.00  0.00     0.020 A 
ATOM      4  C   UNL     1       2.170   0.249   6.991  1.00  0.00     0.005 A 
ATOM      5  C   UNL     1       4.073  -0.245   8.513  1.00  0.00     0.161 A 
ATOM      6  C   UNL     1       2.653  -0.288   8.220  1.00  0.00     0.050 A 
ENDROOT
BRANCH   1   7
ATOM      7  C   UNL     1       5.302   1.953   5.648  1.00  0.00     0.339 C 
ATOM      8  O   UNL     1       4.312   3.001   4.889  1.00  0.00    -0.246 OA
BRANCH   7   9
ATOM      9  O   UNL     1       6.316   2.227   5.585  1.00  0.00    -0.478 OA
ATOM     10  H   UNL     1       7.270   2.485   5.526  1.00  0.00     0.297 HD
ENDBRANCH   7   9
ENDBRANCH   1   7
BRANCH   2  11
ATOM     11  O   UNL     1       6.242  -0.281   7.398  1.00  0.00    -0.504 OA
ATOM     12  H   UNL     1       7.185  -0.585   7.406  1.00  0.00     0.293 HD
ENDBRANCH   2  11
BRANCH   5  13
ATOM     13  O   UNL     1       4.736  -0.858   9.569  1.00  0.00    -0.493 OA
ATOM     14  C   UNL     1       5.253  -1.012  10.744  1.00  0.00     0.278 C 
ENDBRANCH   5  13
TORSDOF 4
ENDMDL
MODEL 5
REMARK VINA RESULT:    -4.137      2.403      4.593
REMARK INTER + INTRA:          -5.347
REMARK INTER:                  -5.143
REMARK INTRA:                  -0.204
REMARK UNBOUND:                -0.485
REMARK SMILES COc1cccc(C(=O)O)c1O
REMARK SMILES IDX 7 1 11 2 6 3 5 4 3 5 4 6 8 7 9 8 10 9 12 11 2 13 1 14
REMARK H PARENT 10 10 12 12
ROOT
ATOM      1  C   UNL     1       5.136  -0.117   6.957  1.00  0.00     0.105 A 
ATOM      2  C   UNL     1       3.965  -0.763   6.671  1.00  0.00     0.172 A 
ATOM      3  C   UNL     1       5.368   1.193   6.320  1.00  0.00     0.020 A 
ATOM      4  C   UNL     1       4.293   1.841   5.802  1.00  0.00     0.005 A 
ATOM      5  C   UNL     1       2.749  -0.032   6.346  1.00  0.00     0.161 A 
ATOM      6  C   UNL     1       2.979   1.287   5.785  1.00  0.00     0.050 A 
ENDROOT
BRANCH   1   7
ATOM      7  C   UNL     1       6.131  -0.682   7.986  1.00  0.00     0.339 C 
ATOM      8  O   UNL     1       5.336  -0.833   9.400  1.00  0.00    -0.246 OA
BRANCH   7   9
ATOM      9  O   UNL     1       7.107  -1.076   8.019  1.00  0.00    -0.478 OA
ATOM     10  H   UNL     1       8.025  -1.446   8.051  1.00  0.00     0.297 HD
ENDBRANCH   7   9
ENDBRANCH   1   7
BRANCH   2  11
ATOM     11  O   UNL     1       3.878  -2.166   6.700  1.00  0.00    -0.504 OA
ATOM     12  H   UNL     1       3.816  -3.154   6.720  1.00  0.00     0.293 HD
ENDBRANCH   2  11
BRANCH   5  13
ATOM     13  O   UNL     1       1.588  -0.790   6.271  1.00  0.00    -0.493 OA
ATOM     14  C   UNL     1       0.347  -1.116   6.424  1.00  0.00     0.278 C 
ENDBRANCH   5  13
TORSDOF 4
ENDMDL
MODEL 6
REMARK VINA RESULT:    -4.058      2.019      2.994
REMARK INTER + INTRA:          -5.254
REMARK INTER:                  -4.787
REMARK INTRA:                  -0.467
REMARK UNBOUND:                -0.485
REMARK SMILES COc1cccc(C(=O)O)c1O
REMARK SMILES IDX 7 1 11 2 6 3 5 4 3 5 4 6 8 7 9 8 10 9 12 11 2 13 1 14
REMARK H PARENT 10 10 12 12
ROOT
ATOM      1  C   UNL     1       2.032   0.059   6.310  1.00  0.00     0.105 A 
ATOM      2  C   UNL     1       2.294   0.083   7.652  1.00  0.00     0.172 A 
ATOM      3  C   UNL     1       2.904   0.856   5.428  1.00  0.00     0.020 A 
ATOM      4  C   UNL     1       4.103   1.258   5.923  1.00  0.00     0.005 A 
ATOM      5  C   UNL     1       3.643   0.281   8.163  1.00  0.00     0.161 A 
ATOM      6  C   UNL     1       4.521   1.005   7.262  1.00  0.00     0.050 A 
ENDROOT
BRANCH   1   7
ATOM      7  C   UNL     1       0.935  -0.848   5.725  1.00  0.00     0.339 C 
ATOM      8  O   UNL     1      -0.375  -0.709   6.683  1.00  0.00    -0.246 OA
BRANCH   7   9
ATOM      9  O   UNL     1       0.756  -1.432   4.867  1.00  0.00    -0.478 OA
ATOM     10  H   UNL     1       0.588  -1.981   4.060  1.00  0.00     0.297 HD
ENDBRANCH   7   9
ENDBRANCH   1   7
BRANCH   2  11
ATOM     11  O   UNL     1       1.274  -0.104   8.600  1.00  0.00    -0.504 OA
ATOM     12  H   UNL     1       0.555  -0.236   9.268  1.00  0.00     0.293 HD
ENDBRANCH   2  11
BRANCH   5  13
ATOM     13  O   UNL     1       3.808   0.088   9.528  1.00  0.00    -0.493 OA
ATOM     14  C   UNL     1       4.204  -0.455  10.632  1.00  0.00     0.278 C 
ENDBRANCH   5  13
TORSDOF 4
ENDMDL
MODEL 7
REMARK VINA RESULT:    -3.924      2.293      4.407
REMARK INTER + INTRA:          -5.097
REMARK INTER:                  -4.656
REMARK INTRA:                  -0.441
REMARK UNBOUND:                -0.485
REMARK SMILES COc1cccc(C(=O)O)c1O
REMARK SMILES IDX 7 1 11 2 6 3 5 4 3 5 4 6 8 7 9 8 10 9 12 11 2 13 1 14
REMARK H PARENT 10 10 12 12
ROOT
ATOM      1  C   UNL     1       3.161   0.705   6.363  1.00  0.00     0.105 A 
ATOM      2  C   UNL     1       2.897   0.515   7.692  1.00  0.00     0.172 A 
ATOM      3  C   UNL     1       2.411  -0.115   5.394  1.00  0.00     0.020 A 
ATOM      4  C   UNL     1       1.275  -0.721   5.825  1.00  0.00     0.005 A 
ATOM      5  C   UNL     1       1.585   0.088   8.156  1.00  0.00     0.161 A 
ATOM      6  C   UNL     1       0.819  -0.658   7.175  1.00  0.00     0.050 A 
ENDROOT
BRANCH   1   7
ATOM      7  C   UNL     1       4.126   1.804   5.888  1.00  0.00     0.339 C 
ATOM      8  O   UNL     1       5.561   1.539   6.612  1.00  0.00    -0.246 OA
BRANCH   7   9
ATOM      9  O   UNL     1       4.160   2.587   5.185  1.00  0.00    -0.478 OA
ATOM     10  H   UNL     1       4.191   3.324   4.523  1.00  0.00     0.297 HD
ENDBRANCH   7   9
ENDBRANCH   1   7
BRANCH   2  11
ATOM     11  O   UNL     1       3.876   0.747   8.673  1.00  0.00    -0.504 OA
ATOM     12  H   UNL     1       4.566   0.910   9.364  1.00  0.00     0.293 HD
ENDBRANCH   2  11
BRANCH   5  13
ATOM     13  O   UNL     1       1.387   0.124   9.531  1.00  0.00    -0.493 OA
ATOM     14  C   UNL     1       0.815  -0.067  10.674  1.00  0.00     0.278 C 
ENDBRANCH   5  13
TORSDOF 4
ENDMDL
MODEL 8
REMARK VINA RESULT:    -3.832      7.240      7.790
REMARK INTER + INTRA:          -4.989
REMARK INTER:                  -4.666
REMARK INTRA:                  -0.322
REMARK UNBOUND:                -0.485
REMARK SMILES COc1cccc(C(=O)O)c1O
REMARK SMILES IDX 7 1 11 2 6 3 5 4 3 5 4 6 8 7 9 8 10 9 12 11 2 13 1 14
REMARK H PARENT 10 10 12 12
ROOT
ATOM      1  C   UNL     1      -0.932   5.647   2.516  1.00  0.00     0.105 A 
ATOM      2  C   UNL     1      -0.214   4.551   2.122  1.00  0.00     0.172 A 
ATOM      3  C   UNL     1      -0.283   6.966   2.403  1.00  0.00     0.020 A 
ATOM      4  C   UNL     1       0.806   7.067   1.598  1.00  0.00     0.005 A 
ATOM      5  C   UNL     1       0.795   4.636   1.076  1.00  0.00     0.161 A 
ATOM      6  C   UNL     1       1.382   5.953   0.919  1.00  0.00     0.050 A 
ENDROOT
BRANCH   1   7
ATOM      7  C   UNL     1      -2.400   5.525   2.961  1.00  0.00     0.339 C 
ATOM      8  O   UNL     1      -3.056   4.282   2.137  1.00  0.00    -0.246 OA
BRANCH   7   9
ATOM      9  O   UNL     1      -3.050   5.928   3.684  1.00  0.00    -0.478 OA
ATOM     10  H   UNL     1      -3.662   6.306   4.364  1.00  0.00     0.297 HD
ENDBRANCH   7   9
ENDBRANCH   1   7
BRANCH   2  11
ATOM     11  O   UNL     1      -0.435   3.287   2.694  1.00  0.00    -0.504 OA
ATOM     12  H   UNL     1      -0.590   2.396   3.098  1.00  0.00     0.293 HD
ENDBRANCH   2  11
BRANCH   5  13
ATOM     13  O   UNL     1       1.310   3.424   0.632  1.00  0.00    -0.493 OA
ATOM     14  C   UNL     1       1.331   2.196   0.231  1.00  0.00     0.278 C 
ENDBRANCH   5  13
TORSDOF 4
ENDMDL
MODEL 9
REMARK VINA RESULT:    -3.783      1.715      2.255
REMARK INTER + INTRA:          -4.932
REMARK INTER:                  -4.749
REMARK INTRA:                  -0.183
REMARK UNBOUND:                -0.485
REMARK SMILES COc1cccc(C(=O)O)c1O
REMARK SMILES IDX 7 1 11 2 6 3 5 4 3 5 4 6 8 7 9 8 10 9 12 11 2 13 1 14
REMARK H PARENT 10 10 12 12
ROOT
ATOM      1  C   UNL     1       1.922  -0.897   6.540  1.00  0.00     0.105 A 
ATOM      2  C   UNL     1       2.697   0.041   5.915  1.00  0.00     0.172 A 
ATOM      3  C   UNL     1       2.604  -2.063   7.131  1.00  0.00     0.020 A 
ATOM      4  C   UNL     1       3.941  -1.969   7.349  1.00  0.00     0.005 A 
ATOM      5  C   UNL     1       4.070   0.295   6.327  1.00  0.00     0.161 A 
ATOM      6  C   UNL     1       4.716  -0.832   6.973  1.00  0.00     0.050 A 
ENDROOT
BRANCH   1   7
ATOM      7  C   UNL     1       0.407  -0.696   6.716  1.00  0.00     0.339 C 
ATOM      8  O   UNL     1       0.152  -0.235   8.257  1.00  0.00    -0.246 OA
BRANCH   7   9
ATOM      9  O   UNL     1      -0.468  -0.673   6.130  1.00  0.00    -0.478 OA
ATOM     10  H   UNL     1      -1.291  -0.652   5.579  1.00  0.00     0.297 HD
ENDBRANCH   7   9
ENDBRANCH   1   7
BRANCH   2  11
ATOM     11  O   UNL     1       2.193   0.820   4.859  1.00  0.00    -0.504 OA
ATOM     12  H   UNL     1       1.839   1.368   4.115  1.00  0.00     0.293 HD
ENDBRANCH   2  11
BRANCH   5  13
ATOM     13  O   UNL     1       4.681   1.401   5.750  1.00  0.00    -0.493 OA
ATOM     14  C   UNL     1       5.536   2.354   5.575  1.00  0.00     0.278 C 
ENDBRANCH   5  13
TORSDOF 4
ENDMDL
