MODEL 1
REMARK VINA RESULT:    -4.926      0.000      0.000
REMARK INTER + INTRA:          -6.277
REMARK INTER:                  -5.790
REMARK INTRA:                  -0.487
REMARK UNBOUND:                -0.487
REMARK SMILES COc1cccc(C(=O)O)c1O
REMARK SMILES IDX 7 1 11 2 6 3 5 4 3 5 4 6 8 7 9 8 10 9 12 11 2 13 1 14
REMARK H PARENT 10 10 12 12
ROOT
ATOM      1  C   UNL     1      -3.259  -6.484  -0.136  1.00  0.00     0.105 A 
ATOM      2  C   UNL     1      -3.866  -5.363  -0.632  1.00  0.00     0.172 A 
ATOM      3  C   UNL     1      -3.328  -7.714  -0.946  1.00  0.00     0.020 A 
ATOM      4  C   UNL     1      -3.649  -7.587  -2.260  1.00  0.00     0.005 A 
ATOM      5  C   UNL     1      -3.989  -5.131  -2.064  1.00  0.00     0.161 A 
ATOM      6  C   UNL     1      -3.984  -6.340  -2.866  1.00  0.00     0.050 A 
ENDROOT
BRANCH   1   7
ATOM      7  C   UNL     1      -2.443  -6.442   1.168  1.00  0.00     0.339 C 
ATOM      8  O   UNL     1      -2.187  -4.875   1.532  1.00  0.00    -0.246 OA
BRANCH   7   9
ATOM      9  O   UNL     1      -2.101  -7.099   1.916  1.00  0.00    -0.478 OA
ATOM     10  H   UNL     1      -1.780  -7.717   2.620  1.00  0.00     0.297 HD
ENDBRANCH   7   9
ENDBRANCH   1   7
BRANCH   2  11
ATOM     11  O   UNL     1      -4.380  -4.371   0.221  1.00  0.00    -0.504 OA
ATOM     12  H   UNL     1      -4.743  -3.673   0.822  1.00  0.00     0.293 HD
ENDBRANCH   2  11
BRANCH   5  13
ATOM     13  O   UNL     1      -4.443  -3.872  -2.437  1.00  0.00    -0.493 OA
ATOM     14  C   UNL     1      -5.204  -2.971  -2.964  1.00  0.00     0.278 C 
ENDBRANCH   5  13
TORSDOF 4
ENDMDL
MODEL 2
REMARK VINA RESULT:    -4.888      1.757      4.685
REMARK INTER + INTRA:          -6.232
REMARK INTER:                  -5.749
REMARK INTRA:                  -0.483
REMARK UNBOUND:                -0.487
REMARK SMILES COc1cccc(C(=O)O)c1O
REMARK SMILES IDX 7 1 11 2 6 3 5 4 3 5 4 6 8 7 9 8 10 9 12 11 2 13 1 14
REMARK H PARENT 10 10 12 12
ROOT
ATOM      1  C   UNL     1      -5.315  -4.248  -2.024  1.00  0.00     0.105 A 
ATOM      2  C   UNL     1      -4.272  -4.975  -1.520  1.00  0.00     0.172 A 
ATOM      3  C   UNL     1      -6.647  -4.462  -1.430  1.00  0.00     0.020 A 
ATOM      4  C   UNL     1      -6.707  -5.065  -0.215  1.00  0.00     0.005 A 
ATOM      5  C   UNL     1      -4.246  -5.413  -0.132  1.00  0.00     0.161 A 
ATOM      6  C   UNL     1      -5.558  -5.555   0.472  1.00  0.00     0.050 A 
ENDROOT
BRANCH   1   7
ATOM      7  C   UNL     1      -5.093  -3.168  -3.097  1.00  0.00     0.339 C 
ATOM      8  O   UNL     1      -3.506  -2.801  -3.098  1.00  0.00    -0.246 OA
BRANCH   7   9
ATOM      9  O   UNL     1      -5.626  -2.688  -3.868  1.00  0.00    -0.478 OA
ATOM     10  H   UNL     1      -6.128  -2.237  -4.593  1.00  0.00     0.297 HD
ENDBRANCH   7   9
ENDBRANCH   1   7
BRANCH   2  11
ATOM     11  O   UNL     1      -3.165  -5.315  -2.316  1.00  0.00    -0.504 OA
ATOM     12  H   UNL     1      -2.385  -5.554  -2.878  1.00  0.00     0.293 HD
ENDBRANCH   2  11
BRANCH   5  13
ATOM     13  O   UNL     1      -3.051  -5.968   0.306  1.00  0.00    -0.493 OA
ATOM     14  C   UNL     1      -2.201  -6.536   1.098  1.00  0.00     0.278 C 
ENDBRANCH   5  13
TORSDOF 4
ENDMDL
MODEL 3
REMARK VINA RESULT:    -4.642      2.192      3.274
REMARK INTER + INTRA:          -5.943
REMARK INTER:                  -5.677
REMARK INTRA:                  -0.266
REMARK UNBOUND:                -0.487
REMARK SMILES COc1cccc(C(=O)O)c1O
REMARK SMILES IDX 7 1 11 2 6 3 5 4 3 5 4 6 8 7 9 8 10 9 12 11 2 13 1 14
REMARK H PARENT 10 10 12 12
ROOT
ATOM      1  C   UNL     1      -3.307  -6.229  -0.123  1.00  0.00     0.105 A 
ATOM      2  C   UNL     1      -3.856  -7.326  -0.728  1.00  0.00     0.172 A 
ATOM      3  C   UNL     1      -3.838  -4.905  -0.496  1.00  0.00     0.020 A 
ATOM      4  C   UNL     1      -5.048  -4.861  -1.112  1.00  0.00     0.005 A 
ATOM      5  C   UNL     1      -5.243  -7.339  -1.172  1.00  0.00     0.161 A 
ATOM      6  C   UNL     1      -5.786  -6.027  -1.470  1.00  0.00     0.050 A 
ENDROOT
BRANCH   1   7
ATOM      7  C   UNL     1      -2.249  -6.371   0.985  1.00  0.00     0.339 C 
ATOM      8  O   UNL     1      -2.131  -4.930   1.734  1.00  0.00    -0.246 OA
BRANCH   7   9
ATOM      9  O   UNL     1      -1.674  -7.123   1.447  1.00  0.00    -0.478 OA
ATOM     10  H   UNL     1      -1.132  -7.829   1.881  1.00  0.00     0.297 HD
ENDBRANCH   7   9
ENDBRANCH   1   7
BRANCH   2  11
ATOM     11  O   UNL     1      -3.111  -8.500  -0.929  1.00  0.00    -0.504 OA
ATOM     12  H   UNL     1      -2.586  -9.327  -1.071  1.00  0.00     0.293 HD
ENDBRANCH   2  11
BRANCH   5  13
ATOM     13  O   UNL     1      -5.734  -8.570  -1.587  1.00  0.00    -0.493 OA
ATOM     14  C   UNL     1      -6.430  -9.659  -1.576  1.00  0.00     0.278 C 
ENDBRANCH   5  13
TORSDOF 4
ENDMDL
MODEL 4
REMARK VINA RESULT:    -4.629      2.928      4.438
REMARK INTER + INTRA:          -5.927
REMARK INTER:                  -5.664
REMARK INTRA:                  -0.263
REMARK UNBOUND:                -0.487
REMARK SMILES COc1cccc(C(=O)O)c1O
REMARK SMILES IDX 7 1 11 2 6 3 5 4 3 5 4 6 8 7 9 8 10 9 12 11 2 13 1 14
REMARK H PARENT 10 10 12 12
ROOT
ATOM      1  C   UNL     1      -5.030  -4.249  -1.943  1.00  0.00     0.105 A 
ATOM      2  C   UNL     1      -6.162  -4.965  -1.666  1.00  0.00     0.172 A 
ATOM      3  C   UNL     1      -3.752  -4.758  -1.412  1.00  0.00     0.020 A 
ATOM      4  C   UNL     1      -3.707  -6.055  -1.011  1.00  0.00     0.005 A 
ATOM      5  C   UNL     1      -6.125  -6.408  -1.473  1.00  0.00     0.161 A 
ATOM      6  C   UNL     1      -4.844  -6.915  -1.018  1.00  0.00     0.050 A 
ENDROOT
BRANCH   1   7
ATOM      7  C   UNL     1      -5.067  -3.017  -2.863  1.00  0.00     0.339 C 
ATOM      8  O   UNL     1      -3.532  -2.686  -3.298  1.00  0.00    -0.246 OA
BRANCH   7   9
ATOM      9  O   UNL     1      -5.773  -2.409  -3.354  1.00  0.00    -0.478 OA
ATOM     10  H   UNL     1      -6.436  -1.837  -3.816  1.00  0.00     0.297 HD
ENDBRANCH   7   9
ENDBRANCH   1   7
BRANCH   2  11
ATOM     11  O   UNL     1      -7.418  -4.341  -1.577  1.00  0.00    -0.504 OA
ATOM     12  H   UNL     1      -8.303  -3.902  -1.514  1.00  0.00     0.293 HD
ENDBRANCH   2  11
BRANCH   5  13
ATOM     13  O   UNL     1      -7.359  -7.040  -1.395  1.00  0.00    -0.493 OA
ATOM     14  C   UNL     1      -8.389  -7.727  -1.765  1.00  0.00     0.278 C 
ENDBRANCH   5  13
TORSDOF 4
ENDMDL
MODEL 5
REMARK VINA RESULT:    -4.072      2.352      4.555
REMARK INTER + INTRA:          -5.273
REMARK INTER:                  -5.001
REMARK INTRA:                  -0.272
REMARK UNBOUND:                -0.487
REMARK SMILES COc1cccc(C(=O)O)c1O
REMARK SMILES IDX 7 1 11 2 6 3 5 4 3 5 4 6 8 7 9 8 10 9 12 11 2 13 1 14
REMARK H PARENT 10 10 12 12
ROOT
ATOM      1  C   UNL     1      -6.146  -4.577  -1.324  1.00  0.00     0.105 A 
ATOM      2  C   UNL     1      -5.269  -4.965  -0.348  1.00  0.00     0.172 A 
ATOM      3  C   UNL     1      -5.643  -3.669  -2.371  1.00  0.00     0.020 A 
ATOM      4  C   UNL     1      -4.298  -3.566  -2.525  1.00  0.00     0.005 A 
ATOM      5  C   UNL     1      -3.841  -5.078  -0.605  1.00  0.00     0.161 A 
ATOM      6  C   UNL     1      -3.361  -4.236  -1.685  1.00  0.00     0.050 A 
ENDROOT
BRANCH   1   7
ATOM      7  C   UNL     1      -7.573  -5.147  -1.391  1.00  0.00     0.339 C 
ATOM      8  O   UNL     1      -7.463  -6.760  -1.192  1.00  0.00    -0.246 OA
BRANCH   7   9
ATOM      9  O   UNL     1      -8.568  -4.804  -1.426  1.00  0.00    -0.478 OA
ATOM     10  H   UNL     1      -9.504  -4.482  -1.460  1.00  0.00     0.297 HD
ENDBRANCH   7   9
ENDBRANCH   1   7
BRANCH   2  11
ATOM     11  O   UNL     1      -5.713  -5.294   0.945  1.00  0.00    -0.504 OA
ATOM     12  H   UNL     1      -6.025  -5.526   1.855  1.00  0.00     0.293 HD
ENDBRANCH   2  11
BRANCH   5  13
ATOM     13  O   UNL     1      -3.089  -5.669   0.403  1.00  0.00    -0.493 OA
ATOM     14  C   UNL     1      -2.395  -6.564   1.024  1.00  0.00     0.278 C 
ENDBRANCH   5  13
TORSDOF 4
ENDMDL
MODEL 6
REMARK VINA RESULT:    -4.072      2.153      3.094
REMARK INTER + INTRA:          -5.273
REMARK INTER:                  -5.012
REMARK INTRA:                  -0.260
REMARK UNBOUND:                -0.487
REMARK SMILES COc1cccc(C(=O)O)c1O
REMARK SMILES IDX 7 1 11 2 6 3 5 4 3 5 4 6 8 7 9 8 10 9 12 11 2 13 1 14
REMARK H PARENT 10 10 12 12
ROOT
ATOM      1  C   UNL     1      -3.404  -7.226  -0.984  1.00  0.00     0.105 A 
ATOM      2  C   UNL     1      -3.684  -6.212  -1.857  1.00  0.00     0.172 A 
ATOM      3  C   UNL     1      -2.757  -6.870   0.292  1.00  0.00     0.020 A 
ATOM      4  C   UNL     1      -2.810  -5.572   0.686  1.00  0.00     0.005 A 
ATOM      5  C   UNL     1      -3.976  -4.863  -1.393  1.00  0.00     0.161 A 
ATOM      6  C   UNL     1      -3.397  -4.539  -0.103  1.00  0.00     0.050 A 
ENDROOT
BRANCH   1   7
ATOM      7  C   UNL     1      -3.841  -8.673  -1.270  1.00  0.00     0.339 C 
ATOM      8  O   UNL     1      -5.397  -8.626  -1.749  1.00  0.00    -0.246 OA
BRANCH   7   9
ATOM      9  O   UNL     1      -3.418  -9.635  -1.341  1.00  0.00    -0.478 OA
ATOM     10  H   UNL     1      -3.021 -10.540  -1.408  1.00  0.00     0.297 HD
ENDBRANCH   7   9
ENDBRANCH   1   7
BRANCH   2  11
ATOM     11  O   UNL     1      -3.725  -6.431  -3.245  1.00  0.00    -0.504 OA
ATOM     12  H   UNL     1      -3.754  -6.586  -4.222  1.00  0.00     0.293 HD
ENDBRANCH   2  11
BRANCH   5  13
ATOM     13  O   UNL     1      -4.437  -3.977  -2.358  1.00  0.00    -0.493 OA
ATOM     14  C   UNL     1      -5.222  -3.140  -2.952  1.00  0.00     0.278 C 
ENDBRANCH   5  13
TORSDOF 4
ENDMDL
MODEL 7
REMARK VINA RESULT:    -4.071      2.689      4.277
REMARK INTER + INTRA:          -5.272
REMARK INTER:                  -4.806
REMARK INTRA:                  -0.466
REMARK UNBOUND:                -0.487
REMARK SMILES COc1cccc(C(=O)O)c1O
REMARK SMILES IDX 7 1 11 2 6 3 5 4 3 5 4 6 8 7 9 8 10 9 12 11 2 13 1 14
REMARK H PARENT 10 10 12 12
ROOT
ATOM      1  C   UNL     1      -4.349  -4.253  -1.525  1.00  0.00     0.105 A 
ATOM      2  C   UNL     1      -5.402  -5.112  -1.364  1.00  0.00     0.172 A 
ATOM      3  C   UNL     1      -3.186  -4.423  -0.635  1.00  0.00     0.020 A 
ATOM      4  C   UNL     1      -3.059  -5.607   0.019  1.00  0.00     0.005 A 
ATOM      5  C   UNL     1      -5.211  -6.472  -0.881  1.00  0.00     0.161 A 
ATOM      6  C   UNL     1      -4.025  -6.653  -0.063  1.00  0.00     0.050 A 
ENDROOT
BRANCH   1   7
ATOM      7  C   UNL     1      -4.330  -3.215  -2.660  1.00  0.00     0.339 C 
ATOM      8  O   UNL     1      -5.803  -2.519  -2.709  1.00  0.00    -0.246 OA
BRANCH   7   9
ATOM      9  O   UNL     1      -3.643  -2.769  -3.322  1.00  0.00    -0.478 OA
ATOM     10  H   UNL     1      -2.997  -2.350  -3.945  1.00  0.00     0.297 HD
ENDBRANCH   7   9
ENDBRANCH   1   7
BRANCH   2  11
ATOM     11  O   UNL     1      -6.716  -4.726  -1.680  1.00  0.00    -0.504 OA
ATOM     12  H   UNL     1      -7.642  -4.455  -1.902  1.00  0.00     0.293 HD
ENDBRANCH   2  11
BRANCH   5  13
ATOM     13  O   UNL     1      -6.323  -7.301  -0.950  1.00  0.00    -0.493 OA
ATOM     14  C   UNL     1      -7.049  -8.324  -1.262  1.00  0.00     0.278 C 
ENDBRANCH   5  13
TORSDOF 4
ENDMDL
MODEL 8
REMARK VINA RESULT:    -4.043      2.041      2.982
REMARK INTER + INTRA:          -5.239
REMARK INTER:                  -4.774
REMARK INTRA:                  -0.465
REMARK UNBOUND:                -0.487
REMARK SMILES COc1cccc(C(=O)O)c1O
REMARK SMILES IDX 7 1 11 2 6 3 5 4 3 5 4 6 8 7 9 8 10 9 12 11 2 13 1 14
REMARK H PARENT 10 10 12 12
ROOT
ATOM      1  C   UNL     1      -3.280  -5.458  -0.395  1.00  0.00     0.105 A 
ATOM      2  C   UNL     1      -4.032  -6.488  -0.890  1.00  0.00     0.172 A 
ATOM      3  C   UNL     1      -3.365  -4.157  -1.084  1.00  0.00     0.020 A 
ATOM      4  C   UNL     1      -4.423  -3.947  -1.909  1.00  0.00     0.005 A 
ATOM      5  C   UNL     1      -5.297  -6.251  -1.572  1.00  0.00     0.161 A 
ATOM      6  C   UNL     1      -5.406  -4.942  -2.188  1.00  0.00     0.050 A 
ENDROOT
BRANCH   1   7
ATOM      7  C   UNL     1      -2.457  -5.616   0.895  1.00  0.00     0.339 C 
ATOM      8  O   UNL     1      -1.686  -7.049   0.808  1.00  0.00    -0.246 OA
BRANCH   7   9
ATOM      9  O   UNL     1      -2.179  -5.051   1.739  1.00  0.00    -0.478 OA
ATOM     10  H   UNL     1      -1.918  -4.518   2.532  1.00  0.00     0.297 HD
ENDBRANCH   7   9
ENDBRANCH   1   7
BRANCH   2  11
ATOM     11  O   UNL     1      -3.627  -7.826  -0.744  1.00  0.00    -0.504 OA
ATOM     12  H   UNL     1      -3.342  -8.768  -0.641  1.00  0.00     0.293 HD
ENDBRANCH   2  11
BRANCH   5  13
ATOM     13  O   UNL     1      -6.056  -7.381  -1.849  1.00  0.00    -0.493 OA
ATOM     14  C   UNL     1      -7.100  -8.110  -2.069  1.00  0.00     0.278 C 
ENDBRANCH   5  13
TORSDOF 4
ENDMDL
MODEL 9
REMARK VINA RESULT:    -3.842      7.147      8.526
REMARK INTER + INTRA:          -5.002
REMARK INTER:                  -4.669
REMARK INTRA:                  -0.334
REMARK UNBOUND:                -0.487
REMARK SMILES COc1cccc(C(=O)O)c1O
REMARK SMILES IDX 7 1 11 2 6 3 5 4 3 5 4 6 8 7 9 8 10 9 12 11 2 13 1 14
REMARK H PARENT 10 10 12 12
ROOT
ATOM      1  C   UNL     1      -2.643   1.248   3.096  1.00  0.00     0.105 A 
ATOM      2  C   UNL     1      -1.919   0.601   2.133  1.00  0.00     0.172 A 
ATOM      3  C   UNL     1      -2.274   1.012   4.504  1.00  0.00     0.020 A 
ATOM      4  C   UNL     1      -1.048   0.484   4.755  1.00  0.00     0.005 A 
ATOM      5  C   UNL     1      -0.520   0.252   2.336  1.00  0.00     0.161 A 
ATOM      6  C   UNL     1      -0.142   0.090   3.727  1.00  0.00     0.050 A 
ENDROOT
BRANCH   1   7
ATOM      7  C   UNL     1      -3.735   2.267   2.727  1.00  0.00     0.339 C 
ATOM      8  O   UNL     1      -3.295   2.965   1.322  1.00  0.00    -0.246 OA
BRANCH   7   9
ATOM      9  O   UNL     1      -4.692   2.564   3.050  1.00  0.00    -0.478 OA
ATOM     10  H   UNL     1      -5.592   2.843   3.354  1.00  0.00     0.297 HD
ENDBRANCH   7   9
ENDBRANCH   1   7
BRANCH   2  11
ATOM     11  O   UNL     1      -2.488   0.261   0.894  1.00  0.00    -0.504 OA
ATOM     12  H   UNL     1      -2.889   0.022   0.021  1.00  0.00     0.293 HD
ENDBRANCH   2  11
BRANCH   5  13
ATOM     13  O   UNL     1       0.154  -0.221   1.217  1.00  0.00    -0.493 OA
ATOM     14  C   UNL     1       0.574  -0.281  -0.004  1.00  0.00     0.278 C 
ENDBRANCH   5  13
TORSDOF 4
ENDMDL
