MODEL 1
REMARK VINA RESULT:    -4.811      0.000      0.000
REMARK INTER + INTRA:          -6.141
REMARK INTER:                  -5.655
REMARK INTRA:                  -0.486
REMARK UNBOUND:                -0.486
REMARK SMILES COc1cccc(C(=O)O)c1O
REMARK SMILES IDX 7 1 11 2 6 3 5 4 3 5 4 6 8 7 9 8 10 9 12 11 2 13 1 14
REMARK H PARENT 10 10 12 12
ROOT
ATOM      1  C   UNL     1       4.375  -4.789  -3.893  1.00  0.00     0.105 A 
ATOM      2  C   UNL     1       3.310  -4.125  -4.437  1.00  0.00     0.172 A 
ATOM      3  C   UNL     1       5.561  -4.992  -4.744  1.00  0.00     0.020 A 
ATOM      4  C   UNL     1       5.683  -4.217  -5.852  1.00  0.00     0.005 A 
ATOM      5  C   UNL     1       3.487  -3.114  -5.470  1.00  0.00     0.161 A 
ATOM      6  C   UNL     1       4.693  -3.275  -6.260  1.00  0.00     0.050 A 
ENDROOT
BRANCH   1   7
ATOM      7  C   UNL     1       4.380  -5.217  -2.415  1.00  0.00     0.339 C 
ATOM      8  O   UNL     1       3.155  -4.437  -1.677  1.00  0.00    -0.246 OA
BRANCH   7   9
ATOM      9  O   UNL     1       4.861  -5.912  -1.787  1.00  0.00    -0.478 OA
ATOM     10  H   UNL     1       5.314  -6.566  -1.197  1.00  0.00     0.297 HD
ENDBRANCH   7   9
ENDBRANCH   1   7
BRANCH   2  11
ATOM     11  O   UNL     1       1.995  -4.374  -4.007  1.00  0.00    -0.504 OA
ATOM     12  H   UNL     1       1.069  -4.550  -3.705  1.00  0.00     0.293 HD
ENDBRANCH   2  11
BRANCH   5  13
ATOM     13  O   UNL     1       2.356  -2.377  -5.796  1.00  0.00    -0.493 OA
ATOM     14  C   UNL     1       1.451  -1.815  -6.527  1.00  0.00     0.278 C 
ENDBRANCH   5  13
TORSDOF 4
ENDMDL
MODEL 2
REMARK VINA RESULT:    -4.766      1.756      4.657
REMARK INTER + INTRA:          -6.087
REMARK INTER:                  -5.615
REMARK INTRA:                  -0.471
REMARK UNBOUND:                -0.486
REMARK SMILES COc1cccc(C(=O)O)c1O
REMARK SMILES IDX 7 1 11 2 6 3 5 4 3 5 4 6 8 7 9 8 10 9 12 11 2 13 1 14
REMARK H PARENT 10 10 12 12
ROOT
ATOM      1  C   UNL     1       2.142  -3.206  -6.164  1.00  0.00     0.105 A 
ATOM      2  C   UNL     1       2.992  -3.504  -5.135  1.00  0.00     0.172 A 
ATOM      3  C   UNL     1       1.491  -4.331  -6.861  1.00  0.00     0.020 A 
ATOM      4  C   UNL     1       1.473  -5.536  -6.234  1.00  0.00     0.005 A 
ATOM      5  C   UNL     1       2.811  -4.693  -4.314  1.00  0.00     0.161 A 
ATOM      6  C   UNL     1       2.106  -5.774  -4.979  1.00  0.00     0.050 A 
ENDROOT
BRANCH   1   7
ATOM      7  C   UNL     1       1.792  -1.750  -6.517  1.00  0.00     0.339 C 
ATOM      8  O   UNL     1       2.231  -0.823  -5.251  1.00  0.00    -0.246 OA
BRANCH   7   9
ATOM      9  O   UNL     1       1.457  -1.187  -7.342  1.00  0.00    -0.478 OA
ATOM     10  H   UNL     1       1.143  -0.659  -8.117  1.00  0.00     0.297 HD
ENDBRANCH   7   9
ENDBRANCH   1   7
BRANCH   2  11
ATOM     11  O   UNL     1       4.069  -2.662  -4.808  1.00  0.00    -0.504 OA
ATOM     12  H   UNL     1       4.827  -2.069  -4.578  1.00  0.00     0.293 HD
ENDBRANCH   2  11
BRANCH   5  13
ATOM     13  O   UNL     1       3.615  -4.779  -3.185  1.00  0.00    -0.493 OA
ATOM     14  C   UNL     1       4.608  -5.124  -2.433  1.00  0.00     0.278 C 
ENDBRANCH   5  13
TORSDOF 4
ENDMDL
MODEL 3
REMARK VINA RESULT:    -4.744      2.944      4.420
REMARK INTER + INTRA:          -6.061
REMARK INTER:                  -5.791
REMARK INTRA:                  -0.271
REMARK UNBOUND:                -0.486
REMARK SMILES COc1cccc(C(=O)O)c1O
REMARK SMILES IDX 7 1 11 2 6 3 5 4 3 5 4 6 8 7 9 8 10 9 12 11 2 13 1 14
REMARK H PARENT 10 10 12 12
ROOT
ATOM      1  C   UNL     1       2.224  -3.194  -5.937  1.00  0.00     0.105 A 
ATOM      2  C   UNL     1       2.123  -4.311  -6.719  1.00  0.00     0.172 A 
ATOM      3  C   UNL     1       3.167  -3.235  -4.804  1.00  0.00     0.020 A 
ATOM      4  C   UNL     1       4.123  -4.199  -4.814  1.00  0.00     0.005 A 
ATOM      5  C   UNL     1       3.249  -5.216  -6.908  1.00  0.00     0.161 A 
ATOM      6  C   UNL     1       4.213  -5.202  -5.824  1.00  0.00     0.050 A 
ENDROOT
BRANCH   1   7
ATOM      7  C   UNL     1       1.464  -1.902  -6.285  1.00  0.00     0.339 C 
ATOM      8  O   UNL     1       2.168  -0.686  -5.461  1.00  0.00    -0.246 OA
BRANCH   7   9
ATOM      9  O   UNL     1       0.717  -1.570  -6.948  1.00  0.00    -0.478 OA
ATOM     10  H   UNL     1       0.013  -1.258  -7.572  1.00  0.00     0.297 HD
ENDBRANCH   7   9
ENDBRANCH   1   7
BRANCH   2  11
ATOM     11  O   UNL     1       0.932  -4.626  -7.395  1.00  0.00    -0.504 OA
ATOM     12  H   UNL     1       0.092  -4.848  -7.870  1.00  0.00     0.293 HD
ENDBRANCH   2  11
BRANCH   5  13
ATOM     13  O   UNL     1       3.080  -6.198  -7.876  1.00  0.00    -0.493 OA
ATOM     14  C   UNL     1       3.276  -6.866  -8.964  1.00  0.00     0.278 C 
ENDBRANCH   5  13
TORSDOF 4
ENDMDL
MODEL 4
REMARK VINA RESULT:    -4.728      2.251      3.309
REMARK INTER + INTRA:          -6.043
REMARK INTER:                  -5.777
REMARK INTRA:                  -0.266
REMARK UNBOUND:                -0.486
REMARK SMILES COc1cccc(C(=O)O)c1O
REMARK SMILES IDX 7 1 11 2 6 3 5 4 3 5 4 6 8 7 9 8 10 9 12 11 2 13 1 14
REMARK H PARENT 10 10 12 12
ROOT
ATOM      1  C   UNL     1       4.220  -4.738  -3.918  1.00  0.00     0.105 A 
ATOM      2  C   UNL     1       4.960  -5.224  -4.961  1.00  0.00     0.172 A 
ATOM      3  C   UNL     1       2.965  -4.035  -4.240  1.00  0.00     0.020 A 
ATOM      4  C   UNL     1       2.434  -4.225  -5.476  1.00  0.00     0.005 A 
ATOM      5  C   UNL     1       4.336  -5.650  -6.206  1.00  0.00     0.161 A 
ATOM      6  C   UNL     1       3.065  -5.009  -6.486  1.00  0.00     0.050 A 
ENDROOT
BRANCH   1   7
ATOM      7  C   UNL     1       4.625  -5.003  -2.458  1.00  0.00     0.339 C 
ATOM      8  O   UNL     1       3.336  -4.655  -1.525  1.00  0.00    -0.246 OA
BRANCH   7   9
ATOM      9  O   UNL     1       5.424  -5.421  -1.915  1.00  0.00    -0.478 OA
ATOM     10  H   UNL     1       6.176  -5.814  -1.404  1.00  0.00     0.297 HD
ENDBRANCH   7   9
ENDBRANCH   1   7
BRANCH   2  11
ATOM     11  O   UNL     1       6.356  -5.356  -4.870  1.00  0.00    -0.504 OA
ATOM     12  H   UNL     1       7.339  -5.449  -4.805  1.00  0.00     0.293 HD
ENDBRANCH   2  11
BRANCH   5  13
ATOM     13  O   UNL     1       5.167  -6.306  -7.106  1.00  0.00    -0.493 OA
ATOM     14  C   UNL     1       5.607  -7.241  -7.882  1.00  0.00     0.278 C 
ENDBRANCH   5  13
TORSDOF 4
ENDMDL
MODEL 5
REMARK VINA RESULT:    -3.934      2.188      3.094
REMARK INTER + INTRA:          -5.109
REMARK INTER:                  -4.789
REMARK INTRA:                  -0.320
REMARK UNBOUND:                -0.486
REMARK SMILES COc1cccc(C(=O)O)c1O
REMARK SMILES IDX 7 1 11 2 6 3 5 4 3 5 4 6 8 7 9 8 10 9 12 11 2 13 1 14
REMARK H PARENT 10 10 12 12
ROOT
ATOM      1  C   UNL     1       5.201  -4.825  -4.734  1.00  0.00     0.105 A 
ATOM      2  C   UNL     1       4.509  -3.868  -5.425  1.00  0.00     0.172 A 
ATOM      3  C   UNL     1       4.821  -5.062  -3.329  1.00  0.00     0.020 A 
ATOM      4  C   UNL     1       3.609  -4.608  -2.918  1.00  0.00     0.005 A 
ATOM      5  C   UNL     1       3.119  -3.561  -5.120  1.00  0.00     0.161 A 
ATOM      6  C   UNL     1       2.728  -3.863  -3.755  1.00  0.00     0.050 A 
ENDROOT
BRANCH   1   7
ATOM      7  C   UNL     1       6.266  -5.697  -5.422  1.00  0.00     0.339 C 
ATOM      8  O   UNL     1       5.669  -6.141  -6.871  1.00  0.00    -0.246 OA
BRANCH   7   9
ATOM      9  O   UNL     1       7.265  -5.997  -5.279  1.00  0.00    -0.478 OA
ATOM     10  H   UNL     1       8.204  -6.279  -5.145  1.00  0.00     0.297 HD
ENDBRANCH   7   9
ENDBRANCH   1   7
BRANCH   2  11
ATOM     11  O   UNL     1       5.104  -3.153  -6.478  1.00  0.00    -0.504 OA
ATOM     12  H   UNL     1       5.523  -2.649  -7.220  1.00  0.00     0.293 HD
ENDBRANCH   2  11
BRANCH   5  13
ATOM     13  O   UNL     1       2.474  -2.719  -6.017  1.00  0.00    -0.493 OA
ATOM     14  C   UNL     1       1.565  -1.936  -6.498  1.00  0.00     0.278 C 
ENDBRANCH   5  13
TORSDOF 4
ENDMDL
MODEL 6
REMARK VINA RESULT:    -3.879      7.249      7.777
REMARK INTER + INTRA:          -5.045
REMARK INTER:                  -4.802
REMARK INTRA:                  -0.242
REMARK UNBOUND:                -0.486
REMARK SMILES COc1cccc(C(=O)O)c1O
REMARK SMILES IDX 7 1 11 2 6 3 5 4 3 5 4 6 8 7 9 8 10 9 12 11 2 13 1 14
REMARK H PARENT 10 10 12 12
ROOT
ATOM      1  C   UNL     1       5.566   2.441  -1.100  1.00  0.00     0.105 A 
ATOM      2  C   UNL     1       4.374   1.797  -0.913  1.00  0.00     0.172 A 
ATOM      3  C   UNL     1       5.560   3.671  -1.913  1.00  0.00     0.020 A 
ATOM      4  C   UNL     1       4.367   4.287  -2.115  1.00  0.00     0.005 A 
ATOM      5  C   UNL     1       3.110   2.520  -0.897  1.00  0.00     0.161 A 
ATOM      6  C   UNL     1       3.127   3.767  -1.639  1.00  0.00     0.050 A 
ENDROOT
BRANCH   1   7
ATOM      7  C   UNL     1       6.851   1.963  -0.401  1.00  0.00     0.339 C 
ATOM      8  O   UNL     1       6.420   1.345   1.043  1.00  0.00    -0.246 OA
BRANCH   7   9
ATOM      9  O   UNL     1       7.874   1.833  -0.614  1.00  0.00    -0.478 OA
ATOM     10  H   UNL     1       8.836   1.711  -0.815  1.00  0.00     0.297 HD
ENDBRANCH   7   9
ENDBRANCH   1   7
BRANCH   2  11
ATOM     11  O   UNL     1       4.317   0.408  -0.708  1.00  0.00    -0.504 OA
ATOM     12  H   UNL     1       4.276  -0.571  -0.563  1.00  0.00     0.293 HD
ENDBRANCH   2  11
BRANCH   5  13
ATOM     13  O   UNL     1       1.998   1.787  -0.504  1.00  0.00    -0.493 OA
ATOM     14  C   UNL     1       1.307   0.840   0.041  1.00  0.00     0.278 C 
ENDBRANCH   5  13
TORSDOF 4
ENDMDL
MODEL 7
REMARK VINA RESULT:    -3.764      7.055      8.175
REMARK INTER + INTRA:          -4.910
REMARK INTER:                  -4.591
REMARK INTRA:                  -0.318
REMARK UNBOUND:                -0.486
REMARK SMILES COc1cccc(C(=O)O)c1O
REMARK SMILES IDX 7 1 11 2 6 3 5 4 3 5 4 6 8 7 9 8 10 9 12 11 2 13 1 14
REMARK H PARENT 10 10 12 12
ROOT
ATOM      1  C   UNL     1      -1.925  -2.218   1.558  1.00  0.00     0.105 A 
ATOM      2  C   UNL     1      -0.972  -1.331   1.136  1.00  0.00     0.172 A 
ATOM      3  C   UNL     1      -3.204  -2.246   0.826  1.00  0.00     0.020 A 
ATOM      4  C   UNL     1      -3.237  -1.683  -0.410  1.00  0.00     0.005 A 
ATOM      5  C   UNL     1      -0.876  -0.919  -0.257  1.00  0.00     0.161 A 
ATOM      6  C   UNL     1      -2.122  -1.015  -0.994  1.00  0.00     0.050 A 
ENDROOT
BRANCH   1   7
ATOM      7  C   UNL     1      -1.637  -3.226   2.685  1.00  0.00     0.339 C 
ATOM      8  O   UNL     1      -0.028  -3.478   2.714  1.00  0.00    -0.246 OA
BRANCH   7   9
ATOM      9  O   UNL     1      -2.143  -3.704   3.475  1.00  0.00    -0.478 OA
ATOM     10  H   UNL     1      -2.617  -4.155   4.218  1.00  0.00     0.297 HD
ENDBRANCH   7   9
ENDBRANCH   1   7
BRANCH   2  11
ATOM     11  O   UNL     1      -0.028  -0.793   2.028  1.00  0.00    -0.504 OA
ATOM     12  H   UNL     1       0.637  -0.414   2.656  1.00  0.00     0.293 HD
ENDBRANCH   2  11
BRANCH   5  13
ATOM     13  O   UNL     1       0.248  -0.174  -0.591  1.00  0.00    -0.493 OA
ATOM     14  C   UNL     1       1.473   0.238  -0.572  1.00  0.00     0.278 C 
ENDBRANCH   5  13
TORSDOF 4
ENDMDL
MODEL 8
REMARK VINA RESULT:    -3.676      1.654      2.189
REMARK INTER + INTRA:          -4.806
REMARK INTER:                  -4.620
REMARK INTRA:                  -0.186
REMARK UNBOUND:                -0.486
REMARK SMILES COc1cccc(C(=O)O)c1O
REMARK SMILES IDX 7 1 11 2 6 3 5 4 3 5 4 6 8 7 9 8 10 9 12 11 2 13 1 14
REMARK H PARENT 10 10 12 12
ROOT
ATOM      1  C   UNL     1       3.467  -4.975  -3.717  1.00  0.00     0.105 A 
ATOM      2  C   UNL     1       2.954  -3.785  -4.155  1.00  0.00     0.172 A 
ATOM      3  C   UNL     1       2.879  -6.214  -4.260  1.00  0.00     0.020 A 
ATOM      4  C   UNL     1       2.147  -6.118  -5.400  1.00  0.00     0.005 A 
ATOM      5  C   UNL     1       2.382  -3.643  -5.486  1.00  0.00     0.161 A 
ATOM      6  C   UNL     1       1.869  -4.879  -6.048  1.00  0.00     0.050 A 
ENDROOT
BRANCH   1   7
ATOM      7  C   UNL     1       4.681  -5.025  -2.773  1.00  0.00     0.339 C 
ATOM      8  O   UNL     1       6.002  -5.277  -3.693  1.00  0.00    -0.246 OA
BRANCH   7   9
ATOM      9  O   UNL     1       4.912  -4.852  -1.761  1.00  0.00    -0.478 OA
ATOM     10  H   UNL     1       5.130  -4.690  -0.808  1.00  0.00     0.297 HD
ENDBRANCH   7   9
ENDBRANCH   1   7
BRANCH   2  11
ATOM     11  O   UNL     1       2.977  -2.637  -3.345  1.00  0.00    -0.504 OA
ATOM     12  H   UNL     1       2.992  -1.827  -2.774  1.00  0.00     0.293 HD
ENDBRANCH   2  11
BRANCH   5  13
ATOM     13  O   UNL     1       2.080  -2.346  -5.881  1.00  0.00    -0.493 OA
ATOM     14  C   UNL     1       1.490  -1.381  -6.505  1.00  0.00     0.278 C 
ENDBRANCH   5  13
TORSDOF 4
ENDMDL
MODEL 9
REMARK VINA RESULT:    -3.658      2.306      4.444
REMARK INTER + INTRA:          -4.785
REMARK INTER:                  -4.524
REMARK INTRA:                  -0.261
REMARK UNBOUND:                -0.486
REMARK SMILES COc1cccc(C(=O)O)c1O
REMARK SMILES IDX 7 1 11 2 6 3 5 4 3 5 4 6 8 7 9 8 10 9 12 11 2 13 1 14
REMARK H PARENT 10 10 12 12
ROOT
ATOM      1  C   UNL     1       3.033  -3.560  -5.312  1.00  0.00     0.105 A 
ATOM      2  C   UNL     1       3.934  -4.454  -5.822  1.00  0.00     0.172 A 
ATOM      3  C   UNL     1       2.733  -3.639  -3.870  1.00  0.00     0.020 A 
ATOM      4  C   UNL     1       3.606  -4.315  -3.080  1.00  0.00     0.005 A 
ATOM      5  C   UNL     1       5.019  -4.990  -5.012  1.00  0.00     0.161 A 
ATOM      6  C   UNL     1       4.749  -5.001  -3.587  1.00  0.00     0.050 A 
ENDROOT
BRANCH   1   7
ATOM      7  C   UNL     1       2.430  -2.445  -6.184  1.00  0.00     0.339 C 
ATOM      8  O   UNL     1       2.244  -1.133  -5.236  1.00  0.00    -0.246 OA
BRANCH   7   9
ATOM      9  O   UNL     1       2.205  -2.256  -7.195  1.00  0.00    -0.478 OA
ATOM     10  H   UNL     1       1.993  -2.078  -8.146  1.00  0.00     0.297 HD
ENDBRANCH   7   9
ENDBRANCH   1   7
BRANCH   2  11
ATOM     11  O   UNL     1       3.867  -4.878  -7.160  1.00  0.00    -0.504 OA
ATOM     12  H   UNL     1       3.820  -5.177  -8.103  1.00  0.00     0.293 HD
ENDBRANCH   2  11
BRANCH   5  13
ATOM     13  O   UNL     1       5.977  -5.728  -5.696  1.00  0.00    -0.493 OA
ATOM     14  C   UNL     1       7.098  -6.325  -5.934  1.00  0.00     0.278 C 
ENDBRANCH   5  13
TORSDOF 4
ENDMDL
