MODEL 1
REMARK VINA RESULT:    -4.944      0.000      0.000
REMARK INTER + INTRA:          -6.081
REMARK INTER:                  -5.811
REMARK INTRA:                  -0.269
REMARK UNBOUND:                -0.269
REMARK SMILES COc1cccc(C(=O)O)c1O
REMARK SMILES IDX 7 1 11 2 6 3 5 4 3 5 4 6 8 7 9 8 10 9 12 11 2 13 1 14
REMARK H PARENT 10 10 12 12
ROOT
ATOM      1  C   UNL     1       1.950   6.297  -4.246  1.00  0.00     0.105 A 
ATOM      2  C   UNL     1       1.457   7.244  -5.102  1.00  0.00     0.172 A 
ATOM      3  C   UNL     1       2.125   4.929  -4.767  1.00  0.00     0.020 A 
ATOM      4  C   UNL     1       2.145   4.765  -6.115  1.00  0.00     0.005 A 
ATOM      5  C   UNL     1       1.697   7.174  -6.536  1.00  0.00     0.161 A 
ATOM      6  C   UNL     1       1.939   5.834  -7.036  1.00  0.00     0.050 A 
ENDROOT
BRANCH   1   7
ATOM      7  C   UNL     1       2.405   6.665  -2.823  1.00  0.00     0.339 C 
ATOM      8  O   UNL     1       3.412   5.489  -2.315  1.00  0.00    -0.246 OA
BRANCH   7   9
ATOM      9  O   UNL     1       2.339   7.469  -2.147  1.00  0.00    -0.478 OA
ATOM     10  H   UNL     1       2.277   8.225  -1.511  1.00  0.00     0.297 HD
ENDBRANCH   7   9
ENDBRANCH   1   7
BRANCH   2  11
ATOM     11  O   UNL     1       0.715   8.340  -4.632  1.00  0.00    -0.504 OA
ATOM     12  H   UNL     1       0.191   9.113  -4.300  1.00  0.00     0.293 HD
ENDBRANCH   2  11
BRANCH   5  13
ATOM     13  O   UNL     1       1.317   8.292  -7.269  1.00  0.00    -0.493 OA
ATOM     14  C   UNL     1       1.371   9.229  -8.156  1.00  0.00     0.278 C 
ENDBRANCH   5  13
TORSDOF 4
ENDMDL
MODEL 2
REMARK VINA RESULT:    -4.933      2.910      3.927
REMARK INTER + INTRA:          -6.068
REMARK INTER:                  -5.799
REMARK INTRA:                  -0.268
REMARK UNBOUND:                -0.269
REMARK SMILES COc1cccc(C(=O)O)c1O
REMARK SMILES IDX 7 1 11 2 6 3 5 4 3 5 4 6 8 7 9 8 10 9 12 11 2 13 1 14
REMARK H PARENT 10 10 12 12
ROOT
ATOM      1  C   UNL     1       1.515   4.219  -6.294  1.00  0.00     0.105 A 
ATOM      2  C   UNL     1       1.972   5.064  -7.268  1.00  0.00     0.172 A 
ATOM      3  C   UNL     1       1.349   4.769  -4.936  1.00  0.00     0.020 A 
ATOM      4  C   UNL     1       1.297   6.119  -4.803  1.00  0.00     0.005 A 
ATOM      5  C   UNL     1       1.698   6.494  -7.229  1.00  0.00     0.161 A 
ATOM      6  C   UNL     1       1.464   7.019  -5.897  1.00  0.00     0.050 A 
ENDROOT
BRANCH   1   7
ATOM      7  C   UNL     1       1.089   2.777  -6.620  1.00  0.00     0.339 C 
ATOM      8  O   UNL     1       0.123   2.270  -5.411  1.00  0.00    -0.246 OA
BRANCH   7   9
ATOM      9  O   UNL     1       1.155   2.086  -7.411  1.00  0.00    -0.478 OA
ATOM     10  H   UNL     1       1.218   1.435  -8.156  1.00  0.00     0.297 HD
ENDBRANCH   7   9
ENDBRANCH   1   7
BRANCH   2  11
ATOM     11  O   UNL     1       2.709   4.586  -8.365  1.00  0.00    -0.504 OA
ATOM     12  H   UNL     1       3.228   4.249  -9.138  1.00  0.00     0.293 HD
ENDBRANCH   2  11
BRANCH   5  13
ATOM     13  O   UNL     1       2.042   7.208  -8.370  1.00  0.00    -0.493 OA
ATOM     14  C   UNL     1       2.055   8.167  -9.235  1.00  0.00     0.278 C 
ENDBRANCH   5  13
TORSDOF 4
ENDMDL
MODEL 3
REMARK VINA RESULT:    -4.829      2.268      3.254
REMARK INTER + INTRA:          -5.946
REMARK INTER:                  -5.474
REMARK INTRA:                  -0.471
REMARK UNBOUND:                -0.269
REMARK SMILES COc1cccc(C(=O)O)c1O
REMARK SMILES IDX 7 1 11 2 6 3 5 4 3 5 4 6 8 7 9 8 10 9 12 11 2 13 1 14
REMARK H PARENT 10 10 12 12
ROOT
ATOM      1  C   UNL     1       1.958   6.578  -4.136  1.00  0.00     0.105 A 
ATOM      2  C   UNL     1       1.946   5.401  -4.832  1.00  0.00     0.172 A 
ATOM      3  C   UNL     1       1.024   7.636  -4.566  1.00  0.00     0.020 A 
ATOM      4  C   UNL     1      -0.020   7.273  -5.355  1.00  0.00     0.005 A 
ATOM      5  C   UNL     1       0.738   4.908  -5.478  1.00  0.00     0.161 A 
ATOM      6  C   UNL     1      -0.212   5.945  -5.836  1.00  0.00     0.050 A 
ENDROOT
BRANCH   1   7
ATOM      7  C   UNL     1       2.835   6.760  -2.886  1.00  0.00     0.339 C 
ATOM      8  O   UNL     1       3.299   5.277  -2.397  1.00  0.00    -0.246 OA
BRANCH   7   9
ATOM      9  O   UNL     1       3.287   7.534  -2.334  1.00  0.00    -0.478 OA
ATOM     10  H   UNL     1       3.713   8.262  -1.814  1.00  0.00     0.297 HD
ENDBRANCH   7   9
ENDBRANCH   1   7
BRANCH   2  11
ATOM     11  O   UNL     1       3.097   4.601  -4.937  1.00  0.00    -0.504 OA
ATOM     12  H   UNL     1       3.908   4.038  -5.011  1.00  0.00     0.293 HD
ENDBRANCH   2  11
BRANCH   5  13
ATOM     13  O   UNL     1       0.804   3.614  -5.980  1.00  0.00    -0.493 OA
ATOM     14  C   UNL     1       0.953   2.657  -6.836  1.00  0.00     0.278 C 
ENDBRANCH   5  13
TORSDOF 4
ENDMDL
MODEL 4
REMARK VINA RESULT:    -4.329      2.734      3.638
REMARK INTER + INTRA:          -5.358
REMARK INTER:                  -4.896
REMARK INTRA:                  -0.461
REMARK UNBOUND:                -0.269
REMARK SMILES COc1cccc(C(=O)O)c1O
REMARK SMILES IDX 7 1 11 2 6 3 5 4 3 5 4 6 8 7 9 8 10 9 12 11 2 13 1 14
REMARK H PARENT 10 10 12 12
ROOT
ATOM      1  C   UNL     1       1.649   4.264  -5.532  1.00  0.00     0.105 A 
ATOM      2  C   UNL     1       1.981   5.192  -6.481  1.00  0.00     0.172 A 
ATOM      3  C   UNL     1       1.960   4.583  -4.127  1.00  0.00     0.020 A 
ATOM      4  C   UNL     1       2.206   5.881  -3.813  1.00  0.00     0.005 A 
ATOM      5  C   UNL     1       2.007   6.616  -6.180  1.00  0.00     0.161 A 
ATOM      6  C   UNL     1       2.243   6.926  -4.783  1.00  0.00     0.050 A 
ENDROOT
BRANCH   1   7
ATOM      7  C   UNL     1       0.883   2.982  -5.901  1.00  0.00     0.339 C 
ATOM      8  O   UNL     1       1.559   2.383  -7.256  1.00  0.00    -0.246 OA
BRANCH   7   9
ATOM      9  O   UNL     1       0.145   2.349  -5.496  1.00  0.00    -0.478 OA
ATOM     10  H   UNL     1      -0.549   1.754  -5.114  1.00  0.00     0.297 HD
ENDBRANCH   7   9
ENDBRANCH   1   7
BRANCH   2  11
ATOM     11  O   UNL     1       2.291   4.812  -7.798  1.00  0.00    -0.504 OA
ATOM     12  H   UNL     1       2.510   4.545  -8.726  1.00  0.00     0.293 HD
ENDBRANCH   2  11
BRANCH   5  13
ATOM     13  O   UNL     1       2.164   7.463  -7.271  1.00  0.00    -0.493 OA
ATOM     14  C   UNL     1       1.854   8.314  -8.192  1.00  0.00     0.278 C 
ENDBRANCH   5  13
TORSDOF 4
ENDMDL
MODEL 5
REMARK VINA RESULT:    -4.172      2.280      3.786
REMARK INTER + INTRA:          -5.173
REMARK INTER:                  -4.888
REMARK INTRA:                  -0.285
REMARK UNBOUND:                -0.269
REMARK SMILES COc1cccc(C(=O)O)c1O
REMARK SMILES IDX 7 1 11 2 6 3 5 4 3 5 4 6 8 7 9 8 10 9 12 11 2 13 1 14
REMARK H PARENT 10 10 12 12
ROOT
ATOM      1  C   UNL     1       1.110   7.176  -4.568  1.00  0.00     0.105 A 
ATOM      2  C   UNL     1       0.656   6.026  -5.152  1.00  0.00     0.172 A 
ATOM      3  C   UNL     1       2.062   7.046  -3.449  1.00  0.00     0.020 A 
ATOM      4  C   UNL     1       2.705   5.859  -3.304  1.00  0.00     0.005 A 
ATOM      5  C   UNL     1       1.468   4.819  -5.194  1.00  0.00     0.161 A 
ATOM      6  C   UNL     1       2.453   4.726  -4.133  1.00  0.00     0.050 A 
ENDROOT
BRANCH   1   7
ATOM      7  C   UNL     1       0.728   8.560  -5.121  1.00  0.00     0.339 C 
ATOM      8  O   UNL     1       0.899   8.501  -6.740  1.00  0.00    -0.246 OA
BRANCH   7   9
ATOM      9  O   UNL     1       0.310   9.466  -4.785  1.00  0.00    -0.478 OA
ATOM     10  H   UNL     1      -0.083  10.319  -4.469  1.00  0.00     0.297 HD
ENDBRANCH   7   9
ENDBRANCH   1   7
BRANCH   2  11
ATOM     11  O   UNL     1      -0.611   5.964  -5.758  1.00  0.00    -0.504 OA
ATOM     12  H   UNL     1      -1.503   5.920  -6.185  1.00  0.00     0.293 HD
ENDBRANCH   2  11
BRANCH   5  13
ATOM     13  O   UNL     1       0.978   3.786  -5.984  1.00  0.00    -0.493 OA
ATOM     14  C   UNL     1       0.972   2.826  -6.848  1.00  0.00     0.278 C 
ENDBRANCH   5  13
TORSDOF 4
ENDMDL
MODEL 6
REMARK VINA RESULT:    -4.125      2.240      4.607
REMARK INTER + INTRA:          -5.118
REMARK INTER:                  -4.791
REMARK INTRA:                  -0.327
REMARK UNBOUND:                -0.269
REMARK SMILES COc1cccc(C(=O)O)c1O
REMARK SMILES IDX 7 1 11 2 6 3 5 4 3 5 4 6 8 7 9 8 10 9 12 11 2 13 1 14
REMARK H PARENT 10 10 12 12
ROOT
ATOM      1  C   UNL     1       2.349   4.623  -7.235  1.00  0.00     0.105 A 
ATOM      2  C   UNL     1       2.708   5.353  -6.135  1.00  0.00     0.172 A 
ATOM      3  C   UNL     1       1.495   3.441  -7.023  1.00  0.00     0.020 A 
ATOM      4  C   UNL     1       0.823   3.351  -5.846  1.00  0.00     0.005 A 
ATOM      5  C   UNL     1       1.851   5.436  -4.961  1.00  0.00     0.161 A 
ATOM      6  C   UNL     1       0.959   4.303  -4.793  1.00  0.00     0.050 A 
ENDROOT
BRANCH   1   7
ATOM      7  C   UNL     1       2.732   5.075  -8.655  1.00  0.00     0.339 C 
ATOM      8  O   UNL     1       2.494   6.685  -8.735  1.00  0.00    -0.246 OA
BRANCH   7   9
ATOM      9  O   UNL     1       3.179   4.683  -9.524  1.00  0.00    -0.478 OA
ATOM     10  H   UNL     1       3.600   4.314 -10.341  1.00  0.00     0.297 HD
ENDBRANCH   7   9
ENDBRANCH   1   7
BRANCH   2  11
ATOM     11  O   UNL     1       3.913   6.075  -6.097  1.00  0.00    -0.504 OA
ATOM     12  H   UNL     1       4.763   6.583  -6.070  1.00  0.00     0.293 HD
ENDBRANCH   2  11
BRANCH   5  13
ATOM     13  O   UNL     1       2.232   6.361  -3.998  1.00  0.00    -0.493 OA
ATOM     14  C   UNL     1       2.557   6.834  -2.840  1.00  0.00     0.278 C 
ENDBRANCH   5  13
TORSDOF 4
ENDMDL
MODEL 7
REMARK VINA RESULT:    -4.070      1.910      2.629
REMARK INTER + INTRA:          -5.053
REMARK INTER:                  -4.615
REMARK INTRA:                  -0.438
REMARK UNBOUND:                -0.269
REMARK SMILES COc1cccc(C(=O)O)c1O
REMARK SMILES IDX 7 1 11 2 6 3 5 4 3 5 4 6 8 7 9 8 10 9 12 11 2 13 1 14
REMARK H PARENT 10 10 12 12
ROOT
ATOM      1  C   UNL     1       2.209   6.936  -4.116  1.00  0.00     0.105 A 
ATOM      2  C   UNL     1       2.776   6.289  -5.179  1.00  0.00     0.172 A 
ATOM      3  C   UNL     1       1.010   7.754  -4.374  1.00  0.00     0.020 A 
ATOM      4  C   UNL     1       0.333   7.534  -5.530  1.00  0.00     0.005 A 
ATOM      5  C   UNL     1       1.981   5.846  -6.316  1.00  0.00     0.161 A 
ATOM      6  C   UNL     1       0.764   6.608  -6.525  1.00  0.00     0.050 A 
ENDROOT
BRANCH   1   7
ATOM      7  C   UNL     1       2.736   6.736  -2.684  1.00  0.00     0.339 C 
ATOM      8  O   UNL     1       3.321   5.219  -2.588  1.00  0.00    -0.246 OA
BRANCH   7   9
ATOM      9  O   UNL     1       2.912   7.301  -1.813  1.00  0.00    -0.478 OA
ATOM     10  H   UNL     1       3.078   7.831  -0.993  1.00  0.00     0.297 HD
ENDBRANCH   7   9
ENDBRANCH   1   7
BRANCH   2  11
ATOM     11  O   UNL     1       4.152   6.003  -5.213  1.00  0.00    -0.504 OA
ATOM     12  H   UNL     1       5.121   5.802  -5.236  1.00  0.00     0.293 HD
ENDBRANCH   2  11
BRANCH   5  13
ATOM     13  O   UNL     1       2.636   5.032  -7.232  1.00  0.00    -0.493 OA
ATOM     14  C   UNL     1       3.125   4.635  -8.360  1.00  0.00     0.278 C 
ENDBRANCH   5  13
TORSDOF 4
ENDMDL
MODEL 8
REMARK VINA RESULT:    -3.928      7.860      8.982
REMARK INTER + INTRA:          -4.886
REMARK INTER:                  -4.635
REMARK INTRA:                  -0.251
REMARK UNBOUND:                -0.269
REMARK SMILES COc1cccc(C(=O)O)c1O
REMARK SMILES IDX 7 1 11 2 6 3 5 4 3 5 4 6 8 7 9 8 10 9 12 11 2 13 1 14
REMARK H PARENT 10 10 12 12
ROOT
ATOM      1  C   UNL     1       6.472   0.044  -0.459  1.00  0.00     0.105 A 
ATOM      2  C   UNL     1       5.106   0.090  -0.414  1.00  0.00     0.172 A 
ATOM      3  C   UNL     1       7.094  -0.735  -1.546  1.00  0.00     0.020 A 
ATOM      4  C   UNL     1       6.324  -1.043  -2.622  1.00  0.00     0.005 A 
ATOM      5  C   UNL     1       4.298  -0.006  -1.621  1.00  0.00     0.161 A 
ATOM      6  C   UNL     1       4.941  -0.711  -2.714  1.00  0.00     0.050 A 
ENDROOT
BRANCH   1   7
ATOM      7  C   UNL     1       7.333   0.858   0.522  1.00  0.00     0.339 C 
ATOM      8  O   UNL     1       6.516   2.224   0.869  1.00  0.00    -0.246 OA
BRANCH   7   9
ATOM      9  O   UNL     1       8.214   0.751   1.088  1.00  0.00    -0.478 OA
ATOM     10  H   UNL     1       9.042   0.651   1.622  1.00  0.00     0.297 HD
ENDBRANCH   7   9
ENDBRANCH   1   7
BRANCH   2  11
ATOM     11  O   UNL     1       4.419   0.253   0.802  1.00  0.00    -0.504 OA
ATOM     12  H   UNL     1       3.935   0.368   1.658  1.00  0.00     0.293 HD
ENDBRANCH   2  11
BRANCH   5  13
ATOM     13  O   UNL     1       2.942   0.252  -1.464  1.00  0.00    -0.493 OA
ATOM     14  C   UNL     1       1.853   0.711  -0.942  1.00  0.00     0.278 C 
ENDBRANCH   5  13
TORSDOF 4
ENDMDL
MODEL 9
REMARK VINA RESULT:    -3.916      7.923      8.914
REMARK INTER + INTRA:          -4.872
REMARK INTER:                  -4.631
REMARK INTRA:                  -0.242
REMARK UNBOUND:                -0.269
REMARK SMILES COc1cccc(C(=O)O)c1O
REMARK SMILES IDX 7 1 11 2 6 3 5 4 3 5 4 6 8 7 9 8 10 9 12 11 2 13 1 14
REMARK H PARENT 10 10 12 12
ROOT
ATOM      1  C   UNL     1      -2.563   1.938   0.293  1.00  0.00     0.105 A 
ATOM      2  C   UNL     1      -1.283   1.588  -0.039  1.00  0.00     0.172 A 
ATOM      3  C   UNL     1      -3.658   1.096  -0.223  1.00  0.00     0.020 A 
ATOM      4  C   UNL     1      -3.341  -0.147  -0.668  1.00  0.00     0.005 A 
ATOM      5  C   UNL     1      -0.910   0.202  -0.282  1.00  0.00     0.161 A 
ATOM      6  C   UNL     1      -2.005  -0.642  -0.722  1.00  0.00     0.050 A 
ENDROOT
BRANCH   1   7
ATOM      7  C   UNL     1      -2.850   3.105   1.254  1.00  0.00     0.339 C 
ATOM      8  O   UNL     1      -1.620   3.170   2.321  1.00  0.00    -0.246 OA
BRANCH   7   9
ATOM      9  O   UNL     1      -3.529   3.902   1.361  1.00  0.00    -0.478 OA
ATOM     10  H   UNL     1      -4.167   4.653   1.461  1.00  0.00     0.297 HD
ENDBRANCH   7   9
ENDBRANCH   1   7
BRANCH   2  11
ATOM     11  O   UNL     1      -0.263   2.550  -0.138  1.00  0.00    -0.504 OA
ATOM     12  H   UNL     1       0.455   3.228  -0.208  1.00  0.00     0.293 HD
ENDBRANCH   2  11
BRANCH   5  13
ATOM     13  O   UNL     1       0.451  -0.045  -0.413  1.00  0.00    -0.493 OA
ATOM     14  C   UNL     1       1.726   0.155  -0.347  1.00  0.00     0.278 C 
ENDBRANCH   5  13
TORSDOF 4
ENDMDL
