MODEL 1
REMARK VINA RESULT:    -4.869      0.000      0.000
REMARK INTER + INTRA:          -6.208
REMARK INTER:                  -5.722
REMARK INTRA:                  -0.486
REMARK UNBOUND:                -0.486
REMARK SMILES COc1cccc(C(=O)O)c1O
REMARK SMILES IDX 7 1 11 2 6 3 5 4 3 5 4 6 8 7 9 8 10 9 12 11 2 13 1 14
REMARK H PARENT 10 10 12 12
ROOT
ATOM      1  C   UNL     1      -5.250   5.898  -1.761  1.00  0.00     0.105 A 
ATOM      2  C   UNL     1      -4.239   5.593  -2.631  1.00  0.00     0.172 A 
ATOM      3  C   UNL     1      -6.554   6.277  -2.335  1.00  0.00     0.020 A 
ATOM      4  C   UNL     1      -6.790   5.955  -3.633  1.00  0.00     0.005 A 
ATOM      5  C   UNL     1      -4.506   5.019  -3.942  1.00  0.00     0.161 A 
ATOM      6  C   UNL     1      -5.819   5.335  -4.474  1.00  0.00     0.050 A 
ENDROOT
BRANCH   1   7
ATOM      7  C   UNL     1      -5.069   5.751  -0.241  1.00  0.00     0.339 C 
ATOM      8  O   UNL     1      -3.711   4.885   0.007  1.00  0.00    -0.246 OA
BRANCH   7   9
ATOM      9  O   UNL     1      -5.493   6.113   0.652  1.00  0.00    -0.478 OA
ATOM     10  H   UNL     1      -5.892   6.455   1.492  1.00  0.00     0.297 HD
ENDBRANCH   7   9
ENDBRANCH   1   7
BRANCH   2  11
ATOM     11  O   UNL     1      -2.892   5.800  -2.288  1.00  0.00    -0.504 OA
ATOM     12  H   UNL     1      -1.943   5.946  -2.046  1.00  0.00     0.293 HD
ENDBRANCH   2  11
BRANCH   5  13
ATOM     13  O   UNL     1      -3.395   4.573  -4.646  1.00  0.00    -0.493 OA
ATOM     14  C   UNL     1      -2.558   4.438  -5.621  1.00  0.00     0.278 C 
ENDBRANCH   5  13
TORSDOF 4
ENDMDL
MODEL 2
REMARK VINA RESULT:    -4.855      1.743      4.673
REMARK INTER + INTRA:          -6.193
REMARK INTER:                  -5.707
REMARK INTRA:                  -0.485
REMARK UNBOUND:                -0.486
REMARK SMILES COc1cccc(C(=O)O)c1O
REMARK SMILES IDX 7 1 11 2 6 3 5 4 3 5 4 6 8 7 9 8 10 9 12 11 2 13 1 14
REMARK H PARENT 10 10 12 12
ROOT
ATOM      1  C   UNL     1      -3.224   5.509  -4.660  1.00  0.00     0.105 A 
ATOM      2  C   UNL     1      -4.003   5.288  -3.557  1.00  0.00     0.172 A 
ATOM      3  C   UNL     1      -2.722   6.878  -4.878  1.00  0.00     0.020 A 
ATOM      4  C   UNL     1      -2.740   7.733  -3.824  1.00  0.00     0.005 A 
ATOM      5  C   UNL     1      -3.841   6.069  -2.339  1.00  0.00     0.161 A 
ATOM      6  C   UNL     1      -3.279   7.390  -2.549  1.00  0.00     0.050 A 
ENDROOT
BRANCH   1   7
ATOM      7  C   UNL     1      -2.798   4.354  -5.583  1.00  0.00     0.339 C 
ATOM      8  O   UNL     1      -3.124   2.962  -4.803  1.00  0.00    -0.246 OA
BRANCH   7   9
ATOM      9  O   UNL     1      -2.464   4.204  -6.570  1.00  0.00    -0.478 OA
ATOM     10  H   UNL     1      -2.149   4.062  -7.498  1.00  0.00     0.297 HD
ENDBRANCH   7   9
ENDBRANCH   1   7
BRANCH   2  11
ATOM     11  O   UNL     1      -4.982   4.280  -3.542  1.00  0.00    -0.504 OA
ATOM     12  H   UNL     1      -5.671   3.569  -3.532  1.00  0.00     0.293 HD
ENDBRANCH   2  11
BRANCH   5  13
ATOM     13  O   UNL     1      -4.549   5.619  -1.232  1.00  0.00    -0.493 OA
ATOM     14  C   UNL     1      -5.297   5.660  -0.179  1.00  0.00     0.278 C 
ENDBRANCH   5  13
TORSDOF 4
ENDMDL
MODEL 3
REMARK VINA RESULT:    -4.677      2.248      3.253
REMARK INTER + INTRA:          -5.983
REMARK INTER:                  -5.713
REMARK INTRA:                  -0.269
REMARK UNBOUND:                -0.486
REMARK SMILES COc1cccc(C(=O)O)c1O
REMARK SMILES IDX 7 1 11 2 6 3 5 4 3 5 4 6 8 7 9 8 10 9 12 11 2 13 1 14
REMARK H PARENT 10 10 12 12
ROOT
ATOM      1  C   UNL     1      -5.006   5.822  -1.895  1.00  0.00     0.105 A 
ATOM      2  C   UNL     1      -5.880   6.623  -2.576  1.00  0.00     0.172 A 
ATOM      3  C   UNL     1      -3.795   5.371  -2.605  1.00  0.00     0.020 A 
ATOM      4  C   UNL     1      -3.432   6.048  -3.725  1.00  0.00     0.005 A 
ATOM      5  C   UNL     1      -5.429   7.527  -3.625  1.00  0.00     0.161 A 
ATOM      6  C   UNL     1      -4.198   7.118  -4.275  1.00  0.00     0.050 A 
ENDROOT
BRANCH   1   7
ATOM      7  C   UNL     1      -5.220   5.487  -0.408  1.00  0.00     0.339 C 
ATOM      8  O   UNL     1      -3.781   5.023   0.198  1.00  0.00    -0.246 OA
BRANCH   7   9
ATOM      9  O   UNL     1      -5.971   5.561   0.326  1.00  0.00    -0.478 OA
ATOM     10  H   UNL     1      -6.677   5.631   1.017  1.00  0.00     0.297 HD
ENDBRANCH   7   9
ENDBRANCH   1   7
BRANCH   2  11
ATOM     11  O   UNL     1      -7.254   6.625  -2.280  1.00  0.00    -0.504 OA
ATOM     12  H   UNL     1      -8.222   6.627  -2.071  1.00  0.00     0.293 HD
ENDBRANCH   2  11
BRANCH   5  13
ATOM     13  O   UNL     1      -6.377   8.424  -4.100  1.00  0.00    -0.493 OA
ATOM     14  C   UNL     1      -6.875   9.528  -4.552  1.00  0.00     0.278 C 
ENDBRANCH   5  13
TORSDOF 4
ENDMDL
MODEL 4
REMARK VINA RESULT:    -4.662      2.956      4.466
REMARK INTER + INTRA:          -5.966
REMARK INTER:                  -5.695
REMARK INTRA:                  -0.271
REMARK UNBOUND:                -0.486
REMARK SMILES COc1cccc(C(=O)O)c1O
REMARK SMILES IDX 7 1 11 2 6 3 5 4 3 5 4 6 8 7 9 8 10 9 12 11 2 13 1 14
REMARK H PARENT 10 10 12 12
ROOT
ATOM      1  C   UNL     1      -3.310   5.431  -4.531  1.00  0.00     0.105 A 
ATOM      2  C   UNL     1      -3.398   6.772  -4.784  1.00  0.00     0.172 A 
ATOM      3  C   UNL     1      -4.085   4.897  -3.396  1.00  0.00     0.020 A 
ATOM      4  C   UNL     1      -5.098   5.658  -2.910  1.00  0.00     0.005 A 
ATOM      5  C   UNL     1      -4.600   7.531  -4.468  1.00  0.00     0.161 A 
ATOM      6  C   UNL     1      -5.399   6.964  -3.398  1.00  0.00     0.050 A 
ENDROOT
BRANCH   1   7
ATOM      7  C   UNL     1      -2.517   4.492  -5.457  1.00  0.00     0.339 C 
ATOM      8  O   UNL     1      -3.027   2.973  -5.163  1.00  0.00    -0.246 OA
BRANCH   7   9
ATOM      9  O   UNL     1      -1.841   4.549  -6.263  1.00  0.00    -0.478 OA
ATOM     10  H   UNL     1      -1.206   4.603  -7.020  1.00  0.00     0.297 HD
ENDBRANCH   7   9
ENDBRANCH   1   7
BRANCH   2  11
ATOM     11  O   UNL     1      -2.339   7.475  -5.382  1.00  0.00    -0.504 OA
ATOM     12  H   UNL     1      -1.592   7.971  -5.803  1.00  0.00     0.293 HD
ENDBRANCH   2  11
BRANCH   5  13
ATOM     13  O   UNL     1      -4.639   8.832  -4.952  1.00  0.00    -0.493 OA
ATOM     14  C   UNL     1      -5.040   9.857  -5.629  1.00  0.00     0.278 C 
ENDBRANCH   5  13
TORSDOF 4
ENDMDL
MODEL 5
REMARK VINA RESULT:    -4.098      2.099      3.178
REMARK INTER + INTRA:          -5.302
REMARK INTER:                  -4.841
REMARK INTRA:                  -0.462
REMARK UNBOUND:                -0.486
REMARK SMILES COc1cccc(C(=O)O)c1O
REMARK SMILES IDX 7 1 11 2 6 3 5 4 3 5 4 6 8 7 9 8 10 9 12 11 2 13 1 14
REMARK H PARENT 10 10 12 12
ROOT
ATOM      1  C   UNL     1      -4.558   5.417  -2.176  1.00  0.00     0.105 A 
ATOM      2  C   UNL     1      -5.464   6.291  -2.711  1.00  0.00     0.172 A 
ATOM      3  C   UNL     1      -3.620   4.755  -3.101  1.00  0.00     0.020 A 
ATOM      4  C   UNL     1      -3.456   5.302  -4.333  1.00  0.00     0.005 A 
ATOM      5  C   UNL     1      -5.170   7.054  -3.915  1.00  0.00     0.161 A 
ATOM      6  C   UNL     1      -4.192   6.434  -4.790  1.00  0.00     0.050 A 
ENDROOT
BRANCH   1   7
ATOM      7  C   UNL     1      -4.447   5.209  -0.656  1.00  0.00     0.339 C 
ATOM      8  O   UNL     1      -5.962   5.072  -0.071  1.00  0.00    -0.246 OA
BRANCH   7   9
ATOM      9  O   UNL     1      -3.708   5.036   0.074  1.00  0.00    -0.478 OA
ATOM     10  H   UNL     1      -3.013   4.874   0.760  1.00  0.00     0.297 HD
ENDBRANCH   7   9
ENDBRANCH   1   7
BRANCH   2  11
ATOM     11  O   UNL     1      -6.715   6.508  -2.107  1.00  0.00    -0.504 OA
ATOM     12  H   UNL     1      -7.596   6.661  -1.682  1.00  0.00     0.293 HD
ENDBRANCH   2  11
BRANCH   5  13
ATOM     13  O   UNL     1      -6.086   8.047  -4.242  1.00  0.00    -0.493 OA
ATOM     14  C   UNL     1      -6.606   9.226  -4.336  1.00  0.00     0.278 C 
ENDBRANCH   5  13
TORSDOF 4
ENDMDL
MODEL 6
REMARK VINA RESULT:    -4.095      2.804      4.149
REMARK INTER + INTRA:          -5.299
REMARK INTER:                  -4.837
REMARK INTRA:                  -0.462
REMARK UNBOUND:                -0.486
REMARK SMILES COc1cccc(C(=O)O)c1O
REMARK SMILES IDX 7 1 11 2 6 3 5 4 3 5 4 6 8 7 9 8 10 9 12 11 2 13 1 14
REMARK H PARENT 10 10 12 12
ROOT
ATOM      1  C   UNL     1      -3.556   5.176  -3.896  1.00  0.00     0.105 A 
ATOM      2  C   UNL     1      -3.615   6.458  -4.370  1.00  0.00     0.172 A 
ATOM      3  C   UNL     1      -4.115   4.916  -2.556  1.00  0.00     0.020 A 
ATOM      4  C   UNL     1      -4.963   5.841  -2.036  1.00  0.00     0.005 A 
ATOM      5  C   UNL     1      -4.681   7.369  -3.978  1.00  0.00     0.161 A 
ATOM      6  C   UNL     1      -5.278   7.068  -2.691  1.00  0.00     0.050 A 
ENDROOT
BRANCH   1   7
ATOM      7  C   UNL     1      -3.023   4.025  -4.766  1.00  0.00     0.339 C 
ATOM      8  O   UNL     1      -1.670   4.556  -5.502  1.00  0.00    -0.246 OA
BRANCH   7   9
ATOM      9  O   UNL     1      -3.212   3.004  -4.942  1.00  0.00    -0.478 OA
ATOM     10  H   UNL     1      -3.391   2.044  -5.107  1.00  0.00     0.297 HD
ENDBRANCH   7   9
ENDBRANCH   1   7
BRANCH   2  11
ATOM     11  O   UNL     1      -2.658   6.947  -5.276  1.00  0.00    -0.504 OA
ATOM     12  H   UNL     1      -1.984   7.293  -5.914  1.00  0.00     0.293 HD
ENDBRANCH   2  11
BRANCH   5  13
ATOM     13  O   UNL     1      -4.740   8.568  -4.677  1.00  0.00    -0.493 OA
ATOM     14  C   UNL     1      -5.178   9.469  -5.493  1.00  0.00     0.278 C 
ENDBRANCH   5  13
TORSDOF 4
ENDMDL
MODEL 7
REMARK VINA RESULT:    -4.069      2.363      4.591
REMARK INTER + INTRA:          -5.268
REMARK INTER:                  -5.062
REMARK INTRA:                  -0.206
REMARK UNBOUND:                -0.486
REMARK SMILES COc1cccc(C(=O)O)c1O
REMARK SMILES IDX 7 1 11 2 6 3 5 4 3 5 4 6 8 7 9 8 10 9 12 11 2 13 1 14
REMARK H PARENT 10 10 12 12
ROOT
ATOM      1  C   UNL     1      -2.918   6.612  -4.561  1.00  0.00     0.105 A 
ATOM      2  C   UNL     1      -3.237   6.561  -3.232  1.00  0.00     0.172 A 
ATOM      3  C   UNL     1      -2.778   5.332  -5.280  1.00  0.00     0.020 A 
ATOM      4  C   UNL     1      -3.318   4.225  -4.708  1.00  0.00     0.005 A 
ATOM      5  C   UNL     1      -4.029   5.472  -2.678  1.00  0.00     0.161 A 
ATOM      6  C   UNL     1      -3.946   4.233  -3.428  1.00  0.00     0.050 A 
ENDROOT
BRANCH   1   7
ATOM      7  C   UNL     1      -2.812   7.952  -5.308  1.00  0.00     0.339 C 
ATOM      8  O   UNL     1      -4.241   8.716  -5.143  1.00  0.00    -0.246 OA
BRANCH   7   9
ATOM      9  O   UNL     1      -2.084   8.542  -5.790  1.00  0.00    -0.478 OA
ATOM     10  H   UNL     1      -1.400   9.096  -6.243  1.00  0.00     0.297 HD
ENDBRANCH   7   9
ENDBRANCH   1   7
BRANCH   2  11
ATOM     11  O   UNL     1      -2.831   7.571  -2.343  1.00  0.00    -0.504 OA
ATOM     12  H   UNL     1      -2.546   8.282  -1.717  1.00  0.00     0.293 HD
ENDBRANCH   2  11
BRANCH   5  13
ATOM     13  O   UNL     1      -4.451   5.637  -1.364  1.00  0.00    -0.493 OA
ATOM     14  C   UNL     1      -5.256   5.762  -0.362  1.00  0.00     0.278 C 
ENDBRANCH   5  13
TORSDOF 4
ENDMDL
MODEL 8
REMARK VINA RESULT:    -4.046      2.140      3.074
REMARK INTER + INTRA:          -5.242
REMARK INTER:                  -4.920
REMARK INTRA:                  -0.322
REMARK UNBOUND:                -0.486
REMARK SMILES COc1cccc(C(=O)O)c1O
REMARK SMILES IDX 7 1 11 2 6 3 5 4 3 5 4 6 8 7 9 8 10 9 12 11 2 13 1 14
REMARK H PARENT 10 10 12 12
ROOT
ATOM      1  C   UNL     1      -6.106   6.083  -2.370  1.00  0.00     0.105 A 
ATOM      2  C   UNL     1      -5.468   5.434  -3.392  1.00  0.00     0.172 A 
ATOM      3  C   UNL     1      -5.584   5.886  -1.005  1.00  0.00     0.020 A 
ATOM      4  C   UNL     1      -4.324   5.397  -0.875  1.00  0.00     0.005 A 
ATOM      5  C   UNL     1      -4.046   5.127  -3.332  1.00  0.00     0.161 A 
ATOM      6  C   UNL     1      -3.519   5.005  -1.985  1.00  0.00     0.050 A 
ENDROOT
BRANCH   1   7
ATOM      7  C   UNL     1      -7.259   7.064  -2.641  1.00  0.00     0.339 C 
ATOM      8  O   UNL     1      -6.834   7.972  -3.925  1.00  0.00    -0.246 OA
BRANCH   7   9
ATOM      9  O   UNL     1      -8.244   7.248  -2.316  1.00  0.00    -0.478 OA
ATOM     10  H   UNL     1      -9.170   7.421  -2.010  1.00  0.00     0.297 HD
ENDBRANCH   7   9
ENDBRANCH   1   7
BRANCH   2  11
ATOM     11  O   UNL     1      -6.154   5.054  -4.558  1.00  0.00    -0.504 OA
ATOM     12  H   UNL     1      -6.638   4.786  -5.379  1.00  0.00     0.293 HD
ENDBRANCH   2  11
BRANCH   5  13
ATOM     13  O   UNL     1      -3.480   4.649  -4.507  1.00  0.00    -0.493 OA
ATOM     14  C   UNL     1      -2.727   4.612  -5.556  1.00  0.00     0.278 C 
ENDBRANCH   5  13
TORSDOF 4
ENDMDL
MODEL 9
REMARK VINA RESULT:    -3.962      2.148      2.911
REMARK INTER + INTRA:          -5.143
REMARK INTER:                  -4.708
REMARK INTRA:                  -0.435
REMARK UNBOUND:                -0.486
REMARK SMILES COc1cccc(C(=O)O)c1O
REMARK SMILES IDX 7 1 11 2 6 3 5 4 3 5 4 6 8 7 9 8 10 9 12 11 2 13 1 14
REMARK H PARENT 10 10 12 12
ROOT
ATOM      1  C   UNL     1      -4.052   5.481  -2.717  1.00  0.00     0.105 A 
ATOM      2  C   UNL     1      -3.951   6.628  -3.456  1.00  0.00     0.172 A 
ATOM      3  C   UNL     1      -3.847   4.198  -3.415  1.00  0.00     0.020 A 
ATOM      4  C   UNL     1      -3.224   4.229  -4.620  1.00  0.00     0.005 A 
ATOM      5  C   UNL     1      -3.083   6.711  -4.621  1.00  0.00     0.161 A 
ATOM      6  C   UNL     1      -2.825   5.437  -5.264  1.00  0.00     0.050 A 
ENDROOT
BRANCH   1   7
ATOM      7  C   UNL     1      -4.267   5.526  -1.194  1.00  0.00     0.339 C 
ATOM      8  O   UNL     1      -5.648   6.345  -0.921  1.00  0.00    -0.246 OA
BRANCH   7   9
ATOM      9  O   UNL     1      -3.853   5.115  -0.318  1.00  0.00    -0.478 OA
ATOM     10  H   UNL     1      -3.463   4.729   0.507  1.00  0.00     0.297 HD
ENDBRANCH   7   9
ENDBRANCH   1   7
BRANCH   2  11
ATOM     11  O   UNL     1      -4.667   7.787  -3.109  1.00  0.00    -0.504 OA
ATOM     12  H   UNL     1      -5.171   8.603  -2.864  1.00  0.00     0.293 HD
ENDBRANCH   2  11
BRANCH   5  13
ATOM     13  O   UNL     1      -2.918   7.980  -5.164  1.00  0.00    -0.493 OA
ATOM     14  C   UNL     1      -2.609   8.895  -6.022  1.00  0.00     0.278 C 
ENDBRANCH   5  13
TORSDOF 4
ENDMDL
