MODEL 1
REMARK VINA RESULT:    -4.938      0.000      0.000
REMARK INTER + INTRA:          -6.069
REMARK INTER:                  -5.804
REMARK INTRA:                  -0.265
REMARK UNBOUND:                -0.265
REMARK SMILES COc1cccc(C(=O)O)c1O
REMARK SMILES IDX 7 1 11 2 6 3 5 4 3 5 4 6 8 7 9 8 10 9 12 11 2 13 1 14
REMARK H PARENT 10 10 12 12
ROOT
ATOM      1  C   UNL     1       6.236   3.802   1.048  1.00  0.00     0.105 A 
ATOM      2  C   UNL     1       7.596   3.784   0.911  1.00  0.00     0.172 A 
ATOM      3  C   UNL     1       5.613   2.719   1.832  1.00  0.00     0.020 A 
ATOM      4  C   UNL     1       6.413   1.999   2.660  1.00  0.00     0.005 A 
ATOM      5  C   UNL     1       8.459   3.212   1.934  1.00  0.00     0.161 A 
ATOM      6  C   UNL     1       7.822   2.196   2.752  1.00  0.00     0.050 A 
ENDROOT
BRANCH   1   7
ATOM      7  C   UNL     1       5.391   4.964   0.497  1.00  0.00     0.339 C 
ATOM      8  O   UNL     1       3.925   4.878   1.202  1.00  0.00    -0.246 OA
BRANCH   7   9
ATOM      9  O   UNL     1       5.509   5.822  -0.102  1.00  0.00    -0.478 OA
ATOM     10  H   UNL     1       5.619   6.629  -0.666  1.00  0.00     0.297 HD
ENDBRANCH   7   9
ENDBRANCH   1   7
BRANCH   2  11
ATOM     11  O   UNL     1       8.225   4.337  -0.217  1.00  0.00    -0.504 OA
ATOM     12  H   UNL     1       8.669   4.727  -1.012  1.00  0.00     0.293 HD
ENDBRANCH   2  11
BRANCH   5  13
ATOM     13  O   UNL     1       9.821   3.432   1.770  1.00  0.00    -0.493 OA
ATOM     14  C   UNL     1      11.046   3.702   2.079  1.00  0.00     0.278 C 
ENDBRANCH   5  13
TORSDOF 4
ENDMDL
MODEL 2
REMARK VINA RESULT:    -4.931      3.140      4.081
REMARK INTER + INTRA:          -6.061
REMARK INTER:                  -5.796
REMARK INTRA:                  -0.265
REMARK UNBOUND:                -0.265
REMARK SMILES COc1cccc(C(=O)O)c1O
REMARK SMILES IDX 7 1 11 2 6 3 5 4 3 5 4 6 8 7 9 8 10 9 12 11 2 13 1 14
REMARK H PARENT 10 10 12 12
ROOT
ATOM      1  C   UNL     1       6.252   0.908   2.197  1.00  0.00     0.105 A 
ATOM      2  C   UNL     1       7.265   1.241   3.053  1.00  0.00     0.172 A 
ATOM      3  C   UNL     1       5.938   1.853   1.110  1.00  0.00     0.020 A 
ATOM      4  C   UNL     1       6.873   2.786   0.794  1.00  0.00     0.005 A 
ATOM      5  C   UNL     1       8.392   2.055   2.622  1.00  0.00     0.161 A 
ATOM      6  C   UNL     1       8.100   2.934   1.505  1.00  0.00     0.050 A 
ENDROOT
BRANCH   1   7
ATOM      7  C   UNL     1       5.534  -0.449   2.296  1.00  0.00     0.339 C 
ATOM      8  O   UNL     1       4.726  -0.675   0.899  1.00  0.00    -0.246 OA
BRANCH   7   9
ATOM      9  O   UNL     1       5.492  -1.285   2.934  1.00  0.00    -0.478 OA
ATOM     10  H   UNL     1       5.454  -2.071   3.535  1.00  0.00     0.297 HD
ENDBRANCH   7   9
ENDBRANCH   1   7
BRANCH   2  11
ATOM     11  O   UNL     1       7.275   0.792   4.385  1.00  0.00    -0.504 OA
ATOM     12  H   UNL     1       7.281   0.476   5.323  1.00  0.00     0.293 HD
ENDBRANCH   2  11
BRANCH   5  13
ATOM     13  O   UNL     1       9.446   2.156   3.522  1.00  0.00    -0.493 OA
ATOM     14  C   UNL     1      10.662   2.187   3.959  1.00  0.00     0.278 C 
ENDBRANCH   5  13
TORSDOF 4
ENDMDL
MODEL 3
REMARK VINA RESULT:    -4.915      2.983      4.341
REMARK INTER + INTRA:          -6.042
REMARK INTER:                  -5.559
REMARK INTRA:                  -0.483
REMARK UNBOUND:                -0.265
REMARK SMILES COc1cccc(C(=O)O)c1O
REMARK SMILES IDX 7 1 11 2 6 3 5 4 3 5 4 6 8 7 9 8 10 9 12 11 2 13 1 14
REMARK H PARENT 10 10 12 12
ROOT
ATOM      1  C   UNL     1       6.321   0.696   2.477  1.00  0.00     0.105 A 
ATOM      2  C   UNL     1       6.296   1.749   1.604  1.00  0.00     0.172 A 
ATOM      3  C   UNL     1       6.881   0.935   3.820  1.00  0.00     0.020 A 
ATOM      4  C   UNL     1       6.993   2.222   4.237  1.00  0.00     0.005 A 
ATOM      5  C   UNL     1       6.176   3.123   2.068  1.00  0.00     0.161 A 
ATOM      6  C   UNL     1       6.663   3.341   3.418  1.00  0.00     0.050 A 
ENDROOT
BRANCH   1   7
ATOM      7  C   UNL     1       5.692  -0.660   2.113  1.00  0.00     0.339 C 
ATOM      8  O   UNL     1       4.676  -0.407   0.865  1.00  0.00    -0.246 OA
BRANCH   7   9
ATOM      9  O   UNL     1       5.795  -1.679   2.359  1.00  0.00    -0.478 OA
ATOM     10  H   UNL     1       5.892  -2.637   2.589  1.00  0.00     0.297 HD
ENDBRANCH   7   9
ENDBRANCH   1   7
BRANCH   2  11
ATOM     11  O   UNL     1       6.365   1.549   0.215  1.00  0.00    -0.504 OA
ATOM     12  H   UNL     1       6.413   1.408  -0.764  1.00  0.00     0.293 HD
ENDBRANCH   2  11
BRANCH   5  13
ATOM     13  O   UNL     1       5.964   4.079   1.083  1.00  0.00    -0.493 OA
ATOM     14  C   UNL     1       5.465   5.115   0.493  1.00  0.00     0.278 C 
ENDBRANCH   5  13
TORSDOF 4
ENDMDL
MODEL 4
REMARK VINA RESULT:    -4.271      2.949      3.760
REMARK INTER + INTRA:          -5.285
REMARK INTER:                  -4.822
REMARK INTRA:                  -0.463
REMARK UNBOUND:                -0.265
REMARK SMILES COc1cccc(C(=O)O)c1O
REMARK SMILES IDX 7 1 11 2 6 3 5 4 3 5 4 6 8 7 9 8 10 9 12 11 2 13 1 14
REMARK H PARENT 10 10 12 12
ROOT
ATOM      1  C   UNL     1       5.787   1.391   1.887  1.00  0.00     0.105 A 
ATOM      2  C   UNL     1       6.875   1.551   2.700  1.00  0.00     0.172 A 
ATOM      3  C   UNL     1       5.265   2.587   1.200  1.00  0.00     0.020 A 
ATOM      4  C   UNL     1       6.079   3.670   1.112  1.00  0.00     0.005 A 
ATOM      5  C   UNL     1       7.873   2.580   2.446  1.00  0.00     0.161 A 
ATOM      6  C   UNL     1       7.374   3.724   1.707  1.00  0.00     0.050 A 
ENDROOT
BRANCH   1   7
ATOM      7  C   UNL     1       5.190  -0.001   1.612  1.00  0.00     0.339 C 
ATOM      8  O   UNL     1       5.113  -0.787   3.036  1.00  0.00    -0.246 OA
BRANCH   7   9
ATOM      9  O   UNL     1       4.744  -0.536   0.823  1.00  0.00    -0.478 OA
ATOM     10  H   UNL     1       4.323  -1.039   0.081  1.00  0.00     0.297 HD
ENDBRANCH   7   9
ENDBRANCH   1   7
BRANCH   2  11
ATOM     11  O   UNL     1       7.090   0.712   3.807  1.00  0.00    -0.504 OA
ATOM     12  H   UNL     1       7.242   0.122   4.587  1.00  0.00     0.293 HD
ENDBRANCH   2  11
BRANCH   5  13
ATOM     13  O   UNL     1       9.024   2.511   3.222  1.00  0.00    -0.493 OA
ATOM     14  C   UNL     1      10.249   2.258   3.543  1.00  0.00     0.278 C 
ENDBRANCH   5  13
TORSDOF 4
ENDMDL
MODEL 5
REMARK VINA RESULT:    -4.187      2.301      3.867
REMARK INTER + INTRA:          -5.186
REMARK INTER:                  -4.982
REMARK INTRA:                  -0.204
REMARK UNBOUND:                -0.265
REMARK SMILES COc1cccc(C(=O)O)c1O
REMARK SMILES IDX 7 1 11 2 6 3 5 4 3 5 4 6 8 7 9 8 10 9 12 11 2 13 1 14
REMARK H PARENT 10 10 12 12
ROOT
ATOM      1  C   UNL     1       7.361   3.661   0.409  1.00  0.00     0.105 A 
ATOM      2  C   UNL     1       7.087   2.332   0.577  1.00  0.00     0.172 A 
ATOM      3  C   UNL     1       6.248   4.615   0.571  1.00  0.00     0.020 A 
ATOM      4  C   UNL     1       5.136   4.183   1.220  1.00  0.00     0.005 A 
ATOM      5  C   UNL     1       6.032   1.877   1.472  1.00  0.00     0.161 A 
ATOM      6  C   UNL     1       4.973   2.846   1.686  1.00  0.00     0.050 A 
ENDROOT
BRANCH   1   7
ATOM      7  C   UNL     1       8.797   4.157   0.166  1.00  0.00     0.339 C 
ATOM      8  O   UNL     1       9.701   3.673   1.432  1.00  0.00    -0.246 OA
BRANCH   7   9
ATOM      9  O   UNL     1       9.366   4.613  -0.594  1.00  0.00    -0.478 OA
ATOM     10  H   UNL     1       9.901   5.042  -1.308  1.00  0.00     0.297 HD
ENDBRANCH   7   9
ENDBRANCH   1   7
BRANCH   2  11
ATOM     11  O   UNL     1       7.826   1.342  -0.092  1.00  0.00    -0.504 OA
ATOM     12  H   UNL     1       8.347   0.644  -0.563  1.00  0.00     0.293 HD
ENDBRANCH   2  11
BRANCH   5  13
ATOM     13  O   UNL     1       5.984   0.509   1.706  1.00  0.00    -0.493 OA
ATOM     14  C   UNL     1       5.676  -0.609   2.278  1.00  0.00     0.278 C 
ENDBRANCH   5  13
TORSDOF 4
ENDMDL
MODEL 6
REMARK VINA RESULT:    -4.161      2.336      4.714
REMARK INTER + INTRA:          -5.156
REMARK INTER:                  -4.905
REMARK INTRA:                  -0.250
REMARK UNBOUND:                -0.265
REMARK SMILES COc1cccc(C(=O)O)c1O
REMARK SMILES IDX 7 1 11 2 6 3 5 4 3 5 4 6 8 7 9 8 10 9 12 11 2 13 1 14
REMARK H PARENT 10 10 12 12
ROOT
ATOM      1  C   UNL     1       6.703   1.227   3.379  1.00  0.00     0.105 A 
ATOM      2  C   UNL     1       6.256   2.456   2.980  1.00  0.00     0.172 A 
ATOM      3  C   UNL     1       6.117   0.042   2.726  1.00  0.00     0.020 A 
ATOM      4  C   UNL     1       5.466   0.227   1.549  1.00  0.00     0.005 A 
ATOM      5  C   UNL     1       5.779   2.693   1.626  1.00  0.00     0.161 A 
ATOM      6  C   UNL     1       5.268   1.510   0.959  1.00  0.00     0.050 A 
ENDROOT
BRANCH   1   7
ATOM      7  C   UNL     1       7.850   1.082   4.394  1.00  0.00     0.339 C 
ATOM      8  O   UNL     1       9.045   2.086   3.926  1.00  0.00    -0.246 OA
BRANCH   7   9
ATOM      9  O   UNL     1       8.043   0.619   5.320  1.00  0.00    -0.478 OA
ATOM     10  H   UNL     1       8.224   0.183   6.190  1.00  0.00     0.297 HD
ENDBRANCH   7   9
ENDBRANCH   1   7
BRANCH   2  11
ATOM     11  O   UNL     1       6.258   3.555   3.857  1.00  0.00    -0.504 OA
ATOM     12  H   UNL     1       6.259   4.329   4.474  1.00  0.00     0.293 HD
ENDBRANCH   2  11
BRANCH   5  13
ATOM     13  O   UNL     1       5.541   4.020   1.290  1.00  0.00    -0.493 OA
ATOM     14  C   UNL     1       5.524   5.103   0.585  1.00  0.00     0.278 C 
ENDBRANCH   5  13
TORSDOF 4
ENDMDL
MODEL 7
REMARK VINA RESULT:    -3.585      2.142      3.365
REMARK INTER + INTRA:          -4.479
REMARK INTER:                  -4.301
REMARK INTRA:                  -0.178
REMARK UNBOUND:                -0.265
REMARK SMILES COc1cccc(C(=O)O)c1O
REMARK SMILES IDX 7 1 11 2 6 3 5 4 3 5 4 6 8 7 9 8 10 9 12 11 2 13 1 14
REMARK H PARENT 10 10 12 12
ROOT
ATOM      1  C   UNL     1       5.894   3.854   1.657  1.00  0.00     0.105 A 
ATOM      2  C   UNL     1       5.577   2.526   1.580  1.00  0.00     0.172 A 
ATOM      3  C   UNL     1       6.420   4.359   2.938  1.00  0.00     0.020 A 
ATOM      4  C   UNL     1       6.901   3.450   3.825  1.00  0.00     0.005 A 
ATOM      5  C   UNL     1       6.277   1.527   2.376  1.00  0.00     0.161 A 
ATOM      6  C   UNL     1       6.856   2.042   3.603  1.00  0.00     0.050 A 
ENDROOT
BRANCH   1   7
ATOM      7  C   UNL     1       5.805   4.770   0.423  1.00  0.00     0.339 C 
ATOM      8  O   UNL     1       7.297   4.857  -0.226  1.00  0.00    -0.246 OA
BRANCH   7   9
ATOM      9  O   UNL     1       5.075   5.258  -0.158  1.00  0.00    -0.478 OA
ATOM     10  H   UNL     1       4.388   5.716  -0.705  1.00  0.00     0.297 HD
ENDBRANCH   7   9
ENDBRANCH   1   7
BRANCH   2  11
ATOM     11  O   UNL     1       4.574   2.061   0.712  1.00  0.00    -0.504 OA
ATOM     12  H   UNL     1       3.868   1.734   0.100  1.00  0.00     0.293 HD
ENDBRANCH   2  11
BRANCH   5  13
ATOM     13  O   UNL     1       6.000   0.202   2.063  1.00  0.00    -0.493 OA
ATOM     14  C   UNL     1       5.478  -0.976   2.156  1.00  0.00     0.278 C 
ENDBRANCH   5  13
TORSDOF 4
ENDMDL
MODEL 8
REMARK VINA RESULT:    -3.438      1.894      2.826
REMARK INTER + INTRA:          -4.305
REMARK INTER:                  -4.157
REMARK INTRA:                  -0.148
REMARK UNBOUND:                -0.265
REMARK SMILES COc1cccc(C(=O)O)c1O
REMARK SMILES IDX 7 1 11 2 6 3 5 4 3 5 4 6 8 7 9 8 10 9 12 11 2 13 1 14
REMARK H PARENT 10 10 12 12
ROOT
ATOM      1  C   UNL     1       6.205   3.655   1.453  1.00  0.00     0.105 A 
ATOM      2  C   UNL     1       6.690   3.149   2.627  1.00  0.00     0.172 A 
ATOM      3  C   UNL     1       7.184   4.125   0.455  1.00  0.00     0.020 A 
ATOM      4  C   UNL     1       8.469   3.705   0.585  1.00  0.00     0.005 A 
ATOM      5  C   UNL     1       7.983   2.482   2.695  1.00  0.00     0.161 A 
ATOM      6  C   UNL     1       8.921   2.895   1.668  1.00  0.00     0.050 A 
ENDROOT
BRANCH   1   7
ATOM      7  C   UNL     1       4.700   3.639   1.136  1.00  0.00     0.339 C 
ATOM      8  O   UNL     1       4.219   5.188   0.980  1.00  0.00    -0.246 OA
BRANCH   7   9
ATOM      9  O   UNL     1       3.941   2.948   0.901  1.00  0.00    -0.478 OA
ATOM     10  H   UNL     1       3.227   2.298   0.681  1.00  0.00     0.297 HD
ENDBRANCH   7   9
ENDBRANCH   1   7
BRANCH   2  11
ATOM     11  O   UNL     1       5.951   3.229   3.820  1.00  0.00    -0.504 OA
ATOM     12  H   UNL     1       5.430   3.286   4.660  1.00  0.00     0.293 HD
ENDBRANCH   2  11
BRANCH   5  13
ATOM     13  O   UNL     1       8.272   1.841   3.893  1.00  0.00    -0.493 OA
ATOM     14  C   UNL     1       8.291   0.912   4.791  1.00  0.00     0.278 C 
ENDBRANCH   5  13
TORSDOF 4
ENDMDL
