MODEL 1
REMARK VINA RESULT:    -4.915      0.000      0.000
REMARK INTER + INTRA:          -6.212
REMARK INTER:                  -5.777
REMARK INTRA:                  -0.435
REMARK UNBOUND:                -0.435
REMARK SMILES COc1cccc(C(=O)O)c1O
REMARK SMILES IDX 7 1 11 2 6 3 5 4 3 5 4 6 8 7 9 8 10 9 12 11 2 13 1 14
REMARK H PARENT 10 10 12 12
ROOT
ATOM      1  C   UNL     1       2.772   6.916  -3.449  1.00  0.00     0.105 A 
ATOM      2  C   UNL     1       3.419   6.426  -2.348  1.00  0.00     0.172 A 
ATOM      3  C   UNL     1       3.597   7.320  -4.603  1.00  0.00     0.020 A 
ATOM      4  C   UNL     1       4.872   6.856  -4.661  1.00  0.00     0.005 A 
ATOM      5  C   UNL     1       4.684   5.714  -2.459  1.00  0.00     0.161 A 
ATOM      6  C   UNL     1       5.462   6.062  -3.634  1.00  0.00     0.050 A 
ENDROOT
BRANCH   1   7
ATOM      7  C   UNL     1       1.236   6.947  -3.527  1.00  0.00     0.339 C 
ATOM      8  O   UNL     1       0.666   6.116  -2.247  1.00  0.00    -0.246 OA
BRANCH   7   9
ATOM      9  O   UNL     1       0.475   7.413  -4.086  1.00  0.00    -0.478 OA
ATOM     10  H   UNL     1      -0.241   7.850  -4.612  1.00  0.00     0.297 HD
ENDBRANCH   7   9
ENDBRANCH   1   7
BRANCH   2  11
ATOM     11  O   UNL     1       2.879   6.569  -1.059  1.00  0.00    -0.504 OA
ATOM     12  H   UNL     1       2.499   6.670  -0.150  1.00  0.00     0.293 HD
ENDBRANCH   2  11
BRANCH   5  13
ATOM     13  O   UNL     1       5.137   5.098  -1.300  1.00  0.00    -0.493 OA
ATOM     14  C   UNL     1       5.899   4.838  -0.289  1.00  0.00     0.278 C 
ENDBRANCH   5  13
TORSDOF 4
ENDMDL
MODEL 2
REMARK VINA RESULT:    -4.911      1.755      4.669
REMARK INTER + INTRA:          -6.207
REMARK INTER:                  -5.759
REMARK INTRA:                  -0.448
REMARK UNBOUND:                -0.435
REMARK SMILES COc1cccc(C(=O)O)c1O
REMARK SMILES IDX 7 1 11 2 6 3 5 4 3 5 4 6 8 7 9 8 10 9 12 11 2 13 1 14
REMARK H PARENT 10 10 12 12
ROOT
ATOM      1  C   UNL     1       5.215   6.012  -0.970  1.00  0.00     0.105 A 
ATOM      2  C   UNL     1       4.253   6.006  -1.942  1.00  0.00     0.172 A 
ATOM      3  C   UNL     1       5.559   7.307  -0.355  1.00  0.00     0.020 A 
ATOM      4  C   UNL     1       4.679   8.331  -0.507  1.00  0.00     0.005 A 
ATOM      5  C   UNL     1       3.170   6.979  -1.950  1.00  0.00     0.161 A 
ATOM      6  C   UNL     1       3.486   8.228  -1.282  1.00  0.00     0.050 A 
ENDROOT
BRANCH   1   7
ATOM      7  C   UNL     1       5.844   4.704  -0.458  1.00  0.00     0.339 C 
ATOM      8  O   UNL     1       4.969   3.472  -1.067  1.00  0.00    -0.246 OA
BRANCH   7   9
ATOM      9  O   UNL     1       6.697   4.381   0.068  1.00  0.00    -0.478 OA
ATOM     10  H   UNL     1       7.499   4.078   0.563  1.00  0.00     0.297 HD
ENDBRANCH   7   9
ENDBRANCH   1   7
BRANCH   2  11
ATOM     11  O   UNL     1       4.254   5.044  -2.967  1.00  0.00    -0.504 OA
ATOM     12  H   UNL     1       4.255   4.367  -3.689  1.00  0.00     0.293 HD
ENDBRANCH   2  11
BRANCH   5  13
ATOM     13  O   UNL     1       2.154   6.747  -2.868  1.00  0.00    -0.493 OA
ATOM     14  C   UNL     1       1.258   6.994  -3.766  1.00  0.00     0.278 C 
ENDBRANCH   5  13
TORSDOF 4
ENDMDL
MODEL 3
REMARK VINA RESULT:    -4.778      2.902      4.379
REMARK INTER + INTRA:          -6.050
REMARK INTER:                  -5.782
REMARK INTRA:                  -0.268
REMARK UNBOUND:                -0.435
REMARK SMILES COc1cccc(C(=O)O)c1O
REMARK SMILES IDX 7 1 11 2 6 3 5 4 3 5 4 6 8 7 9 8 10 9 12 11 2 13 1 14
REMARK H PARENT 10 10 12 12
ROOT
ATOM      1  C   UNL     1       4.979   5.979  -1.213  1.00  0.00     0.105 A 
ATOM      2  C   UNL     1       5.474   7.253  -1.195  1.00  0.00     0.172 A 
ATOM      3  C   UNL     1       3.875   5.687  -2.146  1.00  0.00     0.020 A 
ATOM      4  C   UNL     1       3.665   6.558  -3.167  1.00  0.00     0.005 A 
ATOM      5  C   UNL     1       5.454   8.097  -2.381  1.00  0.00     0.161 A 
ATOM      6  C   UNL     1       4.411   7.763  -3.333  1.00  0.00     0.050 A 
ENDROOT
BRANCH   1   7
ATOM      7  C   UNL     1       5.615   4.861  -0.369  1.00  0.00     0.339 C 
ATOM      8  O   UNL     1       5.146   3.439  -1.011  1.00  0.00    -0.246 OA
BRANCH   7   9
ATOM      9  O   UNL     1       6.316   4.749   0.409  1.00  0.00    -0.478 OA
ATOM     10  H   UNL     1       6.974   4.644   1.141  1.00  0.00     0.297 HD
ENDBRANCH   7   9
ENDBRANCH   1   7
BRANCH   2  11
ATOM     11  O   UNL     1       6.047   7.800  -0.033  1.00  0.00    -0.504 OA
ATOM     12  H   UNL     1       6.450   8.184   0.785  1.00  0.00     0.293 HD
ENDBRANCH   2  11
BRANCH   5  13
ATOM     13  O   UNL     1       6.161   9.289  -2.289  1.00  0.00    -0.493 OA
ATOM     14  C   UNL     1       7.116  10.143  -2.460  1.00  0.00     0.278 C 
ENDBRANCH   5  13
TORSDOF 4
ENDMDL
MODEL 4
REMARK VINA RESULT:    -4.745      2.189      3.185
REMARK INTER + INTRA:          -6.012
REMARK INTER:                  -5.742
REMARK INTRA:                  -0.271
REMARK UNBOUND:                -0.435
REMARK SMILES COc1cccc(C(=O)O)c1O
REMARK SMILES IDX 7 1 11 2 6 3 5 4 3 5 4 6 8 7 9 8 10 9 12 11 2 13 1 14
REMARK H PARENT 10 10 12 12
ROOT
ATOM      1  C   UNL     1       2.890   6.793  -3.139  1.00  0.00     0.105 A 
ATOM      2  C   UNL     1       3.810   7.529  -3.834  1.00  0.00     0.172 A 
ATOM      3  C   UNL     1       3.354   6.076  -1.938  1.00  0.00     0.020 A 
ATOM      4  C   UNL     1       4.532   6.465  -1.386  1.00  0.00     0.005 A 
ATOM      5  C   UNL     1       4.952   8.144  -3.172  1.00  0.00     0.161 A 
ATOM      6  C   UNL     1       5.363   7.478  -1.950  1.00  0.00     0.050 A 
ENDROOT
BRANCH   1   7
ATOM      7  C   UNL     1       1.402   6.794  -3.532  1.00  0.00     0.339 C 
ATOM      8  O   UNL     1       0.563   6.210  -2.264  1.00  0.00    -0.246 OA
BRANCH   7   9
ATOM      9  O   UNL     1       0.783   7.140  -4.310  1.00  0.00    -0.478 OA
ATOM     10  H   UNL     1       0.200   7.466  -5.042  1.00  0.00     0.297 HD
ENDBRANCH   7   9
ENDBRANCH   1   7
BRANCH   2  11
ATOM     11  O   UNL     1       3.682   7.744  -5.217  1.00  0.00    -0.504 OA
ATOM     12  H   UNL     1       3.592   7.895  -6.191  1.00  0.00     0.293 HD
ENDBRANCH   2  11
BRANCH   5  13
ATOM     13  O   UNL     1       5.698   9.025  -3.946  1.00  0.00    -0.493 OA
ATOM     14  C   UNL     1       6.217  10.138  -4.345  1.00  0.00     0.278 C 
ENDBRANCH   5  13
TORSDOF 4
ENDMDL
MODEL 5
REMARK VINA RESULT:    -4.108      2.668      4.251
REMARK INTER + INTRA:          -5.263
REMARK INTER:                  -4.801
REMARK INTRA:                  -0.462
REMARK UNBOUND:                -0.435
REMARK SMILES COc1cccc(C(=O)O)c1O
REMARK SMILES IDX 7 1 11 2 6 3 5 4 3 5 4 6 8 7 9 8 10 9 12 11 2 13 1 14
REMARK H PARENT 10 10 12 12
ROOT
ATOM      1  C   UNL     1       4.303   5.789  -1.483  1.00  0.00     0.105 A 
ATOM      2  C   UNL     1       4.860   7.026  -1.654  1.00  0.00     0.172 A 
ATOM      3  C   UNL     1       2.924   5.587  -1.964  1.00  0.00     0.020 A 
ATOM      4  C   UNL     1       2.428   6.486  -2.853  1.00  0.00     0.005 A 
ATOM      5  C   UNL     1       4.480   7.888  -2.765  1.00  0.00     0.161 A 
ATOM      6  C   UNL     1       3.148   7.639  -3.284  1.00  0.00     0.050 A 
ENDROOT
BRANCH   1   7
ATOM      7  C   UNL     1       5.117   4.617  -0.907  1.00  0.00     0.339 C 
ATOM      8  O   UNL     1       5.956   5.188   0.367  1.00  0.00    -0.246 OA
BRANCH   7   9
ATOM      9  O   UNL     1       5.211   3.576  -1.028  1.00  0.00    -0.478 OA
ATOM     10  H   UNL     1       5.300   2.596  -1.142  1.00  0.00     0.297 HD
ENDBRANCH   7   9
ENDBRANCH   1   7
BRANCH   2  11
ATOM     11  O   UNL     1       5.841   7.515  -0.775  1.00  0.00    -0.504 OA
ATOM     12  H   UNL     1       6.533   7.859  -0.155  1.00  0.00     0.293 HD
ENDBRANCH   2  11
BRANCH   5  13
ATOM     13  O   UNL     1       5.256   9.027  -2.940  1.00  0.00    -0.493 OA
ATOM     14  C   UNL     1       5.970   9.921  -3.541  1.00  0.00     0.278 C 
ENDBRANCH   5  13
TORSDOF 4
ENDMDL
MODEL 6
REMARK VINA RESULT:    -4.075      2.191      3.106
REMARK INTER + INTRA:          -5.225
REMARK INTER:                  -5.021
REMARK INTRA:                  -0.204
REMARK UNBOUND:                -0.435
REMARK SMILES COc1cccc(C(=O)O)c1O
REMARK SMILES IDX 7 1 11 2 6 3 5 4 3 5 4 6 8 7 9 8 10 9 12 11 2 13 1 14
REMARK H PARENT 10 10 12 12
ROOT
ATOM      1  C   UNL     1       3.646   7.108  -4.228  1.00  0.00     0.105 A 
ATOM      2  C   UNL     1       4.466   6.300  -3.489  1.00  0.00     0.172 A 
ATOM      3  C   UNL     1       2.209   7.109  -3.897  1.00  0.00     0.020 A 
ATOM      4  C   UNL     1       1.840   6.619  -2.685  1.00  0.00     0.005 A 
ATOM      5  C   UNL     1       4.169   5.976  -2.101  1.00  0.00     0.161 A 
ATOM      6  C   UNL     1       2.761   6.048  -1.759  1.00  0.00     0.050 A 
ENDROOT
BRANCH   1   7
ATOM      7  C   UNL     1       4.211   8.061  -5.295  1.00  0.00     0.339 C 
ATOM      8  O   UNL     1       5.268   9.053  -4.551  1.00  0.00    -0.246 OA
BRANCH   7   9
ATOM      9  O   UNL     1       4.191   8.191  -6.339  1.00  0.00    -0.478 OA
ATOM     10  H   UNL     1       4.172   8.313  -7.322  1.00  0.00     0.297 HD
ENDBRANCH   7   9
ENDBRANCH   1   7
BRANCH   2  11
ATOM     11  O   UNL     1       5.645   5.762  -4.032  1.00  0.00    -0.504 OA
ATOM     12  H   UNL     1       6.476   5.384  -4.414  1.00  0.00     0.293 HD
ENDBRANCH   2  11
BRANCH   5  13
ATOM     13  O   UNL     1       5.174   5.315  -1.406  1.00  0.00    -0.493 OA
ATOM     14  C   UNL     1       5.873   4.893  -0.404  1.00  0.00     0.278 C 
ENDBRANCH   5  13
TORSDOF 4
ENDMDL
MODEL 7
REMARK VINA RESULT:    -3.941      2.423      4.643
REMARK INTER + INTRA:          -5.067
REMARK INTER:                  -4.792
REMARK INTRA:                  -0.275
REMARK UNBOUND:                -0.435
REMARK SMILES COc1cccc(C(=O)O)c1O
REMARK SMILES IDX 7 1 11 2 6 3 5 4 3 5 4 6 8 7 9 8 10 9 12 11 2 13 1 14
REMARK H PARENT 10 10 12 12
ROOT
ATOM      1  C   UNL     1       5.295   7.159  -0.688  1.00  0.00     0.105 A 
ATOM      2  C   UNL     1       4.145   7.371  -1.398  1.00  0.00     0.172 A 
ATOM      3  C   UNL     1       5.684   5.762  -0.418  1.00  0.00     0.020 A 
ATOM      4  C   UNL     1       5.113   4.790  -1.176  1.00  0.00     0.005 A 
ATOM      5  C   UNL     1       3.673   6.414  -2.389  1.00  0.00     0.161 A 
ATOM      6  C   UNL     1       4.116   5.052  -2.161  1.00  0.00     0.050 A 
ENDROOT
BRANCH   1   7
ATOM      7  C   UNL     1       6.207   8.326  -0.275  1.00  0.00     0.339 C 
ATOM      8  O   UNL     1       6.375   9.297  -1.573  1.00  0.00    -0.246 OA
BRANCH   7   9
ATOM      9  O   UNL     1       6.656   8.720   0.593  1.00  0.00    -0.478 OA
ATOM     10  H   UNL     1       7.078   9.089   1.409  1.00  0.00     0.297 HD
ENDBRANCH   7   9
ENDBRANCH   1   7
BRANCH   2  11
ATOM     11  O   UNL     1       3.378   8.535  -1.219  1.00  0.00    -0.504 OA
ATOM     12  H   UNL     1       2.838   9.355  -1.092  1.00  0.00     0.293 HD
ENDBRANCH   2  11
BRANCH   5  13
ATOM     13  O   UNL     1       2.610   6.836  -3.179  1.00  0.00    -0.493 OA
ATOM     14  C   UNL     1       1.395   6.960  -3.601  1.00  0.00     0.278 C 
ENDBRANCH   5  13
TORSDOF 4
ENDMDL
MODEL 8
REMARK VINA RESULT:    -3.392      1.818      2.000
REMARK INTER + INTRA:          -4.422
REMARK INTER:                  -4.182
REMARK INTRA:                  -0.240
REMARK UNBOUND:                -0.435
REMARK SMILES COc1cccc(C(=O)O)c1O
REMARK SMILES IDX 7 1 11 2 6 3 5 4 3 5 4 6 8 7 9 8 10 9 12 11 2 13 1 14
REMARK H PARENT 10 10 12 12
ROOT
ATOM      1  C   UNL     1       2.854   7.374  -3.070  1.00  0.00     0.105 A 
ATOM      2  C   UNL     1       3.576   7.787  -1.984  1.00  0.00     0.172 A 
ATOM      3  C   UNL     1       3.465   7.545  -4.401  1.00  0.00     0.020 A 
ATOM      4  C   UNL     1       4.807   7.746  -4.459  1.00  0.00     0.005 A 
ATOM      5  C   UNL     1       5.032   7.769  -1.983  1.00  0.00     0.161 A 
ATOM      6  C   UNL     1       5.630   7.866  -3.301  1.00  0.00     0.050 A 
ENDROOT
BRANCH   1   7
ATOM      7  C   UNL     1       1.501   6.660  -2.908  1.00  0.00     0.339 C 
ATOM      8  O   UNL     1       0.971   6.276  -4.400  1.00  0.00    -0.246 OA
BRANCH   7   9
ATOM      9  O   UNL     1       0.890   6.274  -2.143  1.00  0.00    -0.478 OA
ATOM     10  H   UNL     1       0.314   5.911  -1.423  1.00  0.00     0.297 HD
ENDBRANCH   7   9
ENDBRANCH   1   7
BRANCH   2  11
ATOM     11  O   UNL     1       2.942   8.227  -0.809  1.00  0.00    -0.504 OA
ATOM     12  H   UNL     1       2.496   8.537   0.018  1.00  0.00     0.293 HD
ENDBRANCH   2  11
BRANCH   5  13
ATOM     13  O   UNL     1       5.639   8.022  -0.759  1.00  0.00    -0.493 OA
ATOM     14  C   UNL     1       6.440   8.555   0.104  1.00  0.00     0.278 C 
ENDBRANCH   5  13
TORSDOF 4
ENDMDL
MODEL 9
REMARK VINA RESULT:    -3.336      2.428      4.556
REMARK INTER + INTRA:          -4.356
REMARK INTER:                  -3.939
REMARK INTRA:                  -0.416
REMARK UNBOUND:                -0.435
REMARK SMILES COc1cccc(C(=O)O)c1O
REMARK SMILES IDX 7 1 11 2 6 3 5 4 3 5 4 6 8 7 9 8 10 9 12 11 2 13 1 14
REMARK H PARENT 10 10 12 12
ROOT
ATOM      1  C   UNL     1       4.340   6.889  -1.786  1.00  0.00     0.105 A 
ATOM      2  C   UNL     1       4.623   7.720  -2.835  1.00  0.00     0.172 A 
ATOM      3  C   UNL     1       2.957   6.391  -1.663  1.00  0.00     0.020 A 
ATOM      4  C   UNL     1       2.158   6.471  -2.758  1.00  0.00     0.005 A 
ATOM      5  C   UNL     1       3.904   7.628  -4.098  1.00  0.00     0.161 A 
ATOM      6  C   UNL     1       2.569   7.070  -3.984  1.00  0.00     0.050 A 
ENDROOT
BRANCH   1   7
ATOM      7  C   UNL     1       5.442   6.405  -0.828  1.00  0.00     0.339 C 
ATOM      8  O   UNL     1       6.074   7.722  -0.108  1.00  0.00    -0.246 OA
BRANCH   7   9
ATOM      9  O   UNL     1       5.825   5.503  -0.443  1.00  0.00    -0.478 OA
ATOM     10  H   UNL     1       6.184   4.654  -0.081  1.00  0.00     0.297 HD
ENDBRANCH   7   9
ENDBRANCH   1   7
BRANCH   2  11
ATOM     11  O   UNL     1       5.639   8.688  -2.749  1.00  0.00    -0.504 OA
ATOM     12  H   UNL     1       6.354   9.369  -2.688  1.00  0.00     0.293 HD
ENDBRANCH   2  11
BRANCH   5  13
ATOM     13  O   UNL     1       4.416   8.387  -5.143  1.00  0.00    -0.493 OA
ATOM     14  C   UNL     1       4.536   8.879  -6.332  1.00  0.00     0.278 C 
ENDBRANCH   5  13
TORSDOF 4
ENDMDL
