MODEL 1
REMARK VINA RESULT:    -4.800      0.000      0.000
REMARK INTER + INTRA:          -6.110
REMARK INTER:                  -5.642
REMARK INTRA:                  -0.468
REMARK UNBOUND:                -0.468
REMARK SMILES COc1cccc(C(=O)O)c1O
REMARK SMILES IDX 7 1 11 2 6 3 5 4 3 5 4 6 8 7 9 8 10 9 12 11 2 13 1 14
REMARK H PARENT 10 10 12 12
ROOT
ATOM      1  C   UNL     1       5.904  -4.139  -4.286  1.00  0.00     0.105 A 
ATOM      2  C   UNL     1       6.189  -2.822  -4.522  1.00  0.00     0.172 A 
ATOM      3  C   UNL     1       6.915  -4.939  -3.571  1.00  0.00     0.020 A 
ATOM      4  C   UNL     1       7.874  -4.272  -2.878  1.00  0.00     0.005 A 
ATOM      5  C   UNL     1       7.039  -2.052  -3.625  1.00  0.00     0.161 A 
ATOM      6  C   UNL     1       7.985  -2.851  -2.869  1.00  0.00     0.050 A 
ENDROOT
BRANCH   1   7
ATOM      7  C   UNL     1       4.538  -4.741  -4.657  1.00  0.00     0.339 C 
ATOM      8  O   UNL     1       3.542  -3.504  -5.020  1.00  0.00    -0.246 OA
BRANCH   7   9
ATOM      9  O   UNL     1       4.103  -5.684  -4.834  1.00  0.00    -0.478 OA
ATOM     10  H   UNL     1       3.694  -6.570  -5.000  1.00  0.00     0.297 HD
ENDBRANCH   7   9
ENDBRANCH   1   7
BRANCH   2  11
ATOM     11  O   UNL     1       5.655  -2.146  -5.632  1.00  0.00    -0.504 OA
ATOM     12  H   UNL     1       5.279  -1.669  -6.414  1.00  0.00     0.293 HD
ENDBRANCH   2  11
BRANCH   5  13
ATOM     13  O   UNL     1       7.089  -0.685  -3.864  1.00  0.00    -0.493 OA
ATOM     14  C   UNL     1       7.582   0.505  -3.968  1.00  0.00     0.278 C 
ENDBRANCH   5  13
TORSDOF 4
ENDMDL
MODEL 2
REMARK VINA RESULT:    -4.768      3.003      4.446
REMARK INTER + INTRA:          -6.072
REMARK INTER:                  -5.801
REMARK INTRA:                  -0.271
REMARK UNBOUND:                -0.468
REMARK SMILES COc1cccc(C(=O)O)c1O
REMARK SMILES IDX 7 1 11 2 6 3 5 4 3 5 4 6 8 7 9 8 10 9 12 11 2 13 1 14
REMARK H PARENT 10 10 12 12
ROOT
ATOM      1  C   UNL     1       7.438  -1.062  -4.413  1.00  0.00     0.105 A 
ATOM      2  C   UNL     1       8.396  -1.549  -5.259  1.00  0.00     0.172 A 
ATOM      3  C   UNL     1       6.486  -2.027  -3.832  1.00  0.00     0.020 A 
ATOM      4  C   UNL     1       6.822  -3.342  -3.863  1.00  0.00     0.005 A 
ATOM      5  C   UNL     1       8.920  -2.900  -5.123  1.00  0.00     0.161 A 
ATOM      6  C   UNL     1       8.007  -3.831  -4.486  1.00  0.00     0.050 A 
ENDROOT
BRANCH   1   7
ATOM      7  C   UNL     1       7.415   0.419  -3.996  1.00  0.00     0.339 C 
ATOM      8  O   UNL     1       6.476   0.537  -2.670  1.00  0.00    -0.246 OA
BRANCH   7   9
ATOM      9  O   UNL     1       7.887   1.326  -4.247  1.00  0.00    -0.478 OA
ATOM     10  H   UNL     1       8.332   2.179  -4.483  1.00  0.00     0.297 HD
ENDBRANCH   7   9
ENDBRANCH   1   7
BRANCH   2  11
ATOM     11  O   UNL     1       8.936  -0.756  -6.286  1.00  0.00    -0.504 OA
ATOM     12  H   UNL     1       9.316  -0.197  -7.009  1.00  0.00     0.293 HD
ENDBRANCH   2  11
BRANCH   5  13
ATOM     13  O   UNL     1      10.023  -3.205  -5.911  1.00  0.00    -0.493 OA
ATOM     14  C   UNL     1      11.236  -3.528  -6.216  1.00  0.00     0.278 C 
ENDBRANCH   5  13
TORSDOF 4
ENDMDL
MODEL 3
REMARK VINA RESULT:    -4.764      2.229      3.281
REMARK INTER + INTRA:          -6.067
REMARK INTER:                  -5.797
REMARK INTRA:                  -0.270
REMARK UNBOUND:                -0.468
REMARK SMILES COc1cccc(C(=O)O)c1O
REMARK SMILES IDX 7 1 11 2 6 3 5 4 3 5 4 6 8 7 9 8 10 9 12 11 2 13 1 14
REMARK H PARENT 10 10 12 12
ROOT
ATOM      1  C   UNL     1       5.932  -3.890  -4.360  1.00  0.00     0.105 A 
ATOM      2  C   UNL     1       7.115  -4.538  -4.135  1.00  0.00     0.172 A 
ATOM      3  C   UNL     1       5.989  -2.449  -4.663  1.00  0.00     0.020 A 
ATOM      4  C   UNL     1       7.182  -1.934  -5.061  1.00  0.00     0.005 A 
ATOM      5  C   UNL     1       8.354  -4.108  -4.767  1.00  0.00     0.161 A 
ATOM      6  C   UNL     1       8.380  -2.703  -5.130  1.00  0.00     0.050 A 
ENDROOT
BRANCH   1   7
ATOM      7  C   UNL     1       4.596  -4.653  -4.400  1.00  0.00     0.339 C 
ATOM      8  O   UNL     1       3.510  -3.694  -5.144  1.00  0.00    -0.246 OA
BRANCH   7   9
ATOM      9  O   UNL     1       4.219  -5.612  -4.186  1.00  0.00    -0.478 OA
ATOM     10  H   UNL     1       3.864  -6.515  -3.984  1.00  0.00     0.297 HD
ENDBRANCH   7   9
ENDBRANCH   1   7
BRANCH   2  11
ATOM     11  O   UNL     1       7.185  -5.666  -3.298  1.00  0.00    -0.504 OA
ATOM     12  H   UNL     1       7.233  -6.460  -2.709  1.00  0.00     0.293 HD
ENDBRANCH   2  11
BRANCH   5  13
ATOM     13  O   UNL     1       9.439  -4.961  -4.617  1.00  0.00    -0.493 OA
ATOM     14  C   UNL     1      10.360  -5.811  -4.933  1.00  0.00     0.278 C 
ENDBRANCH   5  13
TORSDOF 4
ENDMDL
MODEL 4
REMARK VINA RESULT:    -4.525      1.541      4.335
REMARK INTER + INTRA:          -5.787
REMARK INTER:                  -5.358
REMARK INTRA:                  -0.428
REMARK UNBOUND:                -0.468
REMARK SMILES COc1cccc(C(=O)O)c1O
REMARK SMILES IDX 7 1 11 2 6 3 5 4 3 5 4 6 8 7 9 8 10 9 12 11 2 13 1 14
REMARK H PARENT 10 10 12 12
ROOT
ATOM      1  C   UNL     1       7.566  -1.188  -3.869  1.00  0.00     0.105 A 
ATOM      2  C   UNL     1       6.490  -2.029  -3.956  1.00  0.00     0.172 A 
ATOM      3  C   UNL     1       8.910  -1.793  -3.889  1.00  0.00     0.020 A 
ATOM      4  C   UNL     1       9.023  -3.065  -4.351  1.00  0.00     0.005 A 
ATOM      5  C   UNL     1       6.567  -3.295  -4.670  1.00  0.00     0.161 A 
ATOM      6  C   UNL     1       7.904  -3.854  -4.749  1.00  0.00     0.050 A 
ENDROOT
BRANCH   1   7
ATOM      7  C   UNL     1       7.388   0.341  -3.859  1.00  0.00     0.339 C 
ATOM      8  O   UNL     1       6.424   0.710  -2.598  1.00  0.00    -0.246 OA
BRANCH   7   9
ATOM      9  O   UNL     1       7.770   1.192  -4.346  1.00  0.00    -0.478 OA
ATOM     10  H   UNL     1       8.130   1.992  -4.805  1.00  0.00     0.297 HD
ENDBRANCH   7   9
ENDBRANCH   1   7
BRANCH   2  11
ATOM     11  O   UNL     1       5.253  -1.696  -3.378  1.00  0.00    -0.504 OA
ATOM     12  H   UNL     1       4.382  -1.463  -2.970  1.00  0.00     0.293 HD
ENDBRANCH   2  11
BRANCH   5  13
ATOM     13  O   UNL     1       5.362  -3.961  -4.854  1.00  0.00    -0.493 OA
ATOM     14  C   UNL     1       4.412  -4.815  -4.658  1.00  0.00     0.278 C 
ENDBRANCH   5  13
TORSDOF 4
ENDMDL
MODEL 5
REMARK VINA RESULT:    -4.092      2.727      4.240
REMARK INTER + INTRA:          -5.277
REMARK INTER:                  -4.852
REMARK INTRA:                  -0.426
REMARK UNBOUND:                -0.468
REMARK SMILES COc1cccc(C(=O)O)c1O
REMARK SMILES IDX 7 1 11 2 6 3 5 4 3 5 4 6 8 7 9 8 10 9 12 11 2 13 1 14
REMARK H PARENT 10 10 12 12
ROOT
ATOM      1  C   UNL     1       6.635  -1.365  -4.276  1.00  0.00     0.105 A 
ATOM      2  C   UNL     1       7.668  -1.967  -4.941  1.00  0.00     0.172 A 
ATOM      3  C   UNL     1       5.360  -2.100  -4.186  1.00  0.00     0.020 A 
ATOM      4  C   UNL     1       5.383  -3.436  -4.426  1.00  0.00     0.005 A 
ATOM      5  C   UNL     1       7.806  -3.416  -4.985  1.00  0.00     0.161 A 
ATOM      6  C   UNL     1       6.559  -4.139  -4.824  1.00  0.00     0.050 A 
ENDROOT
BRANCH   1   7
ATOM      7  C   UNL     1       6.823  -0.018  -3.557  1.00  0.00     0.339 C 
ATOM      8  O   UNL     1       7.663   0.955  -4.558  1.00  0.00    -0.246 OA
BRANCH   7   9
ATOM      9  O   UNL     1       6.497   0.473  -2.685  1.00  0.00    -0.478 OA
ATOM     10  H   UNL     1       6.190   0.935  -1.865  1.00  0.00     0.297 HD
ENDBRANCH   7   9
ENDBRANCH   1   7
BRANCH   2  11
ATOM     11  O   UNL     1       8.657  -1.212  -5.594  1.00  0.00    -0.504 OA
ATOM     12  H   UNL     1       9.354  -0.680  -6.054  1.00  0.00     0.293 HD
ENDBRANCH   2  11
BRANCH   5  13
ATOM     13  O   UNL     1       8.997  -3.895  -5.518  1.00  0.00    -0.493 OA
ATOM     14  C   UNL     1      10.254  -4.183  -5.599  1.00  0.00     0.278 C 
ENDBRANCH   5  13
TORSDOF 4
ENDMDL
MODEL 6
REMARK VINA RESULT:    -4.011      2.161      2.997
REMARK INTER + INTRA:          -5.183
REMARK INTER:                  -4.748
REMARK INTRA:                  -0.435
REMARK UNBOUND:                -0.468
REMARK SMILES COc1cccc(C(=O)O)c1O
REMARK SMILES IDX 7 1 11 2 6 3 5 4 3 5 4 6 8 7 9 8 10 9 12 11 2 13 1 14
REMARK H PARENT 10 10 12 12
ROOT
ATOM      1  C   UNL     1       5.930  -2.917  -4.405  1.00  0.00     0.105 A 
ATOM      2  C   UNL     1       7.176  -3.384  -4.719  1.00  0.00     0.172 A 
ATOM      3  C   UNL     1       5.822  -1.528  -3.922  1.00  0.00     0.020 A 
ATOM      4  C   UNL     1       6.867  -0.694  -4.159  1.00  0.00     0.005 A 
ATOM      5  C   UNL     1       8.224  -2.497  -5.205  1.00  0.00     0.161 A 
ATOM      6  C   UNL     1       8.076  -1.116  -4.786  1.00  0.00     0.050 A 
ENDROOT
BRANCH   1   7
ATOM      7  C   UNL     1       4.672  -3.770  -4.644  1.00  0.00     0.339 C 
ATOM      8  O   UNL     1       4.918  -5.213  -3.930  1.00  0.00    -0.246 OA
BRANCH   7   9
ATOM      9  O   UNL     1       3.699  -3.664  -5.033  1.00  0.00    -0.478 OA
ATOM     10  H   UNL     1       2.784  -3.565  -5.399  1.00  0.00     0.297 HD
ENDBRANCH   7   9
ENDBRANCH   1   7
BRANCH   2  11
ATOM     11  O   UNL     1       7.496  -4.748  -4.607  1.00  0.00    -0.504 OA
ATOM     12  H   UNL     1       7.721  -5.709  -4.529  1.00  0.00     0.293 HD
ENDBRANCH   2  11
BRANCH   5  13
ATOM     13  O   UNL     1       9.374  -3.119  -5.674  1.00  0.00    -0.493 OA
ATOM     14  C   UNL     1      10.559  -3.635  -5.661  1.00  0.00     0.278 C 
ENDBRANCH   5  13
TORSDOF 4
ENDMDL
MODEL 7
REMARK VINA RESULT:    -4.009      2.328      4.664
REMARK INTER + INTRA:          -5.180
REMARK INTER:                  -4.884
REMARK INTRA:                  -0.297
REMARK UNBOUND:                -0.468
REMARK SMILES COc1cccc(C(=O)O)c1O
REMARK SMILES IDX 7 1 11 2 6 3 5 4 3 5 4 6 8 7 9 8 10 9 12 11 2 13 1 14
REMARK H PARENT 10 10 12 12
ROOT
ATOM      1  C   UNL     1       8.030  -1.203  -5.512  1.00  0.00     0.105 A 
ATOM      2  C   UNL     1       7.054  -2.150  -5.661  1.00  0.00     0.172 A 
ATOM      3  C   UNL     1       7.816  -0.155  -4.498  1.00  0.00     0.020 A 
ATOM      4  C   UNL     1       6.879  -0.383  -3.542  1.00  0.00     0.005 A 
ATOM      5  C   UNL     1       6.208  -2.556  -4.548  1.00  0.00     0.161 A 
ATOM      6  C   UNL     1       6.056  -1.547  -3.516  1.00  0.00     0.050 A 
ENDROOT
BRANCH   1   7
ATOM      7  C   UNL     1       9.351  -1.285  -6.296  1.00  0.00     0.339 C 
ATOM      8  O   UNL     1       9.862  -2.831  -6.228  1.00  0.00    -0.246 OA
BRANCH   7   9
ATOM      9  O   UNL     1       9.947  -0.683  -6.921  1.00  0.00    -0.478 OA
ATOM     10  H   UNL     1      10.508  -0.116  -7.508  1.00  0.00     0.297 HD
ENDBRANCH   7   9
ENDBRANCH   1   7
BRANCH   2  11
ATOM     11  O   UNL     1       6.839  -2.791  -6.893  1.00  0.00    -0.504 OA
ATOM     12  H   UNL     1       6.687  -3.243  -7.761  1.00  0.00     0.293 HD
ENDBRANCH   2  11
BRANCH   5  13
ATOM     13  O   UNL     1       5.395  -3.659  -4.776  1.00  0.00    -0.493 OA
ATOM     14  C   UNL     1       4.760  -4.760  -4.542  1.00  0.00     0.278 C 
ENDBRANCH   5  13
TORSDOF 4
ENDMDL
MODEL 8
REMARK VINA RESULT:    -4.000      2.172      3.091
REMARK INTER + INTRA:          -5.169
REMARK INTER:                  -4.869
REMARK INTRA:                  -0.300
REMARK UNBOUND:                -0.468
REMARK SMILES COc1cccc(C(=O)O)c1O
REMARK SMILES IDX 7 1 11 2 6 3 5 4 3 5 4 6 8 7 9 8 10 9 12 11 2 13 1 14
REMARK H PARENT 10 10 12 12
ROOT
ATOM      1  C   UNL     1       6.821  -4.521  -3.695  1.00  0.00     0.105 A 
ATOM      2  C   UNL     1       7.196  -3.243  -3.381  1.00  0.00     0.172 A 
ATOM      3  C   UNL     1       5.469  -4.719  -4.249  1.00  0.00     0.020 A 
ATOM      4  C   UNL     1       4.827  -3.634  -4.752  1.00  0.00     0.005 A 
ATOM      5  C   UNL     1       6.668  -2.093  -4.101  1.00  0.00     0.161 A 
ATOM      6  C   UNL     1       5.368  -2.315  -4.706  1.00  0.00     0.050 A 
ENDROOT
BRANCH   1   7
ATOM      7  C   UNL     1       7.806  -5.696  -3.577  1.00  0.00     0.339 C 
ATOM      8  O   UNL     1       9.227  -5.206  -4.207  1.00  0.00    -0.246 OA
BRANCH   7   9
ATOM      9  O   UNL     1       7.860  -6.651  -3.137  1.00  0.00    -0.478 OA
ATOM     10  H   UNL     1       7.910  -7.549  -2.723  1.00  0.00     0.297 HD
ENDBRANCH   7   9
ENDBRANCH   1   7
BRANCH   2  11
ATOM     11  O   UNL     1       8.127  -2.984  -2.361  1.00  0.00    -0.504 OA
ATOM     12  H   UNL     1       8.782  -2.802  -1.642  1.00  0.00     0.293 HD
ENDBRANCH   2  11
BRANCH   5  13
ATOM     13  O   UNL     1       7.272  -0.874  -3.822  1.00  0.00    -0.493 OA
ATOM     14  C   UNL     1       7.600   0.369  -3.953  1.00  0.00     0.278 C 
ENDBRANCH   5  13
TORSDOF 4
ENDMDL
