MODEL 1
REMARK VINA RESULT:    -5.135      0.000      0.000
REMARK INTER + INTRA:          -6.305
REMARK INTER:                  -6.035
REMARK INTRA:                  -0.270
REMARK UNBOUND:                -0.270
REMARK SMILES COc1cccc(C(=O)O)c1O
REMARK SMILES IDX 7 1 11 2 6 3 5 4 3 5 4 6 8 7 9 8 10 9 12 11 2 13 1 14
REMARK H PARENT 10 10 12 12
ROOT
ATOM      1  C   UNL     1       5.315  -2.775  -2.440  1.00  0.00     0.105 A 
ATOM      2  C   UNL     1       6.512  -2.365  -2.959  1.00  0.00     0.172 A 
ATOM      3  C   UNL     1       4.102  -2.057  -2.872  1.00  0.00     0.020 A 
ATOM      4  C   UNL     1       4.180  -1.306  -4.000  1.00  0.00     0.005 A 
ATOM      5  C   UNL     1       6.606  -1.771  -4.285  1.00  0.00     0.161 A 
ATOM      6  C   UNL     1       5.387  -1.127  -4.738  1.00  0.00     0.050 A 
ENDROOT
BRANCH   1   7
ATOM      7  C   UNL     1       5.220  -4.005  -1.521  1.00  0.00     0.339 C 
ATOM      8  O   UNL     1       3.685  -4.546  -1.589  1.00  0.00    -0.246 OA
BRANCH   7   9
ATOM      9  O   UNL     1       5.853  -4.634  -0.962  1.00  0.00    -0.478 OA
ATOM     10  H   UNL     1       6.448  -5.226  -0.437  1.00  0.00     0.297 HD
ENDBRANCH   7   9
ENDBRANCH   1   7
BRANCH   2  11
ATOM     11  O   UNL     1       7.712  -2.519  -2.243  1.00  0.00    -0.504 OA
ATOM     12  H   UNL     1       8.557  -2.628  -1.739  1.00  0.00     0.293 HD
ENDBRANCH   2  11
BRANCH   5  13
ATOM     13  O   UNL     1       7.893  -1.582  -4.774  1.00  0.00    -0.493 OA
ATOM     14  C   UNL     1       8.874  -1.561  -5.615  1.00  0.00     0.278 C 
ENDBRANCH   5  13
TORSDOF 4
ENDMDL
MODEL 2
REMARK VINA RESULT:    -5.127      2.968      3.957
REMARK INTER + INTRA:          -6.296
REMARK INTER:                  -6.025
REMARK INTRA:                  -0.271
REMARK UNBOUND:                -0.270
REMARK SMILES COc1cccc(C(=O)O)c1O
REMARK SMILES IDX 7 1 11 2 6 3 5 4 3 5 4 6 8 7 9 8 10 9 12 11 2 13 1 14
REMARK H PARENT 10 10 12 12
ROOT
ATOM      1  C   UNL     1       3.750  -0.676  -3.829  1.00  0.00     0.105 A 
ATOM      2  C   UNL     1       4.484  -0.837  -4.972  1.00  0.00     0.172 A 
ATOM      3  C   UNL     1       4.065  -1.552  -2.686  1.00  0.00     0.020 A 
ATOM      4  C   UNL     1       5.263  -2.190  -2.691  1.00  0.00     0.005 A 
ATOM      5  C   UNL     1       5.863  -1.302  -4.935  1.00  0.00     0.161 A 
ATOM      6  C   UNL     1       6.190  -2.105  -3.771  1.00  0.00     0.050 A 
ENDROOT
BRANCH   1   7
ATOM      7  C   UNL     1       2.706   0.447  -3.700  1.00  0.00     0.339 C 
ATOM      8  O   UNL     1       2.534   0.772  -2.113  1.00  0.00    -0.246 OA
BRANCH   7   9
ATOM      9  O   UNL     1       2.165   1.108  -4.315  1.00  0.00    -0.478 OA
ATOM     10  H   UNL     1       1.655   1.729  -4.894  1.00  0.00     0.297 HD
ENDBRANCH   7   9
ENDBRANCH   1   7
BRANCH   2  11
ATOM     11  O   UNL     1       3.945  -0.539  -6.235  1.00  0.00    -0.504 OA
ATOM     12  H   UNL     1       3.566  -0.329  -7.125  1.00  0.00     0.293 HD
ENDBRANCH   2  11
BRANCH   5  13
ATOM     13  O   UNL     1       6.558  -1.234  -6.136  1.00  0.00    -0.493 OA
ATOM     14  C   UNL     1       7.432  -0.844  -7.005  1.00  0.00     0.278 C 
ENDBRANCH   5  13
TORSDOF 4
ENDMDL
MODEL 3
REMARK VINA RESULT:    -4.701      2.800      4.414
REMARK INTER + INTRA:          -5.795
REMARK INTER:                  -5.362
REMARK INTRA:                  -0.433
REMARK UNBOUND:                -0.270
REMARK SMILES COc1cccc(C(=O)O)c1O
REMARK SMILES IDX 7 1 11 2 6 3 5 4 3 5 4 6 8 7 9 8 10 9 12 11 2 13 1 14
REMARK H PARENT 10 10 12 12
ROOT
ATOM      1  C   UNL     1       3.925  -0.475  -3.819  1.00  0.00     0.105 A 
ATOM      2  C   UNL     1       4.094  -1.529  -2.965  1.00  0.00     0.172 A 
ATOM      3  C   UNL     1       4.903  -0.317  -4.912  1.00  0.00     0.020 A 
ATOM      4  C   UNL     1       5.670  -1.391  -5.232  1.00  0.00     0.005 A 
ATOM      5  C   UNL     1       4.713  -2.773  -3.400  1.00  0.00     0.161 A 
ATOM      6  C   UNL     1       5.621  -2.627  -4.522  1.00  0.00     0.050 A 
ENDROOT
BRANCH   1   7
ATOM      7  C   UNL     1       2.703   0.454  -3.713  1.00  0.00     0.339 C 
ATOM      8  O   UNL     1       2.496   0.807  -2.137  1.00  0.00    -0.246 OA
BRANCH   7   9
ATOM      9  O   UNL     1       2.048   0.986  -4.343  1.00  0.00    -0.478 OA
ATOM     10  H   UNL     1       1.433   1.487  -4.935  1.00  0.00     0.297 HD
ENDBRANCH   7   9
ENDBRANCH   1   7
BRANCH   2  11
ATOM     11  O   UNL     1       3.657  -1.467  -1.631  1.00  0.00    -0.504 OA
ATOM     12  H   UNL     1       3.349  -1.423  -0.691  1.00  0.00     0.293 HD
ENDBRANCH   2  11
BRANCH   5  13
ATOM     13  O   UNL     1       4.647  -3.830  -2.500  1.00  0.00    -0.493 OA
ATOM     14  C   UNL     1       4.970  -4.594  -1.510  1.00  0.00     0.278 C 
ENDBRANCH   5  13
TORSDOF 4
ENDMDL
MODEL 4
REMARK VINA RESULT:    -4.550      1.900      3.170
REMARK INTER + INTRA:          -5.617
REMARK INTER:                  -5.217
REMARK INTRA:                  -0.400
REMARK UNBOUND:                -0.270
REMARK SMILES COc1cccc(C(=O)O)c1O
REMARK SMILES IDX 7 1 11 2 6 3 5 4 3 5 4 6 8 7 9 8 10 9 12 11 2 13 1 14
REMARK H PARENT 10 10 12 12
ROOT
ATOM      1  C   UNL     1       5.134  -3.086  -2.817  1.00  0.00     0.105 A 
ATOM      2  C   UNL     1       4.228  -2.062  -2.860  1.00  0.00     0.172 A 
ATOM      3  C   UNL     1       6.101  -3.190  -3.926  1.00  0.00     0.020 A 
ATOM      4  C   UNL     1       6.284  -2.096  -4.708  1.00  0.00     0.005 A 
ATOM      5  C   UNL     1       4.538  -0.795  -3.506  1.00  0.00     0.161 A 
ATOM      6  C   UNL     1       5.543  -0.888  -4.549  1.00  0.00     0.050 A 
ENDROOT
BRANCH   1   7
ATOM      7  C   UNL     1       5.215  -4.034  -1.608  1.00  0.00     0.339 C 
ATOM      8  O   UNL     1       3.758  -4.746  -1.449  1.00  0.00    -0.246 OA
BRANCH   7   9
ATOM      9  O   UNL     1       5.934  -4.416  -0.940  1.00  0.00    -0.478 OA
ATOM     10  H   UNL     1       6.610  -4.777  -0.313  1.00  0.00     0.297 HD
ENDBRANCH   7   9
ENDBRANCH   1   7
BRANCH   2  11
ATOM     11  O   UNL     1       2.962  -2.180  -2.261  1.00  0.00    -0.504 OA
ATOM     12  H   UNL     1       2.071  -2.263  -1.839  1.00  0.00     0.293 HD
ENDBRANCH   2  11
BRANCH   5  13
ATOM     13  O   UNL     1       3.617   0.226  -3.309  1.00  0.00    -0.493 OA
ATOM     14  C   UNL     1       2.571   0.961  -3.497  1.00  0.00     0.278 C 
ENDBRANCH   5  13
TORSDOF 4
ENDMDL
MODEL 5
REMARK VINA RESULT:    -4.486      2.752      3.626
REMARK INTER + INTRA:          -5.542
REMARK INTER:                  -5.079
REMARK INTRA:                  -0.463
REMARK UNBOUND:                -0.270
REMARK SMILES COc1cccc(C(=O)O)c1O
REMARK SMILES IDX 7 1 11 2 6 3 5 4 3 5 4 6 8 7 9 8 10 9 12 11 2 13 1 14
REMARK H PARENT 10 10 12 12
ROOT
ATOM      1  C   UNL     1       3.709  -1.152  -3.117  1.00  0.00     0.105 A 
ATOM      2  C   UNL     1       4.594  -1.327  -4.146  1.00  0.00     0.172 A 
ATOM      3  C   UNL     1       3.618  -2.220  -2.105  1.00  0.00     0.020 A 
ATOM      4  C   UNL     1       4.639  -3.113  -2.036  1.00  0.00     0.005 A 
ATOM      5  C   UNL     1       5.816  -2.101  -3.979  1.00  0.00     0.161 A 
ATOM      6  C   UNL     1       5.747  -3.104  -2.933  1.00  0.00     0.050 A 
ENDROOT
BRANCH   1   7
ATOM      7  C   UNL     1       2.914   0.156  -2.960  1.00  0.00     0.339 C 
ATOM      8  O   UNL     1       2.347   0.562  -4.432  1.00  0.00    -0.246 OA
BRANCH   7   9
ATOM      9  O   UNL     1       2.559   0.786  -2.195  1.00  0.00    -0.478 OA
ATOM     10  H   UNL     1       2.225   1.379  -1.475  1.00  0.00     0.297 HD
ENDBRANCH   7   9
ENDBRANCH   1   7
BRANCH   2  11
ATOM     11  O   UNL     1       4.373  -0.748  -5.407  1.00  0.00    -0.504 OA
ATOM     12  H   UNL     1       4.217  -0.340  -6.296  1.00  0.00     0.293 HD
ENDBRANCH   2  11
BRANCH   5  13
ATOM     13  O   UNL     1       6.721  -2.038  -5.031  1.00  0.00    -0.493 OA
ATOM     14  C   UNL     1       7.764  -1.685  -5.707  1.00  0.00     0.278 C 
ENDBRANCH   5  13
TORSDOF 4
ENDMDL
MODEL 6
REMARK VINA RESULT:    -4.089      1.871      2.342
REMARK INTER + INTRA:          -5.076
REMARK INTER:                  -4.812
REMARK INTRA:                  -0.265
REMARK UNBOUND:                -0.270
REMARK SMILES COc1cccc(C(=O)O)c1O
REMARK SMILES IDX 7 1 11 2 6 3 5 4 3 5 4 6 8 7 9 8 10 9 12 11 2 13 1 14
REMARK H PARENT 10 10 12 12
ROOT
ATOM      1  C   UNL     1       4.700  -2.360  -3.080  1.00  0.00     0.105 A 
ATOM      2  C   UNL     1       5.088  -2.022  -4.348  1.00  0.00     0.172 A 
ATOM      3  C   UNL     1       3.933  -1.363  -2.312  1.00  0.00     0.020 A 
ATOM      4  C   UNL     1       3.348  -0.349  -3.000  1.00  0.00     0.005 A 
ATOM      5  C   UNL     1       4.308  -1.105  -5.166  1.00  0.00     0.161 A 
ATOM      6  C   UNL     1       3.498  -0.171  -4.407  1.00  0.00     0.050 A 
ENDROOT
BRANCH   1   7
ATOM      7  C   UNL     1       4.960  -3.766  -2.512  1.00  0.00     0.339 C 
ATOM      8  O   UNL     1       3.680  -4.161  -1.586  1.00  0.00    -0.246 OA
BRANCH   7   9
ATOM      9  O   UNL     1       5.648  -4.556  -2.620  1.00  0.00    -0.478 OA
ATOM     10  H   UNL     1       6.295  -5.299  -2.722  1.00  0.00     0.297 HD
ENDBRANCH   7   9
ENDBRANCH   1   7
BRANCH   2  11
ATOM     11  O   UNL     1       6.249  -2.563  -4.926  1.00  0.00    -0.504 OA
ATOM     12  H   UNL     1       7.067  -2.945  -5.334  1.00  0.00     0.293 HD
ENDBRANCH   2  11
BRANCH   5  13
ATOM     13  O   UNL     1       4.698  -0.998  -6.495  1.00  0.00    -0.493 OA
ATOM     14  C   UNL     1       5.103  -0.453  -7.595  1.00  0.00     0.278 C 
ENDBRANCH   5  13
TORSDOF 4
ENDMDL
MODEL 7
REMARK VINA RESULT:    -4.041      2.229      3.867
REMARK INTER + INTRA:          -5.020
REMARK INTER:                  -4.657
REMARK INTRA:                  -0.362
REMARK UNBOUND:                -0.270
REMARK SMILES COc1cccc(C(=O)O)c1O
REMARK SMILES IDX 7 1 11 2 6 3 5 4 3 5 4 6 8 7 9 8 10 9 12 11 2 13 1 14
REMARK H PARENT 10 10 12 12
ROOT
ATOM      1  C   UNL     1       6.527  -2.282  -2.515  1.00  0.00     0.105 A 
ATOM      2  C   UNL     1       5.696  -1.231  -2.789  1.00  0.00     0.172 A 
ATOM      3  C   UNL     1       5.928  -3.489  -1.916  1.00  0.00     0.020 A 
ATOM      4  C   UNL     1       4.581  -3.637  -2.009  1.00  0.00     0.005 A 
ATOM      5  C   UNL     1       4.294  -1.433  -3.124  1.00  0.00     0.161 A 
ATOM      6  C   UNL     1       3.725  -2.658  -2.593  1.00  0.00     0.050 A 
ENDROOT
BRANCH   1   7
ATOM      7  C   UNL     1       8.013  -2.253  -2.911  1.00  0.00     0.339 C 
ATOM      8  O   UNL     1       8.112  -1.550  -4.377  1.00  0.00    -0.246 OA
BRANCH   7   9
ATOM      9  O   UNL     1       8.956  -2.455  -2.488  1.00  0.00    -0.478 OA
ATOM     10  H   UNL     1       9.843  -2.646  -2.091  1.00  0.00     0.297 HD
ENDBRANCH   7   9
ENDBRANCH   1   7
BRANCH   2  11
ATOM     11  O   UNL     1       6.166   0.094  -2.782  1.00  0.00    -0.504 OA
ATOM     12  H   UNL     1       6.497   1.027  -2.777  1.00  0.00     0.293 HD
ENDBRANCH   2  11
BRANCH   5  13
ATOM     13  O   UNL     1       3.611  -0.310  -3.574  1.00  0.00    -0.493 OA
ATOM     14  C   UNL     1       2.728   0.633  -3.606  1.00  0.00     0.278 C 
ENDBRANCH   5  13
TORSDOF 4
ENDMDL
MODEL 8
REMARK VINA RESULT:    -3.890      2.143      4.572
REMARK INTER + INTRA:          -4.842
REMARK INTER:                  -4.527
REMARK INTRA:                  -0.315
REMARK UNBOUND:                -0.270
REMARK SMILES COc1cccc(C(=O)O)c1O
REMARK SMILES IDX 7 1 11 2 6 3 5 4 3 5 4 6 8 7 9 8 10 9 12 11 2 13 1 14
REMARK H PARENT 10 10 12 12
ROOT
ATOM      1  C   UNL     1       4.111  -1.011  -4.942  1.00  0.00     0.105 A 
ATOM      2  C   UNL     1       4.223  -2.132  -4.166  1.00  0.00     0.172 A 
ATOM      3  C   UNL     1       3.286   0.097  -4.427  1.00  0.00     0.020 A 
ATOM      4  C   UNL     1       2.997   0.105  -3.100  1.00  0.00     0.005 A 
ATOM      5  C   UNL     1       4.146  -2.066  -2.714  1.00  0.00     0.161 A 
ATOM      6  C   UNL     1       3.393  -0.934  -2.208  1.00  0.00     0.050 A 
ENDROOT
BRANCH   1   7
ATOM      7  C   UNL     1       4.900  -0.864  -6.255  1.00  0.00     0.339 C 
ATOM      8  O   UNL     1       6.383  -1.489  -6.004  1.00  0.00    -0.246 OA
BRANCH   7   9
ATOM      9  O   UNL     1       4.737  -0.580  -7.256  1.00  0.00    -0.478 OA
ATOM     10  H   UNL     1       4.584  -0.313  -8.197  1.00  0.00     0.297 HD
ENDBRANCH   7   9
ENDBRANCH   1   7
BRANCH   2  11
ATOM     11  O   UNL     1       4.439  -3.398  -4.737  1.00  0.00    -0.504 OA
ATOM     12  H   UNL     1       4.591  -4.290  -5.139  1.00  0.00     0.293 HD
ENDBRANCH   2  11
BRANCH   5  13
ATOM     13  O   UNL     1       4.471  -3.235  -2.037  1.00  0.00    -0.493 OA
ATOM     14  C   UNL     1       5.195  -4.199  -1.571  1.00  0.00     0.278 C 
ENDBRANCH   5  13
TORSDOF 4
ENDMDL
MODEL 9
REMARK VINA RESULT:    -3.822      1.952      2.649
REMARK INTER + INTRA:          -4.761
REMARK INTER:                  -4.563
REMARK INTRA:                  -0.199
REMARK UNBOUND:                -0.270
REMARK SMILES COc1cccc(C(=O)O)c1O
REMARK SMILES IDX 7 1 11 2 6 3 5 4 3 5 4 6 8 7 9 8 10 9 12 11 2 13 1 14
REMARK H PARENT 10 10 12 12
ROOT
ATOM      1  C   UNL     1       5.449  -3.258  -2.686  1.00  0.00     0.105 A 
ATOM      2  C   UNL     1       5.049  -2.929  -3.952  1.00  0.00     0.172 A 
ATOM      3  C   UNL     1       6.784  -2.807  -2.252  1.00  0.00     0.020 A 
ATOM      4  C   UNL     1       7.374  -1.809  -2.960  1.00  0.00     0.005 A 
ATOM      5  C   UNL     1       5.515  -1.716  -4.609  1.00  0.00     0.161 A 
ATOM      6  C   UNL     1       6.796  -1.234  -4.130  1.00  0.00     0.050 A 
ENDROOT
BRANCH   1   7
ATOM      7  C   UNL     1       4.504  -3.981  -1.711  1.00  0.00     0.339 C 
ATOM      8  O   UNL     1       3.371  -2.907  -1.246  1.00  0.00    -0.246 OA
BRANCH   7   9
ATOM      9  O   UNL     1       4.323  -4.952  -1.347  1.00  0.00    -0.478 OA
ATOM     10  H   UNL     1       4.153  -5.866  -1.005  1.00  0.00     0.297 HD
ENDBRANCH   7   9
ENDBRANCH   1   7
BRANCH   2  11
ATOM     11  O   UNL     1       4.151  -3.738  -4.669  1.00  0.00    -0.504 OA
ATOM     12  H   UNL     1       3.518  -4.308  -5.175  1.00  0.00     0.293 HD
ENDBRANCH   2  11
BRANCH   5  13
ATOM     13  O   UNL     1       4.886  -1.396  -5.806  1.00  0.00    -0.493 OA
ATOM     14  C   UNL     1       4.563  -0.715  -6.856  1.00  0.00     0.278 C 
ENDBRANCH   5  13
TORSDOF 4
ENDMDL
