MODEL 1
REMARK VINA RESULT:    -4.917      0.000      0.000
REMARK INTER + INTRA:          -6.049
REMARK INTER:                  -5.779
REMARK INTRA:                  -0.270
REMARK UNBOUND:                -0.270
REMARK SMILES COc1cccc(C(=O)O)c1O
REMARK SMILES IDX 7 1 11 2 6 3 5 4 3 5 4 6 8 7 9 8 10 9 12 11 2 13 1 14
REMARK H PARENT 10 10 12 12
ROOT
ATOM      1  C   UNL     1      -3.141   6.191  -4.883  1.00  0.00     0.105 A 
ATOM      2  C   UNL     1      -3.646   6.715  -6.041  1.00  0.00     0.172 A 
ATOM      3  C   UNL     1      -1.809   5.560  -4.942  1.00  0.00     0.020 A 
ATOM      4  C   UNL     1      -1.020   5.850  -6.009  1.00  0.00     0.005 A 
ATOM      5  C   UNL     1      -2.777   7.244  -7.083  1.00  0.00     0.161 A 
ATOM      6  C   UNL     1      -1.443   6.672  -7.094  1.00  0.00     0.050 A 
ENDROOT
BRANCH   1   7
ATOM      7  C   UNL     1      -3.883   6.346  -3.544  1.00  0.00     0.339 C 
ATOM      8  O   UNL     1      -2.786   6.157  -2.355  1.00  0.00    -0.246 OA
BRANCH   7   9
ATOM      9  O   UNL     1      -4.833   6.625  -3.186  1.00  0.00    -0.478 OA
ATOM     10  H   UNL     1      -5.726   6.887  -2.849  1.00  0.00     0.297 HD
ENDBRANCH   7   9
ENDBRANCH   1   7
BRANCH   2  11
ATOM     11  O   UNL     1      -5.031   6.786  -6.269  1.00  0.00    -0.504 OA
ATOM     12  H   UNL     1      -6.006   6.837  -6.430  1.00  0.00     0.293 HD
ENDBRANCH   2  11
BRANCH   5  13
ATOM     13  O   UNL     1      -3.412   7.924  -8.114  1.00  0.00    -0.493 OA
ATOM     14  C   UNL     1      -3.793   8.913  -8.854  1.00  0.00     0.278 C 
ENDBRANCH   5  13
TORSDOF 4
ENDMDL
MODEL 2
REMARK VINA RESULT:    -4.879      2.871      3.923
REMARK INTER + INTRA:          -6.005
REMARK INTER:                  -5.737
REMARK INTRA:                  -0.268
REMARK UNBOUND:                -0.270
REMARK SMILES COc1cccc(C(=O)O)c1O
REMARK SMILES IDX 7 1 11 2 6 3 5 4 3 5 4 6 8 7 9 8 10 9 12 11 2 13 1 14
REMARK H PARENT 10 10 12 12
ROOT
ATOM      1  C   UNL     1      -0.804   5.193  -6.319  1.00  0.00     0.105 A 
ATOM      2  C   UNL     1      -0.752   6.370  -7.014  1.00  0.00     0.172 A 
ATOM      3  C   UNL     1      -1.874   5.038  -5.316  1.00  0.00     0.020 A 
ATOM      4  C   UNL     1      -2.937   5.880  -5.393  1.00  0.00     0.005 A 
ATOM      5  C   UNL     1      -1.952   7.146  -7.293  1.00  0.00     0.161 A 
ATOM      6  C   UNL     1      -3.030   6.937  -6.344  1.00  0.00     0.050 A 
ENDROOT
BRANCH   1   7
ATOM      7  C   UNL     1       0.150   4.030  -6.641  1.00  0.00     0.339 C 
ATOM      8  O   UNL     1      -0.496   2.678  -6.003  1.00  0.00    -0.246 OA
BRANCH   7   9
ATOM      9  O   UNL     1       1.013   3.842  -7.214  1.00  0.00    -0.478 OA
ATOM     10  H   UNL     1       1.825   3.665  -7.753  1.00  0.00     0.297 HD
ENDBRANCH   7   9
ENDBRANCH   1   7
BRANCH   2  11
ATOM     11  O   UNL     1       0.463   6.874  -7.510  1.00  0.00    -0.504 OA
ATOM     12  H   UNL     1       1.319   7.228  -7.859  1.00  0.00     0.293 HD
ENDBRANCH   2  11
BRANCH   5  13
ATOM     13  O   UNL     1      -1.794   8.211  -8.171  1.00  0.00    -0.493 OA
ATOM     14  C   UNL     1      -1.860   8.891  -9.268  1.00  0.00     0.278 C 
ENDBRANCH   5  13
TORSDOF 4
ENDMDL
MODEL 3
REMARK VINA RESULT:    -4.318      2.903      4.501
REMARK INTER + INTRA:          -5.345
REMARK INTER:                  -4.933
REMARK INTRA:                  -0.413
REMARK UNBOUND:                -0.270
REMARK SMILES COc1cccc(C(=O)O)c1O
REMARK SMILES IDX 7 1 11 2 6 3 5 4 3 5 4 6 8 7 9 8 10 9 12 11 2 13 1 14
REMARK H PARENT 10 10 12 12
ROOT
ATOM      1  C   UNL     1      -1.207   4.586  -6.678  1.00  0.00     0.105 A 
ATOM      2  C   UNL     1      -1.907   4.812  -5.525  1.00  0.00     0.172 A 
ATOM      3  C   UNL     1      -1.754   5.143  -7.929  1.00  0.00     0.020 A 
ATOM      4  C   UNL     1      -2.682   6.129  -7.829  1.00  0.00     0.005 A 
ATOM      5  C   UNL     1      -2.718   6.007  -5.345  1.00  0.00     0.161 A 
ATOM      6  C   UNL     1      -3.196   6.595  -6.583  1.00  0.00     0.050 A 
ENDROOT
BRANCH   1   7
ATOM      7  C   UNL     1       0.154   3.870  -6.661  1.00  0.00     0.339 C 
ATOM      8  O   UNL     1      -0.095   2.364  -6.092  1.00  0.00    -0.246 OA
BRANCH   7   9
ATOM      9  O   UNL     1       1.143   4.027  -6.989  1.00  0.00    -0.478 OA
ATOM     10  H   UNL     1       2.072   4.174  -7.297  1.00  0.00     0.297 HD
ENDBRANCH   7   9
ENDBRANCH   1   7
BRANCH   2  11
ATOM     11  O   UNL     1      -1.857   3.907  -4.450  1.00  0.00    -0.504 OA
ATOM     12  H   UNL     1      -1.822   3.270  -3.693  1.00  0.00     0.293 HD
ENDBRANCH   2  11
BRANCH   5  13
ATOM     13  O   UNL     1      -3.215   6.215  -4.065  1.00  0.00    -0.493 OA
ATOM     14  C   UNL     1      -3.954   6.696  -3.120  1.00  0.00     0.278 C 
ENDBRANCH   5  13
TORSDOF 4
ENDMDL
MODEL 4
REMARK VINA RESULT:    -4.174      2.185      4.615
REMARK INTER + INTRA:          -5.176
REMARK INTER:                  -4.882
REMARK INTRA:                  -0.294
REMARK UNBOUND:                -0.270
REMARK SMILES COc1cccc(C(=O)O)c1O
REMARK SMILES IDX 7 1 11 2 6 3 5 4 3 5 4 6 8 7 9 8 10 9 12 11 2 13 1 14
REMARK H PARENT 10 10 12 12
ROOT
ATOM      1  C   UNL     1      -0.221   6.306  -6.715  1.00  0.00     0.105 A 
ATOM      2  C   UNL     1      -1.002   6.655  -5.647  1.00  0.00     0.172 A 
ATOM      3  C   UNL     1       0.107   4.878  -6.883  1.00  0.00     0.020 A 
ATOM      4  C   UNL     1      -0.656   3.972  -6.219  1.00  0.00     0.005 A 
ATOM      5  C   UNL     1      -1.993   5.742  -5.095  1.00  0.00     0.161 A 
ATOM      6  C   UNL     1      -1.704   4.339  -5.325  1.00  0.00     0.050 A 
ENDROOT
BRANCH   1   7
ATOM      7  C   UNL     1       0.213   7.345  -7.763  1.00  0.00     0.339 C 
ATOM      8  O   UNL     1      -1.094   8.246  -8.126  1.00  0.00    -0.246 OA
BRANCH   7   9
ATOM      9  O   UNL     1       1.094   7.695  -8.222  1.00  0.00    -0.478 OA
ATOM     10  H   UNL     1       1.922   8.024  -8.654  1.00  0.00     0.297 HD
ENDBRANCH   7   9
ENDBRANCH   1   7
BRANCH   2  11
ATOM     11  O   UNL     1      -0.898   7.922  -5.048  1.00  0.00    -0.504 OA
ATOM     12  H   UNL     1      -0.824   8.814  -4.626  1.00  0.00     0.293 HD
ENDBRANCH   2  11
BRANCH   5  13
ATOM     13  O   UNL     1      -2.853   6.283  -4.148  1.00  0.00    -0.493 OA
ATOM     14  C   UNL     1      -3.962   6.624  -3.579  1.00  0.00     0.278 C 
ENDBRANCH   5  13
TORSDOF 4
ENDMDL
MODEL 5
REMARK VINA RESULT:    -4.145      2.260      3.813
REMARK INTER + INTRA:          -5.143
REMARK INTER:                  -4.891
REMARK INTRA:                  -0.251
REMARK UNBOUND:                -0.270
REMARK SMILES COc1cccc(C(=O)O)c1O
REMARK SMILES IDX 7 1 11 2 6 3 5 4 3 5 4 6 8 7 9 8 10 9 12 11 2 13 1 14
REMARK H PARENT 10 10 12 12
ROOT
ATOM      1  C   UNL     1      -4.002   6.294  -5.842  1.00  0.00     0.105 A 
ATOM      2  C   UNL     1      -3.074   5.402  -6.303  1.00  0.00     0.172 A 
ATOM      3  C   UNL     1      -4.037   6.556  -4.392  1.00  0.00     0.020 A 
ATOM      4  C   UNL     1      -2.949   6.204  -3.660  1.00  0.00     0.005 A 
ATOM      5  C   UNL     1      -1.798   5.210  -5.628  1.00  0.00     0.161 A 
ATOM      6  C   UNL     1      -1.817   5.537  -4.215  1.00  0.00     0.050 A 
ENDROOT
BRANCH   1   7
ATOM      7  C   UNL     1      -4.908   7.078  -6.808  1.00  0.00     0.339 C 
ATOM      8  O   UNL     1      -3.957   7.680  -7.986  1.00  0.00    -0.246 OA
BRANCH   7   9
ATOM      9  O   UNL     1      -5.933   7.249  -6.979  1.00  0.00    -0.478 OA
ATOM     10  H   UNL     1      -6.896   7.410  -7.140  1.00  0.00     0.297 HD
ENDBRANCH   7   9
ENDBRANCH   1   7
BRANCH   2  11
ATOM     11  O   UNL     1      -3.301   4.643  -7.464  1.00  0.00    -0.504 OA
ATOM     12  H   UNL     1      -3.462   4.109  -8.282  1.00  0.00     0.293 HD
ENDBRANCH   2  11
BRANCH   5  13
ATOM     13  O   UNL     1      -0.868   4.428  -6.302  1.00  0.00    -0.493 OA
ATOM     14  C   UNL     1       0.247   4.092  -6.862  1.00  0.00     0.278 C 
ENDBRANCH   5  13
TORSDOF 4
ENDMDL
MODEL 6
REMARK VINA RESULT:    -3.798      2.241      3.289
REMARK INTER + INTRA:          -4.734
REMARK INTER:                  -4.557
REMARK INTRA:                  -0.177
REMARK UNBOUND:                -0.270
REMARK SMILES COc1cccc(C(=O)O)c1O
REMARK SMILES IDX 7 1 11 2 6 3 5 4 3 5 4 6 8 7 9 8 10 9 12 11 2 13 1 14
REMARK H PARENT 10 10 12 12
ROOT
ATOM      1  C   UNL     1      -3.489   6.261  -5.070  1.00  0.00     0.105 A 
ATOM      2  C   UNL     1      -2.224   5.790  -5.291  1.00  0.00     0.172 A 
ATOM      3  C   UNL     1      -4.362   6.452  -6.242  1.00  0.00     0.020 A 
ATOM      4  C   UNL     1      -4.017   5.823  -7.396  1.00  0.00     0.005 A 
ATOM      5  C   UNL     1      -1.921   4.913  -6.414  1.00  0.00     0.161 A 
ATOM      6  C   UNL     1      -2.826   5.052  -7.540  1.00  0.00     0.050 A 
ENDROOT
BRANCH   1   7
ATOM      7  C   UNL     1      -4.021   6.484  -3.644  1.00  0.00     0.339 C 
ATOM      8  O   UNL     1      -3.646   8.010  -3.217  1.00  0.00    -0.246 OA
BRANCH   7   9
ATOM      9  O   UNL     1      -4.620   5.993  -2.930  1.00  0.00    -0.478 OA
ATOM     10  H   UNL     1      -5.182   5.532  -2.258  1.00  0.00     0.297 HD
ENDBRANCH   7   9
ENDBRANCH   1   7
BRANCH   2  11
ATOM     11  O   UNL     1      -1.161   6.114  -4.431  1.00  0.00    -0.504 OA
ATOM     12  H   UNL     1      -0.413   6.342  -3.824  1.00  0.00     0.293 HD
ENDBRANCH   2  11
BRANCH   5  13
ATOM     13  O   UNL     1      -0.652   4.347  -6.415  1.00  0.00    -0.493 OA
ATOM     14  C   UNL     1       0.458   3.873  -6.877  1.00  0.00     0.278 C 
ENDBRANCH   5  13
TORSDOF 4
ENDMDL
MODEL 7
REMARK VINA RESULT:    -3.566      8.205      9.352
REMARK INTER + INTRA:          -4.461
REMARK INTER:                  -4.276
REMARK INTRA:                  -0.185
REMARK UNBOUND:                -0.270
REMARK SMILES COc1cccc(C(=O)O)c1O
REMARK SMILES IDX 7 1 11 2 6 3 5 4 3 5 4 6 8 7 9 8 10 9 12 11 2 13 1 14
REMARK H PARENT 10 10 12 12
ROOT
ATOM      1  C   UNL     1       2.489   4.456   0.553  1.00  0.00     0.105 A 
ATOM      2  C   UNL     1       1.528   3.585   0.121  1.00  0.00     0.172 A 
ATOM      3  C   UNL     1       2.167   5.308   1.713  1.00  0.00     0.020 A 
ATOM      4  C   UNL     1       1.122   4.939   2.497  1.00  0.00     0.005 A 
ATOM      5  C   UNL     1       0.552   3.009   1.035  1.00  0.00     0.161 A 
ATOM      6  C   UNL     1       0.290   3.816   2.212  1.00  0.00     0.050 A 
ENDROOT
BRANCH   1   7
ATOM      7  C   UNL     1       3.893   4.477  -0.076  1.00  0.00     0.339 C 
ATOM      8  O   UNL     1       4.290   2.937  -0.431  1.00  0.00    -0.246 OA
BRANCH   7   9
ATOM      9  O   UNL     1       4.602   5.174  -0.422  1.00  0.00    -0.478 OA
ATOM     10  H   UNL     1       5.269   5.829  -0.747  1.00  0.00     0.297 HD
ENDBRANCH   7   9
ENDBRANCH   1   7
BRANCH   2  11
ATOM     11  O   UNL     1       1.453   3.187  -1.225  1.00  0.00    -0.504 OA
ATOM     12  H   UNL     1       1.400   2.908  -2.174  1.00  0.00     0.293 HD
ENDBRANCH   2  11
BRANCH   5  13
ATOM     13  O   UNL     1      -0.240   1.993   0.515  1.00  0.00    -0.493 OA
ATOM     14  C   UNL     1      -0.747   1.183  -0.355  1.00  0.00     0.278 C 
ENDBRANCH   5  13
TORSDOF 4
ENDMDL
MODEL 8
REMARK VINA RESULT:    -3.321      1.872      2.761
REMARK INTER + INTRA:          -4.174
REMARK INTER:                  -4.006
REMARK INTRA:                  -0.168
REMARK UNBOUND:                -0.270
REMARK SMILES COc1cccc(C(=O)O)c1O
REMARK SMILES IDX 7 1 11 2 6 3 5 4 3 5 4 6 8 7 9 8 10 9 12 11 2 13 1 14
REMARK H PARENT 10 10 12 12
ROOT
ATOM      1  C   UNL     1      -2.698   6.522  -5.082  1.00  0.00     0.105 A 
ATOM      2  C   UNL     1      -1.642   7.096  -5.735  1.00  0.00     0.172 A 
ATOM      3  C   UNL     1      -4.028   6.624  -5.710  1.00  0.00     0.020 A 
ATOM      4  C   UNL     1      -4.079   6.937  -7.031  1.00  0.00     0.005 A 
ATOM      5  C   UNL     1      -1.612   7.209  -7.187  1.00  0.00     0.161 A 
ATOM      6  C   UNL     1      -2.923   7.237  -7.809  1.00  0.00     0.050 A 
ENDROOT
BRANCH   1   7
ATOM      7  C   UNL     1      -2.494   5.709  -3.792  1.00  0.00     0.339 C 
ATOM      8  O   UNL     1      -3.400   6.403  -2.630  1.00  0.00    -0.246 OA
BRANCH   7   9
ATOM      9  O   UNL     1      -2.038   4.814  -3.477  1.00  0.00    -0.478 OA
ATOM     10  H   UNL     1      -1.609   3.972  -3.180  1.00  0.00     0.297 HD
ENDBRANCH   7   9
ENDBRANCH   1   7
BRANCH   2  11
ATOM     11  O   UNL     1      -0.526   7.585  -5.035  1.00  0.00    -0.504 OA
ATOM     12  H   UNL     1       0.260   7.929  -4.541  1.00  0.00     0.293 HD
ENDBRANCH   2  11
BRANCH   5  13
ATOM     13  O   UNL     1      -0.407   7.627  -7.737  1.00  0.00    -0.493 OA
ATOM     14  C   UNL     1       0.421   8.112  -8.602  1.00  0.00     0.278 C 
ENDBRANCH   5  13
TORSDOF 4
ENDMDL
MODEL 9
REMARK VINA RESULT:    -3.272      9.986     11.975
REMARK INTER + INTRA:          -4.116
REMARK INTER:                  -3.641
REMARK INTRA:                  -0.476
REMARK UNBOUND:                -0.270
REMARK SMILES COc1cccc(C(=O)O)c1O
REMARK SMILES IDX 7 1 11 2 6 3 5 4 3 5 4 6 8 7 9 8 10 9 12 11 2 13 1 14
REMARK H PARENT 10 10 12 12
ROOT
ATOM      1  C   UNL     1      -3.464  12.848 -15.361  1.00  0.00     0.105 A 
ATOM      2  C   UNL     1      -4.348  13.734 -14.810  1.00  0.00     0.172 A 
ATOM      3  C   UNL     1      -2.898  13.179 -16.682  1.00  0.00     0.020 A 
ATOM      4  C   UNL     1      -2.985  14.468 -17.100  1.00  0.00     0.005 A 
ATOM      5  C   UNL     1      -4.273  15.161 -15.089  1.00  0.00     0.161 A 
ATOM      6  C   UNL     1      -3.651  15.487 -16.359  1.00  0.00     0.050 A 
ENDROOT
BRANCH   1   7
ATOM      7  C   UNL     1      -2.993  11.602 -14.590  1.00  0.00     0.339 C 
ATOM      8  O   UNL     1      -3.436  11.796 -13.034  1.00  0.00    -0.246 OA
BRANCH   7   9
ATOM      9  O   UNL     1      -2.573  10.656 -14.782  1.00  0.00    -0.478 OA
ATOM     10  H   UNL     1      -2.179   9.766 -14.964  1.00  0.00     0.297 HD
ENDBRANCH   7   9
ENDBRANCH   1   7
BRANCH   2  11
ATOM     11  O   UNL     1      -5.357  13.309 -13.929  1.00  0.00    -0.504 OA
ATOM     12  H   UNL     1      -6.068  13.009 -13.308  1.00  0.00     0.293 HD
ENDBRANCH   2  11
BRANCH   5  13
ATOM     13  O   UNL     1      -5.096  15.973 -14.319  1.00  0.00    -0.493 OA
ATOM     14  C   UNL     1      -5.465  16.745 -13.351  1.00  0.00     0.278 C 
ENDBRANCH   5  13
TORSDOF 4
ENDMDL
