MODEL 1
REMARK VINA RESULT:    -4.960      0.000      0.000
REMARK INTER + INTRA:          -6.313
REMARK INTER:                  -5.830
REMARK INTRA:                  -0.484
REMARK UNBOUND:                -0.484
REMARK SMILES COc1cccc(C(=O)O)c1O
REMARK SMILES IDX 7 1 11 2 6 3 5 4 3 5 4 6 8 7 9 8 10 9 12 11 2 13 1 14
REMARK H PARENT 10 10 12 12
ROOT
ATOM      1  C   UNL     1       5.493   3.561  -2.091  1.00  0.00     0.105 A 
ATOM      2  C   UNL     1       4.331   4.154  -1.680  1.00  0.00     0.172 A 
ATOM      3  C   UNL     1       6.756   4.064  -1.521  1.00  0.00     0.020 A 
ATOM      4  C   UNL     1       6.686   4.802  -0.384  1.00  0.00     0.005 A 
ATOM      5  C   UNL     1       4.200   4.737  -0.352  1.00  0.00     0.161 A 
ATOM      6  C   UNL     1       5.455   5.166   0.237  1.00  0.00     0.050 A 
ENDROOT
BRANCH   1   7
ATOM      7  C   UNL     1       5.480   2.345  -3.033  1.00  0.00     0.339 C 
ATOM      8  O   UNL     1       3.951   1.785  -3.085  1.00  0.00    -0.246 OA
BRANCH   7   9
ATOM      9  O   UNL     1       6.123   1.848  -3.704  1.00  0.00    -0.478 OA
ATOM     10  H   UNL     1       6.726   1.381  -4.334  1.00  0.00     0.297 HD
ENDBRANCH   7   9
ENDBRANCH   1   7
BRANCH   2  11
ATOM     11  O   UNL     1       3.202   4.209  -2.515  1.00  0.00    -0.504 OA
ATOM     12  H   UNL     1       2.406   4.248  -3.103  1.00  0.00     0.293 HD
ENDBRANCH   2  11
BRANCH   5  13
ATOM     13  O   UNL     1       2.918   5.128   0.014  1.00  0.00    -0.493 OA
ATOM     14  C   UNL     1       1.937   5.909   0.324  1.00  0.00     0.278 C 
ENDBRANCH   5  13
TORSDOF 4
ENDMDL
MODEL 2
REMARK VINA RESULT:    -4.960      1.760      4.679
REMARK INTER + INTRA:          -6.313
REMARK INTER:                  -5.851
REMARK INTRA:                  -0.462
REMARK UNBOUND:                -0.484
REMARK SMILES COc1cccc(C(=O)O)c1O
REMARK SMILES IDX 7 1 11 2 6 3 5 4 3 5 4 6 8 7 9 8 10 9 12 11 2 13 1 14
REMARK H PARENT 10 10 12 12
ROOT
ATOM      1  C   UNL     1       3.013   5.792  -0.729  1.00  0.00     0.105 A 
ATOM      2  C   UNL     1       3.814   4.712  -0.978  1.00  0.00     0.172 A 
ATOM      3  C   UNL     1       3.043   6.904  -1.697  1.00  0.00     0.020 A 
ATOM      4  C   UNL     1       3.556   6.653  -2.930  1.00  0.00     0.005 A 
ATOM      5  C   UNL     1       4.161   4.316  -2.335  1.00  0.00     0.161 A 
ATOM      6  C   UNL     1       4.121   5.398  -3.301  1.00  0.00     0.050 A 
ENDROOT
BRANCH   1   7
ATOM      7  C   UNL     1       2.036   5.807   0.459  1.00  0.00     0.339 C 
ATOM      8  O   UNL     1       1.966   4.291   1.051  1.00  0.00    -0.246 OA
BRANCH   7   9
ATOM      9  O   UNL     1       1.497   6.500   1.041  1.00  0.00    -0.478 OA
ATOM     10  H   UNL     1       0.990   7.152   1.587  1.00  0.00     0.297 HD
ENDBRANCH   7   9
ENDBRANCH   1   7
BRANCH   2  11
ATOM     11  O   UNL     1       4.322   3.921   0.067  1.00  0.00    -0.504 OA
ATOM     12  H   UNL     1       4.680   3.364   0.803  1.00  0.00     0.293 HD
ENDBRANCH   2  11
BRANCH   5  13
ATOM     13  O   UNL     1       4.812   3.095  -2.462  1.00  0.00    -0.493 OA
ATOM     14  C   UNL     1       5.658   2.216  -2.890  1.00  0.00     0.278 C 
ENDBRANCH   5  13
TORSDOF 4
ENDMDL
MODEL 3
REMARK VINA RESULT:    -4.681      2.936      4.427
REMARK INTER + INTRA:          -5.985
REMARK INTER:                  -5.716
REMARK INTRA:                  -0.270
REMARK UNBOUND:                -0.484
REMARK SMILES COc1cccc(C(=O)O)c1O
REMARK SMILES IDX 7 1 11 2 6 3 5 4 3 5 4 6 8 7 9 8 10 9 12 11 2 13 1 14
REMARK H PARENT 10 10 12 12
ROOT
ATOM      1  C   UNL     1       3.154   5.582  -0.776  1.00  0.00     0.105 A 
ATOM      2  C   UNL     1       3.672   6.648  -1.459  1.00  0.00     0.172 A 
ATOM      3  C   UNL     1       3.842   4.285  -0.909  1.00  0.00     0.020 A 
ATOM      4  C   UNL     1       5.117   4.292  -1.379  1.00  0.00     0.005 A 
ATOM      5  C   UNL     1       5.095   6.752  -1.748  1.00  0.00     0.161 A 
ATOM      6  C   UNL     1       5.785   5.476  -1.808  1.00  0.00     0.050 A 
ENDROOT
BRANCH   1   7
ATOM      7  C   UNL     1       1.961   5.749   0.181  1.00  0.00     0.339 C 
ATOM      8  O   UNL     1       1.949   4.457   1.174  1.00  0.00    -0.246 OA
BRANCH   7   9
ATOM      9  O   UNL     1       1.238   6.470   0.437  1.00  0.00    -0.478 OA
ATOM     10  H   UNL     1       0.558   7.149   0.678  1.00  0.00     0.297 HD
ENDBRANCH   7   9
ENDBRANCH   1   7
BRANCH   2  11
ATOM     11  O   UNL     1       2.854   7.705  -1.896  1.00  0.00    -0.504 OA
ATOM     12  H   UNL     1       2.278   8.449  -2.203  1.00  0.00     0.293 HD
ENDBRANCH   2  11
BRANCH   5  13
ATOM     13  O   UNL     1       5.521   7.967  -2.269  1.00  0.00    -0.493 OA
ATOM     14  C   UNL     1       6.093   9.125  -2.320  1.00  0.00     0.278 C 
ENDBRANCH   5  13
TORSDOF 4
ENDMDL
MODEL 4
REMARK VINA RESULT:    -4.674      2.269      3.331
REMARK INTER + INTRA:          -5.977
REMARK INTER:                  -5.711
REMARK INTRA:                  -0.266
REMARK UNBOUND:                -0.484
REMARK SMILES COc1cccc(C(=O)O)c1O
REMARK SMILES IDX 7 1 11 2 6 3 5 4 3 5 4 6 8 7 9 8 10 9 12 11 2 13 1 14
REMARK H PARENT 10 10 12 12
ROOT
ATOM      1  C   UNL     1       5.318   3.629  -2.128  1.00  0.00     0.105 A 
ATOM      2  C   UNL     1       6.333   4.500  -1.842  1.00  0.00     0.172 A 
ATOM      3  C   UNL     1       3.936   4.099  -1.921  1.00  0.00     0.020 A 
ATOM      4  C   UNL     1       3.733   5.438  -1.822  1.00  0.00     0.005 A 
ATOM      5  C   UNL     1       6.163   5.940  -1.973  1.00  0.00     0.161 A 
ATOM      6  C   UNL     1       4.791   6.393  -1.841  1.00  0.00     0.050 A 
ENDROOT
BRANCH   1   7
ATOM      7  C   UNL     1       5.599   2.247  -2.742  1.00  0.00     0.339 C 
ATOM      8  O   UNL     1       4.183   1.665  -3.300  1.00  0.00    -0.246 OA
BRANCH   7   9
ATOM      9  O   UNL     1       6.420   1.635  -2.988  1.00  0.00    -0.478 OA
ATOM     10  H   UNL     1       7.192   1.059  -3.218  1.00  0.00     0.297 HD
ENDBRANCH   7   9
ENDBRANCH   1   7
BRANCH   2  11
ATOM     11  O   UNL     1       7.596   4.042  -1.429  1.00  0.00    -0.504 OA
ATOM     12  H   UNL     1       8.486   3.719  -1.137  1.00  0.00     0.293 HD
ENDBRANCH   2  11
BRANCH   5  13
ATOM     13  O   UNL     1       7.319   6.701  -1.846  1.00  0.00    -0.493 OA
ATOM     14  C   UNL     1       8.262   7.526  -2.162  1.00  0.00     0.278 C 
ENDBRANCH   5  13
TORSDOF 4
ENDMDL
MODEL 5
REMARK VINA RESULT:    -4.050      2.171      3.099
REMARK INTER + INTRA:          -5.244
REMARK INTER:                  -4.985
REMARK INTRA:                  -0.258
REMARK UNBOUND:                -0.484
REMARK SMILES COc1cccc(C(=O)O)c1O
REMARK SMILES IDX 7 1 11 2 6 3 5 4 3 5 4 6 8 7 9 8 10 9 12 11 2 13 1 14
REMARK H PARENT 10 10 12 12
ROOT
ATOM      1  C   UNL     1       6.303   4.106  -1.443  1.00  0.00     0.105 A 
ATOM      2  C   UNL     1       5.341   4.586  -0.599  1.00  0.00     0.172 A 
ATOM      3  C   UNL     1       5.925   3.018  -2.363  1.00  0.00     0.020 A 
ATOM      4  C   UNL     1       4.601   2.810  -2.584  1.00  0.00     0.005 A 
ATOM      5  C   UNL     1       3.930   4.570  -0.960  1.00  0.00     0.161 A 
ATOM      6  C   UNL     1       3.573   3.543  -1.921  1.00  0.00     0.050 A 
ENDROOT
BRANCH   1   7
ATOM      7  C   UNL     1       7.701   4.745  -1.510  1.00  0.00     0.339 C 
ATOM      8  O   UNL     1       7.495   6.359  -1.593  1.00  0.00    -0.246 OA
BRANCH   7   9
ATOM      9  O   UNL     1       8.712   4.464  -1.421  1.00  0.00    -0.478 OA
ATOM     10  H   UNL     1       9.663   4.200  -1.338  1.00  0.00     0.297 HD
ENDBRANCH   7   9
ENDBRANCH   1   7
BRANCH   2  11
ATOM     11  O   UNL     1       5.673   5.138   0.651  1.00  0.00    -0.504 OA
ATOM     12  H   UNL     1       5.907   5.527   1.531  1.00  0.00     0.293 HD
ENDBRANCH   2  11
BRANCH   5  13
ATOM     13  O   UNL     1       3.079   5.262  -0.108  1.00  0.00    -0.493 OA
ATOM     14  C   UNL     1       2.036   5.914   0.289  1.00  0.00     0.278 C 
ENDBRANCH   5  13
TORSDOF 4
ENDMDL
MODEL 6
REMARK VINA RESULT:    -4.034      2.341      4.575
REMARK INTER + INTRA:          -5.225
REMARK INTER:                  -4.954
REMARK INTRA:                  -0.271
REMARK UNBOUND:                -0.484
REMARK SMILES COc1cccc(C(=O)O)c1O
REMARK SMILES IDX 7 1 11 2 6 3 5 4 3 5 4 6 8 7 9 8 10 9 12 11 2 13 1 14
REMARK H PARENT 10 10 12 12
ROOT
ATOM      1  C   UNL     1       3.206   6.433  -1.626  1.00  0.00     0.105 A 
ATOM      2  C   UNL     1       3.679   5.339  -2.296  1.00  0.00     0.172 A 
ATOM      3  C   UNL     1       2.446   6.200  -0.384  1.00  0.00     0.020 A 
ATOM      4  C   UNL     1       2.569   4.985   0.212  1.00  0.00     0.005 A 
ATOM      5  C   UNL     1       4.034   4.111  -1.598  1.00  0.00     0.161 A 
ATOM      6  C   UNL     1       3.337   3.918  -0.340  1.00  0.00     0.050 A 
ENDROOT
BRANCH   1   7
ATOM      7  C   UNL     1       3.541   7.862  -2.089  1.00  0.00     0.339 C 
ATOM      8  O   UNL     1       5.136   7.905  -2.418  1.00  0.00    -0.246 OA
BRANCH   7   9
ATOM      9  O   UNL     1       3.046   8.756  -2.341  1.00  0.00    -0.478 OA
ATOM     10  H   UNL     1       2.579   9.597  -2.577  1.00  0.00     0.297 HD
ENDBRANCH   7   9
ENDBRANCH   1   7
BRANCH   2  11
ATOM     11  O   UNL     1       3.864   5.357  -3.689  1.00  0.00    -0.504 OA
ATOM     12  H   UNL     1       3.995   5.370  -4.670  1.00  0.00     0.293 HD
ENDBRANCH   2  11
BRANCH   5  13
ATOM     13  O   UNL     1       4.684   3.148  -2.359  1.00  0.00    -0.493 OA
ATOM     14  C   UNL     1       5.656   2.457  -2.858  1.00  0.00     0.278 C 
ENDBRANCH   5  13
TORSDOF 4
ENDMDL
MODEL 7
REMARK VINA RESULT:    -3.946      2.225      3.031
REMARK INTER + INTRA:          -5.122
REMARK INTER:                  -4.666
REMARK INTRA:                  -0.455
REMARK UNBOUND:                -0.484
REMARK SMILES COc1cccc(C(=O)O)c1O
REMARK SMILES IDX 7 1 11 2 6 3 5 4 3 5 4 6 8 7 9 8 10 9 12 11 2 13 1 14
REMARK H PARENT 10 10 12 12
ROOT
ATOM      1  C   UNL     1       4.384   3.874  -1.757  1.00  0.00     0.105 A 
ATOM      2  C   UNL     1       5.105   5.024  -1.925  1.00  0.00     0.172 A 
ATOM      3  C   UNL     1       3.238   3.916  -0.830  1.00  0.00     0.020 A 
ATOM      4  C   UNL     1       2.744   5.134  -0.491  1.00  0.00     0.005 A 
ATOM      5  C   UNL     1       4.491   6.337  -1.789  1.00  0.00     0.161 A 
ATOM      6  C   UNL     1       3.320   6.362  -0.932  1.00  0.00     0.050 A 
ENDROOT
BRANCH   1   7
ATOM      7  C   UNL     1       4.687   2.611  -2.581  1.00  0.00     0.339 C 
ATOM      8  O   UNL     1       6.270   2.274  -2.391  1.00  0.00    -0.246 OA
BRANCH   7   9
ATOM      9  O   UNL     1       4.174   1.873  -3.129  1.00  0.00    -0.478 OA
ATOM     10  H   UNL     1       3.690   1.179  -3.644  1.00  0.00     0.297 HD
ENDBRANCH   7   9
ENDBRANCH   1   7
BRANCH   2  11
ATOM     11  O   UNL     1       6.469   4.990  -2.259  1.00  0.00    -0.504 OA
ATOM     12  H   UNL     1       7.431   4.965  -2.495  1.00  0.00     0.293 HD
ENDBRANCH   2  11
BRANCH   5  13
ATOM     13  O   UNL     1       5.276   7.416  -2.177  1.00  0.00    -0.493 OA
ATOM     14  C   UNL     1       5.956   8.510  -2.081  1.00  0.00     0.278 C 
ENDBRANCH   5  13
TORSDOF 4
ENDMDL
MODEL 8
REMARK VINA RESULT:    -3.922      2.682      4.223
REMARK INTER + INTRA:          -5.093
REMARK INTER:                  -4.754
REMARK INTRA:                  -0.339
REMARK UNBOUND:                -0.484
REMARK SMILES COc1cccc(C(=O)O)c1O
REMARK SMILES IDX 7 1 11 2 6 3 5 4 3 5 4 6 8 7 9 8 10 9 12 11 2 13 1 14
REMARK H PARENT 10 10 12 12
ROOT
ATOM      1  C   UNL     1       3.256   4.778  -0.901  1.00  0.00     0.105 A 
ATOM      2  C   UNL     1       3.956   5.812  -1.459  1.00  0.00     0.172 A 
ATOM      3  C   UNL     1       3.536   3.418  -1.397  1.00  0.00     0.020 A 
ATOM      4  C   UNL     1       4.691   3.222  -2.084  1.00  0.00     0.005 A 
ATOM      5  C   UNL     1       5.303   5.630  -1.980  1.00  0.00     0.161 A 
ATOM      6  C   UNL     1       5.600   4.273  -2.401  1.00  0.00     0.050 A 
ENDROOT
BRANCH   1   7
ATOM      7  C   UNL     1       2.288   5.007   0.273  1.00  0.00     0.339 C 
ATOM      8  O   UNL     1       1.410   6.335  -0.072  1.00  0.00    -0.246 OA
BRANCH   7   9
ATOM      9  O   UNL     1       1.971   4.521   1.151  1.00  0.00    -0.478 OA
ATOM     10  H   UNL     1       1.672   4.064   1.977  1.00  0.00     0.297 HD
ENDBRANCH   7   9
ENDBRANCH   1   7
BRANCH   2  11
ATOM     11  O   UNL     1       3.413   7.107  -1.533  1.00  0.00    -0.504 OA
ATOM     12  H   UNL     1       3.031   8.019  -1.586  1.00  0.00     0.293 HD
ENDBRANCH   2  11
BRANCH   5  13
ATOM     13  O   UNL     1       5.977   6.791  -2.336  1.00  0.00    -0.493 OA
ATOM     14  C   UNL     1       6.412   8.006  -2.261  1.00  0.00     0.278 C 
ENDBRANCH   5  13
TORSDOF 4
ENDMDL
MODEL 9
REMARK VINA RESULT:    -3.531      2.441      4.436
REMARK INTER + INTRA:          -4.634
REMARK INTER:                  -4.432
REMARK INTRA:                  -0.202
REMARK UNBOUND:                -0.484
REMARK SMILES COc1cccc(C(=O)O)c1O
REMARK SMILES IDX 7 1 11 2 6 3 5 4 3 5 4 6 8 7 9 8 10 9 12 11 2 13 1 14
REMARK H PARENT 10 10 12 12
ROOT
ATOM      1  C   UNL     1       3.397   5.706  -0.353  1.00  0.00     0.105 A 
ATOM      2  C   UNL     1       4.743   5.481  -0.269  1.00  0.00     0.172 A 
ATOM      3  C   UNL     1       2.939   6.802  -1.226  1.00  0.00     0.020 A 
ATOM      4  C   UNL     1       3.809   7.273  -2.156  1.00  0.00     0.005 A 
ATOM      5  C   UNL     1       5.637   5.776  -1.380  1.00  0.00     0.161 A 
ATOM      6  C   UNL     1       5.151   6.807  -2.279  1.00  0.00     0.050 A 
ENDROOT
BRANCH   1   7
ATOM      7  C   UNL     1       2.386   4.784   0.352  1.00  0.00     0.339 C 
ATOM      8  O   UNL     1       2.440   3.339  -0.398  1.00  0.00    -0.246 OA
BRANCH   7   9
ATOM      9  O   UNL     1       1.768   4.782   1.204  1.00  0.00    -0.478 OA
ATOM     10  H   UNL     1       1.187   4.779   2.006  1.00  0.00     0.297 HD
ENDBRANCH   7   9
ENDBRANCH   1   7
BRANCH   2  11
ATOM     11  O   UNL     1       5.323   4.935   0.888  1.00  0.00    -0.504 OA
ATOM     12  H   UNL     1       5.732   4.550   1.704  1.00  0.00     0.293 HD
ENDBRANCH   2  11
BRANCH   5  13
ATOM     13  O   UNL     1       6.943   5.322  -1.244  1.00  0.00    -0.493 OA
ATOM     14  C   UNL     1       8.045   4.711  -1.531  1.00  0.00     0.278 C 
ENDBRANCH   5  13
TORSDOF 4
ENDMDL
