MODEL 1
REMARK VINA RESULT:    -4.918      0.000      0.000
REMARK INTER + INTRA:          -6.051
REMARK INTER:                  -5.781
REMARK INTRA:                  -0.271
REMARK UNBOUND:                -0.271
REMARK SMILES COc1cccc(C(=O)O)c1O
REMARK SMILES IDX 7 1 11 2 6 3 5 4 3 5 4 6 8 7 9 8 10 9 12 11 2 13 1 14
REMARK H PARENT 10 10 12 12
ROOT
ATOM      1  C   UNL     1       6.036  -4.456   0.789  1.00  0.00     0.105 A 
ATOM      2  C   UNL     1       6.924  -5.438   0.445  1.00  0.00     0.172 A 
ATOM      3  C   UNL     1       4.628  -4.846   0.987  1.00  0.00     0.020 A 
ATOM      4  C   UNL     1       4.360  -6.163   1.181  1.00  0.00     0.005 A 
ATOM      5  C   UNL     1       6.739  -6.818   0.871  1.00  0.00     0.161 A 
ATOM      6  C   UNL     1       5.359  -7.180   1.134  1.00  0.00     0.050 A 
ENDROOT
BRANCH   1   7
ATOM      7  C   UNL     1       6.503  -3.016   1.063  1.00  0.00     0.339 C 
ATOM      8  O   UNL     1       5.339  -2.285   1.938  1.00  0.00    -0.246 OA
BRANCH   7   9
ATOM      9  O   UNL     1       7.361  -2.418   0.941  1.00  0.00    -0.478 OA
ATOM     10  H   UNL     1       8.169  -1.857   0.827  1.00  0.00     0.297 HD
ENDBRANCH   7   9
ENDBRANCH   1   7
BRANCH   2  11
ATOM     11  O   UNL     1       8.070  -5.155  -0.318  1.00  0.00    -0.504 OA
ATOM     12  H   UNL     1       8.877  -4.955  -0.855  1.00  0.00     0.293 HD
ENDBRANCH   2  11
BRANCH   5  13
ATOM     13  O   UNL     1       7.805  -7.675   0.627  1.00  0.00    -0.493 OA
ATOM     14  C   UNL     1       8.792  -8.474   0.870  1.00  0.00     0.278 C 
ENDBRANCH   5  13
TORSDOF 4
ENDMDL
MODEL 2
REMARK VINA RESULT:    -4.916      2.221      3.262
REMARK INTER + INTRA:          -6.048
REMARK INTER:                  -5.629
REMARK INTRA:                  -0.420
REMARK UNBOUND:                -0.271
REMARK SMILES COc1cccc(C(=O)O)c1O
REMARK SMILES IDX 7 1 11 2 6 3 5 4 3 5 4 6 8 7 9 8 10 9 12 11 2 13 1 14
REMARK H PARENT 10 10 12 12
ROOT
ATOM      1  C   UNL     1       6.299  -4.372   0.750  1.00  0.00     0.105 A 
ATOM      2  C   UNL     1       5.056  -4.937   0.827  1.00  0.00     0.172 A 
ATOM      3  C   UNL     1       7.335  -5.099  -0.007  1.00  0.00     0.020 A 
ATOM      4  C   UNL     1       6.925  -6.064  -0.870  1.00  0.00     0.005 A 
ATOM      5  C   UNL     1       4.537  -5.788  -0.234  1.00  0.00     0.161 A 
ATOM      6  C   UNL     1       5.560  -6.447  -1.024  1.00  0.00     0.050 A 
ENDROOT
BRANCH   1   7
ATOM      7  C   UNL     1       6.584  -2.979   1.339  1.00  0.00     0.339 C 
ATOM      8  O   UNL     1       5.157  -2.350   1.811  1.00  0.00    -0.246 OA
BRANCH   7   9
ATOM      9  O   UNL     1       7.406  -2.379   1.606  1.00  0.00    -0.478 OA
ATOM     10  H   UNL     1       8.180  -1.814   1.858  1.00  0.00     0.297 HD
ENDBRANCH   7   9
ENDBRANCH   1   7
BRANCH   2  11
ATOM     11  O   UNL     1       4.214  -4.704   1.928  1.00  0.00    -0.504 OA
ATOM     12  H   UNL     1       3.620  -4.539   2.703  1.00  0.00     0.293 HD
ENDBRANCH   2  11
BRANCH   5  13
ATOM     13  O   UNL     1       3.196  -6.136  -0.129  1.00  0.00    -0.493 OA
ATOM     14  C   UNL     1       2.151  -6.878   0.036  1.00  0.00     0.278 C 
ENDBRANCH   5  13
TORSDOF 4
ENDMDL
MODEL 3
REMARK VINA RESULT:    -4.838      3.031      4.048
REMARK INTER + INTRA:          -5.958
REMARK INTER:                  -5.688
REMARK INTRA:                  -0.270
REMARK UNBOUND:                -0.271
REMARK SMILES COc1cccc(C(=O)O)c1O
REMARK SMILES IDX 7 1 11 2 6 3 5 4 3 5 4 6 8 7 9 8 10 9 12 11 2 13 1 14
REMARK H PARENT 10 10 12 12
ROOT
ATOM      1  C   UNL     1       3.646  -6.405   0.539  1.00  0.00     0.105 A 
ATOM      2  C   UNL     1       4.363  -7.359   1.207  1.00  0.00     0.172 A 
ATOM      3  C   UNL     1       4.310  -5.117   0.265  1.00  0.00     0.020 A 
ATOM      4  C   UNL     1       5.665  -5.075   0.350  1.00  0.00     0.005 A 
ATOM      5  C   UNL     1       5.812  -7.443   1.094  1.00  0.00     0.161 A 
ATOM      6  C   UNL     1       6.458  -6.189   0.754  1.00  0.00     0.050 A 
ENDROOT
BRANCH   1   7
ATOM      7  C   UNL     1       2.236  -6.697  -0.002  1.00  0.00     0.339 C 
ATOM      8  O   UNL     1       1.904  -5.570  -1.131  1.00  0.00    -0.246 OA
BRANCH   7   9
ATOM      9  O   UNL     1       1.492  -7.439   0.068  1.00  0.00    -0.478 OA
ATOM     10  H   UNL     1       0.793  -8.137   0.135  1.00  0.00     0.297 HD
ENDBRANCH   7   9
ENDBRANCH   1   7
BRANCH   2  11
ATOM     11  O   UNL     1       3.730  -8.316   2.019  1.00  0.00    -0.504 OA
ATOM     12  H   UNL     1       3.284  -8.990   2.591  1.00  0.00     0.293 HD
ENDBRANCH   2  11
BRANCH   5  13
ATOM     13  O   UNL     1       6.399  -8.569   1.659  1.00  0.00    -0.493 OA
ATOM     14  C   UNL     1       7.128  -9.632   1.752  1.00  0.00     0.278 C 
ENDBRANCH   5  13
TORSDOF 4
ENDMDL
MODEL 4
REMARK VINA RESULT:    -4.657      2.941      4.466
REMARK INTER + INTRA:          -5.745
REMARK INTER:                  -5.330
REMARK INTRA:                  -0.415
REMARK UNBOUND:                -0.271
REMARK SMILES COc1cccc(C(=O)O)c1O
REMARK SMILES IDX 7 1 11 2 6 3 5 4 3 5 4 6 8 7 9 8 10 9 12 11 2 13 1 14
REMARK H PARENT 10 10 12 12
ROOT
ATOM      1  C   UNL     1       3.745  -6.397  -0.153  1.00  0.00     0.105 A 
ATOM      2  C   UNL     1       4.320  -5.198   0.168  1.00  0.00     0.172 A 
ATOM      3  C   UNL     1       4.642  -7.534  -0.427  1.00  0.00     0.020 A 
ATOM      4  C   UNL     1       5.928  -7.441   0.001  1.00  0.00     0.005 A 
ATOM      5  C   UNL     1       5.605  -5.125   0.849  1.00  0.00     0.161 A 
ATOM      6  C   UNL     1       6.458  -6.279   0.635  1.00  0.00     0.050 A 
ENDROOT
BRANCH   1   7
ATOM      7  C   UNL     1       2.218  -6.584  -0.126  1.00  0.00     0.339 C 
ATOM      8  O   UNL     1       1.583  -5.569  -1.231  1.00  0.00    -0.246 OA
BRANCH   7   9
ATOM      9  O   UNL     1       1.500  -7.221   0.307  1.00  0.00    -0.478 OA
ATOM     10  H   UNL     1       0.824  -7.819   0.715  1.00  0.00     0.297 HD
ENDBRANCH   7   9
ENDBRANCH   1   7
BRANCH   2  11
ATOM     11  O   UNL     1       3.684  -3.979  -0.127  1.00  0.00    -0.504 OA
ATOM     12  H   UNL     1       3.237  -3.121  -0.334  1.00  0.00     0.293 HD
ENDBRANCH   2  11
BRANCH   5  13
ATOM     13  O   UNL     1       5.984  -3.865   1.293  1.00  0.00    -0.493 OA
ATOM     14  C   UNL     1       6.679  -2.780   1.397  1.00  0.00     0.278 C 
ENDBRANCH   5  13
TORSDOF 4
ENDMDL
MODEL 5
REMARK VINA RESULT:    -4.282      1.019      1.416
REMARK INTER + INTRA:          -5.304
REMARK INTER:                  -4.840
REMARK INTRA:                  -0.465
REMARK UNBOUND:                -0.271
REMARK SMILES COc1cccc(C(=O)O)c1O
REMARK SMILES IDX 7 1 11 2 6 3 5 4 3 5 4 6 8 7 9 8 10 9 12 11 2 13 1 14
REMARK H PARENT 10 10 12 12
ROOT
ATOM      1  C   UNL     1       5.222  -4.469   0.718  1.00  0.00     0.105 A 
ATOM      2  C   UNL     1       6.060  -5.541   0.575  1.00  0.00     0.172 A 
ATOM      3  C   UNL     1       3.800  -4.664   0.383  1.00  0.00     0.020 A 
ATOM      4  C   UNL     1       3.336  -5.938   0.314  1.00  0.00     0.005 A 
ATOM      5  C   UNL     1       5.586  -6.908   0.742  1.00  0.00     0.161 A 
ATOM      6  C   UNL     1       4.169  -7.083   0.481  1.00  0.00     0.050 A 
ENDROOT
BRANCH   1   7
ATOM      7  C   UNL     1       5.720  -3.138   1.306  1.00  0.00     0.339 C 
ATOM      8  O   UNL     1       7.153  -2.802   0.607  1.00  0.00    -0.246 OA
BRANCH   7   9
ATOM      9  O   UNL     1       5.375  -2.361   1.928  1.00  0.00    -0.478 OA
ATOM     10  H   UNL     1       5.050  -1.632   2.513  1.00  0.00     0.297 HD
ENDBRANCH   7   9
ENDBRANCH   1   7
BRANCH   2  11
ATOM     11  O   UNL     1       7.423  -5.371   0.281  1.00  0.00    -0.504 OA
ATOM     12  H   UNL     1       8.384  -5.250   0.074  1.00  0.00     0.293 HD
ENDBRANCH   2  11
BRANCH   5  13
ATOM     13  O   UNL     1       6.567  -7.890   0.768  1.00  0.00    -0.493 OA
ATOM     14  C   UNL     1       7.121  -9.039   0.979  1.00  0.00     0.278 C 
ENDBRANCH   5  13
TORSDOF 4
ENDMDL
MODEL 6
REMARK VINA RESULT:    -4.200      2.251      3.811
REMARK INTER + INTRA:          -5.208
REMARK INTER:                  -4.899
REMARK INTRA:                  -0.309
REMARK UNBOUND:                -0.271
REMARK SMILES COc1cccc(C(=O)O)c1O
REMARK SMILES IDX 7 1 11 2 6 3 5 4 3 5 4 6 8 7 9 8 10 9 12 11 2 13 1 14
REMARK H PARENT 10 10 12 12
ROOT
ATOM      1  C   UNL     1       6.894  -5.139   0.056  1.00  0.00     0.105 A 
ATOM      2  C   UNL     1       5.730  -5.741  -0.336  1.00  0.00     0.172 A 
ATOM      3  C   UNL     1       6.790  -3.869   0.799  1.00  0.00     0.020 A 
ATOM      4  C   UNL     1       5.592  -3.563   1.362  1.00  0.00     0.005 A 
ATOM      5  C   UNL     1       4.498  -5.590   0.426  1.00  0.00     0.161 A 
ATOM      6  C   UNL     1       4.428  -4.373   1.212  1.00  0.00     0.050 A 
ENDROOT
BRANCH   1   7
ATOM      7  C   UNL     1       8.259  -5.810  -0.173  1.00  0.00     0.339 C 
ATOM      8  O   UNL     1       8.103  -7.381   0.227  1.00  0.00    -0.246 OA
BRANCH   7   9
ATOM      9  O   UNL     1       9.199  -5.584  -0.590  1.00  0.00    -0.478 OA
ATOM     10  H   UNL     1      10.083  -5.370  -0.981  1.00  0.00     0.297 HD
ENDBRANCH   7   9
ENDBRANCH   1   7
BRANCH   2  11
ATOM     11  O   UNL     1       5.676  -6.552  -1.482  1.00  0.00    -0.504 OA
ATOM     12  H   UNL     1       5.638  -7.124  -2.290  1.00  0.00     0.293 HD
ENDBRANCH   2  11
BRANCH   5  13
ATOM     13  O   UNL     1       3.443  -6.406   0.037  1.00  0.00    -0.493 OA
ATOM     14  C   UNL     1       2.243  -6.882  -0.021  1.00  0.00     0.278 C 
ENDBRANCH   5  13
TORSDOF 4
ENDMDL
MODEL 7
REMARK VINA RESULT:    -4.018      2.304      4.596
REMARK INTER + INTRA:          -4.993
REMARK INTER:                  -4.752
REMARK INTRA:                  -0.242
REMARK UNBOUND:                -0.271
REMARK SMILES COc1cccc(C(=O)O)c1O
REMARK SMILES IDX 7 1 11 2 6 3 5 4 3 5 4 6 8 7 9 8 10 9 12 11 2 13 1 14
REMARK H PARENT 10 10 12 12
ROOT
ATOM      1  C   UNL     1       4.007  -7.232   1.505  1.00  0.00     0.105 A 
ATOM      2  C   UNL     1       4.810  -6.132   1.629  1.00  0.00     0.172 A 
ATOM      3  C   UNL     1       2.826  -7.121   0.629  1.00  0.00     0.020 A 
ATOM      4  C   UNL     1       2.799  -6.102  -0.269  1.00  0.00     0.005 A 
ATOM      5  C   UNL     1       4.952  -5.165   0.550  1.00  0.00     0.161 A 
ATOM      6  C   UNL     1       3.817  -5.108  -0.353  1.00  0.00     0.050 A 
ENDROOT
BRANCH   1   7
ATOM      7  C   UNL     1       4.375  -8.571   2.168  1.00  0.00     0.339 C 
ATOM      8  O   UNL     1       5.975  -8.796   1.953  1.00  0.00    -0.246 OA
BRANCH   7   9
ATOM      9  O   UNL     1       3.935  -9.306   2.780  1.00  0.00    -0.478 OA
ATOM     10  H   UNL     1       3.521  -9.997   3.356  1.00  0.00     0.297 HD
ENDBRANCH   7   9
ENDBRANCH   1   7
BRANCH   2  11
ATOM     11  O   UNL     1       5.552  -5.896   2.798  1.00  0.00    -0.504 OA
ATOM     12  H   UNL     1       6.075  -5.730   3.623  1.00  0.00     0.293 HD
ENDBRANCH   2  11
BRANCH   5  13
ATOM     13  O   UNL     1       5.942  -4.206   0.723  1.00  0.00    -0.493 OA
ATOM     14  C   UNL     1       6.584  -3.214   1.247  1.00  0.00     0.278 C 
ENDBRANCH   5  13
TORSDOF 4
ENDMDL
MODEL 8
REMARK VINA RESULT:    -4.003      2.368      3.478
REMARK INTER + INTRA:          -4.976
REMARK INTER:                  -4.741
REMARK INTRA:                  -0.236
REMARK UNBOUND:                -0.271
REMARK SMILES COc1cccc(C(=O)O)c1O
REMARK SMILES IDX 7 1 11 2 6 3 5 4 3 5 4 6 8 7 9 8 10 9 12 11 2 13 1 14
REMARK H PARENT 10 10 12 12
ROOT
ATOM      1  C   UNL     1       4.556  -5.769   0.422  1.00  0.00     0.105 A 
ATOM      2  C   UNL     1       5.829  -6.215   0.195  1.00  0.00     0.172 A 
ATOM      3  C   UNL     1       4.397  -4.499   1.154  1.00  0.00     0.020 A 
ATOM      4  C   UNL     1       5.476  -3.678   1.235  1.00  0.00     0.005 A 
ATOM      5  C   UNL     1       6.946  -5.293   0.046  1.00  0.00     0.161 A 
ATOM      6  C   UNL     1       6.757  -4.016   0.709  1.00  0.00     0.050 A 
ENDROOT
BRANCH   1   7
ATOM      7  C   UNL     1       3.335  -6.506  -0.156  1.00  0.00     0.339 C 
ATOM      8  O   UNL     1       2.324  -5.378  -0.755  1.00  0.00    -0.246 OA
BRANCH   7   9
ATOM      9  O   UNL     1       3.019  -7.490  -0.358  1.00  0.00    -0.478 OA
ATOM     10  H   UNL     1       2.723  -8.415  -0.549  1.00  0.00     0.297 HD
ENDBRANCH   7   9
ENDBRANCH   1   7
BRANCH   2  11
ATOM     11  O   UNL     1       6.113  -7.586   0.073  1.00  0.00    -0.504 OA
ATOM     12  H   UNL     1       6.313  -8.552  -0.013  1.00  0.00     0.293 HD
ENDBRANCH   2  11
BRANCH   5  13
ATOM     13  O   UNL     1       8.144  -5.856  -0.375  1.00  0.00    -0.493 OA
ATOM     14  C   UNL     1       9.338  -6.346  -0.307  1.00  0.00     0.278 C 
ENDBRANCH   5  13
TORSDOF 4
ENDMDL
