@<TRIPOS>MOLECULE
3MI 
27 29 0 0 0
SMALL
USER_CHARGES
#CGenFF output mol2 file
@<TRIPOS>ATOM
1	O1    -6.8560    -0.2490    -0.0030	O.3	1	UNL1    -0.5160
2	O2    -5.9240     1.7660    -0.0080	O.2	1	UNL1    -0.4320
3	C1    -4.2550    -1.4100     0.0050	C.ar	1	UNL1    -0.2200
4	C2    -3.0060    -1.9550     0.0040	C.ar	1	UNL1    -0.4320
5	C3     4.3140     0.2140    -0.0010	C.ar	1	UNL1    -0.0320
6	C4     2.3780    -1.1980    -0.0000	C.ar	1	UNL1    -0.1250
7	C5     2.1320     1.2040     0.0020	C.ar	1	UNL1    -0.1250
8	C6    -3.3070     0.8220     0.0000	C.ar	1	UNL1    -0.3920
9	N    -0.5500    -1.3630     0.0020	N.ar	1	UNL1    -0.6960
10	O3    -0.7930     0.7990     0.0040	O.2	1	UNL1    -0.2540
11	C7    -5.7780     0.5600    -0.0040	C.2	1	UNL1     0.4560
12	C8     3.7510    -1.0510    -0.0020	C.ar	1	UNL1     0.0530
13	C9     3.5060     1.3380     0.0000	C.ar	1	UNL1     0.0530
14	C10    -4.4220    -0.0180     0.0010	C.ar	1	UNL1     0.0120
15	C11     1.5580    -0.0690     0.0010	C.ar	1	UNL1     0.1040
16	C12     0.0880    -0.2190     0.0020	C.ar	1	UNL1     0.4960
17	C13    -1.8790    -1.1240     0.0030	C.ar	1	UNL1     0.4440
18	C14    -2.0380     0.2730     0.0040	C.ar	1	UNL1     0.4330
19	CL1     4.7730    -2.4540    -0.0040	Cl	1	UNL1    -0.2010
20	CL2     4.2220     2.9200     0.0010	Cl	1	UNL1    -0.2010
21	H1    -7.7240     0.1760    -0.0060	H	1	UNL1     0.4300
22	H2    -5.1210    -2.0540     0.0060	H	1	UNL1     0.1270
23	H3    -2.8860    -3.0280     0.0040	H	1	UNL1     0.2500
24	H4     5.3890     0.3240     0.0020	H	1	UNL1     0.1280
25	H5     1.9390    -2.1850    -0.0000	H	1	UNL1     0.1500
26	H6     1.5020     2.0810     0.0030	H	1	UNL1     0.1500
27	H7    -3.4350     1.8940    -0.0030	H	1	UNL1     0.2400
@<TRIPOS>BOND
1	1	21	1
2	2	11	2
3	3	22	1
4	4	3	2
5	4	23	1
6	5	12	2
7	5	13	1
8	5	24	1
9	6	15	2
10	6	25	1
11	7	15	1
12	7	26	1
13	8	14	2
14	8	27	1
15	9	17	1
16	10	18	1
17	11	1	1
18	12	6	1
19	13	7	2
20	14	3	1
21	14	11	1
22	15	16	1
23	16	9	2
24	16	10	1
25	17	4	1
26	18	8	1
27	18	17	2
28	19	12	1
29	20	13	1
