@<TRIPOS>MOLECULE
16V 
38 39 0 0 0
SMALL
USER_CHARGES
#CGenFF output mol2 file
@<TRIPOS>ATOM
1	O1     3.7340    -2.8500     0.0060	O.2	1	UNL1    -0.4320
2	C1     4.4730    -1.8870     0.0070	C.2	1	UNL1     0.4560
3	O2     5.8090    -2.0630     0.0070	O.3	1	UNL1    -0.5160
4	C2     3.9090    -0.5230     0.0010	C.ar	1	UNL1     0.0900
5	C3     2.5250    -0.3370     0.0000	C.ar	1	UNL1    -0.1680
6	C4     4.7580     0.5870     0.0020	C.ar	1	UNL1    -0.1610
7	C5     4.2280     1.8600    -0.0040	C.ar	1	UNL1    -0.0750
8	C6     2.8550     2.0420    -0.0100	C.ar	1	UNL1     0.0840
9	F     2.3420     3.2920    -0.0160	F	1	UNL1    -0.1610
10	C7     2.0030     0.9430     0.0000	C.ar	1	UNL1     0.2680
11	O3     0.6560     1.1280    -0.0060	O.3	1	UNL1    -0.3930
12	C8    -0.1600    -0.0460     0.0060	C.3	1	UNL1    -0.0130
13	C9    -1.6350     0.3590    -0.0030	C.3	1	UNL1    -0.1840
14	C10    -2.5090    -0.8970     0.0090	C.3	1	UNL1    -0.1960
15	C11    -3.9620    -0.4990     0.0000	C.ar	1	UNL1    -0.0640
16	C12    -4.7270    -0.3020    -1.0990	C.ar	1	UNL1    -0.1520
17	C13    -4.2780    -0.4420    -2.5300	C.3	1	UNL1    -0.1040
18	N1    -5.9640     0.0420    -0.6830	N.ar	1	UNL1    -0.0590
19	N2    -5.9590     0.0570     0.7180	N.ar	1	UNL1    -0.5200
20	C14    -4.7610    -0.2740     1.1260	C.ar	1	UNL1     0.3640
21	C15    -4.3150    -0.3820     2.5620	C.3	1	UNL1    -0.2980
22	H1     6.1320    -2.9750     0.0070	H	1	UNL1     0.4300
23	H2     1.8640    -1.1920    -0.0010	H	1	UNL1     0.1150
24	H3     5.8290     0.4470     0.0070	H	1	UNL1     0.1150
25	H4     4.8860     2.7170    -0.0030	H	1	UNL1     0.1770
26	H5     0.0570    -0.6480    -0.8760	H	1	UNL1     0.0900
27	H6     0.0520    -0.6260     0.9040	H	1	UNL1     0.0900
28	H7    -1.8530     0.9610     0.8790	H	1	UNL1     0.0900
29	H8    -1.8470     0.9400    -0.9010	H	1	UNL1     0.0900
30	H9    -2.2920    -1.5000    -0.8730	H	1	UNL1     0.0900
31	H10    -2.2970    -1.4780     0.9070	H	1	UNL1     0.0900
32	H11    -4.4410    -1.4670    -2.8640	H	1	UNL1     0.0900
33	H12    -4.8490     0.2410    -3.1590	H	1	UNL1     0.0900
34	H13    -3.2170    -0.2010    -2.6030	H	1	UNL1     0.0900
35	H14    -6.7220     0.2440    -1.2530	H	1	UNL1     0.3170
36	H15    -4.4840    -1.3980     2.9190	H	1	UNL1     0.0900
37	H16    -3.2530    -0.1450     2.6320	H	1	UNL1     0.0900
38	H17    -4.8850     0.3180     3.1730	H	1	UNL1     0.0900
@<TRIPOS>BOND
1	1	2	2
2	2	3	1
3	3	22	1
4	4	6	2
5	4	2	1
6	5	4	1
7	5	23	1
8	6	24	1
9	7	6	1
10	7	25	1
11	8	7	2
12	9	8	1
13	10	8	1
14	10	5	2
15	11	10	1
16	12	11	1
17	12	26	1
18	12	27	1
19	13	12	1
20	13	28	1
21	13	29	1
22	14	13	1
23	14	30	1
24	14	31	1
25	15	14	1
26	16	17	1
27	16	15	2
28	17	32	1
29	17	33	1
30	17	34	1
31	18	16	1
32	18	35	1
33	19	18	1
34	19	20	2
35	20	21	1
36	20	15	1
37	21	36	1
38	21	37	1
39	21	38	1
