MODEL 1
REMARK VINA RESULT:    -4.527      0.000      0.000
REMARK INTER + INTRA:          -5.372
REMARK INTER:                  -5.057
REMARK INTRA:                  -0.315
REMARK UNBOUND:                -0.315
REMARK SMILES O=[N+]([O-])c1ccc2c(c1)N[C@@H](c1cc(Cl)cc(Cl)c1)N2
REMARK SMILES IDX 7 1 8 2 5 3 6 4 20 5 10 6 4 7 11 8 9 9 12 12 14 13 13 14
REMARK SMILES IDX 16 15 17 16 19 17 15 18 18 19 2 20 3 21 1 22
REMARK H PARENT 20 10 10 11
ROOT
ATOM      1  C   UNL     1       5.394  -1.960   8.487  1.00  0.00     0.060 A 
ATOM      2  C   UNL     1       4.363  -1.252   9.056  1.00  0.00     0.066 A 
ATOM      3  C   UNL     1       6.569  -2.015  10.528  1.00  0.00     0.088 A 
ATOM      4  C   UNL     1       6.330  -2.522   9.222  1.00  0.00     0.035 A 
ATOM      5  N   UNL     1       5.097  -2.198   7.088  1.00  0.00    -0.360 N 
ATOM      6  N   UNL     1       3.428  -1.090   8.030  1.00  0.00    -0.360 N 
ATOM      7  C   UNL     1       5.613  -1.174  11.094  1.00  0.00     0.271 A 
ATOM      8  C   UNL     1       3.729  -2.119   7.102  1.00  0.00     0.205 C 
ATOM      9  C   UNL     1       4.459  -0.805  10.335  1.00  0.00     0.113 A 
ATOM     10  H   UNL     1       5.737  -2.377   6.301  1.00  0.00     0.163 HD
ATOM     11  H   UNL     1       2.684  -0.381   7.963  1.00  0.00     0.163 HD
ENDROOT
BRANCH   8  12
ATOM     12  C   UNL     1       2.965  -2.026   5.751  1.00  0.00    -0.003 A 
ATOM     13  C   UNL     1       2.756  -2.860   3.429  1.00  0.00     0.042 A 
ATOM     14  C   UNL     1       2.907  -3.115   4.852  1.00  0.00     0.028 A 
ATOM     15  C   UNL     1       2.089  -1.612   3.042  1.00  0.00     0.041 A 
ATOM     16  C   UNL     1       1.837  -0.652   4.111  1.00  0.00     0.042 A 
ATOM     17  C   UNL     1       2.401  -0.746   5.408  1.00  0.00     0.028 A 
ATOM     18  Cl  UNL     1       2.957  -3.899   2.284  1.00  0.00    -0.084 Cl
ATOM     19  Cl  UNL     1       0.879   0.703   3.702  1.00  0.00    -0.084 Cl
ENDBRANCH   8  12
BRANCH   7  20
ATOM     20  N   UNL     1       5.654  -0.741  12.404  1.00  0.00     0.062 N 
ATOM     21  O   UNL     1       4.689  -0.305  12.914  1.00  0.00    -0.258 OA
ATOM     22  O   UNL     1       6.652  -0.988  13.208  1.00  0.00    -0.258 OA
ENDBRANCH   7  20
TORSDOF 2
ENDMDL
MODEL 2
REMARK VINA RESULT:    -4.499      0.960      2.636
REMARK INTER + INTRA:          -5.340
REMARK INTER:                  -5.025
REMARK INTRA:                  -0.315
REMARK UNBOUND:                -0.315
REMARK SMILES O=[N+]([O-])c1ccc2c(c1)N[C@@H](c1cc(Cl)cc(Cl)c1)N2
REMARK SMILES IDX 7 1 8 2 5 3 6 4 20 5 10 6 4 7 11 8 9 9 12 12 14 13 13 14
REMARK SMILES IDX 16 15 17 16 19 17 15 18 18 19 2 20 3 21 1 22
REMARK H PARENT 20 10 10 11
ROOT
ATOM      1  C   UNL     1       4.067  -1.115   9.131  1.00  0.00     0.060 A 
ATOM      2  C   UNL     1       5.201  -1.766   8.709  1.00  0.00     0.066 A 
ATOM      3  C   UNL     1       4.951  -0.840  11.297  1.00  0.00     0.088 A 
ATOM      4  C   UNL     1       4.029  -0.474  10.280  1.00  0.00     0.035 A 
ATOM      5  N   UNL     1       3.128  -1.027   8.030  1.00  0.00    -0.360 N 
ATOM      6  N   UNL     1       4.979  -2.040   7.357  1.00  0.00    -0.360 N 
ATOM      7  C   UNL     1       6.048  -1.623  10.943  1.00  0.00     0.271 A 
ATOM      8  C   UNL     1       3.982  -1.112   6.961  1.00  0.00     0.205 C 
ATOM      9  C   UNL     1       6.185  -2.076   9.594  1.00  0.00     0.113 A 
ATOM     10  H   UNL     1       2.103  -0.928   8.046  1.00  0.00     0.163 HD
ATOM     11  H   UNL     1       5.437  -2.756   6.777  1.00  0.00     0.163 HD
ENDROOT
BRANCH   8  12
ATOM     12  C   UNL     1       3.393  -1.350   5.543  1.00  0.00    -0.003 A 
ATOM     13  C   UNL     1       1.682  -0.698   3.875  1.00  0.00     0.042 A 
ATOM     14  C   UNL     1       2.704  -0.334   4.842  1.00  0.00     0.028 A 
ATOM     15  C   UNL     1       1.810  -2.012   3.233  1.00  0.00     0.041 A 
ATOM     16  C   UNL     1       2.822  -2.908   3.783  1.00  0.00     0.042 A 
ATOM     17  C   UNL     1       3.492  -2.686   5.011  1.00  0.00     0.028 A 
ATOM     18  Cl  UNL     1       0.642   0.267   3.231  1.00  0.00    -0.084 Cl
ATOM     19  Cl  UNL     1       3.113  -4.348   2.909  1.00  0.00    -0.084 Cl
ENDBRANCH   8  12
BRANCH   7  20
ATOM     20  N   UNL     1       7.088  -1.915  11.800  1.00  0.00     0.062 N 
ATOM     21  O   UNL     1       8.129  -2.257  11.375  1.00  0.00    -0.258 OA
ATOM     22  O   UNL     1       7.071  -1.624  13.073  1.00  0.00    -0.258 OA
ENDBRANCH   7  20
TORSDOF 2
ENDMDL
MODEL 3
REMARK VINA RESULT:    -4.352      5.120      7.585
REMARK INTER + INTRA:          -5.176
REMARK INTER:                  -4.877
REMARK INTRA:                  -0.299
REMARK UNBOUND:                -0.315
REMARK SMILES O=[N+]([O-])c1ccc2c(c1)N[C@@H](c1cc(Cl)cc(Cl)c1)N2
REMARK SMILES IDX 7 1 8 2 5 3 6 4 20 5 10 6 4 7 11 8 9 9 12 12 14 13 13 14
REMARK SMILES IDX 16 15 17 16 19 17 15 18 18 19 2 20 3 21 1 22
REMARK H PARENT 20 10 10 11
ROOT
ATOM      1  C   UNL     1       2.719  -1.064   5.670  1.00  0.00     0.060 A 
ATOM      2  C   UNL     1       3.629  -1.986   5.211  1.00  0.00     0.066 A 
ATOM      3  C   UNL     1       1.407  -1.292   3.727  1.00  0.00     0.088 A 
ATOM      4  C   UNL     1       1.553  -0.898   5.085  1.00  0.00     0.035 A 
ATOM      5  N   UNL     1       3.138  -0.587   6.973  1.00  0.00    -0.360 N 
ATOM      6  N   UNL     1       4.573  -2.103   6.235  1.00  0.00    -0.360 N 
ATOM      7  C   UNL     1       2.384  -2.116   3.172  1.00  0.00     0.271 A 
ATOM      8  C   UNL     1       3.903  -1.643   7.397  1.00  0.00     0.205 C 
ATOM      9  C   UNL     1       3.519  -2.494   3.955  1.00  0.00     0.113 A 
ATOM     10  H   UNL     1       2.921   0.299   7.451  1.00  0.00     0.163 HD
ATOM     11  H   UNL     1       5.541  -2.447   6.161  1.00  0.00     0.163 HD
ENDROOT
BRANCH   8  12
ATOM     12  C   UNL     1       4.809  -1.466   8.647  1.00  0.00    -0.003 A 
ATOM     13  C   UNL     1       6.790  -2.266   9.899  1.00  0.00     0.042 A 
ATOM     14  C   UNL     1       6.163  -1.869   8.649  1.00  0.00     0.028 A 
ATOM     15  C   UNL     1       6.241  -1.689  11.132  1.00  0.00     0.041 A 
ATOM     16  C   UNL     1       4.991  -0.948  11.003  1.00  0.00     0.042 A 
ATOM     17  C   UNL     1       4.179  -0.963   9.842  1.00  0.00     0.028 A 
ATOM     18  Cl  UNL     1       8.158  -2.997  10.049  1.00  0.00    -0.084 Cl
ATOM     19  Cl  UNL     1       4.464  -0.104  12.393  1.00  0.00    -0.084 Cl
ENDBRANCH   8  12
BRANCH   7  20
ATOM     20  N   UNL     1       2.281  -2.688   1.920  1.00  0.00     0.062 N 
ATOM     21  O   UNL     1       1.597  -2.199   1.099  1.00  0.00    -0.258 OA
ATOM     22  O   UNL     1       3.076  -3.634   1.498  1.00  0.00    -0.258 OA
ENDBRANCH   7  20
TORSDOF 2
ENDMDL
MODEL 4
REMARK VINA RESULT:    -4.343      5.016      7.654
REMARK INTER + INTRA:          -5.166
REMARK INTER:                  -4.866
REMARK INTRA:                  -0.299
REMARK UNBOUND:                -0.315
REMARK SMILES O=[N+]([O-])c1ccc2c(c1)N[C@@H](c1cc(Cl)cc(Cl)c1)N2
REMARK SMILES IDX 7 1 8 2 5 3 6 4 20 5 10 6 4 7 11 8 9 9 12 12 14 13 13 14
REMARK SMILES IDX 16 15 17 16 19 17 15 18 18 19 2 20 3 21 1 22
REMARK H PARENT 20 10 10 11
ROOT
ATOM      1  C   UNL     1       3.536  -2.504   5.324  1.00  0.00     0.060 A 
ATOM      2  C   UNL     1       2.579  -1.568   5.639  1.00  0.00     0.066 A 
ATOM      3  C   UNL     1       2.820  -2.577   3.081  1.00  0.00     0.088 A 
ATOM      4  C   UNL     1       3.807  -2.816   4.075  1.00  0.00     0.035 A 
ATOM      5  N   UNL     1       4.313  -2.810   6.508  1.00  0.00    -0.360 N 
ATOM      6  N   UNL     1       2.791  -1.275   6.989  1.00  0.00    -0.360 N 
ATOM      7  C   UNL     1       1.750  -1.744   3.401  1.00  0.00     0.271 A 
ATOM      8  C   UNL     1       4.133  -1.662   7.235  1.00  0.00     0.205 C 
ATOM      9  C   UNL     1       1.647  -1.203   4.721  1.00  0.00     0.113 A 
ATOM     10  H   UNL     1       4.853  -3.656   6.740  1.00  0.00     0.163 HD
ATOM     11  H   UNL     1       2.121  -0.869   7.657  1.00  0.00     0.163 HD
ENDROOT
BRANCH   8  12
ATOM     12  C   UNL     1       4.557  -1.640   8.730  1.00  0.00    -0.003 A 
ATOM     13  C   UNL     1       4.263  -0.584  10.950  1.00  0.00     0.042 A 
ATOM     14  C   UNL     1       3.696  -1.157   9.741  1.00  0.00     0.028 A 
ATOM     15  C   UNL     1       5.597  -1.048  11.346  1.00  0.00     0.041 A 
ATOM     16  C   UNL     1       6.311  -1.874  10.379  1.00  0.00     0.042 A 
ATOM     17  C   UNL     1       5.908  -2.041   9.031  1.00  0.00     0.028 A 
ATOM     18  Cl  UNL     1       3.492   0.242  12.024  1.00  0.00    -0.084 Cl
ATOM     19  Cl  UNL     1       7.768  -2.586  10.919  1.00  0.00    -0.084 Cl
ENDBRANCH   8  12
BRANCH   7  20
ATOM     20  N   UNL     1       0.814  -1.314   2.484  1.00  0.00     0.062 N 
ATOM     21  O   UNL     1       0.641  -1.913   1.487  1.00  0.00    -0.258 OA
ATOM     22  O   UNL     1      -0.071  -0.390   2.744  1.00  0.00    -0.258 OA
ENDBRANCH   7  20
TORSDOF 2
ENDMDL
MODEL 5
REMARK VINA RESULT:    -4.140      1.728      2.152
REMARK INTER + INTRA:          -4.940
REMARK INTER:                  -4.649
REMARK INTRA:                  -0.291
REMARK UNBOUND:                -0.315
REMARK SMILES O=[N+]([O-])c1ccc2c(c1)N[C@@H](c1cc(Cl)cc(Cl)c1)N2
REMARK SMILES IDX 7 1 8 2 5 3 6 4 20 5 10 6 4 7 11 8 9 9 12 12 14 13 13 14
REMARK SMILES IDX 16 15 17 16 19 17 15 18 18 19 2 20 3 21 1 22
REMARK H PARENT 20 10 10 11
ROOT
ATOM      1  C   UNL     1       4.805  -1.686   9.187  1.00  0.00     0.060 A 
ATOM      2  C   UNL     1       5.783  -2.306   8.447  1.00  0.00     0.066 A 
ATOM      3  C   UNL     1       6.187  -1.638  11.095  1.00  0.00     0.088 A 
ATOM      4  C   UNL     1       5.064  -1.161  10.366  1.00  0.00     0.035 A 
ATOM      5  N   UNL     1       3.636  -1.478   8.356  1.00  0.00    -0.360 N 
ATOM      6  N   UNL     1       5.237  -2.442   7.169  1.00  0.00    -0.360 N 
ATOM      7  C   UNL     1       7.139  -2.396  10.417  1.00  0.00     0.271 A 
ATOM      8  C   UNL     1       4.208  -1.468   7.110  1.00  0.00     0.205 C 
ATOM      9  C   UNL     1       6.937  -2.715   9.038  1.00  0.00     0.113 A 
ATOM     10  H   UNL     1       2.649  -1.367   8.626  1.00  0.00     0.163 HD
ATOM     11  H   UNL     1       5.519  -3.104   6.431  1.00  0.00     0.163 HD
ENDROOT
BRANCH   8  12
ATOM     12  C   UNL     1       3.292  -1.556   5.858  1.00  0.00    -0.003 A 
ATOM     13  C   UNL     1       2.811  -2.714   3.723  1.00  0.00     0.042 A 
ATOM     14  C   UNL     1       3.126  -2.763   5.141  1.00  0.00     0.028 A 
ATOM     15  C   UNL     1       2.108  -1.522   3.237  1.00  0.00     0.041 A 
ATOM     16  C   UNL     1       1.985  -0.412   4.175  1.00  0.00     0.042 A 
ATOM     17  C   UNL     1       2.696  -0.328   5.398  1.00  0.00     0.028 A 
ATOM     18  Cl  UNL     1       2.873  -3.912   2.727  1.00  0.00    -0.084 Cl
ATOM     19  Cl  UNL     1       0.990   0.889   3.685  1.00  0.00    -0.084 Cl
ENDBRANCH   8  12
BRANCH   7  20
ATOM     20  N   UNL     1       8.342  -2.785  10.969  1.00  0.00     0.062 N 
ATOM     21  O   UNL     1       9.272  -2.067  10.931  1.00  0.00    -0.258 OA
ATOM     22  O   UNL     1       8.470  -3.828  11.744  1.00  0.00    -0.258 OA
ENDBRANCH   7  20
TORSDOF 2
ENDMDL
MODEL 6
REMARK VINA RESULT:    -4.134      0.841      2.199
REMARK INTER + INTRA:          -4.933
REMARK INTER:                  -4.633
REMARK INTRA:                  -0.300
REMARK UNBOUND:                -0.315
REMARK SMILES O=[N+]([O-])c1ccc2c(c1)N[C@@H](c1cc(Cl)cc(Cl)c1)N2
REMARK SMILES IDX 7 1 8 2 5 3 6 4 20 5 10 6 4 7 11 8 9 9 12 12 14 13 13 14
REMARK SMILES IDX 16 15 17 16 19 17 15 18 18 19 2 20 3 21 1 22
REMARK H PARENT 20 10 10 11
ROOT
ATOM      1  C   UNL     1       5.039  -1.429   8.899  1.00  0.00     0.060 A 
ATOM      2  C   UNL     1       3.828  -0.847   9.185  1.00  0.00     0.066 A 
ATOM      3  C   UNL     1       5.722  -1.267  11.148  1.00  0.00     0.088 A 
ATOM      4  C   UNL     1       5.847  -1.840   9.853  1.00  0.00     0.035 A 
ATOM      5  N   UNL     1       5.096  -1.746   7.486  1.00  0.00    -0.360 N 
ATOM      6  N   UNL     1       3.135  -0.841   7.971  1.00  0.00    -0.360 N 
ATOM      7  C   UNL     1       4.568  -0.543  11.440  1.00  0.00     0.271 A 
ATOM      8  C   UNL     1       3.761  -1.848   7.194  1.00  0.00     0.205 C 
ATOM      9  C   UNL     1       3.578  -0.353  10.426  1.00  0.00     0.113 A 
ATOM     10  H   UNL     1       5.914  -1.862   6.870  1.00  0.00     0.163 HD
ATOM     11  H   UNL     1       2.344  -0.238   7.702  1.00  0.00     0.163 HD
ENDROOT
BRANCH   8  12
ATOM     12  C   UNL     1       3.315  -1.898   5.706  1.00  0.00    -0.003 A 
ATOM     13  C   UNL     1       1.819  -0.977   3.961  1.00  0.00     0.042 A 
ATOM     14  C   UNL     1       2.748  -0.776   5.060  1.00  0.00     0.028 A 
ATOM     15  C   UNL     1       1.957  -2.218   3.190  1.00  0.00     0.041 A 
ATOM     16  C   UNL     1       2.866  -3.222   3.732  1.00  0.00     0.042 A 
ATOM     17  C   UNL     1       3.412  -3.171   5.039  1.00  0.00     0.028 A 
ATOM     18  Cl  UNL     1       0.894   0.107   3.330  1.00  0.00    -0.084 Cl
ATOM     19  Cl  UNL     1       3.186  -4.572   2.734  1.00  0.00    -0.084 Cl
ENDBRANCH   8  12
BRANCH   7  20
ATOM     20  N   UNL     1       4.260  -0.070  12.699  1.00  0.00     0.062 N 
ATOM     21  O   UNL     1       3.177   0.322  12.936  1.00  0.00    -0.258 OA
ATOM     22  O   UNL     1       5.038  -0.231  13.734  1.00  0.00    -0.258 OA
ENDBRANCH   7  20
TORSDOF 2
ENDMDL
MODEL 7
REMARK VINA RESULT:    -4.010      3.168      4.519
REMARK INTER + INTRA:          -4.794
REMARK INTER:                  -4.489
REMARK INTRA:                  -0.305
REMARK UNBOUND:                -0.315
REMARK SMILES O=[N+]([O-])c1ccc2c(c1)N[C@@H](c1cc(Cl)cc(Cl)c1)N2
REMARK SMILES IDX 7 1 8 2 5 3 6 4 20 5 10 6 4 7 11 8 9 9 12 12 14 13 13 14
REMARK SMILES IDX 16 15 17 16 19 17 15 18 18 19 2 20 3 21 1 22
REMARK H PARENT 20 10 10 11
ROOT
ATOM      1  C   UNL     1       3.895   0.128  12.104  1.00  0.00     0.060 A 
ATOM      2  C   UNL     1       2.654  -0.460  12.041  1.00  0.00     0.066 A 
ATOM      3  C   UNL     1       3.644   0.564  14.405  1.00  0.00     0.088 A 
ATOM      4  C   UNL     1       4.465   0.408  13.256  1.00  0.00     0.035 A 
ATOM      5  N   UNL     1       4.508   0.092  10.791  1.00  0.00    -0.360 N 
ATOM      6  N   UNL     1       2.523  -0.886  10.717  1.00  0.00    -0.360 N 
ATOM      7  C   UNL     1       2.328   0.110  14.342  1.00  0.00     0.271 A 
ATOM      8  C   UNL     1       3.853  -0.975  10.234  1.00  0.00     0.205 C 
ATOM      9  C   UNL     1       1.831  -0.444  13.122  1.00  0.00     0.113 A 
ATOM     10  H   UNL     1       5.235   0.699  10.388  1.00  0.00     0.163 HD
ATOM     11  H   UNL     1       1.653  -1.089  10.205  1.00  0.00     0.163 HD
ENDROOT
BRANCH   8  12
ATOM     12  C   UNL     1       3.979  -1.223   8.705  1.00  0.00    -0.003 A 
ATOM     13  C   UNL     1       4.159  -0.212   6.451  1.00  0.00     0.042 A 
ATOM     14  C   UNL     1       4.574  -0.274   7.843  1.00  0.00     0.028 A 
ATOM     15  C   UNL     1       3.631  -1.446   5.857  1.00  0.00     0.041 A 
ATOM     16  C   UNL     1       3.374  -2.551   6.775  1.00  0.00     0.042 A 
ATOM     17  C   UNL     1       3.371  -2.422   8.186  1.00  0.00     0.028 A 
ATOM     18  Cl  UNL     1       4.488   0.932   5.445  1.00  0.00    -0.084 Cl
ATOM     19  Cl  UNL     1       2.961  -4.048   6.061  1.00  0.00    -0.084 Cl
ENDBRANCH   8  12
BRANCH   7  20
ATOM     20  N   UNL     1       1.481   0.065  15.430  1.00  0.00     0.062 N 
ATOM     21  O   UNL     1       0.909   1.032  15.777  1.00  0.00    -0.258 OA
ATOM     22  O   UNL     1       1.087  -1.049  15.985  1.00  0.00    -0.258 OA
ENDBRANCH   7  20
TORSDOF 2
ENDMDL
MODEL 8
REMARK VINA RESULT:    -3.425      5.211      7.686
REMARK INTER + INTRA:          -4.141
REMARK INTER:                  -3.845
REMARK INTRA:                  -0.296
REMARK UNBOUND:                -0.315
REMARK SMILES O=[N+]([O-])c1ccc2c(c1)N[C@@H](c1cc(Cl)cc(Cl)c1)N2
REMARK SMILES IDX 7 1 8 2 5 3 6 4 20 5 10 6 4 7 11 8 9 9 12 12 14 13 13 14
REMARK SMILES IDX 16 15 17 16 19 17 15 18 18 19 2 20 3 21 1 22
REMARK H PARENT 20 10 10 11
ROOT
ATOM      1  C   UNL     1       4.196  -0.600   7.951  1.00  0.00     0.060 A 
ATOM      2  C   UNL     1       3.810  -1.897   8.189  1.00  0.00     0.066 A 
ATOM      3  C   UNL     1       4.157  -0.945   5.621  1.00  0.00     0.088 A 
ATOM      4  C   UNL     1       4.141  -0.076   6.746  1.00  0.00     0.035 A 
ATOM      5  N   UNL     1       4.361   0.089   9.216  1.00  0.00    -0.360 N 
ATOM      6  N   UNL     1       3.701  -1.993   9.579  1.00  0.00    -0.360 N 
ATOM      7  C   UNL     1       3.910  -2.300   5.833  1.00  0.00     0.271 A 
ATOM      8  C   UNL     1       3.538  -0.655  10.020  1.00  0.00     0.205 C 
ATOM      9  C   UNL     1       3.704  -2.782   7.163  1.00  0.00     0.113 A 
ATOM     10  H   UNL     1       4.936   0.911   9.447  1.00  0.00     0.163 HD
ATOM     11  H   UNL     1       3.733  -2.846  10.155  1.00  0.00     0.163 HD
ENDROOT
BRANCH   8  12
ATOM     12  C   UNL     1       3.610  -0.461  11.560  1.00  0.00    -0.003 A 
ATOM     13  C   UNL     1       2.380   0.086  13.639  1.00  0.00     0.042 A 
ATOM     14  C   UNL     1       2.481  -0.650  12.389  1.00  0.00     0.028 A 
ATOM     15  C   UNL     1       3.637   0.501  14.272  1.00  0.00     0.041 A 
ATOM     16  C   UNL     1       4.851   0.326  13.482  1.00  0.00     0.042 A 
ATOM     17  C   UNL     1       4.857   0.020  12.099  1.00  0.00     0.028 A 
ATOM     18  Cl  UNL     1       1.104   0.221  14.524  1.00  0.00    -0.084 Cl
ATOM     19  Cl  UNL     1       6.329   0.611  14.292  1.00  0.00    -0.084 Cl
ENDBRANCH   8  12
BRANCH   7  20
ATOM     20  N   UNL     1       3.747  -3.216   4.813  1.00  0.00     0.062 N 
ATOM     21  O   UNL     1       3.007  -4.121   4.941  1.00  0.00    -0.258 OA
ATOM     22  O   UNL     1       4.200  -3.029   3.604  1.00  0.00    -0.258 OA
ENDBRANCH   7  20
TORSDOF 2
ENDMDL
MODEL 9
REMARK VINA RESULT:    -3.318      5.394      8.143
REMARK INTER + INTRA:          -4.022
REMARK INTER:                  -3.717
REMARK INTRA:                  -0.304
REMARK UNBOUND:                -0.315
REMARK SMILES O=[N+]([O-])c1ccc2c(c1)N[C@@H](c1cc(Cl)cc(Cl)c1)N2
REMARK SMILES IDX 7 1 8 2 5 3 6 4 20 5 10 6 4 7 11 8 9 9 12 12 14 13 13 14
REMARK SMILES IDX 16 15 17 16 19 17 15 18 18 19 2 20 3 21 1 22
REMARK H PARENT 20 10 10 11
ROOT
ATOM      1  C   UNL     1       5.145  -1.399  10.188  1.00  0.00     0.060 A 
ATOM      2  C   UNL     1       3.905  -1.009   9.744  1.00  0.00     0.066 A 
ATOM      3  C   UNL     1       5.697  -2.284   8.076  1.00  0.00     0.088 A 
ATOM      4  C   UNL     1       6.082  -1.794   9.353  1.00  0.00     0.035 A 
ATOM      5  N   UNL     1       5.292  -1.028  11.582  1.00  0.00    -0.360 N 
ATOM      6  N   UNL     1       3.313  -0.373  10.838  1.00  0.00    -0.360 N 
ATOM      7  C   UNL     1       4.397  -2.035   7.639  1.00  0.00     0.271 A 
ATOM      8  C   UNL     1       4.400   0.009  11.664  1.00  0.00     0.205 C 
ATOM      9  C   UNL     1       3.483  -1.350   8.498  1.00  0.00     0.113 A 
ATOM     10  H   UNL     1       5.900  -1.431  12.309  1.00  0.00     0.163 HD
ATOM     11  H   UNL     1       2.309  -0.216  11.006  1.00  0.00     0.163 HD
ENDROOT
BRANCH   8  12
ATOM     12  C   UNL     1       3.999   0.550  13.065  1.00  0.00    -0.003 A 
ATOM     13  C   UNL     1       4.774   1.479  15.226  1.00  0.00     0.042 A 
ATOM     14  C   UNL     1       4.814   1.462  13.773  1.00  0.00     0.028 A 
ATOM     15  C   UNL     1       3.532   1.027  15.864  1.00  0.00     0.041 A 
ATOM     16  C   UNL     1       2.542   0.405  14.991  1.00  0.00     0.042 A 
ATOM     17  C   UNL     1       2.805   0.003  13.658  1.00  0.00     0.028 A 
ATOM     18  Cl  UNL     1       5.789   2.199  16.164  1.00  0.00    -0.084 Cl
ATOM     19  Cl  UNL     1       1.019   0.071  15.690  1.00  0.00    -0.084 Cl
ENDBRANCH   8  12
BRANCH   7  20
ATOM     20  N   UNL     1       3.950  -2.323   6.366  1.00  0.00     0.062 N 
ATOM     21  O   UNL     1       4.455  -1.818   5.432  1.00  0.00    -0.258 OA
ATOM     22  O   UNL     1       3.132  -3.305   6.100  1.00  0.00    -0.258 OA
ENDBRANCH   7  20
TORSDOF 2
ENDMDL
