MODEL 1
REMARK VINA RESULT:    -4.372      0.000      0.000
REMARK INTER + INTRA:          -5.198
REMARK INTER:                  -4.883
REMARK INTRA:                  -0.315
REMARK UNBOUND:                -0.315
REMARK SMILES O=[N+]([O-])c1ccc2c(c1)N[C@@H](c1cc(Cl)cc(Cl)c1)N2
REMARK SMILES IDX 7 1 8 2 5 3 6 4 20 5 10 6 4 7 11 8 9 9 12 12 14 13 13 14
REMARK SMILES IDX 16 15 17 16 19 17 15 18 18 19 2 20 3 21 1 22
REMARK H PARENT 20 10 10 11
ROOT
ATOM      1  C   UNL     1       8.517   8.056   3.511  1.00  0.00     0.060 A 
ATOM      2  C   UNL     1       9.322   6.982   3.807  1.00  0.00     0.066 A 
ATOM      3  C   UNL     1      10.273   9.571   3.926  1.00  0.00     0.088 A 
ATOM      4  C   UNL     1       9.015   9.262   3.342  1.00  0.00     0.035 A 
ATOM      5  N   UNL     1       7.196   7.579   3.155  1.00  0.00    -0.360 N 
ATOM      6  N   UNL     1       8.518   5.859   3.599  1.00  0.00    -0.360 N 
ATOM      7  C   UNL     1      11.068   8.518   4.373  1.00  0.00     0.271 A 
ATOM      8  C   UNL     1       7.489   6.309   2.732  1.00  0.00     0.205 C 
ATOM      9  C   UNL     1      10.580   7.177   4.283  1.00  0.00     0.113 A 
ATOM     10  H   UNL     1       6.287   8.061   3.206  1.00  0.00     0.163 HD
ATOM     11  H   UNL     1       8.644   4.914   3.988  1.00  0.00     0.163 HD
ENDROOT
BRANCH   8  12
ATOM     12  C   UNL     1       6.328   5.298   2.515  1.00  0.00    -0.003 A 
ATOM     13  C   UNL     1       4.056   4.920   1.607  1.00  0.00     0.042 A 
ATOM     14  C   UNL     1       5.403   5.443   1.456  1.00  0.00     0.028 A 
ATOM     15  C   UNL     1       3.878   3.791   2.527  1.00  0.00     0.041 A 
ATOM     16  C   UNL     1       5.025   3.444   3.360  1.00  0.00     0.042 A 
ATOM     17  C   UNL     1       6.174   4.261   3.503  1.00  0.00     0.028 A 
ATOM     18  Cl  UNL     1       2.841   5.231   0.681  1.00  0.00    -0.084 Cl
ATOM     19  Cl  UNL     1       4.890   2.007   4.275  1.00  0.00    -0.084 Cl
ENDBRANCH   8  12
BRANCH   7  20
ATOM     20  N   UNL     1      12.366   8.673   4.816  1.00  0.00     0.062 N 
ATOM     21  O   UNL     1      13.106   7.760   4.814  1.00  0.00    -0.258 OA
ATOM     22  O   UNL     1      12.912   9.838   5.038  1.00  0.00    -0.258 OA
ENDBRANCH   7  20
TORSDOF 2
ENDMDL
MODEL 2
REMARK VINA RESULT:    -4.352      1.036      2.682
REMARK INTER + INTRA:          -5.176
REMARK INTER:                  -4.861
REMARK INTRA:                  -0.315
REMARK UNBOUND:                -0.315
REMARK SMILES O=[N+]([O-])c1ccc2c(c1)N[C@@H](c1cc(Cl)cc(Cl)c1)N2
REMARK SMILES IDX 7 1 8 2 5 3 6 4 20 5 10 6 4 7 11 8 9 9 12 12 14 13 13 14
REMARK SMILES IDX 16 15 17 16 19 17 15 18 18 19 2 20 3 21 1 22
REMARK H PARENT 20 10 10 11
ROOT
ATOM      1  C   UNL     1       9.337   6.886   3.820  1.00  0.00     0.060 A 
ATOM      2  C   UNL     1       8.630   8.034   3.553  1.00  0.00     0.066 A 
ATOM      3  C   UNL     1      11.258   8.123   4.393  1.00  0.00     0.088 A 
ATOM      4  C   UNL     1      10.500   6.921   4.435  1.00  0.00     0.035 A 
ATOM      5  N   UNL     1       8.485   5.736   3.592  1.00  0.00    -0.360 N 
ATOM      6  N   UNL     1       7.350   7.597   3.202  1.00  0.00    -0.360 N 
ATOM      7  C   UNL     1      10.618   9.292   3.990  1.00  0.00     0.271 A 
ATOM      8  C   UNL     1       7.247   6.298   3.763  1.00  0.00     0.205 C 
ATOM      9  C   UNL     1       9.248   9.243   3.582  1.00  0.00     0.113 A 
ATOM     10  H   UNL     1       8.738   4.764   3.364  1.00  0.00     0.163 HD
ATOM     11  H   UNL     1       6.640   8.105   2.657  1.00  0.00     0.163 HD
ENDROOT
BRANCH   8  12
ATOM     12  C   UNL     1       5.987   5.497   3.330  1.00  0.00    -0.003 A 
ATOM     13  C   UNL     1       4.823   3.312   3.329  1.00  0.00     0.042 A 
ATOM     14  C   UNL     1       5.556   4.350   4.033  1.00  0.00     0.028 A 
ATOM     15  C   UNL     1       4.057   3.722   2.146  1.00  0.00     0.041 A 
ATOM     16  C   UNL     1       4.278   5.083   1.669  1.00  0.00     0.042 A 
ATOM     17  C   UNL     1       5.333   5.916   2.116  1.00  0.00     0.028 A 
ATOM     18  Cl  UNL     1       4.523   1.877   3.859  1.00  0.00    -0.084 Cl
ATOM     19  Cl  UNL     1       3.239   5.628   0.426  1.00  0.00    -0.084 Cl
ENDBRANCH   8  12
BRANCH   7  20
ATOM     20  N   UNL     1      11.198  10.543   4.052  1.00  0.00     0.062 N 
ATOM     21  O   UNL     1      10.526  11.507   4.090  1.00  0.00    -0.258 OA
ATOM     22  O   UNL     1      12.466  10.732   4.299  1.00  0.00    -0.258 OA
ENDBRANCH   7  20
TORSDOF 2
ENDMDL
MODEL 3
REMARK VINA RESULT:    -4.058      5.128      7.592
REMARK INTER + INTRA:          -4.848
REMARK INTER:                  -4.549
REMARK INTRA:                  -0.299
REMARK UNBOUND:                -0.315
REMARK SMILES O=[N+]([O-])c1ccc2c(c1)N[C@@H](c1cc(Cl)cc(Cl)c1)N2
REMARK SMILES IDX 7 1 8 2 5 3 6 4 20 5 10 6 4 7 11 8 9 9 12 12 14 13 13 14
REMARK SMILES IDX 16 15 17 16 19 17 15 18 18 19 2 20 3 21 1 22
REMARK H PARENT 20 10 10 11
ROOT
ATOM      1  C   UNL     1       6.324   4.663   3.430  1.00  0.00     0.060 A 
ATOM      2  C   UNL     1       5.614   5.699   2.872  1.00  0.00     0.066 A 
ATOM      3  C   UNL     1       4.692   3.099   2.766  1.00  0.00     0.088 A 
ATOM      4  C   UNL     1       6.014   3.407   3.188  1.00  0.00     0.035 A 
ATOM      5  N   UNL     1       7.541   5.182   4.023  1.00  0.00    -0.360 N 
ATOM      6  N   UNL     1       6.402   6.833   3.084  1.00  0.00    -0.360 N 
ATOM      7  C   UNL     1       3.882   4.142   2.323  1.00  0.00     0.271 A 
ATOM      8  C   UNL     1       7.711   6.328   3.291  1.00  0.00     0.205 C 
ATOM      9  C   UNL     1       4.376   5.483   2.355  1.00  0.00     0.113 A 
ATOM     10  H   UNL     1       8.119   4.797   4.783  1.00  0.00     0.163 HD
ATOM     11  H   UNL     1       6.099   7.817   3.090  1.00  0.00     0.163 HD
ENDROOT
BRANCH   8  12
ATOM     12  C   UNL     1       8.751   7.381   3.768  1.00  0.00    -0.003 A 
ATOM     13  C   UNL     1       9.501   9.739   3.676  1.00  0.00     0.042 A 
ATOM     14  C   UNL     1       8.440   8.758   3.833  1.00  0.00     0.028 A 
ATOM     15  C   UNL     1      10.857   9.321   4.050  1.00  0.00     0.041 A 
ATOM     16  C   UNL     1      11.043   7.902   4.337  1.00  0.00     0.042 A 
ATOM     17  C   UNL     1      10.082   6.904   4.045  1.00  0.00     0.028 A 
ATOM     18  Cl  UNL     1       9.310  11.268   3.437  1.00  0.00    -0.084 Cl
ATOM     19  Cl  UNL     1      12.564   7.452   4.973  1.00  0.00    -0.084 Cl
ENDBRANCH   8  12
BRANCH   7  20
ATOM     20  N   UNL     1       2.641   3.956   1.748  1.00  0.00     0.062 N 
ATOM     21  O   UNL     1       2.034   2.971   1.955  1.00  0.00    -0.258 OA
ATOM     22  O   UNL     1       1.979   4.909   1.151  1.00  0.00    -0.258 OA
ENDBRANCH   7  20
TORSDOF 2
ENDMDL
MODEL 4
REMARK VINA RESULT:    -4.039      5.115      7.788
REMARK INTER + INTRA:          -4.827
REMARK INTER:                  -4.509
REMARK INTRA:                  -0.318
REMARK UNBOUND:                -0.315
REMARK SMILES O=[N+]([O-])c1ccc2c(c1)N[C@@H](c1cc(Cl)cc(Cl)c1)N2
REMARK SMILES IDX 7 1 8 2 5 3 6 4 20 5 10 6 4 7 11 8 9 9 12 12 14 13 13 14
REMARK SMILES IDX 16 15 17 16 19 17 15 18 18 19 2 20 3 21 1 22
REMARK H PARENT 20 10 10 11
ROOT
ATOM      1  C   UNL     1       6.321   4.695   3.380  1.00  0.00     0.060 A 
ATOM      2  C   UNL     1       5.697   5.632   2.591  1.00  0.00     0.066 A 
ATOM      3  C   UNL     1       4.587   3.142   3.021  1.00  0.00     0.088 A 
ATOM      4  C   UNL     1       5.923   3.441   3.405  1.00  0.00     0.035 A 
ATOM      5  N   UNL     1       7.565   5.244   3.882  1.00  0.00    -0.360 N 
ATOM      6  N   UNL     1       6.565   6.727   2.577  1.00  0.00    -0.360 N 
ATOM      7  C   UNL     1       3.862   4.117   2.341  1.00  0.00     0.271 A 
ATOM      8  C   UNL     1       7.830   6.190   2.925  1.00  0.00     0.205 C 
ATOM      9  C   UNL     1       4.454   5.396   2.097  1.00  0.00     0.113 A 
ATOM     10  H   UNL     1       8.103   4.994   4.724  1.00  0.00     0.163 HD
ATOM     11  H   UNL     1       6.335   7.708   2.362  1.00  0.00     0.163 HD
ENDROOT
BRANCH   8  12
ATOM     12  C   UNL     1       8.938   7.246   3.194  1.00  0.00    -0.003 A 
ATOM     13  C   UNL     1      11.090   7.751   4.312  1.00  0.00     0.042 A 
ATOM     14  C   UNL     1      10.266   6.871   3.499  1.00  0.00     0.028 A 
ATOM     15  C   UNL     1      10.769   9.183   4.279  1.00  0.00     0.041 A 
ATOM     16  C   UNL     1       9.528   9.555   3.608  1.00  0.00     0.042 A 
ATOM     17  C   UNL     1       8.530   8.628   3.219  1.00  0.00     0.028 A 
ATOM     18  Cl  UNL     1      12.451   7.382   4.976  1.00  0.00    -0.084 Cl
ATOM     19  Cl  UNL     1       9.259  11.229   3.386  1.00  0.00    -0.084 Cl
ENDBRANCH   8  12
BRANCH   7  20
ATOM     20  N   UNL     1       2.619   3.897   1.783  1.00  0.00     0.062 N 
ATOM     21  O   UNL     1       2.050   2.888   1.983  1.00  0.00    -0.258 OA
ATOM     22  O   UNL     1       1.913   4.837   1.215  1.00  0.00    -0.258 OA
ENDBRANCH   7  20
TORSDOF 2
ENDMDL
MODEL 5
REMARK VINA RESULT:    -4.015      3.769      4.856
REMARK INTER + INTRA:          -4.800
REMARK INTER:                  -4.494
REMARK INTRA:                  -0.306
REMARK UNBOUND:                -0.315
REMARK SMILES O=[N+]([O-])c1ccc2c(c1)N[C@@H](c1cc(Cl)cc(Cl)c1)N2
REMARK SMILES IDX 7 1 8 2 5 3 6 4 20 5 10 6 4 7 11 8 9 9 12 12 14 13 13 14
REMARK SMILES IDX 16 15 17 16 19 17 15 18 18 19 2 20 3 21 1 22
REMARK H PARENT 20 10 10 11
ROOT
ATOM      1  C   UNL     1       9.795  11.344   3.481  1.00  0.00     0.060 A 
ATOM      2  C   UNL     1       8.635  11.554   4.187  1.00  0.00     0.066 A 
ATOM      3  C   UNL     1      10.564  13.516   3.973  1.00  0.00     0.088 A 
ATOM      4  C   UNL     1      10.811  12.177   3.564  1.00  0.00     0.035 A 
ATOM      5  N   UNL     1       9.786  10.002   2.934  1.00  0.00    -0.360 N 
ATOM      6  N   UNL     1       7.940  10.344   4.106  1.00  0.00    -0.360 N 
ATOM      7  C   UNL     1       9.339  13.809   4.567  1.00  0.00     0.271 A 
ATOM      8  C   UNL     1       8.932   9.377   3.805  1.00  0.00     0.205 C 
ATOM      9  C   UNL     1       8.354  12.780   4.700  1.00  0.00     0.113 A 
ATOM     10  H   UNL     1      10.284   9.622   2.116  1.00  0.00     0.163 HD
ATOM     11  H   UNL     1       6.930  10.189   4.237  1.00  0.00     0.163 HD
ENDROOT
BRANCH   8  12
ATOM     12  C   UNL     1       8.386   7.968   3.446  1.00  0.00    -0.003 A 
ATOM     13  C   UNL     1       7.609   6.442   1.657  1.00  0.00     0.042 A 
ATOM     14  C   UNL     1       8.577   7.398   2.167  1.00  0.00     0.028 A 
ATOM     15  C   UNL     1       6.847   5.672   2.647  1.00  0.00     0.041 A 
ATOM     16  C   UNL     1       6.980   6.090   4.038  1.00  0.00     0.042 A 
ATOM     17  C   UNL     1       7.584   7.306   4.444  1.00  0.00     0.028 A 
ATOM     18  Cl  UNL     1       7.503   5.938   0.186  1.00  0.00    -0.084 Cl
ATOM     19  Cl  UNL     1       6.264   5.069   5.207  1.00  0.00    -0.084 Cl
ENDBRANCH   8  12
BRANCH   7  20
ATOM     20  N   UNL     1       9.039  15.027   5.142  1.00  0.00     0.062 N 
ATOM     21  O   UNL     1       8.708  15.934   4.471  1.00  0.00    -0.258 OA
ATOM     22  O   UNL     1       8.879  15.192   6.427  1.00  0.00    -0.258 OA
ENDBRANCH   7  20
TORSDOF 2
ENDMDL
MODEL 6
REMARK VINA RESULT:    -3.994      1.478      2.129
REMARK INTER + INTRA:          -4.777
REMARK INTER:                  -4.478
REMARK INTRA:                  -0.299
REMARK UNBOUND:                -0.315
REMARK SMILES O=[N+]([O-])c1ccc2c(c1)N[C@@H](c1cc(Cl)cc(Cl)c1)N2
REMARK SMILES IDX 7 1 8 2 5 3 6 4 20 5 10 6 4 7 11 8 9 9 12 12 14 13 13 14
REMARK SMILES IDX 16 15 17 16 19 17 15 18 18 19 2 20 3 21 1 22
REMARK H PARENT 20 10 10 11
ROOT
ATOM      1  C   UNL     1       9.322   7.451   3.592  1.00  0.00     0.060 A 
ATOM      2  C   UNL     1       8.383   8.415   3.314  1.00  0.00     0.066 A 
ATOM      3  C   UNL     1      10.923   9.081   4.166  1.00  0.00     0.088 A 
ATOM      4  C   UNL     1      10.445   7.743   4.212  1.00  0.00     0.035 A 
ATOM      5  N   UNL     1       8.743   6.141   3.366  1.00  0.00    -0.360 N 
ATOM      6  N   UNL     1       7.232   7.707   2.960  1.00  0.00    -0.360 N 
ATOM      7  C   UNL     1      10.045  10.080   3.752  1.00  0.00     0.271 A 
ATOM      8  C   UNL     1       7.411   6.420   3.528  1.00  0.00     0.205 C 
ATOM      9  C   UNL     1       8.722   9.731   3.338  1.00  0.00     0.113 A 
ATOM     10  H   UNL     1       9.204   5.247   3.146  1.00  0.00     0.163 HD
ATOM     11  H   UNL     1       6.431   8.045   2.408  1.00  0.00     0.163 HD
ENDROOT
BRANCH   8  12
ATOM     12  C   UNL     1       6.360   5.361   3.094  1.00  0.00    -0.003 A 
ATOM     13  C   UNL     1       4.277   4.907   1.834  1.00  0.00     0.042 A 
ATOM     14  C   UNL     1       5.598   5.508   1.913  1.00  0.00     0.028 A 
ATOM     15  C   UNL     1       4.032   3.725   2.669  1.00  0.00     0.041 A 
ATOM     16  C   UNL     1       5.059   3.400   3.652  1.00  0.00     0.042 A 
ATOM     17  C   UNL     1       6.121   4.269   4.003  1.00  0.00     0.028 A 
ATOM     18  Cl  UNL     1       3.199   5.198   0.747  1.00  0.00    -0.084 Cl
ATOM     19  Cl  UNL     1       4.875   1.913   4.476  1.00  0.00    -0.084 Cl
ENDBRANCH   8  12
BRANCH   7  20
ATOM     20  N   UNL     1      10.338  11.427   3.810  1.00  0.00     0.062 N 
ATOM     21  O   UNL     1       9.480  12.225   3.714  1.00  0.00    -0.258 OA
ATOM     22  O   UNL     1      11.496  11.892   4.191  1.00  0.00    -0.258 OA
ENDBRANCH   7  20
TORSDOF 2
ENDMDL
MODEL 7
REMARK VINA RESULT:    -3.971      0.727      2.136
REMARK INTER + INTRA:          -4.751
REMARK INTER:                  -4.451
REMARK INTRA:                  -0.300
REMARK UNBOUND:                -0.315
REMARK SMILES O=[N+]([O-])c1ccc2c(c1)N[C@@H](c1cc(Cl)cc(Cl)c1)N2
REMARK SMILES IDX 7 1 8 2 5 3 6 4 20 5 10 6 4 7 11 8 9 9 12 12 14 13 13 14
REMARK SMILES IDX 16 15 17 16 19 17 15 18 18 19 2 20 3 21 1 22
REMARK H PARENT 20 10 10 11
ROOT
ATOM      1  C   UNL     1       8.957   7.809   3.865  1.00  0.00     0.060 A 
ATOM      2  C   UNL     1       9.540   6.577   4.040  1.00  0.00     0.066 A 
ATOM      3  C   UNL     1      11.001   8.907   4.268  1.00  0.00     0.088 A 
ATOM      4  C   UNL     1       9.680   8.901   3.744  1.00  0.00     0.035 A 
ATOM      5  N   UNL     1       7.550   7.634   3.560  1.00  0.00    -0.360 N 
ATOM      6  N   UNL     1       8.514   5.656   3.809  1.00  0.00    -0.360 N 
ATOM      7  C   UNL     1      11.585   7.685   4.597  1.00  0.00     0.271 A 
ATOM      8  C   UNL     1       7.559   6.367   3.038  1.00  0.00     0.205 C 
ATOM      9  C   UNL     1      10.831   6.480   4.450  1.00  0.00     0.113 A 
ATOM     10  H   UNL     1       6.762   8.282   3.698  1.00  0.00     0.163 HD
ATOM     11  H   UNL     1       8.463   4.678   4.127  1.00  0.00     0.163 HD
ENDROOT
BRANCH   8  12
ATOM     12  C   UNL     1       6.208   5.628   2.827  1.00  0.00    -0.003 A 
ATOM     13  C   UNL     1       4.907   3.550   3.179  1.00  0.00     0.042 A 
ATOM     14  C   UNL     1       5.783   4.591   3.689  1.00  0.00     0.028 A 
ATOM     15  C   UNL     1       4.042   3.902   2.047  1.00  0.00     0.041 A 
ATOM     16  C   UNL     1       4.298   5.189   1.409  1.00  0.00     0.042 A 
ATOM     17  C   UNL     1       5.450   5.977   1.653  1.00  0.00     0.028 A 
ATOM     18  Cl  UNL     1       4.575   2.201   3.886  1.00  0.00    -0.084 Cl
ATOM     19  Cl  UNL     1       3.164   5.690   0.233  1.00  0.00    -0.084 Cl
ENDBRANCH   8  12
BRANCH   7  20
ATOM     20  N   UNL     1      12.907   7.545   4.968  1.00  0.00     0.062 N 
ATOM     21  O   UNL     1      13.404   6.480   5.000  1.00  0.00    -0.258 OA
ATOM     22  O   UNL     1      13.730   8.551   5.079  1.00  0.00    -0.258 OA
ENDBRANCH   7  20
TORSDOF 2
ENDMDL
MODEL 8
REMARK VINA RESULT:    -3.332      5.142      7.542
REMARK INTER + INTRA:          -4.037
REMARK INTER:                  -3.741
REMARK INTRA:                  -0.296
REMARK UNBOUND:                -0.315
REMARK SMILES O=[N+]([O-])c1ccc2c(c1)N[C@@H](c1cc(Cl)cc(Cl)c1)N2
REMARK SMILES IDX 7 1 8 2 5 3 6 4 20 5 10 6 4 7 11 8 9 9 12 12 14 13 13 14
REMARK SMILES IDX 16 15 17 16 19 17 15 18 18 19 2 20 3 21 1 22
REMARK H PARENT 20 10 10 11
ROOT
ATOM      1  C   UNL     1       8.155   7.379   2.563  1.00  0.00     0.060 A 
ATOM      2  C   UNL     1       7.874   7.212   3.898  1.00  0.00     0.066 A 
ATOM      3  C   UNL     1       7.101   5.344   2.019  1.00  0.00     0.088 A 
ATOM      4  C   UNL     1       7.598   6.621   1.643  1.00  0.00     0.035 A 
ATOM      5  N   UNL     1       8.870   8.626   2.377  1.00  0.00    -0.360 N 
ATOM      6  N   UNL     1       8.375   8.359   4.518  1.00  0.00    -0.360 N 
ATOM      7  C   UNL     1       6.933   5.075   3.375  1.00  0.00     0.271 A 
ATOM      8  C   UNL     1       8.456   9.324   3.482  1.00  0.00     0.205 C 
ATOM      9  C   UNL     1       7.310   6.059   4.342  1.00  0.00     0.113 A 
ATOM     10  H   UNL     1       9.511   8.911   1.623  1.00  0.00     0.163 HD
ATOM     11  H   UNL     1       8.630   8.478   5.509  1.00  0.00     0.163 HD
ENDROOT
BRANCH   8  12
ATOM     12  C   UNL     1       9.194  10.637   3.865  1.00  0.00    -0.003 A 
ATOM     13  C   UNL     1       8.994  13.054   4.363  1.00  0.00     0.042 A 
ATOM     14  C   UNL     1       8.540  11.686   4.549  1.00  0.00     0.028 A 
ATOM     15  C   UNL     1      10.402  13.245   3.995  1.00  0.00     0.041 A 
ATOM     16  C   UNL     1      11.150  12.043   3.642  1.00  0.00     0.042 A 
ATOM     17  C   UNL     1      10.551  10.781   3.404  1.00  0.00     0.028 A 
ATOM     18  Cl  UNL     1       8.232  14.343   4.800  1.00  0.00    -0.084 Cl
ATOM     19  Cl  UNL     1      12.833  12.236   3.418  1.00  0.00    -0.084 Cl
ENDBRANCH   8  12
BRANCH   7  20
ATOM     20  N   UNL     1       6.320   3.938   3.860  1.00  0.00     0.062 N 
ATOM     21  O   UNL     1       5.705   3.977   4.862  1.00  0.00    -0.258 OA
ATOM     22  O   UNL     1       6.184   2.845   3.160  1.00  0.00    -0.258 OA
ENDBRANCH   7  20
TORSDOF 2
ENDMDL
MODEL 9
REMARK VINA RESULT:    -3.265      4.073      5.466
REMARK INTER + INTRA:          -3.962
REMARK INTER:                  -3.659
REMARK INTRA:                  -0.303
REMARK UNBOUND:                -0.315
REMARK SMILES O=[N+]([O-])c1ccc2c(c1)N[C@@H](c1cc(Cl)cc(Cl)c1)N2
REMARK SMILES IDX 7 1 8 2 5 3 6 4 20 5 10 6 4 7 11 8 9 9 12 12 14 13 13 14
REMARK SMILES IDX 16 15 17 16 19 17 15 18 18 19 2 20 3 21 1 22
REMARK H PARENT 20 10 10 11
ROOT
ATOM      1  C   UNL     1       8.775  11.952   4.573  1.00  0.00     0.060 A 
ATOM      2  C   UNL     1       9.972  11.997   3.898  1.00  0.00     0.066 A 
ATOM      3  C   UNL     1       8.765  14.292   4.843  1.00  0.00     0.088 A 
ATOM      4  C   UNL     1       8.085  13.044   4.821  1.00  0.00     0.035 A 
ATOM      5  N   UNL     1       8.330  10.576   4.666  1.00  0.00    -0.360 N 
ATOM      6  N   UNL     1      10.239  10.671   3.548  1.00  0.00    -0.360 N 
ATOM      7  C   UNL     1      10.045  14.355   4.296  1.00  0.00     0.271 A 
ATOM      8  C   UNL     1       8.977  10.026   3.590  1.00  0.00     0.205 C 
ATOM      9  C   UNL     1      10.653  13.167   3.783  1.00  0.00     0.113 A 
ATOM     10  H   UNL     1       7.701  10.133   5.351  1.00  0.00     0.163 HD
ATOM     11  H   UNL     1      11.151  10.254   3.312  1.00  0.00     0.163 HD
ENDROOT
BRANCH   8  12
ATOM     12  C   UNL     1       9.027   8.479   3.449  1.00  0.00    -0.003 A 
ATOM     13  C   UNL     1       7.736   6.374   3.257  1.00  0.00     0.042 A 
ATOM     14  C   UNL     1       7.973   7.750   2.853  1.00  0.00     0.028 A 
ATOM     15  C   UNL     1       8.887   5.623   3.771  1.00  0.00     0.041 A 
ATOM     16  C   UNL     1      10.101   6.390   4.029  1.00  0.00     0.042 A 
ATOM     17  C   UNL     1      10.153   7.806   4.045  1.00  0.00     0.028 A 
ATOM     18  Cl  UNL     1       6.471   5.525   2.927  1.00  0.00    -0.084 Cl
ATOM     19  Cl  UNL     1      11.497   5.488   4.426  1.00  0.00    -0.084 Cl
ENDBRANCH   8  12
BRANCH   7  20
ATOM     20  N   UNL     1      10.744  15.531   4.119  1.00  0.00     0.062 N 
ATOM     21  O   UNL     1      11.399  15.969   4.991  1.00  0.00    -0.258 OA
ATOM     22  O   UNL     1      10.913  16.095   2.953  1.00  0.00    -0.258 OA
ENDBRANCH   7  20
TORSDOF 2
ENDMDL
