MODEL 1
REMARK VINA RESULT:    -4.512      0.000      0.000
REMARK INTER + INTRA:          -5.355
REMARK INTER:                  -5.040
REMARK INTRA:                  -0.316
REMARK UNBOUND:                -0.316
REMARK SMILES O=[N+]([O-])c1ccc2c(c1)N[C@@H](c1cc(Cl)cc(Cl)c1)N2
REMARK SMILES IDX 7 1 8 2 5 3 6 4 20 5 10 6 4 7 11 8 9 9 12 12 14 13 13 14
REMARK SMILES IDX 16 15 17 16 19 17 15 18 18 19 2 20 3 21 1 22
REMARK H PARENT 20 10 10 11
ROOT
ATOM      1  C   UNL     1      -7.633  -5.683  -6.785  1.00  0.00     0.060 A 
ATOM      2  C   UNL     1      -6.866  -5.725  -7.924  1.00  0.00     0.066 A 
ATOM      3  C   UNL     1      -9.270  -7.070  -7.758  1.00  0.00     0.088 A 
ATOM      4  C   UNL     1      -8.654  -6.496  -6.613  1.00  0.00     0.035 A 
ATOM      5  N   UNL     1      -6.968  -4.865  -5.790  1.00  0.00    -0.360 N 
ATOM      6  N   UNL     1      -5.727  -4.974  -7.620  1.00  0.00    -0.360 N 
ATOM      7  C   UNL     1      -8.590  -7.010  -8.972  1.00  0.00     0.271 A 
ATOM      8  C   UNL     1      -5.666  -4.970  -6.203  1.00  0.00     0.205 C 
ATOM      9  C   UNL     1      -7.332  -6.335  -9.045  1.00  0.00     0.113 A 
ATOM     10  H   UNL     1      -7.365  -4.348  -4.992  1.00  0.00     0.163 HD
ATOM     11  H   UNL     1      -5.076  -4.524  -8.278  1.00  0.00     0.163 HD
ENDROOT
BRANCH   8  12
ATOM     12  C   UNL     1      -4.602  -4.014  -5.596  1.00  0.00    -0.003 A 
ATOM     13  C   UNL     1      -3.715  -2.933  -3.552  1.00  0.00     0.042 A 
ATOM     14  C   UNL     1      -4.189  -4.117  -4.248  1.00  0.00     0.028 A 
ATOM     15  C   UNL     1      -3.126  -1.868  -4.373  1.00  0.00     0.041 A 
ATOM     16  C   UNL     1      -3.269  -2.008  -5.818  1.00  0.00     0.042 A 
ATOM     17  C   UNL     1      -4.126  -2.948  -6.441  1.00  0.00     0.028 A 
ATOM     18  Cl  UNL     1      -3.495  -2.797  -2.015  1.00  0.00    -0.084 Cl
ATOM     19  Cl  UNL     1      -2.407  -0.885  -6.776  1.00  0.00    -0.084 Cl
ENDBRANCH   8  12
BRANCH   7  20
ATOM     20  N   UNL     1      -9.008  -7.659 -10.116  1.00  0.00     0.062 N 
ATOM     21  O   UNL     1      -8.267  -7.812 -11.016  1.00  0.00    -0.258 OA
ATOM     22  O   UNL     1     -10.128  -8.325 -10.193  1.00  0.00    -0.258 OA
ENDBRANCH   7  20
TORSDOF 2
ENDMDL
MODEL 2
REMARK VINA RESULT:    -4.508      0.957      2.635
REMARK INTER + INTRA:          -5.350
REMARK INTER:                  -5.035
REMARK INTRA:                  -0.315
REMARK UNBOUND:                -0.316
REMARK SMILES O=[N+]([O-])c1ccc2c(c1)N[C@@H](c1cc(Cl)cc(Cl)c1)N2
REMARK SMILES IDX 7 1 8 2 5 3 6 4 20 5 10 6 4 7 11 8 9 9 12 12 14 13 13 14
REMARK SMILES IDX 16 15 17 16 19 17 15 18 18 19 2 20 3 21 1 22
REMARK H PARENT 20 10 10 11
ROOT
ATOM      1  C   UNL     1      -6.597  -5.638  -8.122  1.00  0.00     0.060 A 
ATOM      2  C   UNL     1      -7.487  -5.709  -7.077  1.00  0.00     0.066 A 
ATOM      3  C   UNL     1      -8.013  -6.922  -9.499  1.00  0.00     0.088 A 
ATOM      4  C   UNL     1      -6.935  -6.010  -9.338  1.00  0.00     0.035 A 
ATOM      5  N   UNL     1      -5.443  -4.863  -7.715  1.00  0.00    -0.360 N 
ATOM      6  N   UNL     1      -6.904  -4.954  -6.055  1.00  0.00    -0.360 N 
ATOM      7  C   UNL     1      -8.863  -7.136  -8.416  1.00  0.00     0.271 A 
ATOM      8  C   UNL     1      -5.988  -4.098  -6.717  1.00  0.00     0.205 C 
ATOM      9  C   UNL     1      -8.600  -6.482  -7.172  1.00  0.00     0.113 A 
ATOM     10  H   UNL     1      -4.478  -4.880  -8.076  1.00  0.00     0.163 HD
ATOM     11  H   UNL     1      -7.098  -5.008  -5.045  1.00  0.00     0.163 HD
ENDROOT
BRANCH   8  12
ATOM     12  C   UNL     1      -5.043  -3.298  -5.777  1.00  0.00    -0.003 A 
ATOM     13  C   UNL     1      -3.033  -1.864  -5.595  1.00  0.00     0.042 A 
ATOM     14  C   UNL     1      -4.293  -2.194  -6.240  1.00  0.00     0.028 A 
ATOM     15  C   UNL     1      -2.879  -2.261  -4.190  1.00  0.00     0.041 A 
ATOM     16  C   UNL     1      -3.914  -3.133  -3.645  1.00  0.00     0.042 A 
ATOM     17  C   UNL     1      -4.888  -3.794  -4.433  1.00  0.00     0.028 A 
ATOM     18  Cl  UNL     1      -1.952  -0.881  -6.138  1.00  0.00    -0.084 Cl
ATOM     19  Cl  UNL     1      -3.849  -3.424  -1.962  1.00  0.00    -0.084 Cl
ENDBRANCH   8  12
BRANCH   7  20
ATOM     20  N   UNL     1     -10.027  -7.874  -8.491  1.00  0.00     0.062 N 
ATOM     21  O   UNL     1     -10.842  -7.783  -7.648  1.00  0.00    -0.258 OA
ATOM     22  O   UNL     1     -10.398  -8.518  -9.564  1.00  0.00    -0.258 OA
ENDBRANCH   7  20
TORSDOF 2
ENDMDL
MODEL 3
REMARK VINA RESULT:    -4.203      5.117      7.586
REMARK INTER + INTRA:          -5.010
REMARK INTER:                  -4.711
REMARK INTRA:                  -0.299
REMARK UNBOUND:                -0.316
REMARK SMILES O=[N+]([O-])c1ccc2c(c1)N[C@@H](c1cc(Cl)cc(Cl)c1)N2
REMARK SMILES IDX 7 1 8 2 5 3 6 4 20 5 10 6 4 7 11 8 9 9 12 12 14 13 13 14
REMARK SMILES IDX 16 15 17 16 19 17 15 18 18 19 2 20 3 21 1 22
REMARK H PARENT 20 10 10 11
ROOT
ATOM      1  C   UNL     1      -4.428  -3.245  -6.345  1.00  0.00     0.060 A 
ATOM      2  C   UNL     1      -5.069  -3.473  -5.150  1.00  0.00     0.066 A 
ATOM      3  C   UNL     1      -2.670  -2.112  -5.262  1.00  0.00     0.088 A 
ATOM      4  C   UNL     1      -3.188  -2.808  -6.388  1.00  0.00     0.035 A 
ATOM      5  N   UNL     1      -5.208  -3.822  -7.422  1.00  0.00    -0.360 N 
ATOM      6  N   UNL     1      -6.206  -4.212  -5.485  1.00  0.00    -0.360 N 
ATOM      7  C   UNL     1      -3.365  -2.197  -4.058  1.00  0.00     0.271 A 
ATOM      8  C   UNL     1      -5.903  -4.790  -6.744  1.00  0.00     0.205 C 
ATOM      9  C   UNL     1      -4.593  -2.927  -4.001  1.00  0.00     0.113 A 
ATOM     10  H   UNL     1      -5.233  -3.574  -8.421  1.00  0.00     0.163 HD
ATOM     11  H   UNL     1      -7.072  -4.315  -4.938  1.00  0.00     0.163 HD
ENDROOT
BRANCH   8  12
ATOM     12  C   UNL     1      -7.098  -5.493  -7.446  1.00  0.00    -0.003 A 
ATOM     13  C   UNL     1      -9.193  -6.784  -7.171  1.00  0.00     0.042 A 
ATOM     14  C   UNL     1      -8.345  -5.662  -6.803  1.00  0.00     0.028 A 
ATOM     15  C   UNL     1      -9.040  -7.318  -8.529  1.00  0.00     0.041 A 
ATOM     16  C   UNL     1      -7.909  -6.816  -9.302  1.00  0.00     0.042 A 
ATOM     17  C   UNL     1      -6.848  -6.057  -8.748  1.00  0.00     0.028 A 
ATOM     18  Cl  UNL     1     -10.444  -7.285  -6.387  1.00  0.00    -0.084 Cl
ATOM     19  Cl  UNL     1      -7.852  -7.276 -10.947  1.00  0.00    -0.084 Cl
ENDBRANCH   8  12
BRANCH   7  20
ATOM     20  N   UNL     1      -2.888  -1.697  -2.863  1.00  0.00     0.062 N 
ATOM     21  O   UNL     1      -2.086  -0.838  -2.857  1.00  0.00    -0.258 OA
ATOM     22  O   UNL     1      -3.435  -1.962  -1.708  1.00  0.00    -0.258 OA
ENDBRANCH   7  20
TORSDOF 2
ENDMDL
MODEL 4
REMARK VINA RESULT:    -4.144      0.763      2.157
REMARK INTER + INTRA:          -4.944
REMARK INTER:                  -4.645
REMARK INTRA:                  -0.299
REMARK UNBOUND:                -0.316
REMARK SMILES O=[N+]([O-])c1ccc2c(c1)N[C@@H](c1cc(Cl)cc(Cl)c1)N2
REMARK SMILES IDX 7 1 8 2 5 3 6 4 20 5 10 6 4 7 11 8 9 9 12 12 14 13 13 14
REMARK SMILES IDX 16 15 17 16 19 17 15 18 18 19 2 20 3 21 1 22
REMARK H PARENT 20 10 10 11
ROOT
ATOM      1  C   UNL     1      -7.535  -5.655  -7.452  1.00  0.00     0.060 A 
ATOM      2  C   UNL     1      -6.551  -5.564  -8.407  1.00  0.00     0.066 A 
ATOM      3  C   UNL     1      -8.796  -7.122  -8.796  1.00  0.00     0.088 A 
ATOM      4  C   UNL     1      -8.484  -6.563  -7.527  1.00  0.00     0.035 A 
ATOM      5  N   UNL     1      -7.170  -4.840  -6.311  1.00  0.00    -0.360 N 
ATOM      6  N   UNL     1      -5.577  -4.736  -7.845  1.00  0.00    -0.360 N 
ATOM      7  C   UNL     1      -7.892  -6.934  -9.839  1.00  0.00     0.271 A 
ATOM      8  C   UNL     1      -5.806  -4.807  -6.447  1.00  0.00     0.205 C 
ATOM      9  C   UNL     1      -6.717  -6.149  -9.623  1.00  0.00     0.113 A 
ATOM     10  H   UNL     1      -7.768  -4.406  -5.594  1.00  0.00     0.163 HD
ATOM     11  H   UNL     1      -4.852  -4.193  -8.336  1.00  0.00     0.163 HD
ENDROOT
BRANCH   8  12
ATOM     12  C   UNL     1      -4.987  -3.797  -5.597  1.00  0.00    -0.003 A 
ATOM     13  C   UNL     1      -3.225  -2.057  -5.578  1.00  0.00     0.042 A 
ATOM     14  C   UNL     1      -4.426  -2.630  -6.162  1.00  0.00     0.028 A 
ATOM     15  C   UNL     1      -2.991  -2.311  -4.151  1.00  0.00     0.041 A 
ATOM     16  C   UNL     1      -3.868  -3.288  -3.513  1.00  0.00     0.042 A 
ATOM     17  C   UNL     1      -4.736  -4.153  -4.223  1.00  0.00     0.028 A 
ATOM     18  Cl  UNL     1      -2.321  -0.964  -6.223  1.00  0.00    -0.084 Cl
ATOM     19  Cl  UNL     1      -3.735  -3.429  -1.815  1.00  0.00    -0.084 Cl
ENDBRANCH   8  12
BRANCH   7  20
ATOM     20  N   UNL     1      -8.003  -7.551 -11.069  1.00  0.00     0.062 N 
ATOM     21  O   UNL     1      -7.083  -7.584 -11.801  1.00  0.00    -0.258 OA
ATOM     22  O   UNL     1      -9.012  -8.310 -11.400  1.00  0.00    -0.258 OA
ENDBRANCH   7  20
TORSDOF 2
ENDMDL
MODEL 5
REMARK VINA RESULT:    -4.136      1.367      2.050
REMARK INTER + INTRA:          -4.935
REMARK INTER:                  -4.635
REMARK INTRA:                  -0.300
REMARK UNBOUND:                -0.316
REMARK SMILES O=[N+]([O-])c1ccc2c(c1)N[C@@H](c1cc(Cl)cc(Cl)c1)N2
REMARK SMILES IDX 7 1 8 2 5 3 6 4 20 5 10 6 4 7 11 8 9 9 12 12 14 13 13 14
REMARK SMILES IDX 16 15 17 16 19 17 15 18 18 19 2 20 3 21 1 22
REMARK H PARENT 20 10 10 11
ROOT
ATOM      1  C   UNL     1      -7.066  -5.986  -7.697  1.00  0.00     0.060 A 
ATOM      2  C   UNL     1      -7.774  -5.821  -6.531  1.00  0.00     0.066 A 
ATOM      3  C   UNL     1      -8.841  -7.177  -8.686  1.00  0.00     0.088 A 
ATOM      4  C   UNL     1      -7.642  -6.422  -8.797  1.00  0.00     0.035 A 
ATOM      5  N   UNL     1      -5.769  -5.352  -7.562  1.00  0.00    -0.360 N 
ATOM      6  N   UNL     1      -6.940  -5.064  -5.706  1.00  0.00    -0.360 N 
ATOM      7  C   UNL     1      -9.524  -7.155  -7.471  1.00  0.00     0.271 A 
ATOM      8  C   UNL     1      -6.040  -4.421  -6.594  1.00  0.00     0.205 C 
ATOM      9  C   UNL     1      -8.979  -6.428  -6.368  1.00  0.00     0.113 A 
ATOM     10  H   UNL     1      -4.887  -5.547  -8.057  1.00  0.00     0.163 HD
ATOM     11  H   UNL     1      -6.971  -4.989  -4.679  1.00  0.00     0.163 HD
ENDROOT
BRANCH   8  12
ATOM     12  C   UNL     1      -4.860  -3.680  -5.907  1.00  0.00    -0.003 A 
ATOM     13  C   UNL     1      -3.819  -2.971  -3.774  1.00  0.00     0.042 A 
ATOM     14  C   UNL     1      -4.444  -3.996  -4.594  1.00  0.00     0.028 A 
ATOM     15  C   UNL     1      -3.116  -1.893  -4.478  1.00  0.00     0.041 A 
ATOM     16  C   UNL     1      -3.294  -1.836  -5.925  1.00  0.00     0.042 A 
ATOM     17  C   UNL     1      -4.269  -2.583  -6.631  1.00  0.00     0.028 A 
ATOM     18  Cl  UNL     1      -3.563  -3.053  -2.239  1.00  0.00    -0.084 Cl
ATOM     19  Cl  UNL     1      -2.315  -0.715  -6.765  1.00  0.00    -0.084 Cl
ENDBRANCH   8  12
BRANCH   7  20
ATOM     20  N   UNL     1     -10.770  -7.718  -7.284  1.00  0.00     0.062 N 
ATOM     21  O   UNL     1     -11.394  -7.469  -6.319  1.00  0.00    -0.258 OA
ATOM     22  O   UNL     1     -11.418  -8.351  -8.223  1.00  0.00    -0.258 OA
ENDBRANCH   7  20
TORSDOF 2
ENDMDL
MODEL 6
REMARK VINA RESULT:    -4.086      5.109      7.787
REMARK INTER + INTRA:          -4.879
REMARK INTER:                  -4.561
REMARK INTRA:                  -0.318
REMARK UNBOUND:                -0.316
REMARK SMILES O=[N+]([O-])c1ccc2c(c1)N[C@@H](c1cc(Cl)cc(Cl)c1)N2
REMARK SMILES IDX 7 1 8 2 5 3 6 4 20 5 10 6 4 7 11 8 9 9 12 12 14 13 13 14
REMARK SMILES IDX 16 15 17 16 19 17 15 18 18 19 2 20 3 21 1 22
REMARK H PARENT 20 10 10 11
ROOT
ATOM      1  C   UNL     1      -4.394  -3.295  -6.296  1.00  0.00     0.060 A 
ATOM      2  C   UNL     1      -4.870  -3.665  -5.061  1.00  0.00     0.066 A 
ATOM      3  C   UNL     1      -2.767  -1.897  -5.322  1.00  0.00     0.088 A 
ATOM      4  C   UNL     1      -3.259  -2.643  -6.428  1.00  0.00     0.035 A 
ATOM      5  N   UNL     1      -5.157  -3.972  -7.325  1.00  0.00    -0.360 N 
ATOM      6  N   UNL     1      -5.887  -4.586  -5.327  1.00  0.00    -0.360 N 
ATOM      7  C   UNL     1      -3.321  -2.137  -4.067  1.00  0.00     0.271 A 
ATOM      8  C   UNL     1      -5.606  -5.066  -6.632  1.00  0.00     0.205 C 
ATOM      9  C   UNL     1      -4.392  -3.075  -3.935  1.00  0.00     0.113 A 
ATOM     10  H   UNL     1      -5.318  -3.705  -8.307  1.00  0.00     0.163 HD
ATOM     11  H   UNL     1      -6.667  -4.856  -4.712  1.00  0.00     0.163 HD
ENDROOT
BRANCH   8  12
ATOM     12  C   UNL     1      -6.720  -5.951  -7.258  1.00  0.00    -0.003 A 
ATOM     13  C   UNL     1      -7.760  -6.810  -9.335  1.00  0.00     0.042 A 
ATOM     14  C   UNL     1      -6.577  -6.535  -8.537  1.00  0.00     0.028 A 
ATOM     15  C   UNL     1      -9.015  -7.040  -8.609  1.00  0.00     0.041 A 
ATOM     16  C   UNL     1      -8.998  -6.761  -7.177  1.00  0.00     0.042 A 
ATOM     17  C   UNL     1      -7.951  -6.069  -6.519  1.00  0.00     0.028 A 
ATOM     18  Cl  UNL     1      -7.782  -7.177 -10.849  1.00  0.00    -0.084 Cl
ATOM     19  Cl  UNL     1     -10.388  -7.226  -6.298  1.00  0.00    -0.084 Cl
ENDBRANCH   8  12
BRANCH   7  20
ATOM     20  N   UNL     1      -2.830  -1.594  -2.897  1.00  0.00     0.062 N 
ATOM     21  O   UNL     1      -2.012  -0.750  -2.933  1.00  0.00    -0.258 OA
ATOM     22  O   UNL     1      -3.377  -1.796  -1.729  1.00  0.00    -0.258 OA
ENDBRANCH   7  20
TORSDOF 2
ENDMDL
MODEL 7
REMARK VINA RESULT:    -4.007      3.151      4.530
REMARK INTER + INTRA:          -4.792
REMARK INTER:                  -4.487
REMARK INTRA:                  -0.304
REMARK UNBOUND:                -0.316
REMARK SMILES O=[N+]([O-])c1ccc2c(c1)N[C@@H](c1cc(Cl)cc(Cl)c1)N2
REMARK SMILES IDX 7 1 8 2 5 3 6 4 20 5 10 6 4 7 11 8 9 9 12 12 14 13 13 14
REMARK SMILES IDX 16 15 17 16 19 17 15 18 18 19 2 20 3 21 1 22
REMARK H PARENT 20 10 10 11
ROOT
ATOM      1  C   UNL     1      -7.420  -7.075 -10.975  1.00  0.00     0.060 A 
ATOM      2  C   UNL     1      -6.127  -7.522 -10.851  1.00  0.00     0.066 A 
ATOM      3  C   UNL     1      -7.806  -8.496 -12.814  1.00  0.00     0.088 A 
ATOM      4  C   UNL     1      -8.289  -7.690 -11.748  1.00  0.00     0.035 A 
ATOM      5  N   UNL     1      -7.683  -6.083  -9.951  1.00  0.00    -0.360 N 
ATOM      6  N   UNL     1      -5.614  -6.844  -9.743  1.00  0.00    -0.360 N 
ATOM      7  C   UNL     1      -6.461  -8.860 -12.807  1.00  0.00     0.271 A 
ATOM      8  C   UNL     1      -6.757  -6.442  -9.006  1.00  0.00     0.205 C 
ATOM      9  C   UNL     1      -5.603  -8.374 -11.772  1.00  0.00     0.113 A 
ATOM     10  H   UNL     1      -8.374  -5.320  -9.936  1.00  0.00     0.163 HD
ATOM     11  H   UNL     1      -4.625  -6.673  -9.512  1.00  0.00     0.163 HD
ENDROOT
BRANCH   8  12
ATOM     12  C   UNL     1      -6.468  -5.472  -7.826  1.00  0.00    -0.003 A 
ATOM     13  C   UNL     1      -6.227  -3.120  -7.091  1.00  0.00     0.042 A 
ATOM     14  C   UNL     1      -6.958  -4.147  -7.814  1.00  0.00     0.028 A 
ATOM     15  C   UNL     1      -5.404  -3.560  -5.958  1.00  0.00     0.041 A 
ATOM     16  C   UNL     1      -5.231  -5.001  -5.802  1.00  0.00     0.042 A 
ATOM     17  C   UNL     1      -5.592  -5.952  -6.788  1.00  0.00     0.028 A 
ATOM     18  Cl  UNL     1      -6.452  -1.582  -7.201  1.00  0.00    -0.084 Cl
ATOM     19  Cl  UNL     1      -4.453  -5.519  -4.371  1.00  0.00    -0.084 Cl
ENDBRANCH   8  12
BRANCH   7  20
ATOM     20  N   UNL     1      -5.907  -9.759 -13.695  1.00  0.00     0.062 N 
ATOM     21  O   UNL     1      -5.866 -10.904 -13.431  1.00  0.00    -0.258 OA
ATOM     22  O   UNL     1      -5.615  -9.457 -14.931  1.00  0.00    -0.258 OA
ENDBRANCH   7  20
TORSDOF 2
ENDMDL
MODEL 8
REMARK VINA RESULT:    -3.893      3.936      5.687
REMARK INTER + INTRA:          -4.664
REMARK INTER:                  -4.357
REMARK INTRA:                  -0.307
REMARK UNBOUND:                -0.316
REMARK SMILES O=[N+]([O-])c1ccc2c(c1)N[C@@H](c1cc(Cl)cc(Cl)c1)N2
REMARK SMILES IDX 7 1 8 2 5 3 6 4 20 5 10 6 4 7 11 8 9 9 12 12 14 13 13 14
REMARK SMILES IDX 16 15 17 16 19 17 15 18 18 19 2 20 3 21 1 22
REMARK H PARENT 20 10 10 11
ROOT
ATOM      1  C   UNL     1      -6.240  -8.312 -11.616  1.00  0.00     0.060 A 
ATOM      2  C   UNL     1      -7.538  -7.987 -11.930  1.00  0.00     0.066 A 
ATOM      3  C   UNL     1      -5.954  -9.430 -13.670  1.00  0.00     0.088 A 
ATOM      4  C   UNL     1      -5.414  -8.792 -12.520  1.00  0.00     0.035 A 
ATOM      5  N   UNL     1      -5.917  -7.781 -10.306  1.00  0.00    -0.360 N 
ATOM      6  N   UNL     1      -7.993  -7.233 -10.845  1.00  0.00    -0.360 N 
ATOM      7  C   UNL     1      -7.306  -9.244 -13.952  1.00  0.00     0.271 A 
ATOM      8  C   UNL     1      -6.815  -6.750 -10.221  1.00  0.00     0.205 C 
ATOM      9  C   UNL     1      -8.114  -8.472 -13.060  1.00  0.00     0.113 A 
ATOM     10  H   UNL     1      -5.209  -8.093  -9.627  1.00  0.00     0.163 HD
ATOM     11  H   UNL     1      -8.969  -7.066 -10.561  1.00  0.00     0.163 HD
ENDROOT
BRANCH   8  12
ATOM     12  C   UNL     1      -7.038  -6.054  -8.849  1.00  0.00    -0.003 A 
ATOM     13  C   UNL     1      -6.002  -4.892  -6.924  1.00  0.00     0.042 A 
ATOM     14  C   UNL     1      -6.149  -5.071  -8.359  1.00  0.00     0.028 A 
ATOM     15  C   UNL     1      -7.146  -5.266  -6.085  1.00  0.00     0.041 A 
ATOM     16  C   UNL     1      -8.232  -5.979  -6.747  1.00  0.00     0.042 A 
ATOM     17  C   UNL     1      -8.139  -6.528  -8.050  1.00  0.00     0.028 A 
ATOM     18  Cl  UNL     1      -4.883  -4.074  -6.211  1.00  0.00    -0.084 Cl
ATOM     19  Cl  UNL     1      -9.649  -6.229  -5.823  1.00  0.00    -0.084 Cl
ENDBRANCH   8  12
BRANCH   7  20
ATOM     20  N   UNL     1      -7.912  -9.680 -15.112  1.00  0.00     0.062 N 
ATOM     21  O   UNL     1      -8.834 -10.408 -15.062  1.00  0.00    -0.258 OA
ATOM     22  O   UNL     1      -7.671  -9.160 -16.285  1.00  0.00    -0.258 OA
ENDBRANCH   7  20
TORSDOF 2
ENDMDL
MODEL 9
REMARK VINA RESULT:    -3.683      4.107      5.905
REMARK INTER + INTRA:          -4.430
REMARK INTER:                  -4.138
REMARK INTRA:                  -0.292
REMARK UNBOUND:                -0.316
REMARK SMILES O=[N+]([O-])c1ccc2c(c1)N[C@@H](c1cc(Cl)cc(Cl)c1)N2
REMARK SMILES IDX 7 1 8 2 5 3 6 4 20 5 10 6 4 7 11 8 9 9 12 12 14 13 13 14
REMARK SMILES IDX 16 15 17 16 19 17 15 18 18 19 2 20 3 21 1 22
REMARK H PARENT 20 10 10 11
ROOT
ATOM      1  C   UNL     1      -7.657  -7.977 -12.092  1.00  0.00     0.060 A 
ATOM      2  C   UNL     1      -6.324  -8.171 -11.820  1.00  0.00     0.066 A 
ATOM      3  C   UNL     1      -7.530  -9.341 -14.009  1.00  0.00     0.088 A 
ATOM      4  C   UNL     1      -8.288  -8.705 -12.988  1.00  0.00     0.035 A 
ATOM      5  N   UNL     1      -8.232  -7.115 -11.079  1.00  0.00    -0.360 N 
ATOM      6  N   UNL     1      -6.092  -7.468 -10.634  1.00  0.00    -0.360 N 
ATOM      7  C   UNL     1      -6.150  -9.436 -13.843  1.00  0.00     0.271 A 
ATOM      8  C   UNL     1      -7.371  -7.339 -10.036  1.00  0.00     0.205 C 
ATOM      9  C   UNL     1      -5.535  -8.851 -12.693  1.00  0.00     0.113 A 
ATOM     10  H   UNL     1      -9.059  -6.503 -11.128  1.00  0.00     0.163 HD
ATOM     11  H   UNL     1      -5.191  -7.122 -10.274  1.00  0.00     0.163 HD
ENDROOT
BRANCH   8  12
ATOM     12  C   UNL     1      -7.423  -6.399  -8.799  1.00  0.00    -0.003 A 
ATOM     13  C   UNL     1      -6.154  -4.942  -7.251  1.00  0.00     0.042 A 
ATOM     14  C   UNL     1      -6.471  -5.374  -8.602  1.00  0.00     0.028 A 
ATOM     15  C   UNL     1      -7.196  -5.119  -6.233  1.00  0.00     0.041 A 
ATOM     16  C   UNL     1      -8.362  -5.904  -6.626  1.00  0.00     0.042 A 
ATOM     17  C   UNL     1      -8.429  -6.683  -7.807  1.00  0.00     0.028 A 
ATOM     18  Cl  UNL     1      -4.949  -4.047  -6.831  1.00  0.00    -0.084 Cl
ATOM     19  Cl  UNL     1      -9.663  -5.934  -5.518  1.00  0.00    -0.084 Cl
ENDBRANCH   8  12
BRANCH   7  20
ATOM     20  N   UNL     1      -5.327 -10.159 -14.681  1.00  0.00     0.062 N 
ATOM     21  O   UNL     1      -4.828  -9.643 -15.613  1.00  0.00    -0.258 OA
ATOM     22  O   UNL     1      -4.872 -11.347 -14.389  1.00  0.00    -0.258 OA
ENDBRANCH   7  20
TORSDOF 2
ENDMDL
