MODEL 1
REMARK VINA RESULT:    -4.080      0.000      0.000
REMARK INTER + INTRA:          -4.864
REMARK INTER:                  -4.557
REMARK INTRA:                  -0.307
REMARK UNBOUND:                -0.307
REMARK SMILES O=[N+]([O-])c1ccc2c(c1)N[C@@H](c1cc(Cl)cc(Cl)c1)N2
REMARK SMILES IDX 7 1 8 2 5 3 6 4 20 5 10 6 4 7 11 8 9 9 12 12 14 13 13 14
REMARK SMILES IDX 16 15 17 16 19 17 15 18 18 19 2 20 3 21 1 22
REMARK H PARENT 20 10 10 11
ROOT
ATOM      1  C   UNL     1     -14.907   6.964   0.485  1.00  0.00     0.060 A 
ATOM      2  C   UNL     1     -13.970   7.807  -0.062  1.00  0.00     0.066 A 
ATOM      3  C   UNL     1     -16.385   8.757   0.876  1.00  0.00     0.088 A 
ATOM      4  C   UNL     1     -16.138   7.366   0.721  1.00  0.00     0.035 A 
ATOM      5  N   UNL     1     -14.402   5.606   0.460  1.00  0.00    -0.360 N 
ATOM      6  N   UNL     1     -12.919   6.973  -0.454  1.00  0.00    -0.360 N 
ATOM      7  C   UNL     1     -15.400   9.651   0.464  1.00  0.00     0.271 A 
ATOM      8  C   UNL     1     -13.505   5.687  -0.573  1.00  0.00     0.205 C 
ATOM      9  C   UNL     1     -14.162   9.152  -0.047  1.00  0.00     0.113 A 
ATOM     10  H   UNL     1     -14.649   4.802   1.054  1.00  0.00     0.163 HD
ATOM     11  H   UNL     1     -11.937   7.234  -0.619  1.00  0.00     0.163 HD
ENDROOT
BRANCH   8  12
ATOM     12  C   UNL     1     -12.496   4.525  -0.790  1.00  0.00    -0.003 A 
ATOM     13  C   UNL     1     -11.082   2.787   0.266  1.00  0.00     0.042 A 
ATOM     14  C   UNL     1     -12.356   3.476   0.147  1.00  0.00     0.028 A 
ATOM     15  C   UNL     1     -10.221   2.769  -0.923  1.00  0.00     0.041 A 
ATOM     16  C   UNL     1     -10.629   3.621  -2.034  1.00  0.00     0.042 A 
ATOM     17  C   UNL     1     -11.634   4.616  -1.940  1.00  0.00     0.028 A 
ATOM     18  Cl  UNL     1     -10.663   1.821   1.415  1.00  0.00    -0.084 Cl
ATOM     19  Cl  UNL     1      -9.749   3.443  -3.488  1.00  0.00    -0.084 Cl
ENDBRANCH   8  12
BRANCH   7  20
ATOM     20  N   UNL     1     -15.578  11.019   0.420  1.00  0.00     0.062 N 
ATOM     21  O   UNL     1     -15.620  11.644   1.415  1.00  0.00    -0.258 OA
ATOM     22  O   UNL     1     -15.483  11.718  -0.678  1.00  0.00    -0.258 OA
ENDBRANCH   7  20
TORSDOF 2
ENDMDL
MODEL 2
REMARK VINA RESULT:    -3.613      4.040      5.156
REMARK INTER + INTRA:          -4.342
REMARK INTER:                  -4.025
REMARK INTRA:                  -0.316
REMARK UNBOUND:                -0.307
REMARK SMILES O=[N+]([O-])c1ccc2c(c1)N[C@@H](c1cc(Cl)cc(Cl)c1)N2
REMARK SMILES IDX 7 1 8 2 5 3 6 4 20 5 10 6 4 7 11 8 9 9 12 12 14 13 13 14
REMARK SMILES IDX 16 15 17 16 19 17 15 18 18 19 2 20 3 21 1 22
REMARK H PARENT 20 10 10 11
ROOT
ATOM      1  C   UNL     1     -12.536   4.394  -0.891  1.00  0.00     0.060 A 
ATOM      2  C   UNL     1     -12.885   3.250  -1.568  1.00  0.00     0.066 A 
ATOM      3  C   UNL     1     -14.767   5.149  -0.882  1.00  0.00     0.088 A 
ATOM      4  C   UNL     1     -13.445   5.184  -0.362  1.00  0.00     0.035 A 
ATOM      5  N   UNL     1     -11.109   4.382  -0.637  1.00  0.00    -0.360 N 
ATOM      6  N   UNL     1     -11.696   2.529  -1.696  1.00  0.00    -0.360 N 
ATOM      7  C   UNL     1     -15.127   4.077  -1.696  1.00  0.00     0.271 A 
ATOM      8  C   UNL     1     -10.855   3.036  -0.673  1.00  0.00     0.205 C 
ATOM      9  C   UNL     1     -14.154   3.082  -2.024  1.00  0.00     0.113 A 
ATOM     10  H   UNL     1     -10.464   5.168  -0.475  1.00  0.00     0.163 HD
ATOM     11  H   UNL     1     -11.478   1.791  -2.381  1.00  0.00     0.163 HD
ENDROOT
BRANCH   8  12
ATOM     12  C   UNL     1      -9.381   2.547  -0.735  1.00  0.00    -0.003 A 
ATOM     13  C   UNL     1      -7.061   2.856   0.077  1.00  0.00     0.042 A 
ATOM     14  C   UNL     1      -8.486   2.741   0.342  1.00  0.00     0.028 A 
ATOM     15  C   UNL     1      -6.553   2.195  -1.131  1.00  0.00     0.041 A 
ATOM     16  C   UNL     1      -7.553   1.673  -2.056  1.00  0.00     0.042 A 
ATOM     17  C   UNL     1      -8.935   1.976  -1.980  1.00  0.00     0.028 A 
ATOM     18  Cl  UNL     1      -5.977   3.347   1.082  1.00  0.00    -0.084 Cl
ATOM     19  Cl  UNL     1      -6.965   0.724  -3.350  1.00  0.00    -0.084 Cl
ENDBRANCH   8  12
BRANCH   7  20
ATOM     20  N   UNL     1     -16.415   3.848  -2.135  1.00  0.00     0.062 N 
ATOM     21  O   UNL     1     -16.741   2.773  -2.482  1.00  0.00    -0.258 OA
ATOM     22  O   UNL     1     -17.385   4.709  -1.986  1.00  0.00    -0.258 OA
ENDBRANCH   7  20
TORSDOF 2
ENDMDL
MODEL 3
REMARK VINA RESULT:    -3.583      3.230      4.682
REMARK INTER + INTRA:          -4.308
REMARK INTER:                  -3.993
REMARK INTRA:                  -0.316
REMARK UNBOUND:                -0.307
REMARK SMILES O=[N+]([O-])c1ccc2c(c1)N[C@@H](c1cc(Cl)cc(Cl)c1)N2
REMARK SMILES IDX 7 1 8 2 5 3 6 4 20 5 10 6 4 7 11 8 9 9 12 12 14 13 13 14
REMARK SMILES IDX 16 15 17 16 19 17 15 18 18 19 2 20 3 21 1 22
REMARK H PARENT 20 10 10 11
ROOT
ATOM      1  C   UNL     1     -12.869   3.384  -1.610  1.00  0.00     0.060 A 
ATOM      2  C   UNL     1     -12.497   4.526  -0.941  1.00  0.00     0.066 A 
ATOM      3  C   UNL     1     -15.138   4.016  -1.562  1.00  0.00     0.088 A 
ATOM      4  C   UNL     1     -14.078   3.242  -2.109  1.00  0.00     0.035 A 
ATOM      5  N   UNL     1     -11.689   2.591  -1.893  1.00  0.00    -0.360 N 
ATOM      6  N   UNL     1     -11.105   4.453  -0.849  1.00  0.00    -0.360 N 
ATOM      7  C   UNL     1     -14.811   5.105  -0.756  1.00  0.00     0.271 A 
ATOM      8  C   UNL     1     -10.721   3.561  -1.881  1.00  0.00     0.205 C 
ATOM      9  C   UNL     1     -13.440   5.379  -0.462  1.00  0.00     0.113 A 
ATOM     10  H   UNL     1     -11.602   1.578  -2.057  1.00  0.00     0.163 HD
ATOM     11  H   UNL     1     -10.493   4.940  -0.179  1.00  0.00     0.163 HD
ENDROOT
BRANCH   8  12
ATOM     12  C   UNL     1      -9.226   3.135  -1.857  1.00  0.00    -0.003 A 
ATOM     13  C   UNL     1      -7.500   1.587  -2.726  1.00  0.00     0.042 A 
ATOM     14  C   UNL     1      -8.618   2.486  -2.955  1.00  0.00     0.028 A 
ATOM     15  C   UNL     1      -6.682   1.831  -1.532  1.00  0.00     0.041 A 
ATOM     16  C   UNL     1      -7.196   2.812  -0.582  1.00  0.00     0.042 A 
ATOM     17  C   UNL     1      -8.511   3.339  -0.623  1.00  0.00     0.028 A 
ATOM     18  Cl  UNL     1      -6.901   0.585  -3.759  1.00  0.00    -0.084 Cl
ATOM     19  Cl  UNL     1      -6.149   3.248   0.697  1.00  0.00    -0.084 Cl
ENDBRANCH   8  12
BRANCH   7  20
ATOM     20  N   UNL     1     -15.736   6.018  -0.293  1.00  0.00     0.062 N 
ATOM     21  O   UNL     1     -15.390   7.084   0.063  1.00  0.00    -0.258 OA
ATOM     22  O   UNL     1     -17.025   5.863  -0.429  1.00  0.00    -0.258 OA
ENDBRANCH   7  20
TORSDOF 2
ENDMDL
MODEL 4
REMARK VINA RESULT:    -3.504      5.792      8.314
REMARK INTER + INTRA:          -4.220
REMARK INTER:                  -3.921
REMARK INTRA:                  -0.299
REMARK UNBOUND:                -0.307
REMARK SMILES O=[N+]([O-])c1ccc2c(c1)N[C@@H](c1cc(Cl)cc(Cl)c1)N2
REMARK SMILES IDX 7 1 8 2 5 3 6 4 20 5 10 6 4 7 11 8 9 9 12 12 14 13 13 14
REMARK SMILES IDX 16 15 17 16 19 17 15 18 18 19 2 20 3 21 1 22
REMARK H PARENT 20 10 10 11
ROOT
ATOM      1  C   UNL     1      -9.191   2.352  -2.169  1.00  0.00     0.060 A 
ATOM      2  C   UNL     1      -8.863   3.236  -1.170  1.00  0.00     0.066 A 
ATOM      3  C   UNL     1      -7.036   1.402  -2.126  1.00  0.00     0.088 A 
ATOM      4  C   UNL     1      -8.413   1.333  -2.468  1.00  0.00     0.035 A 
ATOM      5  N   UNL     1     -10.568   2.568  -2.566  1.00  0.00    -0.360 N 
ATOM      6  N   UNL     1     -10.034   3.960  -0.930  1.00  0.00    -0.360 N 
ATOM      7  C   UNL     1      -6.630   2.380  -1.220  1.00  0.00     0.271 A 
ATOM      8  C   UNL     1     -11.076   3.137  -1.427  1.00  0.00     0.205 C 
ATOM      9  C   UNL     1      -7.588   3.309  -0.708  1.00  0.00     0.113 A 
ATOM     10  H   UNL     1     -11.036   2.354  -3.458  1.00  0.00     0.163 HD
ATOM     11  H   UNL     1     -10.121   4.887  -0.490  1.00  0.00     0.163 HD
ENDROOT
BRANCH   8  12
ATOM     12  C   UNL     1     -12.475   3.811  -1.479  1.00  0.00    -0.003 A 
ATOM     13  C   UNL     1     -14.007   5.481  -0.480  1.00  0.00     0.042 A 
ATOM     14  C   UNL     1     -12.692   5.115  -0.981  1.00  0.00     0.028 A 
ATOM     15  C   UNL     1     -15.156   4.754  -1.033  1.00  0.00     0.041 A 
ATOM     16  C   UNL     1     -14.853   3.596  -1.866  1.00  0.00     0.042 A 
ATOM     17  C   UNL     1     -13.568   3.007  -1.965  1.00  0.00     0.028 A 
ATOM     18  Cl  UNL     1     -14.352   6.752   0.352  1.00  0.00    -0.084 Cl
ATOM     19  Cl  UNL     1     -16.176   2.878  -2.676  1.00  0.00    -0.084 Cl
ENDBRANCH   8  12
BRANCH   7  20
ATOM     20  N   UNL     1      -5.357   2.453  -0.693  1.00  0.00     0.062 N 
ATOM     21  O   UNL     1      -4.477   1.844  -1.180  1.00  0.00    -0.258 OA
ATOM     22  O   UNL     1      -5.000   3.341   0.196  1.00  0.00    -0.258 OA
ENDBRANCH   7  20
TORSDOF 2
ENDMDL
MODEL 5
REMARK VINA RESULT:    -3.337      5.813      8.350
REMARK INTER + INTRA:          -4.034
REMARK INTER:                  -3.715
REMARK INTRA:                  -0.319
REMARK UNBOUND:                -0.307
REMARK SMILES O=[N+]([O-])c1ccc2c(c1)N[C@@H](c1cc(Cl)cc(Cl)c1)N2
REMARK SMILES IDX 7 1 8 2 5 3 6 4 20 5 10 6 4 7 11 8 9 9 12 12 14 13 13 14
REMARK SMILES IDX 16 15 17 16 19 17 15 18 18 19 2 20 3 21 1 22
REMARK H PARENT 20 10 10 11
ROOT
ATOM      1  C   UNL     1      -9.228   2.280  -2.046  1.00  0.00     0.060 A 
ATOM      2  C   UNL     1      -8.891   3.092  -0.990  1.00  0.00     0.066 A 
ATOM      3  C   UNL     1      -7.014   1.501  -2.240  1.00  0.00     0.088 A 
ATOM      4  C   UNL     1      -8.405   1.357  -2.495  1.00  0.00     0.035 A 
ATOM      5  N   UNL     1     -10.643   2.425  -2.328  1.00  0.00    -0.360 N 
ATOM      6  N   UNL     1     -10.089   3.698  -0.604  1.00  0.00    -0.360 N 
ATOM      7  C   UNL     1      -6.612   2.420  -1.273  1.00  0.00     0.271 A 
ATOM      8  C   UNL     1     -11.104   2.845  -1.108  1.00  0.00     0.205 C 
ATOM      9  C   UNL     1      -7.593   3.221  -0.610  1.00  0.00     0.113 A 
ATOM     10  H   UNL     1     -11.160   2.258  -3.203  1.00  0.00     0.163 HD
ATOM     11  H   UNL     1     -10.209   4.571  -0.071  1.00  0.00     0.163 HD
ENDROOT
BRANCH   8  12
ATOM     12  C   UNL     1     -12.548   3.410  -1.000  1.00  0.00    -0.003 A 
ATOM     13  C   UNL     1     -14.847   3.406  -1.919  1.00  0.00     0.042 A 
ATOM     14  C   UNL     1     -13.668   2.686  -1.467  1.00  0.00     0.028 A 
ATOM     15  C   UNL     1     -15.078   4.735  -1.343  1.00  0.00     0.041 A 
ATOM     16  C   UNL     1     -13.995   5.293  -0.540  1.00  0.00     0.042 A 
ATOM     17  C   UNL     1     -12.686   4.752  -0.493  1.00  0.00     0.028 A 
ATOM     18  Cl  UNL     1     -16.041   2.802  -2.718  1.00  0.00    -0.084 Cl
ATOM     19  Cl  UNL     1     -14.342   6.741   0.299  1.00  0.00    -0.084 Cl
ENDBRANCH   8  12
BRANCH   7  20
ATOM     20  N   UNL     1      -5.312   2.543  -0.828  1.00  0.00     0.062 N 
ATOM     21  O   UNL     1      -5.058   3.255   0.073  1.00  0.00    -0.258 OA
ATOM     22  O   UNL     1      -4.350   1.742  -1.198  1.00  0.00    -0.258 OA
ENDBRANCH   7  20
TORSDOF 2
ENDMDL
MODEL 6
REMARK VINA RESULT:    -3.132      4.236      5.554
REMARK INTER + INTRA:          -3.805
REMARK INTER:                  -3.507
REMARK INTRA:                  -0.298
REMARK UNBOUND:                -0.307
REMARK SMILES O=[N+]([O-])c1ccc2c(c1)N[C@@H](c1cc(Cl)cc(Cl)c1)N2
REMARK SMILES IDX 7 1 8 2 5 3 6 4 20 5 10 6 4 7 11 8 9 9 12 12 14 13 13 14
REMARK SMILES IDX 16 15 17 16 19 17 15 18 18 19 2 20 3 21 1 22
REMARK H PARENT 20 10 10 11
ROOT
ATOM      1  C   UNL     1     -12.754   4.397  -1.161  1.00  0.00     0.060 A 
ATOM      2  C   UNL     1     -12.940   3.212  -1.831  1.00  0.00     0.066 A 
ATOM      3  C   UNL     1     -15.073   4.809  -1.110  1.00  0.00     0.088 A 
ATOM      4  C   UNL     1     -13.762   5.044  -0.616  1.00  0.00     0.035 A 
ATOM      5  N   UNL     1     -11.337   4.601  -0.935  1.00  0.00    -0.360 N 
ATOM      6  N   UNL     1     -11.659   2.677  -1.981  1.00  0.00    -0.360 N 
ATOM      7  C   UNL     1     -15.283   3.692  -1.916  1.00  0.00     0.271 A 
ATOM      8  C   UNL     1     -10.884   3.308  -0.975  1.00  0.00     0.205 C 
ATOM      9  C   UNL     1     -14.178   2.853  -2.262  1.00  0.00     0.113 A 
ATOM     10  H   UNL     1     -10.814   5.476  -0.786  1.00  0.00     0.163 HD
ATOM     11  H   UNL     1     -11.345   1.978  -2.670  1.00  0.00     0.163 HD
ENDROOT
BRANCH   8  12
ATOM     12  C   UNL     1      -9.355   3.046  -1.065  1.00  0.00    -0.003 A 
ATOM     13  C   UNL     1      -7.535   1.756  -2.139  1.00  0.00     0.042 A 
ATOM     14  C   UNL     1      -8.753   2.541  -2.240  1.00  0.00     0.028 A 
ATOM     15  C   UNL     1      -6.673   2.008  -0.979  1.00  0.00     0.041 A 
ATOM     16  C   UNL     1      -7.225   2.862   0.067  1.00  0.00     0.042 A 
ATOM     17  C   UNL     1      -8.587   3.246   0.138  1.00  0.00     0.028 A 
ATOM     18  Cl  UNL     1      -6.901   0.894  -3.273  1.00  0.00    -0.084 Cl
ATOM     19  Cl  UNL     1      -6.151   3.324   1.313  1.00  0.00    -0.084 Cl
ENDBRANCH   8  12
BRANCH   7  20
ATOM     20  N   UNL     1     -16.530   3.271  -2.330  1.00  0.00     0.062 N 
ATOM     21  O   UNL     1     -16.763   2.124  -2.438  1.00  0.00    -0.258 OA
ATOM     22  O   UNL     1     -17.565   4.063  -2.404  1.00  0.00    -0.258 OA
ENDBRANCH   7  20
TORSDOF 2
ENDMDL
MODEL 7
REMARK VINA RESULT:    -3.120      2.982      4.182
REMARK INTER + INTRA:          -3.791
REMARK INTER:                  -3.493
REMARK INTRA:                  -0.298
REMARK UNBOUND:                -0.307
REMARK SMILES O=[N+]([O-])c1ccc2c(c1)N[C@@H](c1cc(Cl)cc(Cl)c1)N2
REMARK SMILES IDX 7 1 8 2 5 3 6 4 20 5 10 6 4 7 11 8 9 9 12 12 14 13 13 14
REMARK SMILES IDX 16 15 17 16 19 17 15 18 18 19 2 20 3 21 1 22
REMARK H PARENT 20 10 10 11
ROOT
ATOM      1  C   UNL     1     -13.028   3.470  -1.329  1.00  0.00     0.060 A 
ATOM      2  C   UNL     1     -12.510   4.556  -0.664  1.00  0.00     0.066 A 
ATOM      3  C   UNL     1     -15.180   4.427  -1.351  1.00  0.00     0.088 A 
ATOM      4  C   UNL     1     -14.231   3.499  -1.859  1.00  0.00     0.035 A 
ATOM      5  N   UNL     1     -11.971   2.508  -1.570  1.00  0.00    -0.360 N 
ATOM      6  N   UNL     1     -11.146   4.281  -0.532  1.00  0.00    -0.360 N 
ATOM      7  C   UNL     1     -14.718   5.469  -0.550  1.00  0.00     0.271 A 
ATOM      8  C   UNL     1     -10.871   3.326  -1.543  1.00  0.00     0.205 C 
ATOM      9  C   UNL     1     -13.329   5.545  -0.221  1.00  0.00     0.113 A 
ATOM     10  H   UNL     1     -12.029   1.491  -1.720  1.00  0.00     0.163 HD
ATOM     11  H   UNL     1     -10.487   4.684   0.149  1.00  0.00     0.163 HD
ENDROOT
BRANCH   8  12
ATOM     12  C   UNL     1      -9.456   2.686  -1.472  1.00  0.00    -0.003 A 
ATOM     13  C   UNL     1      -7.211   2.738  -0.428  1.00  0.00     0.042 A 
ATOM     14  C   UNL     1      -8.659   2.769  -0.308  1.00  0.00     0.028 A 
ATOM     15  C   UNL     1      -6.654   2.045  -1.596  1.00  0.00     0.041 A 
ATOM     16  C   UNL     1      -7.605   1.645  -2.628  1.00  0.00     0.042 A 
ATOM     17  C   UNL     1      -8.949   2.090  -2.681  1.00  0.00     0.028 A 
ATOM     18  Cl  UNL     1      -6.188   3.098   0.691  1.00  0.00    -0.084 Cl
ATOM     19  Cl  UNL     1      -6.991   0.659  -3.882  1.00  0.00    -0.084 Cl
ENDBRANCH   8  12
BRANCH   7  20
ATOM     20  N   UNL     1     -15.510   6.516  -0.124  1.00  0.00     0.062 N 
ATOM     21  O   UNL     1     -15.054   7.592   0.002  1.00  0.00    -0.258 OA
ATOM     22  O   UNL     1     -16.812   6.447  -0.058  1.00  0.00    -0.258 OA
ENDBRANCH   7  20
TORSDOF 2
ENDMDL
MODEL 8
REMARK VINA RESULT:    -2.866      1.795      2.096
REMARK INTER + INTRA:          -3.508
REMARK INTER:                  -3.216
REMARK INTRA:                  -0.291
REMARK UNBOUND:                -0.307
REMARK SMILES O=[N+]([O-])c1ccc2c(c1)N[C@@H](c1cc(Cl)cc(Cl)c1)N2
REMARK SMILES IDX 7 1 8 2 5 3 6 4 20 5 10 6 4 7 11 8 9 9 12 12 14 13 13 14
REMARK SMILES IDX 16 15 17 16 19 17 15 18 18 19 2 20 3 21 1 22
REMARK H PARENT 20 10 10 11
ROOT
ATOM      1  C   UNL     1     -15.718   7.925   0.688  1.00  0.00     0.060 A 
ATOM      2  C   UNL     1     -14.620   8.563   0.163  1.00  0.00     0.066 A 
ATOM      3  C   UNL     1     -16.770   9.981   1.155  1.00  0.00     0.088 A 
ATOM      4  C   UNL     1     -16.832   8.576   0.948  1.00  0.00     0.035 A 
ATOM      5  N   UNL     1     -15.521   6.491   0.611  1.00  0.00    -0.360 N 
ATOM      6  N   UNL     1     -13.777   7.534  -0.267  1.00  0.00    -0.360 N 
ATOM      7  C   UNL     1     -15.613  10.654   0.767  1.00  0.00     0.271 A 
ATOM      8  C   UNL     1     -14.629   6.413  -0.427  1.00  0.00     0.205 C 
ATOM      9  C   UNL     1     -14.514   9.916   0.228  1.00  0.00     0.113 A 
ATOM     10  H   UNL     1     -15.937   5.739   1.178  1.00  0.00     0.163 HD
ATOM     11  H   UNL     1     -12.761   7.581  -0.431  1.00  0.00     0.163 HD
ENDROOT
BRANCH   8  12
ATOM     12  C   UNL     1     -13.898   5.067  -0.693  1.00  0.00    -0.003 A 
ATOM     13  C   UNL     1     -11.727   3.916  -1.001  1.00  0.00     0.042 A 
ATOM     14  C   UNL     1     -12.570   4.844  -0.265  1.00  0.00     0.028 A 
ATOM     15  C   UNL     1     -12.403   2.842  -1.737  1.00  0.00     0.041 A 
ATOM     16  C   UNL     1     -13.856   2.935  -1.834  1.00  0.00     0.042 A 
ATOM     17  C   UNL     1     -14.599   4.090  -1.486  1.00  0.00     0.028 A 
ATOM     18  Cl  UNL     1     -10.183   3.763  -0.854  1.00  0.00    -0.084 Cl
ATOM     19  Cl  UNL     1     -14.659   1.583  -2.505  1.00  0.00    -0.084 Cl
ENDBRANCH   8  12
BRANCH   7  20
ATOM     20  N   UNL     1     -15.489  12.028   0.773  1.00  0.00     0.062 N 
ATOM     21  O   UNL     1     -15.136  12.587   1.745  1.00  0.00    -0.258 OA
ATOM     22  O   UNL     1     -15.524  12.755  -0.311  1.00  0.00    -0.258 OA
ENDBRANCH   7  20
TORSDOF 2
ENDMDL
MODEL 9
REMARK VINA RESULT:    -2.816      5.151      7.705
REMARK INTER + INTRA:          -3.451
REMARK INTER:                  -3.158
REMARK INTRA:                  -0.293
REMARK UNBOUND:                -0.307
REMARK SMILES O=[N+]([O-])c1ccc2c(c1)N[C@@H](c1cc(Cl)cc(Cl)c1)N2
REMARK SMILES IDX 7 1 8 2 5 3 6 4 20 5 10 6 4 7 11 8 9 9 12 12 14 13 13 14
REMARK SMILES IDX 16 15 17 16 19 17 15 18 18 19 2 20 3 21 1 22
REMARK H PARENT 20 10 10 11
ROOT
ATOM      1  C   UNL     1     -11.947   3.664  -0.285  1.00  0.00     0.060 A 
ATOM      2  C   UNL     1     -11.742   4.181  -1.542  1.00  0.00     0.066 A 
ATOM      3  C   UNL     1     -10.239   2.070  -0.591  1.00  0.00     0.088 A 
ATOM      4  C   UNL     1     -11.095   2.822   0.259  1.00  0.00     0.035 A 
ATOM      5  N   UNL     1     -13.014   4.398   0.366  1.00  0.00    -0.360 N 
ATOM      6  N   UNL     1     -12.644   5.243  -1.646  1.00  0.00    -0.360 N 
ATOM      7  C   UNL     1     -10.109   2.473  -1.918  1.00  0.00     0.271 A 
ATOM      8  C   UNL     1     -12.949   5.591  -0.306  1.00  0.00     0.205 C 
ATOM      9  C   UNL     1     -10.870   3.585  -2.396  1.00  0.00     0.113 A 
ATOM     10  H   UNL     1     -13.646   4.105   1.125  1.00  0.00     0.163 HD
ATOM     11  H   UNL     1     -13.008   5.677  -2.507  1.00  0.00     0.163 HD
ENDROOT
BRANCH   8  12
ATOM     12  C   UNL     1     -14.108   6.613  -0.142  1.00  0.00    -0.003 A 
ATOM     13  C   UNL     1     -14.746   8.973   0.255  1.00  0.00     0.042 A 
ATOM     14  C   UNL     1     -13.939   7.984  -0.441  1.00  0.00     0.028 A 
ATOM     15  C   UNL     1     -16.053   8.533   0.756  1.00  0.00     0.041 A 
ATOM     16  C   UNL     1     -16.323   7.101   0.698  1.00  0.00     0.042 A 
ATOM     17  C   UNL     1     -15.337   6.121   0.426  1.00  0.00     0.028 A 
ATOM     18  Cl  UNL     1     -14.504  10.513   0.266  1.00  0.00    -0.084 Cl
ATOM     19  Cl  UNL     1     -17.916   6.614   1.083  1.00  0.00    -0.084 Cl
ENDBRANCH   8  12
BRANCH   7  20
ATOM     20  N   UNL     1      -9.200   1.924  -2.799  1.00  0.00     0.062 N 
ATOM     21  O   UNL     1      -8.494   2.619  -3.432  1.00  0.00    -0.258 OA
ATOM     22  O   UNL     1      -8.905   0.653  -2.823  1.00  0.00    -0.258 OA
ENDBRANCH   7  20
TORSDOF 2
ENDMDL
