MODEL 1
REMARK VINA RESULT:    -4.671      0.000      0.000
REMARK INTER + INTRA:          -5.531
REMARK INTER:                  -5.217
REMARK INTRA:                  -0.315
REMARK UNBOUND:                -0.315
REMARK SMILES O=[N+]([O-])c1ccc2c(c1)N[C@@H](c1cc(Cl)cc(Cl)c1)N2
REMARK SMILES IDX 7 1 8 2 5 3 6 4 20 5 10 6 4 7 11 8 9 9 12 12 14 13 13 14
REMARK SMILES IDX 16 15 17 16 19 17 15 18 18 19 2 20 3 21 1 22
REMARK H PARENT 20 10 10 11
ROOT
ATOM      1  C   UNL     1       5.615   2.621 -11.165  1.00  0.00     0.060 A 
ATOM      2  C   UNL     1       5.743   3.903 -10.688  1.00  0.00     0.066 A 
ATOM      3  C   UNL     1       6.632   3.209 -13.207  1.00  0.00     0.088 A 
ATOM      4  C   UNL     1       6.235   2.229 -12.257  1.00  0.00     0.035 A 
ATOM      5  N   UNL     1       4.980   1.796 -10.156  1.00  0.00    -0.360 N 
ATOM      6  N   UNL     1       5.229   3.858  -9.389  1.00  0.00    -0.360 N 
ATOM      7  C   UNL     1       6.642   4.544 -12.810  1.00  0.00     0.271 A 
ATOM      8  C   UNL     1       5.302   2.491  -9.019  1.00  0.00     0.205 C 
ATOM      9  C   UNL     1       6.206   4.894 -11.494  1.00  0.00     0.113 A 
ATOM     10  H   UNL     1       4.437   0.928 -10.263  1.00  0.00     0.163 HD
ATOM     11  H   UNL     1       4.875   4.644  -8.826  1.00  0.00     0.163 HD
ENDROOT
BRANCH   8  12
ATOM     12  C   UNL     1       4.585   2.134  -7.688  1.00  0.00    -0.003 A 
ATOM     13  C   UNL     1       3.806   0.337  -6.173  1.00  0.00     0.042 A 
ATOM     14  C   UNL     1       4.843   0.925  -7.004  1.00  0.00     0.028 A 
ATOM     15  C   UNL     1       2.811   1.251  -5.602  1.00  0.00     0.041 A 
ATOM     16  C   UNL     1       2.832   2.624  -6.095  1.00  0.00     0.042 A 
ATOM     17  C   UNL     1       3.567   3.046  -7.230  1.00  0.00     0.028 A 
ATOM     18  Cl  UNL     1       3.808  -1.107  -5.585  1.00  0.00    -0.084 Cl
ATOM     19  Cl  UNL     1       1.818   3.736  -5.284  1.00  0.00    -0.084 Cl
ENDBRANCH   8  12
BRANCH   7  20
ATOM     20  N   UNL     1       7.149   5.568 -13.584  1.00  0.00     0.062 N 
ATOM     21  O   UNL     1       7.509   6.569 -13.082  1.00  0.00    -0.258 OA
ATOM     22  O   UNL     1       7.471   5.424 -14.841  1.00  0.00    -0.258 OA
ENDBRANCH   7  20
TORSDOF 2
ENDMDL
MODEL 2
REMARK VINA RESULT:    -4.662      1.216      2.780
REMARK INTER + INTRA:          -5.521
REMARK INTER:                  -5.207
REMARK INTRA:                  -0.315
REMARK UNBOUND:                -0.315
REMARK SMILES O=[N+]([O-])c1ccc2c(c1)N[C@@H](c1cc(Cl)cc(Cl)c1)N2
REMARK SMILES IDX 7 1 8 2 5 3 6 4 20 5 10 6 4 7 11 8 9 9 12 12 14 13 13 14
REMARK SMILES IDX 16 15 17 16 19 17 15 18 18 19 2 20 3 21 1 22
REMARK H PARENT 20 10 10 11
ROOT
ATOM      1  C   UNL     1       5.619   3.999 -10.706  1.00  0.00     0.060 A 
ATOM      2  C   UNL     1       5.504   2.720 -11.196  1.00  0.00     0.066 A 
ATOM      3  C   UNL     1       6.724   4.718 -12.659  1.00  0.00     0.088 A 
ATOM      4  C   UNL     1       5.986   5.000 -11.477  1.00  0.00     0.035 A 
ATOM      5  N   UNL     1       5.017   4.062  -9.389  1.00  0.00    -0.360 N 
ATOM      6  N   UNL     1       4.806   2.017 -10.210  1.00  0.00    -0.360 N 
ATOM      7  C   UNL     1       6.754   3.403 -13.118  1.00  0.00     0.271 A 
ATOM      8  C   UNL     1       4.134   3.017  -9.462  1.00  0.00     0.205 C 
ATOM      9  C   UNL     1       6.096   2.378 -12.370  1.00  0.00     0.113 A 
ATOM     10  H   UNL     1       5.201   4.713  -8.612  1.00  0.00     0.163 HD
ATOM     11  H   UNL     1       4.785   0.999 -10.060  1.00  0.00     0.163 HD
ENDROOT
BRANCH   8  12
ATOM     12  C   UNL     1       3.452   2.512  -8.160  1.00  0.00    -0.003 A 
ATOM     13  C   UNL     1       2.310   3.125  -6.049  1.00  0.00     0.042 A 
ATOM     14  C   UNL     1       2.476   3.279  -7.485  1.00  0.00     0.028 A 
ATOM     15  C   UNL     1       2.691   1.831  -5.470  1.00  0.00     0.041 A 
ATOM     16  C   UNL     1       3.395   0.907  -6.352  1.00  0.00     0.042 A 
ATOM     17  C   UNL     1       3.932   1.269  -7.612  1.00  0.00     0.028 A 
ATOM     18  Cl  UNL     1       1.502   4.071  -5.111  1.00  0.00    -0.084 Cl
ATOM     19  Cl  UNL     1       3.652  -0.671  -5.746  1.00  0.00    -0.084 Cl
ENDBRANCH   8  12
BRANCH   7  20
ATOM     20  N   UNL     1       7.303   3.028 -14.327  1.00  0.00     0.062 N 
ATOM     21  O   UNL     1       6.959   2.033 -14.852  1.00  0.00    -0.258 OA
ATOM     22  O   UNL     1       8.035   3.824 -15.059  1.00  0.00    -0.258 OA
ENDBRANCH   7  20
TORSDOF 2
ENDMDL
MODEL 3
REMARK VINA RESULT:    -4.323      4.973      7.642
REMARK INTER + INTRA:          -5.143
REMARK INTER:                  -4.843
REMARK INTRA:                  -0.300
REMARK UNBOUND:                -0.315
REMARK SMILES O=[N+]([O-])c1ccc2c(c1)N[C@@H](c1cc(Cl)cc(Cl)c1)N2
REMARK SMILES IDX 7 1 8 2 5 3 6 4 20 5 10 6 4 7 11 8 9 9 12 12 14 13 13 14
REMARK SMILES IDX 16 15 17 16 19 17 15 18 18 19 2 20 3 21 1 22
REMARK H PARENT 20 10 10 11
ROOT
ATOM      1  C   UNL     1       4.540   1.444  -7.699  1.00  0.00     0.060 A 
ATOM      2  C   UNL     1       4.073   2.715  -7.464  1.00  0.00     0.066 A 
ATOM      3  C   UNL     1       3.353   0.595  -5.850  1.00  0.00     0.088 A 
ATOM      4  C   UNL     1       4.028   0.399  -7.085  1.00  0.00     0.035 A 
ATOM      5  N   UNL     1       5.403   1.460  -8.863  1.00  0.00    -0.360 N 
ATOM      6  N   UNL     1       4.610   3.493  -8.493  1.00  0.00    -0.360 N 
ATOM      7  C   UNL     1       2.982   1.892  -5.500  1.00  0.00     0.271 A 
ATOM      8  C   UNL     1       4.927   2.566  -9.518  1.00  0.00     0.205 C 
ATOM      9  C   UNL     1       3.335   2.982  -6.355  1.00  0.00     0.113 A 
ATOM     10  H   UNL     1       6.163   0.817  -9.127  1.00  0.00     0.163 HD
ATOM     11  H   UNL     1       4.745   4.514  -8.505  1.00  0.00     0.163 HD
ENDROOT
BRANCH   8  12
ATOM     12  C   UNL     1       5.746   3.154 -10.701  1.00  0.00    -0.003 A 
ATOM     13  C   UNL     1       6.431   5.187 -11.938  1.00  0.00     0.042 A 
ATOM     14  C   UNL     1       6.235   4.479 -10.683  1.00  0.00     0.028 A 
ATOM     15  C   UNL     1       6.696   4.371 -13.128  1.00  0.00     0.041 A 
ATOM     16  C   UNL     1       6.525   2.930 -12.980  1.00  0.00     0.042 A 
ATOM     17  C   UNL     1       5.900   2.319 -11.865  1.00  0.00     0.028 A 
ATOM     18  Cl  UNL     1       6.683   6.717 -12.100  1.00  0.00    -0.084 Cl
ATOM     19  Cl  UNL     1       7.033   1.968 -14.298  1.00  0.00    -0.084 Cl
ENDBRANCH   8  12
BRANCH   7  20
ATOM     20  N   UNL     1       2.193   2.194  -4.410  1.00  0.00     0.062 N 
ATOM     21  O   UNL     1       1.887   1.353  -3.647  1.00  0.00    -0.258 OA
ATOM     22  O   UNL     1       1.933   3.416  -4.031  1.00  0.00    -0.258 OA
ENDBRANCH   7  20
TORSDOF 2
ENDMDL
MODEL 4
REMARK VINA RESULT:    -4.280      5.148      7.611
REMARK INTER + INTRA:          -5.095
REMARK INTER:                  -4.796
REMARK INTRA:                  -0.299
REMARK UNBOUND:                -0.315
REMARK SMILES O=[N+]([O-])c1ccc2c(c1)N[C@@H](c1cc(Cl)cc(Cl)c1)N2
REMARK SMILES IDX 7 1 8 2 5 3 6 4 20 5 10 6 4 7 11 8 9 9 12 12 14 13 13 14
REMARK SMILES IDX 16 15 17 16 19 17 15 18 18 19 2 20 3 21 1 22
REMARK H PARENT 20 10 10 11
ROOT
ATOM      1  C   UNL     1       3.520   3.024  -7.498  1.00  0.00     0.060 A 
ATOM      2  C   UNL     1       3.693   1.695  -7.802  1.00  0.00     0.066 A 
ATOM      3  C   UNL     1       2.680   2.494  -5.362  1.00  0.00     0.088 A 
ATOM      4  C   UNL     1       3.260   3.420  -6.271  1.00  0.00     0.035 A 
ATOM      5  N   UNL     1       3.947   3.832  -8.623  1.00  0.00    -0.360 N 
ATOM      6  N   UNL     1       4.255   1.688  -9.082  1.00  0.00    -0.360 N 
ATOM      7  C   UNL     1       2.705   1.141  -5.695  1.00  0.00     0.271 A 
ATOM      8  C   UNL     1       4.829   2.976  -9.231  1.00  0.00     0.205 C 
ATOM      9  C   UNL     1       3.256   0.732  -6.949  1.00  0.00     0.113 A 
ATOM     10  H   UNL     1       3.667   4.785  -8.893  1.00  0.00     0.163 HD
ATOM     11  H   UNL     1       4.253   0.917  -9.765  1.00  0.00     0.163 HD
ENDROOT
BRANCH   8  12
ATOM     12  C   UNL     1       5.335   3.305 -10.663  1.00  0.00    -0.003 A 
ATOM     13  C   UNL     1       6.305   2.432 -12.768  1.00  0.00     0.042 A 
ATOM     14  C   UNL     1       5.328   2.340 -11.695  1.00  0.00     0.028 A 
ATOM     15  C   UNL     1       6.832   3.766 -13.076  1.00  0.00     0.041 A 
ATOM     16  C   UNL     1       6.490   4.833 -12.140  1.00  0.00     0.042 A 
ATOM     17  C   UNL     1       5.907   4.611 -10.868  1.00  0.00     0.028 A 
ATOM     18  Cl  UNL     1       6.628   1.323 -13.814  1.00  0.00    -0.084 Cl
ATOM     19  Cl  UNL     1       6.925   6.418 -12.607  1.00  0.00    -0.084 Cl
ENDBRANCH   8  12
BRANCH   7  20
ATOM     20  N   UNL     1       2.315   0.134  -4.835  1.00  0.00     0.062 N 
ATOM     21  O   UNL     1       1.613   0.372  -3.923  1.00  0.00    -0.258 OA
ATOM     22  O   UNL     1       2.495  -1.133  -5.090  1.00  0.00    -0.258 OA
ENDBRANCH   7  20
TORSDOF 2
ENDMDL
MODEL 5
REMARK VINA RESULT:    -4.256      3.771      4.795
REMARK INTER + INTRA:          -5.068
REMARK INTER:                  -4.762
REMARK INTRA:                  -0.306
REMARK UNBOUND:                -0.315
REMARK SMILES O=[N+]([O-])c1ccc2c(c1)N[C@@H](c1cc(Cl)cc(Cl)c1)N2
REMARK SMILES IDX 7 1 8 2 5 3 6 4 20 5 10 6 4 7 11 8 9 9 12 12 14 13 13 14
REMARK SMILES IDX 16 15 17 16 19 17 15 18 18 19 2 20 3 21 1 22
REMARK H PARENT 20 10 10 11
ROOT
ATOM      1  C   UNL     1       6.852   1.556 -14.058  1.00  0.00     0.060 A 
ATOM      2  C   UNL     1       5.640   0.911 -14.124  1.00  0.00     0.066 A 
ATOM      3  C   UNL     1       7.336   1.016 -16.299  1.00  0.00     0.088 A 
ATOM      4  C   UNL     1       7.556   1.808 -15.140  1.00  0.00     0.035 A 
ATOM      5  N   UNL     1       7.023   2.115 -12.732  1.00  0.00    -0.360 N 
ATOM      6  N   UNL     1       5.058   1.105 -12.868  1.00  0.00    -0.360 N 
ATOM      7  C   UNL     1       6.186   0.232 -16.352  1.00  0.00     0.271 A 
ATOM      8  C   UNL     1       5.717   2.243 -12.338  1.00  0.00     0.205 C 
ATOM      9  C   UNL     1       5.297   0.204 -15.232  1.00  0.00     0.113 A 
ATOM     10  H   UNL     1       7.888   2.352 -12.225  1.00  0.00     0.163 HD
ATOM     11  H   UNL     1       4.316   0.545 -12.426  1.00  0.00     0.163 HD
ENDROOT
BRANCH   8  12
ATOM     12  C   UNL     1       5.404   2.544 -10.845  1.00  0.00    -0.003 A 
ATOM     13  C   UNL     1       6.001   2.122  -8.479  1.00  0.00     0.042 A 
ATOM     14  C   UNL     1       6.394   2.441  -9.842  1.00  0.00     0.028 A 
ATOM     15  C   UNL     1       4.643   2.501  -8.071  1.00  0.00     0.041 A 
ATOM     16  C   UNL     1       3.751   2.963  -9.130  1.00  0.00     0.042 A 
ATOM     17  C   UNL     1       4.033   2.836 -10.513  1.00  0.00     0.028 A 
ATOM     18  Cl  UNL     1       6.955   1.694  -7.324  1.00  0.00    -0.084 Cl
ATOM     19  Cl  UNL     1       2.247   3.600  -8.629  1.00  0.00    -0.084 Cl
ENDBRANCH   8  12
BRANCH   7  20
ATOM     20  N   UNL     1       5.782  -0.459 -17.476  1.00  0.00     0.062 N 
ATOM     21  O   UNL     1       6.404  -1.379 -17.862  1.00  0.00    -0.258 OA
ATOM     22  O   UNL     1       4.612  -0.300 -18.033  1.00  0.00    -0.258 OA
ENDBRANCH   7  20
TORSDOF 2
ENDMDL
MODEL 6
REMARK VINA RESULT:    -4.244      1.380      2.045
REMARK INTER + INTRA:          -5.055
REMARK INTER:                  -4.757
REMARK INTRA:                  -0.298
REMARK UNBOUND:                -0.315
REMARK SMILES O=[N+]([O-])c1ccc2c(c1)N[C@@H](c1cc(Cl)cc(Cl)c1)N2
REMARK SMILES IDX 7 1 8 2 5 3 6 4 20 5 10 6 4 7 11 8 9 9 12 12 14 13 13 14
REMARK SMILES IDX 16 15 17 16 19 17 15 18 18 19 2 20 3 21 1 22
REMARK H PARENT 20 10 10 11
ROOT
ATOM      1  C   UNL     1       5.860   3.796 -10.797  1.00  0.00     0.060 A 
ATOM      2  C   UNL     1       5.671   2.480 -11.145  1.00  0.00     0.066 A 
ATOM      3  C   UNL     1       6.732   4.301 -12.926  1.00  0.00     0.088 A 
ATOM      4  C   UNL     1       6.145   4.711 -11.699  1.00  0.00     0.035 A 
ATOM      5  N   UNL     1       5.421   3.997  -9.431  1.00  0.00    -0.360 N 
ATOM      6  N   UNL     1       5.087   1.890 -10.020  1.00  0.00    -0.360 N 
ATOM      7  C   UNL     1       6.691   2.948 -13.258  1.00  0.00     0.271 A 
ATOM      8  C   UNL     1       4.522   2.971  -9.298  1.00  0.00     0.205 C 
ATOM      9  C   UNL     1       6.114   2.014 -12.342  1.00  0.00     0.113 A 
ATOM     10  H   UNL     1       5.705   4.714  -8.747  1.00  0.00     0.163 HD
ATOM     11  H   UNL     1       5.071   0.890  -9.771  1.00  0.00     0.163 HD
ENDROOT
BRANCH   8  12
ATOM     12  C   UNL     1       3.994   2.608  -7.882  1.00  0.00    -0.003 A 
ATOM     13  C   UNL     1       3.491   0.807  -6.259  1.00  0.00     0.042 A 
ATOM     14  C   UNL     1       4.389   1.423  -7.221  1.00  0.00     0.028 A 
ATOM     15  C   UNL     1       2.536   1.689  -5.578  1.00  0.00     0.041 A 
ATOM     16  C   UNL     1       2.435   3.053  -6.087  1.00  0.00     0.042 A 
ATOM     17  C   UNL     1       3.003   3.484  -7.311  1.00  0.00     0.028 A 
ATOM     18  Cl  UNL     1       3.631  -0.625  -5.658  1.00  0.00    -0.084 Cl
ATOM     19  Cl  UNL     1       1.483   4.135  -5.168  1.00  0.00    -0.084 Cl
ENDBRANCH   8  12
BRANCH   7  20
ATOM     20  N   UNL     1       7.086   2.448 -14.481  1.00  0.00     0.062 N 
ATOM     21  O   UNL     1       6.539   1.517 -14.946  1.00  0.00    -0.258 OA
ATOM     22  O   UNL     1       7.899   3.079 -15.284  1.00  0.00    -0.258 OA
ENDBRANCH   7  20
TORSDOF 2
ENDMDL
MODEL 7
REMARK VINA RESULT:    -4.238      0.470      2.050
REMARK INTER + INTRA:          -5.048
REMARK INTER:                  -4.750
REMARK INTRA:                  -0.298
REMARK UNBOUND:                -0.315
REMARK SMILES O=[N+]([O-])c1ccc2c(c1)N[C@@H](c1cc(Cl)cc(Cl)c1)N2
REMARK SMILES IDX 7 1 8 2 5 3 6 4 20 5 10 6 4 7 11 8 9 9 12 12 14 13 13 14
REMARK SMILES IDX 16 15 17 16 19 17 15 18 18 19 2 20 3 21 1 22
REMARK H PARENT 20 10 10 11
ROOT
ATOM      1  C   UNL     1       5.476   2.907 -11.287  1.00  0.00     0.060 A 
ATOM      2  C   UNL     1       5.529   4.134 -10.670  1.00  0.00     0.066 A 
ATOM      3  C   UNL     1       6.714   3.705 -13.125  1.00  0.00     0.088 A 
ATOM      4  C   UNL     1       6.224   2.631 -12.334  1.00  0.00     0.035 A 
ATOM      5  N   UNL     1       4.740   1.981 -10.449  1.00  0.00    -0.360 N 
ATOM      6  N   UNL     1       4.868   3.954  -9.452  1.00  0.00    -0.360 N 
ATOM      7  C   UNL     1       6.658   4.992 -12.597  1.00  0.00     0.271 A 
ATOM      8  C   UNL     1       4.918   2.557  -9.218  1.00  0.00     0.205 C 
ATOM      9  C   UNL     1       6.067   5.203 -11.312  1.00  0.00     0.113 A 
ATOM     10  H   UNL     1       4.225   1.127 -10.706  1.00  0.00     0.163 HD
ATOM     11  H   UNL     1       4.439   4.677  -8.857  1.00  0.00     0.163 HD
ENDROOT
BRANCH   8  12
ATOM     12  C   UNL     1       4.056   2.062  -8.022  1.00  0.00    -0.003 A 
ATOM     13  C   UNL     1       2.656   2.692  -6.079  1.00  0.00     0.042 A 
ATOM     14  C   UNL     1       3.016   2.849  -7.478  1.00  0.00     0.028 A 
ATOM     15  C   UNL     1       2.927   1.388  -5.463  1.00  0.00     0.041 A 
ATOM     16  C   UNL     1       3.723   0.451  -6.249  1.00  0.00     0.042 A 
ATOM     17  C   UNL     1       4.431   0.806  -7.424  1.00  0.00     0.028 A 
ATOM     18  Cl  UNL     1       1.750   3.652  -5.250  1.00  0.00    -0.084 Cl
ATOM     19  Cl  UNL     1       3.861  -1.135  -5.626  1.00  0.00    -0.084 Cl
ENDBRANCH   8  12
BRANCH   7  20
ATOM     20  N   UNL     1       7.237   6.092 -13.197  1.00  0.00     0.062 N 
ATOM     21  O   UNL     1       7.699   6.951 -12.542  1.00  0.00    -0.258 OA
ATOM     22  O   UNL     1       7.512   6.149 -14.472  1.00  0.00    -0.258 OA
ENDBRANCH   7  20
TORSDOF 2
ENDMDL
MODEL 8
REMARK VINA RESULT:    -4.233      3.059      4.431
REMARK INTER + INTRA:          -5.043
REMARK INTER:                  -4.737
REMARK INTRA:                  -0.306
REMARK UNBOUND:                -0.315
REMARK SMILES O=[N+]([O-])c1ccc2c(c1)N[C@@H](c1cc(Cl)cc(Cl)c1)N2
REMARK SMILES IDX 7 1 8 2 5 3 6 4 20 5 10 6 4 7 11 8 9 9 12 12 14 13 13 14
REMARK SMILES IDX 16 15 17 16 19 17 15 18 18 19 2 20 3 21 1 22
REMARK H PARENT 20 10 10 11
ROOT
ATOM      1  C   UNL     1       6.804   6.589 -12.406  1.00  0.00     0.060 A 
ATOM      2  C   UNL     1       7.448   6.838 -11.218  1.00  0.00     0.066 A 
ATOM      3  C   UNL     1       8.083   8.226 -13.518  1.00  0.00     0.088 A 
ATOM      4  C   UNL     1       7.251   7.074 -13.545  1.00  0.00     0.035 A 
ATOM      5  N   UNL     1       5.822   5.542 -12.208  1.00  0.00    -0.360 N 
ATOM      6  N   UNL     1       6.896   5.929 -10.311  1.00  0.00    -0.360 N 
ATOM      7  C   UNL     1       8.647   8.602 -12.301  1.00  0.00     0.271 A 
ATOM      8  C   UNL     1       6.351   4.899 -11.119  1.00  0.00     0.205 C 
ATOM      9  C   UNL     1       8.336   7.862 -11.119  1.00  0.00     0.113 A 
ATOM     10  H   UNL     1       4.963   5.337 -12.738  1.00  0.00     0.163 HD
ATOM     11  H   UNL     1       6.887   5.994  -9.283  1.00  0.00     0.163 HD
ENDROOT
BRANCH   8  12
ATOM     12  C   UNL     1       5.481   3.861 -10.358  1.00  0.00    -0.003 A 
ATOM     13  C   UNL     1       3.219   3.243  -9.562  1.00  0.00     0.042 A 
ATOM     14  C   UNL     1       4.099   3.714 -10.618  1.00  0.00     0.028 A 
ATOM     15  C   UNL     1       3.817   2.398  -8.523  1.00  0.00     0.041 A 
ATOM     16  C   UNL     1       5.272   2.291  -8.530  1.00  0.00     0.042 A 
ATOM     17  C   UNL     1       6.122   3.122  -9.301  1.00  0.00     0.028 A 
ATOM     18  Cl  UNL     1       1.661   3.290  -9.576  1.00  0.00    -0.084 Cl
ATOM     19  Cl  UNL     1       5.953   1.147  -7.458  1.00  0.00    -0.084 Cl
ENDBRANCH   8  12
BRANCH   7  20
ATOM     20  N   UNL     1       9.588   9.604 -12.171  1.00  0.00     0.062 N 
ATOM     21  O   UNL     1       9.261  10.732 -12.200  1.00  0.00    -0.258 OA
ATOM     22  O   UNL     1      10.818   9.386 -11.790  1.00  0.00    -0.258 OA
ENDBRANCH   7  20
TORSDOF 2
ENDMDL
MODEL 9
REMARK VINA RESULT:    -3.670      3.932      5.734
REMARK INTER + INTRA:          -4.414
REMARK INTER:                  -4.110
REMARK INTRA:                  -0.304
REMARK UNBOUND:                -0.315
REMARK SMILES O=[N+]([O-])c1ccc2c(c1)N[C@@H](c1cc(Cl)cc(Cl)c1)N2
REMARK SMILES IDX 7 1 8 2 5 3 6 4 20 5 10 6 4 7 11 8 9 9 12 12 14 13 13 14
REMARK SMILES IDX 16 15 17 16 19 17 15 18 18 19 2 20 3 21 1 22
REMARK H PARENT 20 10 10 11
ROOT
ATOM      1  C   UNL     1       8.250   7.627 -11.678  1.00  0.00     0.060 A 
ATOM      2  C   UNL     1       7.737   7.577 -12.952  1.00  0.00     0.066 A 
ATOM      3  C   UNL     1       9.334   9.670 -12.122  1.00  0.00     0.088 A 
ATOM      4  C   UNL     1       8.813   8.718 -11.205  1.00  0.00     0.035 A 
ATOM      5  N   UNL     1       7.809   6.460 -10.940  1.00  0.00    -0.360 N 
ATOM      6  N   UNL     1       6.961   6.416 -12.984  1.00  0.00    -0.360 N 
ATOM      7  C   UNL     1       8.953   9.574 -13.459  1.00  0.00     0.271 A 
ATOM      8  C   UNL     1       6.665   6.142 -11.625  1.00  0.00     0.205 C 
ATOM      9  C   UNL     1       8.103   8.503 -13.876  1.00  0.00     0.113 A 
ATOM     10  H   UNL     1       8.237   5.997 -10.125  1.00  0.00     0.163 HD
ATOM     11  H   UNL     1       6.669   5.878 -13.812  1.00  0.00     0.163 HD
ENDROOT
BRANCH   8  12
ATOM     12  C   UNL     1       5.988   4.767 -11.366  1.00  0.00    -0.003 A 
ATOM     13  C   UNL     1       5.056   3.201  -9.689  1.00  0.00     0.042 A 
ATOM     14  C   UNL     1       5.166   4.542 -10.238  1.00  0.00     0.028 A 
ATOM     15  C   UNL     1       5.279   2.083 -10.613  1.00  0.00     0.041 A 
ATOM     16  C   UNL     1       5.799   2.424 -11.933  1.00  0.00     0.042 A 
ATOM     17  C   UNL     1       6.315   3.698 -12.275  1.00  0.00     0.028 A 
ATOM     18  Cl  UNL     1       4.440   2.821  -8.309  1.00  0.00    -0.084 Cl
ATOM     19  Cl  UNL     1       5.860   1.153 -13.074  1.00  0.00    -0.084 Cl
ENDBRANCH   8  12
BRANCH   7  20
ATOM     20  N   UNL     1       9.265  10.521 -14.413  1.00  0.00     0.062 N 
ATOM     21  O   UNL     1       8.725  11.565 -14.412  1.00  0.00    -0.258 OA
ATOM     22  O   UNL     1      10.298  10.425 -15.206  1.00  0.00    -0.258 OA
ENDBRANCH   7  20
TORSDOF 2
ENDMDL
