MODEL 1
REMARK VINA RESULT:    -5.009      0.000      0.000
REMARK INTER + INTRA:          -5.909
REMARK INTER:                  -5.595
REMARK INTRA:                  -0.315
REMARK UNBOUND:                -0.315
REMARK SMILES O=[N+]([O-])c1ccc2c(c1)N[C@@H](c1cc(Cl)cc(Cl)c1)N2
REMARK SMILES IDX 7 1 8 2 5 3 6 4 20 5 10 6 4 7 11 8 9 9 12 12 14 13 13 14
REMARK SMILES IDX 16 15 17 16 19 17 15 18 18 19 2 20 3 21 1 22
REMARK H PARENT 20 10 10 11
ROOT
ATOM      1  C   UNL     1       9.474  -2.661  -7.584  1.00  0.00     0.060 A 
ATOM      2  C   UNL     1       9.190  -3.982  -7.336  1.00  0.00     0.066 A 
ATOM      3  C   UNL     1      11.240  -3.244  -9.031  1.00  0.00     0.088 A 
ATOM      4  C   UNL     1      10.287  -2.303  -8.556  1.00  0.00     0.035 A 
ATOM      5  N   UNL     1       8.553  -1.826  -6.840  1.00  0.00    -0.360 N 
ATOM      6  N   UNL     1       8.085  -3.959  -6.481  1.00  0.00    -0.360 N 
ATOM      7  C   UNL     1      11.072  -4.583  -8.685  1.00  0.00     0.271 A 
ATOM      8  C   UNL     1       7.497  -2.686  -6.686  1.00  0.00     0.205 C 
ATOM      9  C   UNL     1       9.992  -4.962  -7.829  1.00  0.00     0.113 A 
ATOM     10  H   UNL     1       8.661  -0.854  -6.516  1.00  0.00     0.163 HD
ATOM     11  H   UNL     1       7.768  -4.703  -5.843  1.00  0.00     0.163 HD
ENDROOT
BRANCH   8  12
ATOM     12  C   UNL     1       6.364  -2.319  -5.687  1.00  0.00    -0.003 A 
ATOM     13  C   UNL     1       4.827  -0.566  -4.852  1.00  0.00     0.042 A 
ATOM     14  C   UNL     1       5.439  -1.285  -5.957  1.00  0.00     0.028 A 
ATOM     15  C   UNL     1       4.708  -1.281  -3.576  1.00  0.00     0.041 A 
ATOM     16  C   UNL     1       5.406  -2.559  -3.479  1.00  0.00     0.042 A 
ATOM     17  C   UNL     1       6.358  -3.013  -4.425  1.00  0.00     0.028 A 
ATOM     18  Cl  UNL     1       4.022   0.764  -4.955  1.00  0.00    -0.084 Cl
ATOM     19  Cl  UNL     1       5.098  -3.486  -2.077  1.00  0.00    -0.084 Cl
ENDBRANCH   8  12
BRANCH   7  20
ATOM     20  N   UNL     1      11.836  -5.609  -9.205  1.00  0.00     0.062 N 
ATOM     21  O   UNL     1      11.436  -6.714  -9.185  1.00  0.00    -0.258 OA
ATOM     22  O   UNL     1      12.901  -5.410  -9.933  1.00  0.00    -0.258 OA
ENDBRANCH   7  20
TORSDOF 2
ENDMDL
MODEL 2
REMARK VINA RESULT:    -4.995      1.023      2.677
REMARK INTER + INTRA:          -5.894
REMARK INTER:                  -5.579
REMARK INTRA:                  -0.315
REMARK UNBOUND:                -0.315
REMARK SMILES O=[N+]([O-])c1ccc2c(c1)N[C@@H](c1cc(Cl)cc(Cl)c1)N2
REMARK SMILES IDX 7 1 8 2 5 3 6 4 20 5 10 6 4 7 11 8 9 9 12 12 14 13 13 14
REMARK SMILES IDX 16 15 17 16 19 17 15 18 18 19 2 20 3 21 1 22
REMARK H PARENT 20 10 10 11
ROOT
ATOM      1  C   UNL     1       9.126  -4.121  -7.235  1.00  0.00     0.060 A 
ATOM      2  C   UNL     1       9.496  -2.838  -7.560  1.00  0.00     0.066 A 
ATOM      3  C   UNL     1      10.858  -5.024  -8.551  1.00  0.00     0.088 A 
ATOM      4  C   UNL     1       9.897  -5.150  -7.511  1.00  0.00     0.035 A 
ATOM      5  N   UNL     1       7.982  -4.078  -6.345  1.00  0.00    -0.360 N 
ATOM      6  N   UNL     1       8.617  -2.017  -6.848  1.00  0.00    -0.360 N 
ATOM      7  C   UNL     1      11.164  -3.747  -9.015  1.00  0.00     0.271 A 
ATOM      8  C   UNL     1       8.137  -2.833  -5.793  1.00  0.00     0.205 C 
ATOM      9  C   UNL     1      10.474  -2.616  -8.477  1.00  0.00     0.113 A 
ATOM     10  H   UNL     1       7.255  -4.786  -6.175  1.00  0.00     0.163 HD
ATOM     11  H   UNL     1       8.372  -1.037  -7.047  1.00  0.00     0.163 HD
ENDROOT
BRANCH   8  12
ATOM     12  C   UNL     1       6.967  -2.221  -4.972  1.00  0.00    -0.003 A 
ATOM     13  C   UNL     1       5.245  -2.587  -3.231  1.00  0.00     0.042 A 
ATOM     14  C   UNL     1       6.617  -2.711  -3.694  1.00  0.00     0.028 A 
ATOM     15  C   UNL     1       4.451  -1.486  -3.787  1.00  0.00     0.041 A 
ATOM     16  C   UNL     1       5.042  -0.757  -4.904  1.00  0.00     0.042 A 
ATOM     17  C   UNL     1       6.187  -1.195  -5.616  1.00  0.00     0.028 A 
ATOM     18  Cl  UNL     1       4.624  -3.309  -1.997  1.00  0.00    -0.084 Cl
ATOM     19  Cl  UNL     1       4.216   0.650  -5.413  1.00  0.00    -0.084 Cl
ENDBRANCH   8  12
BRANCH   7  20
ATOM     20  N   UNL     1      12.182  -3.480  -9.907  1.00  0.00     0.062 N 
ATOM     21  O   UNL     1      12.626  -2.395  -9.994  1.00  0.00    -0.258 OA
ATOM     22  O   UNL     1      12.857  -4.413 -10.523  1.00  0.00    -0.258 OA
ENDBRANCH   7  20
TORSDOF 2
ENDMDL
MODEL 3
REMARK VINA RESULT:    -4.751      5.106      7.618
REMARK INTER + INTRA:          -5.621
REMARK INTER:                  -5.322
REMARK INTRA:                  -0.299
REMARK UNBOUND:                -0.315
REMARK SMILES O=[N+]([O-])c1ccc2c(c1)N[C@@H](c1cc(Cl)cc(Cl)c1)N2
REMARK SMILES IDX 7 1 8 2 5 3 6 4 20 5 10 6 4 7 11 8 9 9 12 12 14 13 13 14
REMARK SMILES IDX 16 15 17 16 19 17 15 18 18 19 2 20 3 21 1 22
REMARK H PARENT 20 10 10 11
ROOT
ATOM      1  C   UNL     1       6.537  -2.964  -4.916  1.00  0.00     0.060 A 
ATOM      2  C   UNL     1       6.748  -1.642  -5.229  1.00  0.00     0.066 A 
ATOM      3  C   UNL     1       4.587  -2.435  -3.706  1.00  0.00     0.088 A 
ATOM      4  C   UNL     1       5.401  -3.374  -4.395  1.00  0.00     0.035 A 
ATOM      5  N   UNL     1       7.590  -3.768  -5.505  1.00  0.00    -0.360 N 
ATOM      6  N   UNL     1       7.892  -1.639  -6.031  1.00  0.00    -0.360 N 
ATOM      7  C   UNL     1       4.854  -1.079  -3.880  1.00  0.00     0.271 A 
ATOM      8  C   UNL     1       7.979  -2.959  -6.541  1.00  0.00     0.205 C 
ATOM      9  C   UNL     1       5.959  -0.675  -4.693  1.00  0.00     0.113 A 
ATOM     10  H   UNL     1       7.946  -4.692  -5.224  1.00  0.00     0.163 HD
ATOM     11  H   UNL     1       8.531  -0.852  -6.212  1.00  0.00     0.163 HD
ENDROOT
BRANCH   8  12
ATOM     12  C   UNL     1       9.297  -3.283  -7.298  1.00  0.00    -0.003 A 
ATOM     13  C   UNL     1      10.998  -2.505  -8.920  1.00  0.00     0.042 A 
ATOM     14  C   UNL     1      10.164  -2.265  -7.755  1.00  0.00     0.028 A 
ATOM     15  C   UNL     1      11.363  -3.897  -9.203  1.00  0.00     0.041 A 
ATOM     16  C   UNL     1      10.681  -4.921  -8.419  1.00  0.00     0.042 A 
ATOM     17  C   UNL     1       9.549  -4.668  -7.605  1.00  0.00     0.028 A 
ATOM     18  Cl  UNL     1      11.787  -1.426  -9.723  1.00  0.00    -0.084 Cl
ATOM     19  Cl  UNL     1      11.253  -6.521  -8.599  1.00  0.00    -0.084 Cl
ENDBRANCH   8  12
BRANCH   7  20
ATOM     20  N   UNL     1       4.047  -0.071  -3.393  1.00  0.00     0.062 N 
ATOM     21  O   UNL     1       3.936   0.939  -3.984  1.00  0.00    -0.258 OA
ATOM     22  O   UNL     1       3.204  -0.241  -2.411  1.00  0.00    -0.258 OA
ENDBRANCH   7  20
TORSDOF 2
ENDMDL
MODEL 4
REMARK VINA RESULT:    -4.704      4.997      7.640
REMARK INTER + INTRA:          -5.568
REMARK INTER:                  -5.270
REMARK INTRA:                  -0.298
REMARK UNBOUND:                -0.315
REMARK SMILES O=[N+]([O-])c1ccc2c(c1)N[C@@H](c1cc(Cl)cc(Cl)c1)N2
REMARK SMILES IDX 7 1 8 2 5 3 6 4 20 5 10 6 4 7 11 8 9 9 12 12 14 13 13 14
REMARK SMILES IDX 16 15 17 16 19 17 15 18 18 19 2 20 3 21 1 22
REMARK H PARENT 20 10 10 11
ROOT
ATOM      1  C   UNL     1       6.637  -1.504  -5.560  1.00  0.00     0.060 A 
ATOM      2  C   UNL     1       6.363  -2.776  -5.117  1.00  0.00     0.066 A 
ATOM      3  C   UNL     1       5.139  -0.569  -4.000  1.00  0.00     0.088 A 
ATOM      4  C   UNL     1       6.240  -0.443  -4.890  1.00  0.00     0.035 A 
ATOM      5  N   UNL     1       7.613  -1.569  -6.629  1.00  0.00    -0.360 N 
ATOM      6  N   UNL     1       7.189  -3.608  -5.878  1.00  0.00    -0.360 N 
ATOM      7  C   UNL     1       4.732  -1.849  -3.633  1.00  0.00     0.271 A 
ATOM      8  C   UNL     1       8.227  -2.760  -6.341  1.00  0.00     0.205 C 
ATOM      9  C   UNL     1       5.389  -2.988  -4.194  1.00  0.00     0.113 A 
ATOM     10  H   UNL     1       7.796  -0.904  -7.394  1.00  0.00     0.163 HD
ATOM     11  H   UNL     1       7.069  -4.614  -6.062  1.00  0.00     0.163 HD
ENDROOT
BRANCH   8  12
ATOM     12  C   UNL     1       9.170  -3.398  -7.399  1.00  0.00    -0.003 A 
ATOM     13  C   UNL     1      10.381  -5.428  -8.137  1.00  0.00     0.042 A 
ATOM     14  C   UNL     1       9.168  -4.788  -7.658  1.00  0.00     0.028 A 
ATOM     15  C   UNL     1      11.327  -4.591  -8.883  1.00  0.00     0.041 A 
ATOM     16  C   UNL     1      11.063  -3.156  -8.886  1.00  0.00     0.042 A 
ATOM     17  C   UNL     1      10.122  -2.524  -8.036  1.00  0.00     0.028 A 
ATOM     18  Cl  UNL     1      10.645  -6.963  -8.201  1.00  0.00    -0.084 Cl
ATOM     19  Cl  UNL     1      12.037  -2.208  -9.922  1.00  0.00    -0.084 Cl
ENDBRANCH   8  12
BRANCH   7  20
ATOM     20  N   UNL     1       3.782  -2.101  -2.664  1.00  0.00     0.062 N 
ATOM     21  O   UNL     1       2.896  -1.348  -2.492  1.00  0.00    -0.258 OA
ATOM     22  O   UNL     1       3.667  -3.251  -2.057  1.00  0.00    -0.258 OA
ENDBRANCH   7  20
TORSDOF 2
ENDMDL
MODEL 5
REMARK VINA RESULT:    -4.493      0.645      2.096
REMARK INTER + INTRA:          -5.333
REMARK INTER:                  -5.033
REMARK INTRA:                  -0.300
REMARK UNBOUND:                -0.315
REMARK SMILES O=[N+]([O-])c1ccc2c(c1)N[C@@H](c1cc(Cl)cc(Cl)c1)N2
REMARK SMILES IDX 7 1 8 2 5 3 6 4 20 5 10 6 4 7 11 8 9 9 12 12 14 13 13 14
REMARK SMILES IDX 16 15 17 16 19 17 15 18 18 19 2 20 3 21 1 22
REMARK H PARENT 20 10 10 11
ROOT
ATOM      1  C   UNL     1       9.698  -3.131  -7.503  1.00  0.00     0.060 A 
ATOM      2  C   UNL     1       9.223  -4.363  -7.121  1.00  0.00     0.066 A 
ATOM      3  C   UNL     1      11.268  -4.115  -8.958  1.00  0.00     0.088 A 
ATOM      4  C   UNL     1      10.502  -2.995  -8.535  1.00  0.00     0.035 A 
ATOM      5  N   UNL     1       8.961  -2.097  -6.804  1.00  0.00    -0.360 N 
ATOM      6  N   UNL     1       8.183  -4.088  -6.229  1.00  0.00    -0.360 N 
ATOM      7  C   UNL     1      10.911  -5.374  -8.482  1.00  0.00     0.271 A 
ATOM      8  C   UNL     1       7.793  -2.759  -6.529  1.00  0.00     0.205 C 
ATOM      9  C   UNL     1       9.833  -5.498  -7.551  1.00  0.00     0.113 A 
ATOM     10  H   UNL     1       9.238  -1.131  -6.578  1.00  0.00     0.163 HD
ATOM     11  H   UNL     1       7.788  -4.713  -5.512  1.00  0.00     0.163 HD
ENDROOT
BRANCH   8  12
ATOM     12  C   UNL     1       6.787  -2.129  -5.525  1.00  0.00    -0.003 A 
ATOM     13  C   UNL     1       5.379  -2.470  -3.517  1.00  0.00     0.042 A 
ATOM     14  C   UNL     1       6.651  -2.614  -4.204  1.00  0.00     0.028 A 
ATOM     15  C   UNL     1       4.518  -1.357  -3.934  1.00  0.00     0.041 A 
ATOM     16  C   UNL     1       4.923  -0.638  -5.136  1.00  0.00     0.042 A 
ATOM     17  C   UNL     1       5.925  -1.092  -6.030  1.00  0.00     0.028 A 
ATOM     18  Cl  UNL     1       4.964  -3.183  -2.194  1.00  0.00    -0.084 Cl
ATOM     19  Cl  UNL     1       4.043   0.781  -5.502  1.00  0.00    -0.084 Cl
ENDBRANCH   8  12
BRANCH   7  20
ATOM     20  N   UNL     1      11.475  -6.551  -8.932  1.00  0.00     0.062 N 
ATOM     21  O   UNL     1      10.931  -7.577  -8.750  1.00  0.00    -0.258 OA
ATOM     22  O   UNL     1      12.484  -6.590  -9.759  1.00  0.00    -0.258 OA
ENDBRANCH   7  20
TORSDOF 2
ENDMDL
MODEL 6
REMARK VINA RESULT:    -4.475      1.363      2.047
REMARK INTER + INTRA:          -5.313
REMARK INTER:                  -5.014
REMARK INTRA:                  -0.299
REMARK UNBOUND:                -0.315
REMARK SMILES O=[N+]([O-])c1ccc2c(c1)N[C@@H](c1cc(Cl)cc(Cl)c1)N2
REMARK SMILES IDX 7 1 8 2 5 3 6 4 20 5 10 6 4 7 11 8 9 9 12 12 14 13 13 14
REMARK SMILES IDX 16 15 17 16 19 17 15 18 18 19 2 20 3 21 1 22
REMARK H PARENT 20 10 10 11
ROOT
ATOM      1  C   UNL     1       9.280  -3.797  -7.594  1.00  0.00     0.060 A 
ATOM      2  C   UNL     1       9.458  -2.446  -7.770  1.00  0.00     0.066 A 
ATOM      3  C   UNL     1      11.182  -4.285  -8.894  1.00  0.00     0.088 A 
ATOM      4  C   UNL     1      10.213  -4.663  -7.926  1.00  0.00     0.035 A 
ATOM      5  N   UNL     1       8.109  -4.021  -6.769  1.00  0.00    -0.360 N 
ATOM      6  N   UNL     1       8.434  -1.847  -7.032  1.00  0.00    -0.360 N 
ATOM      7  C   UNL     1      11.303  -2.934  -9.213  1.00  0.00     0.271 A 
ATOM      8  C   UNL     1       8.046  -2.833  -6.089  1.00  0.00     0.205 C 
ATOM      9  C   UNL     1      10.425  -1.984  -8.606  1.00  0.00     0.113 A 
ATOM     10  H   UNL     1       7.495  -4.846  -6.709  1.00  0.00     0.163 HD
ATOM     11  H   UNL     1       8.047  -0.900  -7.147  1.00  0.00     0.163 HD
ENDROOT
BRANCH   8  12
ATOM     12  C   UNL     1       6.763  -2.494  -5.279  1.00  0.00    -0.003 A 
ATOM     13  C   UNL     1       5.023  -0.809  -4.766  1.00  0.00     0.042 A 
ATOM     14  C   UNL     1       5.826  -1.539  -5.733  1.00  0.00     0.028 A 
ATOM     15  C   UNL     1       4.768  -1.467  -3.479  1.00  0.00     0.041 A 
ATOM     16  C   UNL     1       5.519  -2.689  -3.214  1.00  0.00     0.042 A 
ATOM     17  C   UNL     1       6.620  -3.124  -3.991  1.00  0.00     0.028 A 
ATOM     18  Cl  UNL     1       4.163   0.458  -5.056  1.00  0.00    -0.084 Cl
ATOM     19  Cl  UNL     1       5.071  -3.565  -1.816  1.00  0.00    -0.084 Cl
ENDBRANCH   8  12
BRANCH   7  20
ATOM     20  N   UNL     1      12.302  -2.424 -10.017  1.00  0.00     0.062 N 
ATOM     21  O   UNL     1      12.528  -1.270 -10.023  1.00  0.00    -0.258 OA
ATOM     22  O   UNL     1      13.184  -3.171 -10.624  1.00  0.00    -0.258 OA
ENDBRANCH   7  20
TORSDOF 2
ENDMDL
MODEL 7
REMARK VINA RESULT:    -4.037      2.968      4.295
REMARK INTER + INTRA:          -4.823
REMARK INTER:                  -4.519
REMARK INTRA:                  -0.304
REMARK UNBOUND:                -0.315
REMARK SMILES O=[N+]([O-])c1ccc2c(c1)N[C@@H](c1cc(Cl)cc(Cl)c1)N2
REMARK SMILES IDX 7 1 8 2 5 3 6 4 20 5 10 6 4 7 11 8 9 9 12 12 14 13 13 14
REMARK SMILES IDX 16 15 17 16 19 17 15 18 18 19 2 20 3 21 1 22
REMARK H PARENT 20 10 10 11
ROOT
ATOM      1  C   UNL     1      10.810  -6.528  -8.298  1.00  0.00     0.060 A 
ATOM      2  C   UNL     1       9.554  -7.045  -8.504  1.00  0.00     0.066 A 
ATOM      3  C   UNL     1      11.805  -8.287  -9.508  1.00  0.00     0.088 A 
ATOM      4  C   UNL     1      11.856  -6.977  -8.958  1.00  0.00     0.035 A 
ATOM      5  N   UNL     1      10.703  -5.309  -7.521  1.00  0.00    -0.360 N 
ATOM      6  N   UNL     1       8.684  -6.136  -7.895  1.00  0.00    -0.360 N 
ATOM      7  C   UNL     1      10.564  -8.913  -9.606  1.00  0.00     0.271 A 
ATOM      8  C   UNL     1       9.421  -4.927  -7.820  1.00  0.00     0.205 C 
ATOM      9  C   UNL     1       9.398  -8.252  -9.109  1.00  0.00     0.113 A 
ATOM     10  H   UNL     1      11.398  -4.854  -6.912  1.00  0.00     0.163 HD
ATOM     11  H   UNL     1       7.721  -6.307  -7.572  1.00  0.00     0.163 HD
ENDROOT
BRANCH   8  12
ATOM     12  C   UNL     1       8.752  -3.804  -6.980  1.00  0.00    -0.003 A 
ATOM     13  C   UNL     1       8.455  -2.791  -4.740  1.00  0.00     0.042 A 
ATOM     14  C   UNL     1       9.320  -3.339  -5.772  1.00  0.00     0.028 A 
ATOM     15  C   UNL     1       7.187  -2.198  -5.178  1.00  0.00     0.041 A 
ATOM     16  C   UNL     1       6.819  -2.407  -6.574  1.00  0.00     0.042 A 
ATOM     17  C   UNL     1       7.472  -3.325  -7.434  1.00  0.00     0.028 A 
ATOM     18  Cl  UNL     1       8.859  -2.501  -3.263  1.00  0.00    -0.084 Cl
ATOM     19  Cl  UNL     1       5.454  -1.545  -7.136  1.00  0.00    -0.084 Cl
ENDBRANCH   8  12
BRANCH   7  20
ATOM     20  N   UNL     1      10.362 -10.113 -10.257  1.00  0.00     0.062 N 
ATOM     21  O   UNL     1      10.328 -11.119  -9.649  1.00  0.00    -0.258 OA
ATOM     22  O   UNL     1       9.979 -10.196 -11.502  1.00  0.00    -0.258 OA
ENDBRANCH   7  20
TORSDOF 2
ENDMDL
MODEL 8
REMARK VINA RESULT:    -3.684      4.135      6.028
REMARK INTER + INTRA:          -4.430
REMARK INTER:                  -4.122
REMARK INTRA:                  -0.308
REMARK UNBOUND:                -0.315
REMARK SMILES O=[N+]([O-])c1ccc2c(c1)N[C@@H](c1cc(Cl)cc(Cl)c1)N2
REMARK SMILES IDX 7 1 8 2 5 3 6 4 20 5 10 6 4 7 11 8 9 9 12 12 14 13 13 14
REMARK SMILES IDX 16 15 17 16 19 17 15 18 18 19 2 20 3 21 1 22
REMARK H PARENT 20 10 10 11
ROOT
ATOM      1  C   UNL     1      10.175  -8.310  -9.456  1.00  0.00     0.060 A 
ATOM      2  C   UNL     1      11.508  -7.974  -9.484  1.00  0.00     0.066 A 
ATOM      3  C   UNL     1      10.638 -10.479 -10.250  1.00  0.00     0.088 A 
ATOM      4  C   UNL     1       9.777  -9.556  -9.596  1.00  0.00     0.035 A 
ATOM      5  N   UNL     1       9.407  -7.176  -8.981  1.00  0.00    -0.360 N 
ATOM      6  N   UNL     1      11.561  -6.666  -8.996  1.00  0.00    -0.360 N 
ATOM      7  C   UNL     1      11.972 -10.122 -10.429  1.00  0.00     0.271 A 
ATOM      8  C   UNL     1      10.360  -6.507  -8.259  1.00  0.00     0.205 C 
ATOM      9  C   UNL     1      12.422  -8.834 -10.005  1.00  0.00     0.113 A 
ATOM     10  H   UNL     1       8.418  -6.939  -9.141  1.00  0.00     0.163 HD
ATOM     11  H   UNL     1      12.307  -5.971  -9.140  1.00  0.00     0.163 HD
ENDROOT
BRANCH   8  12
ATOM     12  C   UNL     1      10.069  -5.055  -7.787  1.00  0.00    -0.003 A 
ATOM     13  C   UNL     1       8.441  -3.502  -6.752  1.00  0.00     0.042 A 
ATOM     14  C   UNL     1       9.136  -4.778  -6.762  1.00  0.00     0.028 A 
ATOM     15  C   UNL     1       9.121  -2.368  -7.389  1.00  0.00     0.041 A 
ATOM     16  C   UNL     1      10.324  -2.678  -8.155  1.00  0.00     0.042 A 
ATOM     17  C   UNL     1      10.718  -3.992  -8.511  1.00  0.00     0.028 A 
ATOM     18  Cl  UNL     1       7.197  -3.140  -5.887  1.00  0.00    -0.084 Cl
ATOM     19  Cl  UNL     1      11.229  -1.342  -8.719  1.00  0.00    -0.084 Cl
ENDBRANCH   8  12
BRANCH   7  20
ATOM     20  N   UNL     1      12.937 -10.985 -10.909  1.00  0.00     0.062 N 
ATOM     21  O   UNL     1      13.429 -10.800 -11.960  1.00  0.00    -0.258 OA
ATOM     22  O   UNL     1      13.517 -11.892 -10.170  1.00  0.00    -0.258 OA
ENDBRANCH   7  20
TORSDOF 2
ENDMDL
MODEL 9
REMARK VINA RESULT:    -3.387      5.192      7.664
REMARK INTER + INTRA:          -4.098
REMARK INTER:                  -3.802
REMARK INTRA:                  -0.295
REMARK UNBOUND:                -0.315
REMARK SMILES O=[N+]([O-])c1ccc2c(c1)N[C@@H](c1cc(Cl)cc(Cl)c1)N2
REMARK SMILES IDX 7 1 8 2 5 3 6 4 20 5 10 6 4 7 11 8 9 9 12 12 14 13 13 14
REMARK SMILES IDX 16 15 17 16 19 17 15 18 18 19 2 20 3 21 1 22
REMARK H PARENT 20 10 10 11
ROOT
ATOM      1  C   UNL     1       8.932  -3.411  -6.004  1.00  0.00     0.060 A 
ATOM      2  C   UNL     1       8.025  -3.258  -7.026  1.00  0.00     0.066 A 
ATOM      3  C   UNL     1       7.780  -1.857  -4.661  1.00  0.00     0.088 A 
ATOM      4  C   UNL     1       8.700  -2.930  -4.802  1.00  0.00     0.035 A 
ATOM      5  N   UNL     1       9.940  -4.375  -6.400  1.00  0.00    -0.360 N 
ATOM      6  N   UNL     1       8.449  -4.145  -8.020  1.00  0.00    -0.360 N 
ATOM      7  C   UNL     1       6.932  -1.571  -5.729  1.00  0.00     0.271 A 
ATOM      8  C   UNL     1       9.248  -5.096  -7.337  1.00  0.00     0.205 C 
ATOM      9  C   UNL     1       7.047  -2.320  -6.941  1.00  0.00     0.113 A 
ATOM     10  H   UNL     1      10.909  -4.487  -6.068  1.00  0.00     0.163 HD
ATOM     11  H   UNL     1       8.229  -4.114  -9.025  1.00  0.00     0.163 HD
ENDROOT
BRANCH   8  12
ATOM     12  C   UNL     1      10.025  -6.079  -8.258  1.00  0.00    -0.003 A 
ATOM     13  C   UNL     1      10.174  -8.372  -9.181  1.00  0.00     0.042 A 
ATOM     14  C   UNL     1       9.393  -7.187  -8.866  1.00  0.00     0.028 A 
ATOM     15  C   UNL     1      11.609  -8.180  -9.421  1.00  0.00     0.041 A 
ATOM     16  C   UNL     1      12.149  -6.861  -9.110  1.00  0.00     0.042 A 
ATOM     17  C   UNL     1      11.445  -5.869  -8.384  1.00  0.00     0.028 A 
ATOM     18  Cl  UNL     1       9.605  -9.767  -9.581  1.00  0.00    -0.084 Cl
ATOM     19  Cl  UNL     1      13.767  -6.574  -9.583  1.00  0.00    -0.084 Cl
ENDBRANCH   8  12
BRANCH   7  20
ATOM     20  N   UNL     1       5.898  -0.660  -5.663  1.00  0.00     0.062 N 
ATOM     21  O   UNL     1       5.941   0.232  -4.898  1.00  0.00    -0.258 OA
ATOM     22  O   UNL     1       4.950  -0.586  -6.558  1.00  0.00    -0.258 OA
ENDBRANCH   7  20
TORSDOF 2
ENDMDL
