MODEL 1
REMARK VINA RESULT:    -4.500      0.000      0.000
REMARK INTER + INTRA:          -5.341
REMARK INTER:                  -5.027
REMARK INTRA:                  -0.315
REMARK UNBOUND:                -0.315
REMARK SMILES O=[N+]([O-])c1ccc2c(c1)N[C@@H](c1cc(Cl)cc(Cl)c1)N2
REMARK SMILES IDX 7 1 8 2 5 3 6 4 20 5 10 6 4 7 11 8 9 9 12 12 14 13 13 14
REMARK SMILES IDX 16 15 17 16 19 17 15 18 18 19 2 20 3 21 1 22
REMARK H PARENT 20 10 10 11
ROOT
ATOM      1  C   UNL     1      10.903  -4.531  -3.344  1.00  0.00     0.060 A 
ATOM      2  C   UNL     1      11.335  -4.351  -2.052  1.00  0.00     0.066 A 
ATOM      3  C   UNL     1      13.020  -5.317  -4.012  1.00  0.00     0.088 A 
ATOM      4  C   UNL     1      11.619  -5.199  -4.222  1.00  0.00     0.035 A 
ATOM      5  N   UNL     1       9.509  -4.145  -3.440  1.00  0.00    -0.360 N 
ATOM      6  N   UNL     1      10.211  -3.898  -1.355  1.00  0.00    -0.360 N 
ATOM      7  C   UNL     1      13.526  -5.007  -2.752  1.00  0.00     0.271 A 
ATOM      8  C   UNL     1       9.107  -4.315  -2.141  1.00  0.00     0.205 C 
ATOM      9  C   UNL     1      12.643  -4.533  -1.733  1.00  0.00     0.113 A 
ATOM     10  H   UNL     1       8.968  -3.830  -4.258  1.00  0.00     0.163 HD
ATOM     11  H   UNL     1      10.190  -3.375  -0.468  1.00  0.00     0.163 HD
ENDROOT
BRANCH   8  12
ATOM     12  C   UNL     1       7.732  -3.744  -1.694  1.00  0.00    -0.003 A 
ATOM     13  C   UNL     1       5.330  -3.473  -2.231  1.00  0.00     0.042 A 
ATOM     14  C   UNL     1       6.513  -4.311  -2.130  1.00  0.00     0.028 A 
ATOM     15  C   UNL     1       5.269  -2.298  -1.353  1.00  0.00     0.041 A 
ATOM     16  C   UNL     1       6.489  -1.966  -0.625  1.00  0.00     0.042 A 
ATOM     17  C   UNL     1       7.753  -2.545  -0.895  1.00  0.00     0.028 A 
ATOM     18  Cl  UNL     1       3.998  -3.847  -2.949  1.00  0.00    -0.084 Cl
ATOM     19  Cl  UNL     1       6.358  -0.731   0.549  1.00  0.00    -0.084 Cl
ENDBRANCH   8  12
BRANCH   7  20
ATOM     20  N   UNL     1      14.837  -5.226  -2.378  1.00  0.00     0.062 N 
ATOM     21  O   UNL     1      15.129  -5.277  -1.241  1.00  0.00    -0.258 OA
ATOM     22  O   UNL     1      15.765  -5.607  -3.214  1.00  0.00    -0.258 OA
ENDBRANCH   7  20
TORSDOF 2
ENDMDL
MODEL 2
REMARK VINA RESULT:    -4.489      0.970      2.636
REMARK INTER + INTRA:          -5.328
REMARK INTER:                  -5.013
REMARK INTRA:                  -0.315
REMARK UNBOUND:                -0.315
REMARK SMILES O=[N+]([O-])c1ccc2c(c1)N[C@@H](c1cc(Cl)cc(Cl)c1)N2
REMARK SMILES IDX 7 1 8 2 5 3 6 4 20 5 10 6 4 7 11 8 9 9 12 12 14 13 13 14
REMARK SMILES IDX 16 15 17 16 19 17 15 18 18 19 2 20 3 21 1 22
REMARK H PARENT 20 10 10 11
ROOT
ATOM      1  C   UNL     1      11.284  -4.329  -1.786  1.00  0.00     0.060 A 
ATOM      2  C   UNL     1      11.040  -4.569  -3.117  1.00  0.00     0.066 A 
ATOM      3  C   UNL     1      13.561  -4.876  -2.038  1.00  0.00     0.088 A 
ATOM      4  C   UNL     1      12.510  -4.249  -1.316  1.00  0.00     0.035 A 
ATOM      5  N   UNL     1      10.053  -3.917  -1.141  1.00  0.00    -0.360 N 
ATOM      6  N   UNL     1       9.686  -4.271  -3.296  1.00  0.00    -0.360 N 
ATOM      7  C   UNL     1      13.316  -5.268  -3.352  1.00  0.00     0.271 A 
ATOM      8  C   UNL     1       9.359  -3.416  -2.212  1.00  0.00     0.205 C 
ATOM      9  C   UNL     1      12.014  -5.081  -3.914  1.00  0.00     0.113 A 
ATOM     10  H   UNL     1       9.776  -3.981  -0.151  1.00  0.00     0.163 HD
ATOM     11  H   UNL     1       9.064  -4.599  -4.047  1.00  0.00     0.163 HD
ENDROOT
BRANCH   8  12
ATOM     12  C   UNL     1       7.844  -3.110  -2.054  1.00  0.00    -0.003 A 
ATOM     13  C   UNL     1       6.070  -2.110  -0.645  1.00  0.00     0.042 A 
ATOM     14  C   UNL     1       7.380  -2.030  -1.269  1.00  0.00     0.028 A 
ATOM     15  C   UNL     1       5.072  -2.966  -1.297  1.00  0.00     0.041 A 
ATOM     16  C   UNL     1       5.554  -3.817  -2.379  1.00  0.00     0.042 A 
ATOM     17  C   UNL     1       6.924  -4.039  -2.661  1.00  0.00     0.028 A 
ATOM     18  Cl  UNL     1       5.522  -1.162   0.464  1.00  0.00    -0.084 Cl
ATOM     19  Cl  UNL     1       4.361  -4.654  -3.273  1.00  0.00    -0.084 Cl
ENDBRANCH   8  12
BRANCH   7  20
ATOM     20  N   UNL     1      14.291  -5.745  -4.203  1.00  0.00     0.062 N 
ATOM     21  O   UNL     1      14.120  -5.736  -5.366  1.00  0.00    -0.258 OA
ATOM     22  O   UNL     1      15.510  -6.011  -3.818  1.00  0.00    -0.258 OA
ENDBRANCH   7  20
TORSDOF 2
ENDMDL
MODEL 3
REMARK VINA RESULT:    -4.461      5.137      7.602
REMARK INTER + INTRA:          -5.297
REMARK INTER:                  -4.998
REMARK INTRA:                  -0.299
REMARK UNBOUND:                -0.315
REMARK SMILES O=[N+]([O-])c1ccc2c(c1)N[C@@H](c1cc(Cl)cc(Cl)c1)N2
REMARK SMILES IDX 7 1 8 2 5 3 6 4 20 5 10 6 4 7 11 8 9 9 12 12 14 13 13 14
REMARK SMILES IDX 16 15 17 16 19 17 15 18 18 19 2 20 3 21 1 22
REMARK H PARENT 20 10 10 11
ROOT
ATOM      1  C   UNL     1       7.852  -2.739  -1.232  1.00  0.00     0.060 A 
ATOM      2  C   UNL     1       7.376  -3.304  -2.391  1.00  0.00     0.066 A 
ATOM      3  C   UNL     1       5.669  -2.227  -0.508  1.00  0.00     0.088 A 
ATOM      4  C   UNL     1       7.048  -2.436  -0.235  1.00  0.00     0.035 A 
ATOM      5  N   UNL     1       9.298  -2.828  -1.215  1.00  0.00    -0.360 N 
ATOM      6  N   UNL     1       8.512  -3.768  -3.059  1.00  0.00    -0.360 N 
ATOM      7  C   UNL     1       5.168  -2.657  -1.735  1.00  0.00     0.271 A 
ATOM      8  C   UNL     1       9.497  -3.899  -2.047  1.00  0.00     0.205 C 
ATOM      9  C   UNL     1       6.054  -3.239  -2.695  1.00  0.00     0.113 A 
ATOM     10  H   UNL     1       9.987  -2.248  -0.715  1.00  0.00     0.163 HD
ATOM     11  H   UNL     1       8.612  -3.970  -4.064  1.00  0.00     0.163 HD
ENDROOT
BRANCH   8  12
ATOM     12  C   UNL     1      10.932  -4.196  -2.565  1.00  0.00    -0.003 A 
ATOM     13  C   UNL     1      12.322  -5.190  -4.357  1.00  0.00     0.042 A 
ATOM     14  C   UNL     1      11.210  -4.352  -3.942  1.00  0.00     0.028 A 
ATOM     15  C   UNL     1      13.432  -5.343  -3.409  1.00  0.00     0.041 A 
ATOM     16  C   UNL     1      13.216  -4.818  -2.066  1.00  0.00     0.042 A 
ATOM     17  C   UNL     1      11.953  -4.407  -1.571  1.00  0.00     0.028 A 
ATOM     18  Cl  UNL     1      12.598  -5.699  -5.805  1.00  0.00    -0.084 Cl
ATOM     19  Cl  UNL     1      14.575  -4.807  -1.029  1.00  0.00    -0.084 Cl
ENDBRANCH   8  12
BRANCH   7  20
ATOM     20  N   UNL     1       3.827  -2.651  -2.058  1.00  0.00     0.062 N 
ATOM     21  O   UNL     1       3.071  -1.996  -1.440  1.00  0.00    -0.258 OA
ATOM     22  O   UNL     1       3.354  -3.162  -3.163  1.00  0.00    -0.258 OA
ENDBRANCH   7  20
TORSDOF 2
ENDMDL
MODEL 4
REMARK VINA RESULT:    -4.438      5.014      7.652
REMARK INTER + INTRA:          -5.272
REMARK INTER:                  -4.974
REMARK INTRA:                  -0.298
REMARK UNBOUND:                -0.315
REMARK SMILES O=[N+]([O-])c1ccc2c(c1)N[C@@H](c1cc(Cl)cc(Cl)c1)N2
REMARK SMILES IDX 7 1 8 2 5 3 6 4 20 5 10 6 4 7 11 8 9 9 12 12 14 13 13 14
REMARK SMILES IDX 16 15 17 16 19 17 15 18 18 19 2 20 3 21 1 22
REMARK H PARENT 20 10 10 11
ROOT
ATOM      1  C   UNL     1       7.476  -3.531  -2.574  1.00  0.00     0.060 A 
ATOM      2  C   UNL     1       7.715  -3.386  -1.228  1.00  0.00     0.066 A 
ATOM      3  C   UNL     1       5.323  -2.599  -2.358  1.00  0.00     0.088 A 
ATOM      4  C   UNL     1       6.445  -2.956  -3.155  1.00  0.00     0.035 A 
ATOM      5  N   UNL     1       8.638  -4.123  -3.205  1.00  0.00    -0.360 N 
ATOM      6  N   UNL     1       9.021  -3.847  -1.042  1.00  0.00    -0.360 N 
ATOM      7  C   UNL     1       5.478  -2.576  -0.974  1.00  0.00     0.271 A 
ATOM      8  C   UNL     1       9.621  -3.756  -2.323  1.00  0.00     0.205 C 
ATOM      9  C   UNL     1       6.729  -2.959  -0.397  1.00  0.00     0.113 A 
ATOM     10  H   UNL     1       8.708  -4.669  -4.075  1.00  0.00     0.163 HD
ATOM     11  H   UNL     1       9.451  -4.179  -0.167  1.00  0.00     0.163 HD
ENDROOT
BRANCH   8  12
ATOM     12  C   UNL     1      11.023  -4.417  -2.437  1.00  0.00    -0.003 A 
ATOM     13  C   UNL     1      13.284  -4.660  -1.456  1.00  0.00     0.042 A 
ATOM     14  C   UNL     1      11.839  -4.634  -1.304  1.00  0.00     0.028 A 
ATOM     15  C   UNL     1      13.809  -5.056  -2.768  1.00  0.00     0.041 A 
ATOM     16  C   UNL     1      12.835  -5.176  -3.848  1.00  0.00     0.042 A 
ATOM     17  C   UNL     1      11.500  -4.709  -3.765  1.00  0.00     0.028 A 
ATOM     18  Cl  UNL     1      14.331  -4.601  -0.303  1.00  0.00    -0.084 Cl
ATOM     19  Cl  UNL     1      13.410  -5.837  -5.316  1.00  0.00    -0.084 Cl
ENDBRANCH   8  12
BRANCH   7  20
ATOM     20  N   UNL     1       4.517  -2.103  -0.104  1.00  0.00     0.062 N 
ATOM     21  O   UNL     1       4.829  -1.480   0.842  1.00  0.00    -0.258 OA
ATOM     22  O   UNL     1       3.240  -2.108  -0.377  1.00  0.00    -0.258 OA
ENDBRANCH   7  20
TORSDOF 2
ENDMDL
MODEL 5
REMARK VINA RESULT:    -4.414      5.032      7.449
REMARK INTER + INTRA:          -5.245
REMARK INTER:                  -4.929
REMARK INTRA:                  -0.317
REMARK UNBOUND:                -0.315
REMARK SMILES O=[N+]([O-])c1ccc2c(c1)N[C@@H](c1cc(Cl)cc(Cl)c1)N2
REMARK SMILES IDX 7 1 8 2 5 3 6 4 20 5 10 6 4 7 11 8 9 9 12 12 14 13 13 14
REMARK SMILES IDX 16 15 17 16 19 17 15 18 18 19 2 20 3 21 1 22
REMARK H PARENT 20 10 10 11
ROOT
ATOM      1  C   UNL     1       7.266  -3.895  -2.420  1.00  0.00     0.060 A 
ATOM      2  C   UNL     1       7.612  -3.090  -1.361  1.00  0.00     0.066 A 
ATOM      3  C   UNL     1       4.984  -3.377  -2.155  1.00  0.00     0.088 A 
ATOM      4  C   UNL     1       6.061  -3.859  -2.947  1.00  0.00     0.035 A 
ATOM      5  N   UNL     1       8.464  -4.495  -2.975  1.00  0.00    -0.360 N 
ATOM      6  N   UNL     1       9.005  -3.164  -1.290  1.00  0.00    -0.360 N 
ATOM      7  C   UNL     1       5.285  -2.674  -0.990  1.00  0.00     0.271 A 
ATOM      8  C   UNL     1       9.410  -3.584  -2.583  1.00  0.00     0.205 C 
ATOM      9  C   UNL     1       6.650  -2.506  -0.600  1.00  0.00     0.113 A 
ATOM     10  H   UNL     1       8.574  -5.365  -3.515  1.00  0.00     0.163 HD
ATOM     11  H   UNL     1       9.605  -2.960  -0.478  1.00  0.00     0.163 HD
ENDROOT
BRANCH   8  12
ATOM     12  C   UNL     1      10.914  -3.956  -2.709  1.00  0.00    -0.003 A 
ATOM     13  C   UNL     1      12.652  -5.133  -4.022  1.00  0.00     0.042 A 
ATOM     14  C   UNL     1      11.509  -4.238  -3.959  1.00  0.00     0.028 A 
ATOM     15  C   UNL     1      13.493  -5.226  -2.823  1.00  0.00     0.041 A 
ATOM     16  C   UNL     1      12.981  -4.580  -1.619  1.00  0.00     0.042 A 
ATOM     17  C   UNL     1      11.655  -4.101  -1.482  1.00  0.00     0.028 A 
ATOM     18  Cl  UNL     1      13.248  -5.773  -5.313  1.00  0.00    -0.084 Cl
ATOM     19  Cl  UNL     1      14.049  -4.507  -0.287  1.00  0.00    -0.084 Cl
ENDBRANCH   8  12
BRANCH   7  20
ATOM     20  N   UNL     1       4.339  -2.027  -0.221  1.00  0.00     0.062 N 
ATOM     21  O   UNL     1       3.200  -2.093  -0.502  1.00  0.00    -0.258 OA
ATOM     22  O   UNL     1       4.599  -1.515   0.952  1.00  0.00    -0.258 OA
ENDBRANCH   7  20
TORSDOF 2
ENDMDL
MODEL 6
REMARK VINA RESULT:    -4.154      0.775      2.157
REMARK INTER + INTRA:          -4.955
REMARK INTER:                  -4.655
REMARK INTRA:                  -0.300
REMARK UNBOUND:                -0.315
REMARK SMILES O=[N+]([O-])c1ccc2c(c1)N[C@@H](c1cc(Cl)cc(Cl)c1)N2
REMARK SMILES IDX 7 1 8 2 5 3 6 4 20 5 10 6 4 7 11 8 9 9 12 12 14 13 13 14
REMARK SMILES IDX 16 15 17 16 19 17 15 18 18 19 2 20 3 21 1 22
REMARK H PARENT 20 10 10 11
ROOT
ATOM      1  C   UNL     1      11.329  -4.383  -2.925  1.00  0.00     0.060 A 
ATOM      2  C   UNL     1      11.443  -4.186  -1.570  1.00  0.00     0.066 A 
ATOM      3  C   UNL     1      13.555  -5.140  -3.068  1.00  0.00     0.088 A 
ATOM      4  C   UNL     1      12.242  -5.047  -3.602  1.00  0.00     0.035 A 
ATOM      5  N   UNL     1       9.992  -4.021  -3.351  1.00  0.00    -0.360 N 
ATOM      6  N   UNL     1      10.181  -3.745  -1.162  1.00  0.00    -0.360 N 
ATOM      7  C   UNL     1      13.747  -4.812  -1.728  1.00  0.00     0.271 A 
ATOM      8  C   UNL     1       9.299  -4.187  -2.180  1.00  0.00     0.205 C 
ATOM      9  C   UNL     1      12.642  -4.344  -0.950  1.00  0.00     0.113 A 
ATOM     10  H   UNL     1       9.655  -3.721  -4.277  1.00  0.00     0.163 HD
ATOM     11  H   UNL     1       9.944  -3.216  -0.311  1.00  0.00     0.163 HD
ENDROOT
BRANCH   8  12
ATOM     12  C   UNL     1       7.850  -3.635  -2.076  1.00  0.00    -0.003 A 
ATOM     13  C   UNL     1       6.245  -2.263  -0.782  1.00  0.00     0.042 A 
ATOM     14  C   UNL     1       7.557  -2.439  -1.383  1.00  0.00     0.028 A 
ATOM     15  C   UNL     1       5.130  -2.997  -1.390  1.00  0.00     0.041 A 
ATOM     16  C   UNL     1       5.479  -3.994  -2.396  1.00  0.00     0.042 A 
ATOM     17  C   UNL     1       6.800  -4.450  -2.632  1.00  0.00     0.028 A 
ATOM     18  Cl  UNL     1       5.845  -1.158   0.242  1.00  0.00    -0.084 Cl
ATOM     19  Cl  UNL     1       4.176  -4.697  -3.250  1.00  0.00    -0.084 Cl
ENDBRANCH   8  12
BRANCH   7  20
ATOM     20  N   UNL     1      14.935  -5.006  -1.055  1.00  0.00     0.062 N 
ATOM     21  O   UNL     1      14.981  -4.890   0.115  1.00  0.00    -0.258 OA
ATOM     22  O   UNL     1      15.993  -5.536  -1.607  1.00  0.00    -0.258 OA
ENDBRANCH   7  20
TORSDOF 2
ENDMDL
MODEL 7
REMARK VINA RESULT:    -4.138      1.356      2.043
REMARK INTER + INTRA:          -4.937
REMARK INTER:                  -4.637
REMARK INTRA:                  -0.300
REMARK UNBOUND:                -0.315
REMARK SMILES O=[N+]([O-])c1ccc2c(c1)N[C@@H](c1cc(Cl)cc(Cl)c1)N2
REMARK SMILES IDX 7 1 8 2 5 3 6 4 20 5 10 6 4 7 11 8 9 9 12 12 14 13 13 14
REMARK SMILES IDX 16 15 17 16 19 17 15 18 18 19 2 20 3 21 1 22
REMARK H PARENT 20 10 10 11
ROOT
ATOM      1  C   UNL     1      11.361  -4.631  -2.329  1.00  0.00     0.060 A 
ATOM      2  C   UNL     1      10.841  -4.715  -3.598  1.00  0.00     0.066 A 
ATOM      3  C   UNL     1      13.512  -5.201  -3.102  1.00  0.00     0.088 A 
ATOM      4  C   UNL     1      12.659  -4.634  -2.116  1.00  0.00     0.035 A 
ATOM      5  N   UNL     1      10.307  -4.265  -1.404  1.00  0.00    -0.360 N 
ATOM      6  N   UNL     1       9.495  -4.367  -3.460  1.00  0.00    -0.360 N 
ATOM      7  C   UNL     1      12.987  -5.438  -4.370  1.00  0.00     0.271 A 
ATOM      8  C   UNL     1       9.434  -3.632  -2.249  1.00  0.00     0.205 C 
ATOM      9  C   UNL     1      11.609  -5.158  -4.628  1.00  0.00     0.113 A 
ATOM     10  H   UNL     1      10.234  -4.433  -0.390  1.00  0.00     0.163 HD
ATOM     11  H   UNL     1       8.718  -4.595  -4.097  1.00  0.00     0.163 HD
ENDROOT
BRANCH   8  12
ATOM     12  C   UNL     1       7.998  -3.310  -1.750  1.00  0.00    -0.003 A 
ATOM     13  C   UNL     1       5.568  -3.450  -2.204  1.00  0.00     0.042 A 
ATOM     14  C   UNL     1       6.880  -4.073  -2.155  1.00  0.00     0.028 A 
ATOM     15  C   UNL     1       5.336  -2.312  -1.307  1.00  0.00     0.041 A 
ATOM     16  C   UNL     1       6.506  -1.783  -0.613  1.00  0.00     0.042 A 
ATOM     17  C   UNL     1       7.841  -2.133  -0.933  1.00  0.00     0.028 A 
ATOM     18  Cl  UNL     1       4.296  -4.040  -2.884  1.00  0.00    -0.084 Cl
ATOM     19  Cl  UNL     1       6.205  -0.601   0.585  1.00  0.00    -0.084 Cl
ENDBRANCH   8  12
BRANCH   7  20
ATOM     20  N   UNL     1      13.746  -5.840  -5.450  1.00  0.00     0.062 N 
ATOM     21  O   UNL     1      13.291  -5.825  -6.534  1.00  0.00    -0.258 OA
ATOM     22  O   UNL     1      15.036  -6.033  -5.386  1.00  0.00    -0.258 OA
ENDBRANCH   7  20
TORSDOF 2
ENDMDL
MODEL 8
REMARK VINA RESULT:    -3.681      2.805      4.019
REMARK INTER + INTRA:          -4.426
REMARK INTER:                  -4.121
REMARK INTRA:                  -0.305
REMARK UNBOUND:                -0.315
REMARK SMILES O=[N+]([O-])c1ccc2c(c1)N[C@@H](c1cc(Cl)cc(Cl)c1)N2
REMARK SMILES IDX 7 1 8 2 5 3 6 4 20 5 10 6 4 7 11 8 9 9 12 12 14 13 13 14
REMARK SMILES IDX 16 15 17 16 19 17 15 18 18 19 2 20 3 21 1 22
REMARK H PARENT 20 10 10 11
ROOT
ATOM      1  C   UNL     1      13.761  -4.527  -0.881  1.00  0.00     0.060 A 
ATOM      2  C   UNL     1      13.094  -5.178   0.129  1.00  0.00     0.066 A 
ATOM      3  C   UNL     1      15.847  -5.255  -0.062  1.00  0.00     0.088 A 
ATOM      4  C   UNL     1      15.038  -4.744  -1.113  1.00  0.00     0.035 A 
ATOM      5  N   UNL     1      12.800  -3.862  -1.738  1.00  0.00    -0.360 N 
ATOM      6  N   UNL     1      11.740  -4.950  -0.127  1.00  0.00    -0.360 N 
ATOM      7  C   UNL     1      15.212  -5.799   1.052  1.00  0.00     0.271 A 
ATOM      8  C   UNL     1      11.683  -4.623  -1.505  1.00  0.00     0.205 C 
ATOM      9  C   UNL     1      13.785  -5.781   1.132  1.00  0.00     0.113 A 
ATOM     10  H   UNL     1      12.921  -3.045  -2.352  1.00  0.00     0.163 HD
ATOM     11  H   UNL     1      10.956  -5.006   0.539  1.00  0.00     0.163 HD
ENDROOT
BRANCH   8  12
ATOM     12  C   UNL     1      10.303  -4.108  -2.000  1.00  0.00    -0.003 A 
ATOM     13  C   UNL     1       8.830  -2.149  -2.356  1.00  0.00     0.042 A 
ATOM     14  C   UNL     1      10.128  -2.791  -2.481  1.00  0.00     0.028 A 
ATOM     15  C   UNL     1       7.654  -3.027  -2.309  1.00  0.00     0.041 A 
ATOM     16  C   UNL     1       7.916  -4.456  -2.176  1.00  0.00     0.042 A 
ATOM     17  C   UNL     1       9.183  -5.002  -1.852  1.00  0.00     0.028 A 
ATOM     18  Cl  UNL     1       8.530  -0.634  -2.563  1.00  0.00    -0.084 Cl
ATOM     19  Cl  UNL     1       6.564  -5.491  -2.332  1.00  0.00    -0.084 Cl
ENDBRANCH   8  12
BRANCH   7  20
ATOM     20  N   UNL     1      15.878  -6.461   2.064  1.00  0.00     0.062 N 
ATOM     21  O   UNL     1      16.175  -5.893   3.049  1.00  0.00    -0.258 OA
ATOM     22  O   UNL     1      16.012  -7.759   2.102  1.00  0.00    -0.258 OA
ENDBRANCH   7  20
TORSDOF 2
ENDMDL
MODEL 9
REMARK VINA RESULT:    -3.499      5.132      7.503
REMARK INTER + INTRA:          -4.223
REMARK INTER:                  -3.927
REMARK INTRA:                  -0.296
REMARK UNBOUND:                -0.315
REMARK SMILES O=[N+]([O-])c1ccc2c(c1)N[C@@H](c1cc(Cl)cc(Cl)c1)N2
REMARK SMILES IDX 7 1 8 2 5 3 6 4 20 5 10 6 4 7 11 8 9 9 12 12 14 13 13 14
REMARK SMILES IDX 16 15 17 16 19 17 15 18 18 19 2 20 3 21 1 22
REMARK H PARENT 20 10 10 11
ROOT
ATOM      1  C   UNL     1       9.832  -4.971  -2.709  1.00  0.00     0.060 A 
ATOM      2  C   UNL     1      10.126  -3.630  -2.785  1.00  0.00     0.066 A 
ATOM      3  C   UNL     1       7.977  -4.552  -1.318  1.00  0.00     0.088 A 
ATOM      4  C   UNL     1       8.691  -5.397  -2.210  1.00  0.00     0.035 A 
ATOM      5  N   UNL     1      10.797  -5.717  -3.492  1.00  0.00    -0.360 N 
ATOM      6  N   UNL     1      11.233  -3.551  -3.634  1.00  0.00    -0.360 N 
ATOM      7  C   UNL     1       8.335  -3.207  -1.256  1.00  0.00     0.271 A 
ATOM      8  C   UNL     1      11.201  -4.756  -4.381  1.00  0.00     0.205 C 
ATOM      9  C   UNL     1       9.432  -2.731  -2.039  1.00  0.00     0.113 A 
ATOM     10  H   UNL     1      11.096  -6.699  -3.404  1.00  0.00     0.163 HD
ATOM     11  H   UNL     1      11.920  -2.787  -3.702  1.00  0.00     0.163 HD
ENDROOT
BRANCH   8  12
ATOM     12  C   UNL     1      12.459  -5.018  -5.255  1.00  0.00    -0.003 A 
ATOM     13  C   UNL     1      13.424  -5.062  -7.536  1.00  0.00     0.042 A 
ATOM     14  C   UNL     1      12.636  -4.396  -6.512  1.00  0.00     0.028 A 
ATOM     15  C   UNL     1      14.459  -5.995  -7.078  1.00  0.00     0.041 A 
ATOM     16  C   UNL     1      14.454  -6.326  -5.657  1.00  0.00     0.042 A 
ATOM     17  C   UNL     1      13.394  -6.003  -4.774  1.00  0.00     0.028 A 
ATOM     18  Cl  UNL     1      13.488  -4.672  -9.044  1.00  0.00    -0.084 Cl
ATOM     19  Cl  UNL     1      15.780  -7.243  -5.088  1.00  0.00    -0.084 Cl
ENDBRANCH   8  12
BRANCH   7  20
ATOM     20  N   UNL     1       7.625  -2.258  -0.549  1.00  0.00     0.062 N 
ATOM     21  O   UNL     1       6.990  -2.570   0.390  1.00  0.00    -0.258 OA
ATOM     22  O   UNL     1       7.783  -0.974  -0.717  1.00  0.00    -0.258 OA
ENDBRANCH   7  20
TORSDOF 2
ENDMDL
