MODEL 1
REMARK VINA RESULT:    -4.284      0.000      0.000
REMARK INTER + INTRA:          -5.075
REMARK INTER:                  -4.785
REMARK INTRA:                  -0.290
REMARK UNBOUND:                -0.290
REMARK SMILES O=[N+]([O-])c1ccc2c(c1)N[C@@H](c1cc(Cl)cc(Cl)c1)N2
REMARK SMILES IDX 7 1 8 2 5 3 6 4 20 5 10 6 4 7 11 8 9 9 12 12 14 13 13 14
REMARK SMILES IDX 16 15 17 16 19 17 15 18 18 19 2 20 3 21 1 22
REMARK H PARENT 20 10 10 11
ROOT
ATOM      1  C   UNL     1       0.996  -1.104  -2.114  1.00  0.00     0.060 A 
ATOM      2  C   UNL     1       1.309  -1.644  -0.890  1.00  0.00     0.066 A 
ATOM      3  C   UNL     1       1.111  -3.217  -3.149  1.00  0.00     0.088 A 
ATOM      4  C   UNL     1       0.676  -1.863  -3.139  1.00  0.00     0.035 A 
ATOM      5  N   UNL     1       0.809   0.327  -1.971  1.00  0.00    -0.360 N 
ATOM      6  N   UNL     1       1.275  -0.567  -0.000  1.00  0.00    -0.360 N 
ATOM      7  C   UNL     1       1.572  -3.769  -1.957  1.00  0.00     0.271 A 
ATOM      8  C   UNL     1       0.473   0.409  -0.645  1.00  0.00     0.205 C 
ATOM      9  C   UNL     1       1.646  -2.956  -0.783  1.00  0.00     0.113 A 
ATOM     10  H   UNL     1       0.902   1.075  -2.673  1.00  0.00     0.163 HD
ATOM     11  H   UNL     1       1.732  -0.497   0.920  1.00  0.00     0.163 HD
ENDROOT
BRANCH   8  12
ATOM     12  C   UNL     1       0.455   1.801   0.044  1.00  0.00    -0.003 A 
ATOM     13  C   UNL     1      -0.641   3.275   1.705  1.00  0.00     0.042 A 
ATOM     14  C   UNL     1      -0.082   1.985   1.338  1.00  0.00     0.028 A 
ATOM     15  C   UNL     1      -0.116   4.453   1.004  1.00  0.00     0.041 A 
ATOM     16  C   UNL     1       0.757   4.194  -0.136  1.00  0.00     0.042 A 
ATOM     17  C   UNL     1       0.919   2.921  -0.735  1.00  0.00     0.028 A 
ATOM     18  Cl  UNL     1      -1.518   3.574   2.959  1.00  0.00    -0.084 Cl
ATOM     19  Cl  UNL     1       1.533   5.555  -0.819  1.00  0.00    -0.084 Cl
ENDBRANCH   8  12
BRANCH   7  20
ATOM     20  N   UNL     1       1.876  -5.106  -1.800  1.00  0.00     0.062 N 
ATOM     21  O   UNL     1       1.145  -5.816  -1.213  1.00  0.00    -0.258 OA
ATOM     22  O   UNL     1       2.831  -5.705  -2.459  1.00  0.00    -0.258 OA
ENDBRANCH   7  20
TORSDOF 2
ENDMDL
MODEL 2
REMARK VINA RESULT:    -4.204      5.102      7.597
REMARK INTER + INTRA:          -4.985
REMARK INTER:                  -4.695
REMARK INTRA:                  -0.290
REMARK UNBOUND:                -0.290
REMARK SMILES O=[N+]([O-])c1ccc2c(c1)N[C@@H](c1cc(Cl)cc(Cl)c1)N2
REMARK SMILES IDX 7 1 8 2 5 3 6 4 20 5 10 6 4 7 11 8 9 9 12 12 14 13 13 14
REMARK SMILES IDX 16 15 17 16 19 17 15 18 18 19 2 20 3 21 1 22
REMARK H PARENT 20 10 10 11
ROOT
ATOM      1  C   UNL     1       1.601   0.508   0.173  1.00  0.00     0.060 A 
ATOM      2  C   UNL     1       0.475   0.708  -0.589  1.00  0.00     0.066 A 
ATOM      3  C   UNL     1       1.243   2.519   1.347  1.00  0.00     0.088 A 
ATOM      4  C   UNL     1       1.846   1.237   1.241  1.00  0.00     0.035 A 
ATOM      5  N   UNL     1       2.230  -0.737  -0.220  1.00  0.00    -0.360 N 
ATOM      6  N   UNL     1       0.392  -0.419  -1.412  1.00  0.00    -0.360 N 
ATOM      7  C   UNL     1       0.184   2.822   0.493  1.00  0.00     0.271 A 
ATOM      8  C   UNL     1       1.157  -1.409  -0.746  1.00  0.00     0.205 C 
ATOM      9  C   UNL     1      -0.226   1.867  -0.489  1.00  0.00     0.113 A 
ATOM     10  H   UNL     1       3.211  -1.036  -0.129  1.00  0.00     0.163 HD
ATOM     11  H   UNL     1      -0.114  -0.509  -2.304  1.00  0.00     0.163 HD
ENDROOT
BRANCH   8  12
ATOM     12  C   UNL     1       1.407  -2.705  -1.566  1.00  0.00    -0.003 A 
ATOM     13  C   UNL     1       0.579  -4.956  -2.185  1.00  0.00     0.042 A 
ATOM     14  C   UNL     1       0.344  -3.535  -1.990  1.00  0.00     0.028 A 
ATOM     15  C   UNL     1       1.948  -5.365  -2.520  1.00  0.00     0.041 A 
ATOM     16  C   UNL     1       2.978  -4.337  -2.415  1.00  0.00     0.042 A 
ATOM     17  C   UNL     1       2.780  -3.080  -1.791  1.00  0.00     0.028 A 
ATOM     18  Cl  UNL     1      -0.514  -6.052  -2.367  1.00  0.00    -0.084 Cl
ATOM     19  Cl  UNL     1       4.528  -4.753  -3.003  1.00  0.00    -0.084 Cl
ENDBRANCH   8  12
BRANCH   7  20
ATOM     20  N   UNL     1      -0.580   3.966   0.598  1.00  0.00     0.062 N 
ATOM     21  O   UNL     1      -1.679   3.909   1.012  1.00  0.00    -0.258 OA
ATOM     22  O   UNL     1      -0.089   5.169   0.474  1.00  0.00    -0.258 OA
ENDBRANCH   7  20
TORSDOF 2
ENDMDL
MODEL 3
REMARK VINA RESULT:    -4.195     14.632     16.079
REMARK INTER + INTRA:          -4.975
REMARK INTER:                  -4.684
REMARK INTRA:                  -0.291
REMARK UNBOUND:                -0.290
REMARK SMILES O=[N+]([O-])c1ccc2c(c1)N[C@@H](c1cc(Cl)cc(Cl)c1)N2
REMARK SMILES IDX 7 1 8 2 5 3 6 4 20 5 10 6 4 7 11 8 9 9 12 12 14 13 13 14
REMARK SMILES IDX 16 15 17 16 19 17 15 18 18 19 2 20 3 21 1 22
REMARK H PARENT 20 10 10 11
ROOT
ATOM      1  C   UNL     1      10.740  -0.347  11.891  1.00  0.00     0.060 A 
ATOM      2  C   UNL     1       9.906   0.702  11.589  1.00  0.00     0.066 A 
ATOM      3  C   UNL     1      11.957   0.974  13.415  1.00  0.00     0.088 A 
ATOM      4  C   UNL     1      11.564  -0.298  12.915  1.00  0.00     0.035 A 
ATOM      5  N   UNL     1      10.344  -1.510  11.121  1.00  0.00    -0.360 N 
ATOM      6  N   UNL     1       8.986   0.181  10.676  1.00  0.00    -0.360 N 
ATOM      7  C   UNL     1      11.225   2.092  13.022  1.00  0.00     0.271 A 
ATOM      8  C   UNL     1       9.025  -1.221  10.885  1.00  0.00     0.205 C 
ATOM      9  C   UNL     1      10.146   1.939  12.097  1.00  0.00     0.113 A 
ATOM     10  H   UNL     1      10.899  -2.327  10.832  1.00  0.00     0.163 HD
ATOM     11  H   UNL     1       8.407   0.700  10.000  1.00  0.00     0.163 HD
ENDROOT
BRANCH   8  12
ATOM     12  C   UNL     1       8.244  -2.062   9.836  1.00  0.00    -0.003 A 
ATOM     13  C   UNL     1       6.783  -2.039   7.837  1.00  0.00     0.042 A 
ATOM     14  C   UNL     1       7.960  -1.564   8.545  1.00  0.00     0.028 A 
ATOM     15  C   UNL     1       6.295  -3.379   8.181  1.00  0.00     0.041 A 
ATOM     16  C   UNL     1       6.904  -4.014   9.345  1.00  0.00     0.042 A 
ATOM     17  C   UNL     1       7.733  -3.336  10.273  1.00  0.00     0.028 A 
ATOM     18  Cl  UNL     1       6.165  -1.406   6.554  1.00  0.00    -0.084 Cl
ATOM     19  Cl  UNL     1       6.489  -5.649   9.620  1.00  0.00    -0.084 Cl
ENDBRANCH   8  12
BRANCH   7  20
ATOM     20  N   UNL     1      11.409   3.352  13.553  1.00  0.00     0.062 N 
ATOM     21  O   UNL     1      12.152   4.107  13.044  1.00  0.00    -0.258 OA
ATOM     22  O   UNL     1      10.637   3.859  14.476  1.00  0.00    -0.258 OA
ENDBRANCH   7  20
TORSDOF 2
ENDMDL
MODEL 4
REMARK VINA RESULT:    -4.181     14.423     15.431
REMARK INTER + INTRA:          -4.960
REMARK INTER:                  -4.655
REMARK INTRA:                  -0.305
REMARK UNBOUND:                -0.290
REMARK SMILES O=[N+]([O-])c1ccc2c(c1)N[C@@H](c1cc(Cl)cc(Cl)c1)N2
REMARK SMILES IDX 7 1 8 2 5 3 6 4 20 5 10 6 4 7 11 8 9 9 12 12 14 13 13 14
REMARK SMILES IDX 16 15 17 16 19 17 15 18 18 19 2 20 3 21 1 22
REMARK H PARENT 20 10 10 11
ROOT
ATOM      1  C   UNL     1       8.028  -7.302  11.330  1.00  0.00     0.060 A 
ATOM      2  C   UNL     1       8.062  -6.569  12.492  1.00  0.00     0.066 A 
ATOM      3  C   UNL     1       8.311  -9.317  12.517  1.00  0.00     0.088 A 
ATOM      4  C   UNL     1       7.914  -8.613  11.348  1.00  0.00     0.035 A 
ATOM      5  N   UNL     1       7.846  -6.407  10.205  1.00  0.00    -0.360 N 
ATOM      6  N   UNL     1       7.866  -5.245  12.089  1.00  0.00    -0.360 N 
ATOM      7  C   UNL     1       8.498  -8.592  13.692  1.00  0.00     0.271 A 
ATOM      8  C   UNL     1       7.240  -5.343  10.821  1.00  0.00     0.205 C 
ATOM      9  C   UNL     1       8.341  -7.171  13.677  1.00  0.00     0.113 A 
ATOM     10  H   UNL     1       8.101  -6.535   9.215  1.00  0.00     0.163 HD
ATOM     11  H   UNL     1       8.120  -4.388  12.600  1.00  0.00     0.163 HD
ENDROOT
BRANCH   8  12
ATOM     12  C   UNL     1       7.107  -4.000  10.050  1.00  0.00    -0.003 A 
ATOM     13  C   UNL     1       6.398  -2.872   7.963  1.00  0.00     0.042 A 
ATOM     14  C   UNL     1       6.138  -3.814   9.038  1.00  0.00     0.028 A 
ATOM     15  C   UNL     1       7.308  -1.759   8.257  1.00  0.00     0.041 A 
ATOM     16  C   UNL     1       8.028  -1.826   9.524  1.00  0.00     0.042 A 
ATOM     17  C   UNL     1       8.084  -2.982  10.342  1.00  0.00     0.028 A 
ATOM     18  Cl  UNL     1       5.590  -2.748   6.635  1.00  0.00    -0.084 Cl
ATOM     19  Cl  UNL     1       8.923  -0.437   9.961  1.00  0.00    -0.084 Cl
ENDBRANCH   8  12
BRANCH   7  20
ATOM     20  N   UNL     1       8.733  -9.174  14.921  1.00  0.00     0.062 N 
ATOM     21  O   UNL     1       7.843  -9.625  15.543  1.00  0.00    -0.258 OA
ATOM     22  O   UNL     1       9.928  -9.464  15.359  1.00  0.00    -0.258 OA
ENDBRANCH   7  20
TORSDOF 2
ENDMDL
MODEL 5
REMARK VINA RESULT:    -4.172     13.863     14.886
REMARK INTER + INTRA:          -4.950
REMARK INTER:                  -4.658
REMARK INTRA:                  -0.292
REMARK UNBOUND:                -0.290
REMARK SMILES O=[N+]([O-])c1ccc2c(c1)N[C@@H](c1cc(Cl)cc(Cl)c1)N2
REMARK SMILES IDX 7 1 8 2 5 3 6 4 20 5 10 6 4 7 11 8 9 9 12 12 14 13 13 14
REMARK SMILES IDX 16 15 17 16 19 17 15 18 18 19 2 20 3 21 1 22
REMARK H PARENT 20 10 10 11
ROOT
ATOM      1  C   UNL     1       7.866  -6.357  12.396  1.00  0.00     0.060 A 
ATOM      2  C   UNL     1       7.760  -7.078  11.231  1.00  0.00     0.066 A 
ATOM      3  C   UNL     1       8.410  -8.293  13.623  1.00  0.00     0.088 A 
ATOM      4  C   UNL     1       8.394  -6.878  13.483  1.00  0.00     0.035 A 
ATOM      5  N   UNL     1       7.593  -4.960  12.120  1.00  0.00    -0.360 N 
ATOM      6  N   UNL     1       7.465  -6.132  10.246  1.00  0.00    -0.360 N 
ATOM      7  C   UNL     1       8.166  -9.070  12.494  1.00  0.00     0.271 A 
ATOM      8  C   UNL     1       7.907  -4.898  10.787  1.00  0.00     0.205 C 
ATOM      9  C   UNL     1       7.857  -8.433  11.251  1.00  0.00     0.113 A 
ATOM     10  H   UNL     1       7.257  -4.218  12.750  1.00  0.00     0.163 HD
ATOM     11  H   UNL     1       7.024  -6.296   9.330  1.00  0.00     0.163 HD
ENDROOT
BRANCH   8  12
ATOM     12  C   UNL     1       7.495  -3.641   9.972  1.00  0.00    -0.003 A 
ATOM     13  C   UNL     1       6.386  -2.763   7.939  1.00  0.00     0.042 A 
ATOM     14  C   UNL     1       6.394  -3.656   9.086  1.00  0.00     0.028 A 
ATOM     15  C   UNL     1       7.160  -1.522   8.055  1.00  0.00     0.041 A 
ATOM     16  C   UNL     1       8.030  -1.405   9.221  1.00  0.00     0.042 A 
ATOM     17  C   UNL     1       8.347  -2.484  10.082  1.00  0.00     0.028 A 
ATOM     18  Cl  UNL     1       5.415  -2.839   6.722  1.00  0.00    -0.084 Cl
ATOM     19  Cl  UNL     1       8.767   0.117   9.466  1.00  0.00    -0.084 Cl
ENDBRANCH   8  12
BRANCH   7  20
ATOM     20  N   UNL     1       8.303 -10.443  12.465  1.00  0.00     0.062 N 
ATOM     21  O   UNL     1       7.379 -11.136  12.685  1.00  0.00    -0.258 OA
ATOM     22  O   UNL     1       9.357 -11.047  11.986  1.00  0.00    -0.258 OA
ENDBRANCH   7  20
TORSDOF 2
ENDMDL
MODEL 6
REMARK VINA RESULT:    -3.706      0.855      2.617
REMARK INTER + INTRA:          -4.429
REMARK INTER:                  -4.141
REMARK INTRA:                  -0.288
REMARK UNBOUND:                -0.290
REMARK SMILES O=[N+]([O-])c1ccc2c(c1)N[C@@H](c1cc(Cl)cc(Cl)c1)N2
REMARK SMILES IDX 7 1 8 2 5 3 6 4 20 5 10 6 4 7 11 8 9 9 12 12 14 13 13 14
REMARK SMILES IDX 16 15 17 16 19 17 15 18 18 19 2 20 3 21 1 22
REMARK H PARENT 20 10 10 11
ROOT
ATOM      1  C   UNL     1       1.528  -1.802  -0.166  1.00  0.00     0.060 A 
ATOM      2  C   UNL     1       1.317  -1.571  -1.505  1.00  0.00     0.066 A 
ATOM      3  C   UNL     1       2.330  -3.974  -0.599  1.00  0.00     0.088 A 
ATOM      4  C   UNL     1       2.217  -2.842   0.252  1.00  0.00     0.035 A 
ATOM      5  N   UNL     1       1.145  -0.625   0.588  1.00  0.00    -0.360 N 
ATOM      6  N   UNL     1       0.848  -0.257  -1.575  1.00  0.00    -0.360 N 
ATOM      7  C   UNL     1       1.989  -3.826  -1.942  1.00  0.00     0.271 A 
ATOM      8  C   UNL     1       1.285   0.347  -0.369  1.00  0.00     0.205 C 
ATOM      9  C   UNL     1       1.492  -2.570  -2.410  1.00  0.00     0.113 A 
ATOM     10  H   UNL     1       0.850  -0.541   1.571  1.00  0.00     0.163 HD
ATOM     11  H   UNL     1       0.305   0.177  -2.335  1.00  0.00     0.163 HD
ENDROOT
BRANCH   8  12
ATOM     12  C   UNL     1       0.703   1.762  -0.097  1.00  0.00    -0.003 A 
ATOM     13  C   UNL     1       0.973   4.205  -0.402  1.00  0.00     0.042 A 
ATOM     14  C   UNL     1       0.982   2.857  -0.946  1.00  0.00     0.028 A 
ATOM     15  C   UNL     1       0.130   4.443   0.775  1.00  0.00     0.041 A 
ATOM     16  C   UNL     1      -0.447   3.264   1.411  1.00  0.00     0.042 A 
ATOM     17  C   UNL     1      -0.053   1.935   1.117  1.00  0.00     0.028 A 
ATOM     18  Cl  UNL     1       1.525   5.483  -1.104  1.00  0.00    -0.084 Cl
ATOM     19  Cl  UNL     1      -1.592   3.553   2.647  1.00  0.00    -0.084 Cl
ENDBRANCH   8  12
BRANCH   7  20
ATOM     20  N   UNL     1       2.199  -4.800  -2.897  1.00  0.00     0.062 N 
ATOM     21  O   UNL     1       3.244  -4.898  -3.425  1.00  0.00    -0.258 OA
ATOM     22  O   UNL     1       1.369  -5.785  -3.107  1.00  0.00    -0.258 OA
ENDBRANCH   7  20
TORSDOF 2
ENDMDL
MODEL 7
REMARK VINA RESULT:    -3.441     14.292     15.321
REMARK INTER + INTRA:          -4.133
REMARK INTER:                  -3.842
REMARK INTRA:                  -0.290
REMARK UNBOUND:                -0.290
REMARK SMILES O=[N+]([O-])c1ccc2c(c1)N[C@@H](c1cc(Cl)cc(Cl)c1)N2
REMARK SMILES IDX 7 1 8 2 5 3 6 4 20 5 10 6 4 7 11 8 9 9 12 12 14 13 13 14
REMARK SMILES IDX 16 15 17 16 19 17 15 18 18 19 2 20 3 21 1 22
REMARK H PARENT 20 10 10 11
ROOT
ATOM      1  C   UNL     1       8.047  -7.296  11.256  1.00  0.00     0.060 A 
ATOM      2  C   UNL     1       7.990  -6.504  12.378  1.00  0.00     0.066 A 
ATOM      3  C   UNL     1       8.150  -9.253  12.563  1.00  0.00     0.088 A 
ATOM      4  C   UNL     1       7.892  -8.600  11.327  1.00  0.00     0.035 A 
ATOM      5  N   UNL     1       8.006  -6.456  10.075  1.00  0.00    -0.360 N 
ATOM      6  N   UNL     1       7.875  -5.198  11.893  1.00  0.00    -0.360 N 
ATOM      7  C   UNL     1       8.242  -8.473  13.713  1.00  0.00     0.271 A 
ATOM      8  C   UNL     1       7.375  -5.346  10.574  1.00  0.00     0.205 C 
ATOM      9  C   UNL     1       8.131  -7.051  13.613  1.00  0.00     0.113 A 
ATOM     10  H   UNL     1       8.353  -6.641   9.124  1.00  0.00     0.163 HD
ATOM     11  H   UNL     1       8.104  -4.322  12.384  1.00  0.00     0.163 HD
ENDROOT
BRANCH   8  12
ATOM     12  C   UNL     1       7.360  -4.042   9.729  1.00  0.00    -0.003 A 
ATOM     13  C   UNL     1       7.812  -1.608   9.670  1.00  0.00     0.042 A 
ATOM     14  C   UNL     1       8.222  -2.959  10.016  1.00  0.00     0.028 A 
ATOM     15  C   UNL     1       6.871  -1.462   8.554  1.00  0.00     0.041 A 
ATOM     16  C   UNL     1       6.274  -2.691   8.043  1.00  0.00     0.042 A 
ATOM     17  C   UNL     1       6.358  -3.943   8.699  1.00  0.00     0.028 A 
ATOM     18  Cl  UNL     1       8.488  -0.290  10.158  1.00  0.00    -0.084 Cl
ATOM     19  Cl  UNL     1       5.345  -2.544   6.615  1.00  0.00    -0.084 Cl
ENDBRANCH   8  12
BRANCH   7  20
ATOM     20  N   UNL     1       8.336  -8.996  14.987  1.00  0.00     0.062 N 
ATOM     21  O   UNL     1       7.403  -9.505  15.489  1.00  0.00    -0.258 OA
ATOM     22  O   UNL     1       9.471  -9.166  15.608  1.00  0.00    -0.258 OA
ENDBRANCH   7  20
TORSDOF 2
ENDMDL
MODEL 8
REMARK VINA RESULT:    -3.140     17.638     18.446
REMARK INTER + INTRA:          -3.796
REMARK INTER:                  -3.484
REMARK INTRA:                  -0.312
REMARK UNBOUND:                -0.290
REMARK SMILES O=[N+]([O-])c1ccc2c(c1)N[C@@H](c1cc(Cl)cc(Cl)c1)N2
REMARK SMILES IDX 7 1 8 2 5 3 6 4 20 5 10 6 4 7 11 8 9 9 12 12 14 13 13 14
REMARK SMILES IDX 16 15 17 16 19 17 15 18 18 19 2 20 3 21 1 22
REMARK H PARENT 20 10 10 11
ROOT
ATOM      1  C   UNL     1      12.358  -3.650  14.924  1.00  0.00     0.060 A 
ATOM      2  C   UNL     1      11.192  -4.241  14.500  1.00  0.00     0.066 A 
ATOM      3  C   UNL     1      12.994  -5.593  16.095  1.00  0.00     0.088 A 
ATOM      4  C   UNL     1      13.320  -4.351  15.484  1.00  0.00     0.035 A 
ATOM      5  N   UNL     1      12.428  -2.301  14.400  1.00  0.00    -0.360 N 
ATOM      6  N   UNL     1      10.572  -3.282  13.695  1.00  0.00    -0.360 N 
ATOM      7  C   UNL     1      11.757  -6.165  15.805  1.00  0.00     0.271 A 
ATOM      8  C   UNL     1      11.621  -2.413  13.298  1.00  0.00     0.205 C 
ATOM      9  C   UNL     1      10.840  -5.472  14.956  1.00  0.00     0.113 A 
ATOM     10  H   UNL     1      12.942  -1.483  14.756  1.00  0.00     0.163 HD
ATOM     11  H   UNL     1       9.575  -3.219  13.446  1.00  0.00     0.163 HD
ENDROOT
BRANCH   8  12
ATOM     12  C   UNL     1      11.160  -1.123  12.564  1.00  0.00    -0.003 A 
ATOM     13  C   UNL     1      10.556   1.270  12.767  1.00  0.00     0.042 A 
ATOM     14  C   UNL     1      11.450   0.165  13.069  1.00  0.00     0.028 A 
ATOM     15  C   UNL     1       9.775   1.176  11.528  1.00  0.00     0.041 A 
ATOM     16  C   UNL     1       9.810  -0.107  10.834  1.00  0.00     0.042 A 
ATOM     17  C   UNL     1      10.334  -1.297  11.397  1.00  0.00     0.028 A 
ATOM     18  Cl  UNL     1      10.558   2.668  13.457  1.00  0.00    -0.084 Cl
ATOM     19  Cl  UNL     1       9.076  -0.153   9.291  1.00  0.00    -0.084 Cl
ENDBRANCH   8  12
BRANCH   7  20
ATOM     20  N   UNL     1      11.386  -7.431  16.210  1.00  0.00     0.062 N 
ATOM     21  O   UNL     1      12.187  -8.172  16.647  1.00  0.00    -0.258 OA
ATOM     22  O   UNL     1      10.143  -7.802  16.351  1.00  0.00    -0.258 OA
ENDBRANCH   7  20
TORSDOF 2
ENDMDL
