MODEL 1
REMARK VINA RESULT:    -4.485      0.000      0.000
REMARK INTER + INTRA:          -5.324
REMARK INTER:                  -5.009
REMARK INTRA:                  -0.315
REMARK UNBOUND:                -0.315
REMARK SMILES O=[N+]([O-])c1ccc2c(c1)N[C@@H](c1cc(Cl)cc(Cl)c1)N2
REMARK SMILES IDX 7 1 8 2 5 3 6 4 20 5 10 6 4 7 11 8 9 9 12 12 14 13 13 14
REMARK SMILES IDX 16 15 17 16 19 17 15 18 18 19 2 20 3 21 1 22
REMARK H PARENT 20 10 10 11
ROOT
ATOM      1  C   UNL     1     -11.378   1.967  -0.818  1.00  0.00     0.060 A 
ATOM      2  C   UNL     1     -11.061   3.221  -0.353  1.00  0.00     0.066 A 
ATOM      3  C   UNL     1     -13.684   2.424  -0.672  1.00  0.00     0.088 A 
ATOM      4  C   UNL     1     -12.603   1.660  -1.189  1.00  0.00     0.035 A 
ATOM      5  N   UNL     1     -10.157   1.232  -1.082  1.00  0.00    -0.360 N 
ATOM      6  N   UNL     1      -9.665   3.269  -0.368  1.00  0.00    -0.360 N 
ATOM      7  C   UNL     1     -13.398   3.643  -0.061  1.00  0.00     0.271 A 
ATOM      8  C   UNL     1      -9.279   2.264  -1.290  1.00  0.00     0.205 C 
ATOM      9  C   UNL     1     -12.038   4.062   0.076  1.00  0.00     0.113 A 
ATOM     10  H   UNL     1      -9.993   0.216  -1.106  1.00  0.00     0.163 HD
ATOM     11  H   UNL     1      -9.052   3.896   0.172  1.00  0.00     0.163 HD
ENDROOT
BRANCH   8  12
ATOM     12  C   UNL     1      -7.755   1.962  -1.330  1.00  0.00    -0.003 A 
ATOM     13  C   UNL     1      -5.964   0.448  -2.126  1.00  0.00     0.042 A 
ATOM     14  C   UNL     1      -7.170   1.219  -2.380  1.00  0.00     0.028 A 
ATOM     15  C   UNL     1      -5.091   0.914  -1.043  1.00  0.00     0.041 A 
ATOM     16  C   UNL     1      -5.622   1.972  -0.190  1.00  0.00     0.042 A 
ATOM     17  C   UNL     1      -6.977   2.386  -0.194  1.00  0.00     0.028 A 
ATOM     18  Cl  UNL     1      -5.352  -0.636  -3.065  1.00  0.00    -0.084 Cl
ATOM     19  Cl  UNL     1      -4.532   2.656   0.935  1.00  0.00    -0.084 Cl
ENDBRANCH   8  12
BRANCH   7  20
ATOM     20  N   UNL     1     -14.364   4.542   0.342  1.00  0.00     0.062 N 
ATOM     21  O   UNL     1     -14.093   5.676   0.491  1.00  0.00    -0.258 OA
ATOM     22  O   UNL     1     -15.639   4.263   0.359  1.00  0.00    -0.258 OA
ENDBRANCH   7  20
TORSDOF 2
ENDMDL
MODEL 2
REMARK VINA RESULT:    -4.479      0.994      2.657
REMARK INTER + INTRA:          -5.317
REMARK INTER:                  -5.002
REMARK INTRA:                  -0.316
REMARK UNBOUND:                -0.315
REMARK SMILES O=[N+]([O-])c1ccc2c(c1)N[C@@H](c1cc(Cl)cc(Cl)c1)N2
REMARK SMILES IDX 7 1 8 2 5 3 6 4 20 5 10 6 4 7 11 8 9 9 12 12 14 13 13 14
REMARK SMILES IDX 16 15 17 16 19 17 15 18 18 19 2 20 3 21 1 22
REMARK H PARENT 20 10 10 11
ROOT
ATOM      1  C   UNL     1     -10.896   3.403  -0.255  1.00  0.00     0.060 A 
ATOM      2  C   UNL     1     -11.358   2.183  -0.690  1.00  0.00     0.066 A 
ATOM      3  C   UNL     1     -13.091   4.177   0.108  1.00  0.00     0.088 A 
ATOM      4  C   UNL     1     -11.692   4.267   0.338  1.00  0.00     0.035 A 
ATOM      5  N   UNL     1      -9.448   3.409  -0.299  1.00  0.00    -0.360 N 
ATOM      6  N   UNL     1     -10.207   1.438  -0.960  1.00  0.00    -0.360 N 
ATOM      7  C   UNL     1     -13.591   3.010  -0.465  1.00  0.00     0.271 A 
ATOM      8  C   UNL     1      -9.184   2.067  -0.207  1.00  0.00     0.205 C 
ATOM      9  C   UNL     1     -12.690   1.970  -0.850  1.00  0.00     0.113 A 
ATOM     10  H   UNL     1      -8.796   4.202  -0.378  1.00  0.00     0.163 HD
ATOM     11  H   UNL     1     -10.122   0.613  -1.571  1.00  0.00     0.163 HD
ENDROOT
BRANCH   8  12
ATOM     12  C   UNL     1      -7.746   1.558  -0.503  1.00  0.00    -0.003 A 
ATOM     13  C   UNL     1      -5.315   1.934  -0.212  1.00  0.00     0.042 A 
ATOM     14  C   UNL     1      -6.657   1.868   0.343  1.00  0.00     0.028 A 
ATOM     15  C   UNL     1      -5.049   1.130  -1.409  1.00  0.00     0.041 A 
ATOM     16  C   UNL     1      -6.207   0.514  -2.049  1.00  0.00     0.042 A 
ATOM     17  C   UNL     1      -7.550   0.839  -1.736  1.00  0.00     0.028 A 
ATOM     18  Cl  UNL     1      -4.058   2.529   0.493  1.00  0.00    -0.084 Cl
ATOM     19  Cl  UNL     1      -5.876  -0.588  -3.313  1.00  0.00    -0.084 Cl
ENDBRANCH   8  12
BRANCH   7  20
ATOM     20  N   UNL     1     -14.938   2.740  -0.598  1.00  0.00     0.062 N 
ATOM     21  O   UNL     1     -15.309   1.635  -0.752  1.00  0.00    -0.258 OA
ATOM     22  O   UNL     1     -15.873   3.614  -0.342  1.00  0.00    -0.258 OA
ENDBRANCH   7  20
TORSDOF 2
ENDMDL
MODEL 3
REMARK VINA RESULT:    -4.148      0.809      2.183
REMARK INTER + INTRA:          -4.948
REMARK INTER:                  -4.648
REMARK INTRA:                  -0.300
REMARK UNBOUND:                -0.315
REMARK SMILES O=[N+]([O-])c1ccc2c(c1)N[C@@H](c1cc(Cl)cc(Cl)c1)N2
REMARK SMILES IDX 7 1 8 2 5 3 6 4 20 5 10 6 4 7 11 8 9 9 12 12 14 13 13 14
REMARK SMILES IDX 16 15 17 16 19 17 15 18 18 19 2 20 3 21 1 22
REMARK H PARENT 20 10 10 11
ROOT
ATOM      1  C   UNL     1     -11.480   2.576  -0.351  1.00  0.00     0.060 A 
ATOM      2  C   UNL     1     -10.864   3.755  -0.004  1.00  0.00     0.066 A 
ATOM      3  C   UNL     1     -13.613   3.553  -0.142  1.00  0.00     0.088 A 
ATOM      4  C   UNL     1     -12.762   2.530  -0.642  1.00  0.00     0.035 A 
ATOM      5  N   UNL     1     -10.471   1.567  -0.607  1.00  0.00    -0.360 N 
ATOM      6  N   UNL     1      -9.495   3.484  -0.083  1.00  0.00    -0.360 N 
ATOM      7  C   UNL     1     -13.026   4.715   0.354  1.00  0.00     0.271 A 
ATOM      8  C   UNL     1      -9.400   2.355  -0.937  1.00  0.00     0.205 C 
ATOM      9  C   UNL     1     -11.601   4.823   0.397  1.00  0.00     0.113 A 
ATOM     10  H   UNL     1     -10.540   0.541  -0.556  1.00  0.00     0.163 HD
ATOM     11  H   UNL     1      -8.726   3.991   0.377  1.00  0.00     0.163 HD
ENDROOT
BRANCH   8  12
ATOM     12  C   UNL     1      -7.987   1.713  -1.018  1.00  0.00    -0.003 A 
ATOM     13  C   UNL     1      -5.609   1.850  -0.341  1.00  0.00     0.042 A 
ATOM     14  C   UNL     1      -7.021   1.908  -0.004  1.00  0.00     0.028 A 
ATOM     15  C   UNL     1      -5.233   1.037  -1.503  1.00  0.00     0.041 A 
ATOM     16  C   UNL     1      -6.327   0.542  -2.331  1.00  0.00     0.042 A 
ATOM     17  C   UNL     1      -7.666   0.992  -2.223  1.00  0.00     0.028 A 
ATOM     18  Cl  UNL     1      -4.429   2.313   0.567  1.00  0.00    -0.084 Cl
ATOM     19  Cl  UNL     1      -5.906  -0.573  -3.556  1.00  0.00    -0.084 Cl
ENDBRANCH   8  12
BRANCH   7  20
ATOM     20  N   UNL     1     -13.741   5.836   0.724  1.00  0.00     0.062 N 
ATOM     21  O   UNL     1     -13.187   6.853   0.925  1.00  0.00    -0.258 OA
ATOM     22  O   UNL     1     -15.042   5.910   0.654  1.00  0.00    -0.258 OA
ENDBRANCH   7  20
TORSDOF 2
ENDMDL
MODEL 4
REMARK VINA RESULT:    -4.142      4.986      7.642
REMARK INTER + INTRA:          -4.941
REMARK INTER:                  -4.642
REMARK INTRA:                  -0.299
REMARK UNBOUND:                -0.315
REMARK SMILES O=[N+]([O-])c1ccc2c(c1)N[C@@H](c1cc(Cl)cc(Cl)c1)N2
REMARK SMILES IDX 7 1 8 2 5 3 6 4 20 5 10 6 4 7 11 8 9 9 12 12 14 13 13 14
REMARK SMILES IDX 16 15 17 16 19 17 15 18 18 19 2 20 3 21 1 22
REMARK H PARENT 20 10 10 11
ROOT
ATOM      1  C   UNL     1      -7.905   1.176  -1.706  1.00  0.00     0.060 A 
ATOM      2  C   UNL     1      -7.468   2.203  -0.903  1.00  0.00     0.066 A 
ATOM      3  C   UNL     1      -5.730   0.282  -1.857  1.00  0.00     0.088 A 
ATOM      4  C   UNL     1      -7.140   0.139  -1.973  1.00  0.00     0.035 A 
ATOM      5  N   UNL     1      -9.333   1.308  -1.917  1.00  0.00    -0.360 N 
ATOM      6  N   UNL     1      -8.619   2.933  -0.593  1.00  0.00    -0.360 N 
ATOM      7  C   UNL     1      -5.234   1.389  -1.171  1.00  0.00     0.271 A 
ATOM      8  C   UNL     1      -9.689   2.026  -0.805  1.00  0.00     0.205 C 
ATOM      9  C   UNL     1      -6.142   2.365  -0.655  1.00  0.00     0.113 A 
ATOM     10  H   UNL     1      -9.919   0.958  -2.688  1.00  0.00     0.163 HD
ATOM     11  H   UNL     1      -8.677   3.912  -0.280  1.00  0.00     0.163 HD
ENDROOT
BRANCH   8  12
ATOM     12  C   UNL     1     -11.106   2.660  -0.739  1.00  0.00    -0.003 A 
ATOM     13  C   UNL     1     -12.530   4.455   0.203  1.00  0.00     0.042 A 
ATOM     14  C   UNL     1     -11.297   4.028  -0.438  1.00  0.00     0.028 A 
ATOM     15  C   UNL     1     -13.720   3.626  -0.023  1.00  0.00     0.041 A 
ATOM     16  C   UNL     1     -13.504   2.346  -0.688  1.00  0.00     0.042 A 
ATOM     17  C   UNL     1     -12.227   1.769  -0.896  1.00  0.00     0.028 A 
ATOM     18  Cl  UNL     1     -12.792   5.846   0.856  1.00  0.00    -0.084 Cl
ATOM     19  Cl  UNL     1     -14.907   1.480  -1.137  1.00  0.00    -0.084 Cl
ENDBRANCH   8  12
BRANCH   7  20
ATOM     20  N   UNL     1      -3.901   1.561  -0.859  1.00  0.00     0.062 N 
ATOM     21  O   UNL     1      -3.077   0.924  -1.404  1.00  0.00    -0.258 OA
ATOM     22  O   UNL     1      -3.457   2.558  -0.142  1.00  0.00    -0.258 OA
ENDBRANCH   7  20
TORSDOF 2
ENDMDL
MODEL 5
REMARK VINA RESULT:    -4.114      5.098      7.566
REMARK INTER + INTRA:          -4.910
REMARK INTER:                  -4.610
REMARK INTRA:                  -0.300
REMARK UNBOUND:                -0.315
REMARK SMILES O=[N+]([O-])c1ccc2c(c1)N[C@@H](c1cc(Cl)cc(Cl)c1)N2
REMARK SMILES IDX 7 1 8 2 5 3 6 4 20 5 10 6 4 7 11 8 9 9 12 12 14 13 13 14
REMARK SMILES IDX 16 15 17 16 19 17 15 18 18 19 2 20 3 21 1 22
REMARK H PARENT 20 10 10 11
ROOT
ATOM      1  C   UNL     1      -7.570   2.216  -0.174  1.00  0.00     0.060 A 
ATOM      2  C   UNL     1      -7.874   1.184  -1.030  1.00  0.00     0.066 A 
ATOM      3  C   UNL     1      -5.260   1.913  -0.523  1.00  0.00     0.088 A 
ATOM      4  C   UNL     1      -6.355   2.716  -0.104  1.00  0.00     0.035 A 
ATOM      5  N   UNL     1      -8.799   2.782   0.347  1.00  0.00    -0.360 N 
ATOM      6  N   UNL     1      -9.270   1.142  -1.064  1.00  0.00    -0.360 N 
ATOM      7  C   UNL     1      -5.530   0.772  -1.276  1.00  0.00     0.271 A 
ATOM      8  C   UNL     1      -9.680   2.433  -0.643  1.00  0.00     0.205 C 
ATOM      9  C   UNL     1      -6.885   0.416  -1.558  1.00  0.00     0.113 A 
ATOM     10  H   UNL     1      -8.964   3.303   1.220  1.00  0.00     0.163 HD
ATOM     11  H   UNL     1      -9.869   0.349  -1.334  1.00  0.00     0.163 HD
ENDROOT
BRANCH   8  12
ATOM     12  C   UNL     1     -11.205   2.583  -0.384  1.00  0.00    -0.003 A 
ATOM     13  C   UNL     1     -13.486   1.791  -0.931  1.00  0.00     0.042 A 
ATOM     14  C   UNL     1     -12.104   1.511  -0.582  1.00  0.00     0.028 A 
ATOM     15  C   UNL     1     -14.037   3.078  -0.492  1.00  0.00     0.041 A 
ATOM     16  C   UNL     1     -13.086   4.037   0.062  1.00  0.00     0.042 A 
ATOM     17  C   UNL     1     -11.679   3.896  -0.027  1.00  0.00     0.028 A 
ATOM     18  Cl  UNL     1     -14.528   0.758  -1.458  1.00  0.00    -0.084 Cl
ATOM     19  Cl  UNL     1     -13.753   5.446   0.763  1.00  0.00    -0.084 Cl
ENDBRANCH   8  12
BRANCH   7  20
ATOM     20  N   UNL     1      -4.553  -0.002  -1.869  1.00  0.00     0.062 N 
ATOM     21  O   UNL     1      -3.431   0.101  -1.534  1.00  0.00    -0.258 OA
ATOM     22  O   UNL     1      -4.818  -1.022  -2.639  1.00  0.00    -0.258 OA
ENDBRANCH   7  20
TORSDOF 2
ENDMDL
MODEL 6
REMARK VINA RESULT:    -4.108      1.562      2.107
REMARK INTER + INTRA:          -4.903
REMARK INTER:                  -4.610
REMARK INTRA:                  -0.293
REMARK UNBOUND:                -0.315
REMARK SMILES O=[N+]([O-])c1ccc2c(c1)N[C@@H](c1cc(Cl)cc(Cl)c1)N2
REMARK SMILES IDX 7 1 8 2 5 3 6 4 20 5 10 6 4 7 11 8 9 9 12 12 14 13 13 14
REMARK SMILES IDX 16 15 17 16 19 17 15 18 18 19 2 20 3 21 1 22
REMARK H PARENT 20 10 10 11
ROOT
ATOM      1  C   UNL     1     -11.441   3.013  -0.611  1.00  0.00     0.060 A 
ATOM      2  C   UNL     1     -11.593   1.709  -1.018  1.00  0.00     0.066 A 
ATOM      3  C   UNL     1     -13.766   3.264  -0.324  1.00  0.00     0.088 A 
ATOM      4  C   UNL     1     -12.433   3.683  -0.064  1.00  0.00     0.035 A 
ATOM      5  N   UNL     1     -10.033   3.356  -0.622  1.00  0.00    -0.360 N 
ATOM      6  N   UNL     1     -10.293   1.246  -1.237  1.00  0.00    -0.360 N 
ATOM      7  C   UNL     1     -13.964   1.998  -0.871  1.00  0.00     0.271 A 
ATOM      8  C   UNL     1      -9.468   2.116  -0.481  1.00  0.00     0.205 C 
ATOM      9  C   UNL     1     -12.834   1.187  -1.202  1.00  0.00     0.113 A 
ATOM     10  H   UNL     1      -9.581   4.277  -0.710  1.00  0.00     0.163 HD
ATOM     11  H   UNL     1     -10.000   0.449  -1.820  1.00  0.00     0.163 HD
ENDROOT
BRANCH   8  12
ATOM     12  C   UNL     1      -7.942   1.949  -0.727  1.00  0.00    -0.003 A 
ATOM     13  C   UNL     1      -6.159   0.683  -1.889  1.00  0.00     0.042 A 
ATOM     14  C   UNL     1      -7.438   1.372  -1.915  1.00  0.00     0.028 A 
ATOM     15  C   UNL     1      -5.195   1.104  -0.866  1.00  0.00     0.041 A 
ATOM     16  C   UNL     1      -5.692   2.019   0.157  1.00  0.00     0.042 A 
ATOM     17  C   UNL     1      -7.063   2.316   0.354  1.00  0.00     0.028 A 
ATOM     18  Cl  UNL     1      -5.591  -0.241  -3.008  1.00  0.00    -0.084 Cl
ATOM     19  Cl  UNL     1      -4.524   2.671   1.221  1.00  0.00    -0.084 Cl
ENDBRANCH   8  12
BRANCH   7  20
ATOM     20  N   UNL     1     -15.206   1.418  -1.027  1.00  0.00     0.062 N 
ATOM     21  O   UNL     1     -15.495   0.461  -0.409  1.00  0.00    -0.258 OA
ATOM     22  O   UNL     1     -16.189   1.993  -1.665  1.00  0.00    -0.258 OA
ENDBRANCH   7  20
TORSDOF 2
ENDMDL
MODEL 7
REMARK VINA RESULT:    -3.689      2.998      4.347
REMARK INTER + INTRA:          -4.436
REMARK INTER:                  -4.131
REMARK INTRA:                  -0.305
REMARK UNBOUND:                -0.315
REMARK SMILES O=[N+]([O-])c1ccc2c(c1)N[C@@H](c1cc(Cl)cc(Cl)c1)N2
REMARK SMILES IDX 7 1 8 2 5 3 6 4 20 5 10 6 4 7 11 8 9 9 12 12 14 13 13 14
REMARK SMILES IDX 16 15 17 16 19 17 15 18 18 19 2 20 3 21 1 22
REMARK H PARENT 20 10 10 11
ROOT
ATOM      1  C   UNL     1     -13.007   5.511   0.699  1.00  0.00     0.060 A 
ATOM      2  C   UNL     1     -12.167   6.340  -0.005  1.00  0.00     0.066 A 
ATOM      3  C   UNL     1     -14.594   7.233   0.959  1.00  0.00     0.088 A 
ATOM      4  C   UNL     1     -14.251   5.854   0.959  1.00  0.00     0.035 A 
ATOM      5  N   UNL     1     -12.403   4.198   0.808  1.00  0.00    -0.360 N 
ATOM      6  N   UNL     1     -11.078   5.537  -0.356  1.00  0.00    -0.360 N 
ATOM      7  C   UNL     1     -13.702   8.134   0.381  1.00  0.00     0.271 A 
ATOM      8  C   UNL     1     -11.571   4.209  -0.281  1.00  0.00     0.205 C 
ATOM      9  C   UNL     1     -12.458   7.660  -0.141  1.00  0.00     0.113 A 
ATOM     10  H   UNL     1     -12.556   3.460   1.510  1.00  0.00     0.163 HD
ATOM     11  H   UNL     1     -10.129   5.842  -0.612  1.00  0.00     0.163 HD
ENDROOT
BRANCH   8  12
ATOM     12  C   UNL     1     -10.490   3.101  -0.417  1.00  0.00    -0.003 A 
ATOM     13  C   UNL     1      -8.740   1.766   0.718  1.00  0.00     0.042 A 
ATOM     14  C   UNL     1     -10.085   2.317   0.687  1.00  0.00     0.028 A 
ATOM     15  C   UNL     1      -8.089   1.524  -0.575  1.00  0.00     0.041 A 
ATOM     16  C   UNL     1      -8.764   2.058  -1.753  1.00  0.00     0.042 A 
ATOM     17  C   UNL     1      -9.843   2.975  -1.698  1.00  0.00     0.028 A 
ATOM     18  Cl  UNL     1      -8.036   1.131   1.955  1.00  0.00    -0.084 Cl
ATOM     19  Cl  UNL     1      -8.120   1.599  -3.268  1.00  0.00    -0.084 Cl
ENDBRANCH   8  12
BRANCH   7  20
ATOM     20  N   UNL     1     -13.985   9.470   0.182  1.00  0.00     0.062 N 
ATOM     21  O   UNL     1     -14.070  10.201   1.099  1.00  0.00    -0.258 OA
ATOM     22  O   UNL     1     -13.949  10.042  -0.990  1.00  0.00    -0.258 OA
ENDBRANCH   7  20
TORSDOF 2
ENDMDL
MODEL 8
REMARK VINA RESULT:    -3.605      4.058      5.887
REMARK INTER + INTRA:          -4.342
REMARK INTER:                  -4.050
REMARK INTRA:                  -0.292
REMARK UNBOUND:                -0.315
REMARK SMILES O=[N+]([O-])c1ccc2c(c1)N[C@@H](c1cc(Cl)cc(Cl)c1)N2
REMARK SMILES IDX 7 1 8 2 5 3 6 4 20 5 10 6 4 7 11 8 9 9 12 12 14 13 13 14
REMARK SMILES IDX 16 15 17 16 19 17 15 18 18 19 2 20 3 21 1 22
REMARK H PARENT 20 10 10 11
ROOT
ATOM      1  C   UNL     1     -14.119   6.746   0.799  1.00  0.00     0.060 A 
ATOM      2  C   UNL     1     -13.029   7.351   0.220  1.00  0.00     0.066 A 
ATOM      3  C   UNL     1     -15.258   8.802   0.958  1.00  0.00     0.088 A 
ATOM      4  C   UNL     1     -15.262   7.381   0.941  1.00  0.00     0.035 A 
ATOM      5  N   UNL     1     -13.868   5.323   0.920  1.00  0.00    -0.360 N 
ATOM      6  N   UNL     1     -12.136   6.309  -0.046  1.00  0.00    -0.360 N 
ATOM      7  C   UNL     1     -14.115   9.462   0.512  1.00  0.00     0.271 A 
ATOM      8  C   UNL     1     -12.942   5.143  -0.075  1.00  0.00     0.205 C 
ATOM      9  C   UNL     1     -12.974   8.703   0.105  1.00  0.00     0.113 A 
ATOM     10  H   UNL     1     -14.272   4.637   1.573  1.00  0.00     0.163 HD
ATOM     11  H   UNL     1     -11.119   6.374  -0.189  1.00  0.00     0.163 HD
ENDROOT
BRANCH   8  12
ATOM     12  C   UNL     1     -12.155   3.804  -0.139  1.00  0.00    -0.003 A 
ATOM     13  C   UNL     1      -9.947   2.711  -0.387  1.00  0.00     0.042 A 
ATOM     14  C   UNL     1     -10.791   3.724   0.223  1.00  0.00     0.028 A 
ATOM     15  C   UNL     1     -10.607   1.488  -0.857  1.00  0.00     0.041 A 
ATOM     16  C   UNL     1     -12.066   1.498  -0.862  1.00  0.00     0.042 A 
ATOM     17  C   UNL     1     -12.849   2.664  -0.682  1.00  0.00     0.028 A 
ATOM     18  Cl  UNL     1      -8.390   2.655  -0.329  1.00  0.00    -0.084 Cl
ATOM     19  Cl  UNL     1     -12.833   0.010  -1.208  1.00  0.00    -0.084 Cl
ENDBRANCH   8  12
BRANCH   7  20
ATOM     20  N   UNL     1     -14.041  10.829   0.336  1.00  0.00     0.062 N 
ATOM     21  O   UNL     1     -13.390  11.486   1.062  1.00  0.00    -0.258 OA
ATOM     22  O   UNL     1     -14.476  11.438  -0.734  1.00  0.00    -0.258 OA
ENDBRANCH   7  20
TORSDOF 2
ENDMDL
MODEL 9
REMARK VINA RESULT:    -3.010      5.224      7.702
REMARK INTER + INTRA:          -3.677
REMARK INTER:                  -3.388
REMARK INTRA:                  -0.290
REMARK UNBOUND:                -0.315
REMARK SMILES O=[N+]([O-])c1ccc2c(c1)N[C@@H](c1cc(Cl)cc(Cl)c1)N2
REMARK SMILES IDX 7 1 8 2 5 3 6 4 20 5 10 6 4 7 11 8 9 9 12 12 14 13 13 14
REMARK SMILES IDX 16 15 17 16 19 17 15 18 18 19 2 20 3 21 1 22
REMARK H PARENT 20 10 10 11
ROOT
ATOM      1  C   UNL     1      -9.954   2.570   0.849  1.00  0.00     0.060 A 
ATOM      2  C   UNL     1      -9.885   2.682  -0.520  1.00  0.00     0.066 A 
ATOM      3  C   UNL     1      -8.145   1.061   0.881  1.00  0.00     0.088 A 
ATOM      4  C   UNL     1      -8.997   1.989   1.540  1.00  0.00     0.035 A 
ATOM      5  N   UNL     1     -11.029   3.407   1.344  1.00  0.00    -0.360 N 
ATOM      6  N   UNL     1     -10.878   3.606  -0.856  1.00  0.00    -0.360 N 
ATOM      7  C   UNL     1      -8.146   1.040  -0.512  1.00  0.00     0.271 A 
ATOM      8  C   UNL     1     -11.113   4.334   0.338  1.00  0.00     0.205 C 
ATOM      9  C   UNL     1      -9.030   1.902  -1.231  1.00  0.00     0.113 A 
ATOM     10  H   UNL     1     -11.577   3.328   2.212  1.00  0.00     0.163 HD
ATOM     11  H   UNL     1     -11.338   3.730  -1.770  1.00  0.00     0.163 HD
ENDROOT
BRANCH   8  12
ATOM     12  C   UNL     1     -12.339   5.289   0.292  1.00  0.00    -0.003 A 
ATOM     13  C   UNL     1     -13.137   7.632   0.214  1.00  0.00     0.042 A 
ATOM     14  C   UNL     1     -12.255   6.583  -0.270  1.00  0.00     0.028 A 
ATOM     15  C   UNL     1     -14.422   7.211   0.785  1.00  0.00     0.041 A 
ATOM     16  C   UNL     1     -14.596   5.780   1.008  1.00  0.00     0.042 A 
ATOM     17  C   UNL     1     -13.543   4.835   0.939  1.00  0.00     0.028 A 
ATOM     18  Cl  UNL     1     -12.996   9.157  -0.076  1.00  0.00    -0.084 Cl
ATOM     19  Cl  UNL     1     -16.160   5.271   1.474  1.00  0.00    -0.084 Cl
ENDBRANCH   8  12
BRANCH   7  20
ATOM     20  N   UNL     1      -7.259   0.298  -1.266  1.00  0.00     0.062 N 
ATOM     21  O   UNL     1      -7.427  -0.856  -1.413  1.00  0.00    -0.258 OA
ATOM     22  O   UNL     1      -6.345   0.834  -2.028  1.00  0.00    -0.258 OA
ENDBRANCH   7  20
TORSDOF 2
ENDMDL
