MODEL 1
REMARK VINA RESULT:    -4.836      0.000      0.000
REMARK INTER + INTRA:          -5.717
REMARK INTER:                  -5.402
REMARK INTRA:                  -0.315
REMARK UNBOUND:                -0.315
REMARK SMILES O=[N+]([O-])c1ccc2c(c1)N[C@@H](c1cc(Cl)cc(Cl)c1)N2
REMARK SMILES IDX 7 1 8 2 5 3 6 4 20 5 10 6 4 7 11 8 9 9 12 12 14 13 13 14
REMARK SMILES IDX 16 15 17 16 19 17 15 18 18 19 2 20 3 21 1 22
REMARK H PARENT 20 10 10 11
ROOT
ATOM      1  C   UNL     1      -9.940   6.034   5.783  1.00  0.00     0.060 A 
ATOM      2  C   UNL     1      -9.442   5.677   7.013  1.00  0.00     0.066 A 
ATOM      3  C   UNL     1     -11.876   6.954   6.760  1.00  0.00     0.088 A 
ATOM      4  C   UNL     1     -10.975   6.838   5.667  1.00  0.00     0.035 A 
ATOM      5  N   UNL     1      -9.000   5.636   4.753  1.00  0.00    -0.360 N 
ATOM      6  N   UNL     1      -8.197   5.103   6.746  1.00  0.00    -0.360 N 
ATOM      7  C   UNL     1     -11.469   6.475   8.003  1.00  0.00     0.271 A 
ATOM      8  C   UNL     1      -7.833   5.607   5.472  1.00  0.00     0.205 C 
ATOM      9  C   UNL     1     -10.196   5.839   8.132  1.00  0.00     0.113 A 
ATOM     10  H   UNL     1      -9.163   5.433   3.757  1.00  0.00     0.163 HD
ATOM     11  H   UNL     1      -7.661   4.457   7.343  1.00  0.00     0.163 HD
ENDROOT
BRANCH   8  12
ATOM     12  C   UNL     1      -6.575   4.948   4.841  1.00  0.00    -0.003 A 
ATOM     13  C   UNL     1      -5.157   4.701   2.826  1.00  0.00     0.042 A 
ATOM     14  C   UNL     1      -5.884   5.543   3.761  1.00  0.00     0.028 A 
ATOM     15  C   UNL     1      -4.667   3.413   3.331  1.00  0.00     0.041 A 
ATOM     16  C   UNL     1      -5.141   3.010   4.651  1.00  0.00     0.042 A 
ATOM     17  C   UNL     1      -6.201   3.649   5.340  1.00  0.00     0.028 A 
ATOM     18  Cl  UNL     1      -4.587   5.142   1.444  1.00  0.00    -0.084 Cl
ATOM     19  Cl  UNL     1      -4.411   1.619   5.325  1.00  0.00    -0.084 Cl
ENDBRANCH   8  12
BRANCH   7  20
ATOM     20  N   UNL     1     -12.185   6.665   9.167  1.00  0.00     0.062 N 
ATOM     21  O   UNL     1     -11.653   6.573  10.212  1.00  0.00    -0.258 OA
ATOM     22  O   UNL     1     -13.390   7.167   9.193  1.00  0.00    -0.258 OA
ENDBRANCH   7  20
TORSDOF 2
ENDMDL
MODEL 2
REMARK VINA RESULT:    -4.815      0.981      2.646
REMARK INTER + INTRA:          -5.693
REMARK INTER:                  -5.378
REMARK INTRA:                  -0.315
REMARK UNBOUND:                -0.315
REMARK SMILES O=[N+]([O-])c1ccc2c(c1)N[C@@H](c1cc(Cl)cc(Cl)c1)N2
REMARK SMILES IDX 7 1 8 2 5 3 6 4 20 5 10 6 4 7 11 8 9 9 12 12 14 13 13 14
REMARK SMILES IDX 16 15 17 16 19 17 15 18 18 19 2 20 3 21 1 22
REMARK H PARENT 20 10 10 11
ROOT
ATOM      1  C   UNL     1      -9.297   5.602   7.169  1.00  0.00     0.060 A 
ATOM      2  C   UNL     1      -9.940   6.010   6.025  1.00  0.00     0.066 A 
ATOM      3  C   UNL     1     -11.116   6.271   8.508  1.00  0.00     0.088 A 
ATOM      4  C   UNL     1      -9.931   5.509   8.318  1.00  0.00     0.035 A 
ATOM      5  N   UNL     1      -8.000   5.057   6.820  1.00  0.00    -0.360 N 
ATOM      6  N   UNL     1      -9.066   5.685   4.984  1.00  0.00    -0.360 N 
ATOM      7  C   UNL     1     -11.729   6.827   7.388  1.00  0.00     0.271 A 
ATOM      8  C   UNL     1      -8.224   4.679   5.522  1.00  0.00     0.205 C 
ATOM      9  C   UNL     1     -11.128   6.664   6.101  1.00  0.00     0.113 A 
ATOM     10  H   UNL     1      -7.146   4.976   7.390  1.00  0.00     0.163 HD
ATOM     11  H   UNL     1      -9.040   6.086   4.036  1.00  0.00     0.163 HD
ENDROOT
BRANCH   8  12
ATOM     12  C   UNL     1      -7.012   4.293   4.629  1.00  0.00    -0.003 A 
ATOM     13  C   UNL     1      -4.889   3.031   4.451  1.00  0.00     0.042 A 
ATOM     14  C   UNL     1      -6.291   3.094   4.828  1.00  0.00     0.028 A 
ATOM     15  C   UNL     1      -4.445   3.931   3.381  1.00  0.00     0.041 A 
ATOM     16  C   UNL     1      -5.399   4.947   2.949  1.00  0.00     0.042 A 
ATOM     17  C   UNL     1      -6.590   5.262   3.649  1.00  0.00     0.028 A 
ATOM     18  Cl  UNL     1      -3.880   1.912   4.851  1.00  0.00    -0.084 Cl
ATOM     19  Cl  UNL     1      -4.965   5.855   1.568  1.00  0.00    -0.084 Cl
ENDBRANCH   8  12
BRANCH   7  20
ATOM     20  N   UNL     1     -12.958   7.454   7.420  1.00  0.00     0.062 N 
ATOM     21  O   UNL     1     -13.603   7.545   6.442  1.00  0.00    -0.258 OA
ATOM     22  O   UNL     1     -13.571   7.770   8.528  1.00  0.00    -0.258 OA
ENDBRANCH   7  20
TORSDOF 2
ENDMDL
MODEL 3
REMARK VINA RESULT:    -4.541      5.120      7.586
REMARK INTER + INTRA:          -5.387
REMARK INTER:                  -5.088
REMARK INTRA:                  -0.299
REMARK UNBOUND:                -0.315
REMARK SMILES O=[N+]([O-])c1ccc2c(c1)N[C@@H](c1cc(Cl)cc(Cl)c1)N2
REMARK SMILES IDX 7 1 8 2 5 3 6 4 20 5 10 6 4 7 11 8 9 9 12 12 14 13 13 14
REMARK SMILES IDX 16 15 17 16 19 17 15 18 18 19 2 20 3 21 1 22
REMARK H PARENT 20 10 10 11
ROOT
ATOM      1  C   UNL     1      -6.502   4.056   5.314  1.00  0.00     0.060 A 
ATOM      2  C   UNL     1      -6.893   4.642   4.134  1.00  0.00     0.066 A 
ATOM      3  C   UNL     1      -4.428   3.427   4.390  1.00  0.00     0.088 A 
ATOM      4  C   UNL     1      -5.257   3.683   5.516  1.00  0.00     0.035 A 
ATOM      5  N   UNL     1      -7.559   4.205   6.295  1.00  0.00    -0.360 N 
ATOM      6  N   UNL     1      -8.157   5.178   4.398  1.00  0.00    -0.360 N 
ATOM      7  C   UNL     1      -4.853   3.880   3.143  1.00  0.00     0.271 A 
ATOM      8  C   UNL     1      -8.203   5.313   5.809  1.00  0.00     0.205 C 
ATOM      9  C   UNL     1      -6.119   4.533   3.022  1.00  0.00     0.113 A 
ATOM     10  H   UNL     1      -7.768   3.636   7.127  1.00  0.00     0.163 HD
ATOM     11  H   UNL     1      -8.892   5.420   3.718  1.00  0.00     0.163 HD
ENDROOT
BRANCH   8  12
ATOM     12  C   UNL     1      -9.597   5.688   6.385  1.00  0.00    -0.003 A 
ATOM     13  C   UNL     1     -11.709   6.936   6.047  1.00  0.00     0.042 A 
ATOM     14  C   UNL     1     -10.679   6.042   5.547  1.00  0.00     0.028 A 
ATOM     15  C   UNL     1     -11.927   6.957   7.498  1.00  0.00     0.041 A 
ATOM     16  C   UNL     1     -10.949   6.243   8.313  1.00  0.00     0.042 A 
ATOM     17  C   UNL     1      -9.712   5.760   7.819  1.00  0.00     0.028 A 
ATOM     18  Cl  UNL     1     -12.800   7.649   5.193  1.00  0.00    -0.084 Cl
ATOM     19  Cl  UNL     1     -11.314   6.091   9.975  1.00  0.00    -0.084 Cl
ENDBRANCH   8  12
BRANCH   7  20
ATOM     20  N   UNL     1      -4.075   3.830   2.005  1.00  0.00     0.062 N 
ATOM     21  O   UNL     1      -3.229   3.021   1.900  1.00  0.00    -0.258 OA
ATOM     22  O   UNL     1      -4.357   4.491   0.915  1.00  0.00    -0.258 OA
ENDBRANCH   7  20
TORSDOF 2
ENDMDL
MODEL 4
REMARK VINA RESULT:    -4.522      5.000      7.643
REMARK INTER + INTRA:          -5.366
REMARK INTER:                  -5.067
REMARK INTRA:                  -0.299
REMARK UNBOUND:                -0.315
REMARK SMILES O=[N+]([O-])c1ccc2c(c1)N[C@@H](c1cc(Cl)cc(Cl)c1)N2
REMARK SMILES IDX 7 1 8 2 5 3 6 4 20 5 10 6 4 7 11 8 9 9 12 12 14 13 13 14
REMARK SMILES IDX 16 15 17 16 19 17 15 18 18 19 2 20 3 21 1 22
REMARK H PARENT 20 10 10 11
ROOT
ATOM      1  C   UNL     1      -6.938   5.003   4.037  1.00  0.00     0.060 A 
ATOM      2  C   UNL     1      -6.349   4.496   5.171  1.00  0.00     0.066 A 
ATOM      3  C   UNL     1      -5.287   4.032   2.666  1.00  0.00     0.088 A 
ATOM      4  C   UNL     1      -6.578   4.601   2.837  1.00  0.00     0.035 A 
ATOM      5  N   UNL     1      -8.121   5.754   4.408  1.00  0.00    -0.360 N 
ATOM      6  N   UNL     1      -7.180   4.898   6.220  1.00  0.00    -0.360 N 
ATOM      7  C   UNL     1      -4.588   3.631   3.802  1.00  0.00     0.271 A 
ATOM      8  C   UNL     1      -8.430   5.167   5.607  1.00  0.00     0.205 C 
ATOM      9  C   UNL     1      -5.156   3.850   5.096  1.00  0.00     0.113 A 
ATOM     10  H   UNL     1      -8.598   6.518   3.909  1.00  0.00     0.163 HD
ATOM     11  H   UNL     1      -6.938   4.981   7.218  1.00  0.00     0.163 HD
ENDROOT
BRANCH   8  12
ATOM     12  C   UNL     1      -9.480   5.845   6.531  1.00  0.00    -0.003 A 
ATOM     13  C   UNL     1     -10.490   5.948   8.790  1.00  0.00     0.042 A 
ATOM     14  C   UNL     1      -9.317   5.893   7.934  1.00  0.00     0.028 A 
ATOM     15  C   UNL     1     -11.705   6.539   8.217  1.00  0.00     0.041 A 
ATOM     16  C   UNL     1     -11.681   6.815   6.785  1.00  0.00     0.042 A 
ATOM     17  C   UNL     1     -10.681   6.334   5.904  1.00  0.00     0.028 A 
ATOM     18  Cl  UNL     1     -10.514   5.722  10.332  1.00  0.00    -0.084 Cl
ATOM     19  Cl  UNL     1     -13.009   7.691   6.160  1.00  0.00    -0.084 Cl
ENDBRANCH   8  12
BRANCH   7  20
ATOM     20  N   UNL     1      -3.400   2.930   3.762  1.00  0.00     0.062 N 
ATOM     21  O   UNL     1      -3.127   2.175   4.621  1.00  0.00    -0.258 OA
ATOM     22  O   UNL     1      -2.635   2.877   2.705  1.00  0.00    -0.258 OA
ENDBRANCH   7  20
TORSDOF 2
ENDMDL
MODEL 5
REMARK VINA RESULT:    -4.455      5.119      7.792
REMARK INTER + INTRA:          -5.291
REMARK INTER:                  -4.973
REMARK INTRA:                  -0.318
REMARK UNBOUND:                -0.315
REMARK SMILES O=[N+]([O-])c1ccc2c(c1)N[C@@H](c1cc(Cl)cc(Cl)c1)N2
REMARK SMILES IDX 7 1 8 2 5 3 6 4 20 5 10 6 4 7 11 8 9 9 12 12 14 13 13 14
REMARK SMILES IDX 16 15 17 16 19 17 15 18 18 19 2 20 3 21 1 22
REMARK H PARENT 20 10 10 11
ROOT
ATOM      1  C   UNL     1      -6.403   4.092   5.257  1.00  0.00     0.060 A 
ATOM      2  C   UNL     1      -6.659   4.834   4.129  1.00  0.00     0.066 A 
ATOM      3  C   UNL     1      -4.459   3.176   4.293  1.00  0.00     0.088 A 
ATOM      4  C   UNL     1      -5.249   3.484   5.433  1.00  0.00     0.035 A 
ATOM      5  N   UNL     1      -7.434   4.349   6.243  1.00  0.00    -0.360 N 
ATOM      6  N   UNL     1      -7.810   5.565   4.432  1.00  0.00    -0.360 N 
ATOM      7  C   UNL     1      -4.771   3.798   3.086  1.00  0.00     0.271 A 
ATOM      8  C   UNL     1      -7.859   5.591   5.849  1.00  0.00     0.205 C 
ATOM      9  C   UNL     1      -5.896   4.677   3.016  1.00  0.00     0.113 A 
ATOM     10  H   UNL     1      -7.758   3.762   7.024  1.00  0.00     0.163 HD
ATOM     11  H   UNL     1      -8.476   5.992   3.772  1.00  0.00     0.163 HD
ENDROOT
BRANCH   8  12
ATOM     12  C   UNL     1      -9.173   6.165   6.449  1.00  0.00    -0.003 A 
ATOM     13  C   UNL     1     -10.727   6.199   8.377  1.00  0.00     0.042 A 
ATOM     14  C   UNL     1      -9.376   6.258   7.844  1.00  0.00     0.028 A 
ATOM     15  C   UNL     1     -11.812   6.638   7.492  1.00  0.00     0.041 A 
ATOM     16  C   UNL     1     -11.455   6.887   6.099  1.00  0.00     0.042 A 
ATOM     17  C   UNL     1     -10.220   6.504   5.519  1.00  0.00     0.028 A 
ATOM     18  Cl  UNL     1     -11.117   6.001   9.873  1.00  0.00    -0.084 Cl
ATOM     19  Cl  UNL     1     -12.664   7.597   5.122  1.00  0.00    -0.084 Cl
ENDBRANCH   8  12
BRANCH   7  20
ATOM     20  N   UNL     1      -3.993   3.701   1.951  1.00  0.00     0.062 N 
ATOM     21  O   UNL     1      -3.138   2.896   1.885  1.00  0.00    -0.258 OA
ATOM     22  O   UNL     1      -4.282   4.306   0.831  1.00  0.00    -0.258 OA
ENDBRANCH   7  20
TORSDOF 2
ENDMDL
MODEL 6
REMARK VINA RESULT:    -4.401      1.395      2.070
REMARK INTER + INTRA:          -5.230
REMARK INTER:                  -4.931
REMARK INTRA:                  -0.299
REMARK UNBOUND:                -0.315
REMARK SMILES O=[N+]([O-])c1ccc2c(c1)N[C@@H](c1cc(Cl)cc(Cl)c1)N2
REMARK SMILES IDX 7 1 8 2 5 3 6 4 20 5 10 6 4 7 11 8 9 9 12 12 14 13 13 14
REMARK SMILES IDX 16 15 17 16 19 17 15 18 18 19 2 20 3 21 1 22
REMARK H PARENT 20 10 10 11
ROOT
ATOM      1  C   UNL     1      -9.644   6.008   6.819  1.00  0.00     0.060 A 
ATOM      2  C   UNL     1     -10.065   6.244   5.532  1.00  0.00     0.066 A 
ATOM      3  C   UNL     1     -11.704   6.742   7.696  1.00  0.00     0.088 A 
ATOM      4  C   UNL     1     -10.485   6.023   7.830  1.00  0.00     0.035 A 
ATOM      5  N   UNL     1      -8.291   5.490   6.792  1.00  0.00    -0.360 N 
ATOM      6  N   UNL     1      -8.999   5.839   4.724  1.00  0.00    -0.360 N 
ATOM      7  C   UNL     1     -12.103   7.129   6.418  1.00  0.00     0.271 A 
ATOM      8  C   UNL     1      -8.251   4.947   5.534  1.00  0.00     0.205 C 
ATOM      9  C   UNL     1     -11.262   6.843   5.298  1.00  0.00     0.113 A 
ATOM     10  H   UNL     1      -7.561   5.520   7.518  1.00  0.00     0.163 HD
ATOM     11  H   UNL     1      -8.801   6.124   3.754  1.00  0.00     0.163 HD
ENDROOT
BRANCH   8  12
ATOM     12  C   UNL     1      -6.880   4.517   4.941  1.00  0.00    -0.003 A 
ATOM     13  C   UNL     1      -5.320   4.652   3.022  1.00  0.00     0.042 A 
ATOM     14  C   UNL     1      -6.209   5.299   3.973  1.00  0.00     0.028 A 
ATOM     15  C   UNL     1      -4.697   3.393   3.443  1.00  0.00     0.041 A 
ATOM     16  C   UNL     1      -5.193   2.804   4.682  1.00  0.00     0.042 A 
ATOM     17  C   UNL     1      -6.369   3.233   5.346  1.00  0.00     0.028 A 
ATOM     18  Cl  UNL     1      -4.731   5.297   1.731  1.00  0.00    -0.084 Cl
ATOM     19  Cl  UNL     1      -4.329   1.455   5.279  1.00  0.00    -0.084 Cl
ENDBRANCH   8  12
BRANCH   7  20
ATOM     20  N   UNL     1     -13.331   7.694   6.139  1.00  0.00     0.062 N 
ATOM     21  O   UNL     1     -13.678   7.837   5.025  1.00  0.00    -0.258 OA
ATOM     22  O   UNL     1     -14.252   7.887   7.043  1.00  0.00    -0.258 OA
ENDBRANCH   7  20
TORSDOF 2
ENDMDL
MODEL 7
REMARK VINA RESULT:    -4.383      0.816      2.188
REMARK INTER + INTRA:          -5.210
REMARK INTER:                  -4.910
REMARK INTRA:                  -0.300
REMARK UNBOUND:                -0.315
REMARK SMILES O=[N+]([O-])c1ccc2c(c1)N[C@@H](c1cc(Cl)cc(Cl)c1)N2
REMARK SMILES IDX 7 1 8 2 5 3 6 4 20 5 10 6 4 7 11 8 9 9 12 12 14 13 13 14
REMARK SMILES IDX 16 15 17 16 19 17 15 18 18 19 2 20 3 21 1 22
REMARK H PARENT 20 10 10 11
ROOT
ATOM      1  C   UNL     1      -9.971   5.755   6.501  1.00  0.00     0.060 A 
ATOM      2  C   UNL     1      -9.178   5.386   7.562  1.00  0.00     0.066 A 
ATOM      3  C   UNL     1     -11.625   6.603   7.948  1.00  0.00     0.088 A 
ATOM      4  C   UNL     1     -11.019   6.533   6.665  1.00  0.00     0.035 A 
ATOM      5  N   UNL     1      -9.306   5.404   5.262  1.00  0.00    -0.360 N 
ATOM      6  N   UNL     1      -8.025   4.852   6.981  1.00  0.00    -0.360 N 
ATOM      7  C   UNL     1     -10.915   6.109   9.040  1.00  0.00     0.271 A 
ATOM      8  C   UNL     1      -7.997   5.392   5.671  1.00  0.00     0.205 C 
ATOM      9  C   UNL     1      -9.635   5.505   8.836  1.00  0.00     0.113 A 
ATOM     10  H   UNL     1      -9.705   5.217   4.332  1.00  0.00     0.163 HD
ATOM     11  H   UNL     1      -7.345   4.208   7.411  1.00  0.00     0.163 HD
ENDROOT
BRANCH   8  12
ATOM     12  C   UNL     1      -6.920   4.779   4.733  1.00  0.00    -0.003 A 
ATOM     13  C   UNL     1      -5.047   3.176   4.501  1.00  0.00     0.042 A 
ATOM     14  C   UNL     1      -6.395   3.485   4.947  1.00  0.00     0.028 A 
ATOM     15  C   UNL     1      -4.525   3.952   3.370  1.00  0.00     0.041 A 
ATOM     16  C   UNL     1      -5.322   5.098   2.945  1.00  0.00     0.042 A 
ATOM     17  C   UNL     1      -6.403   5.630   3.691  1.00  0.00     0.028 A 
ATOM     18  Cl  UNL     1      -4.213   1.920   4.896  1.00  0.00    -0.084 Cl
ATOM     19  Cl  UNL     1      -4.827   5.873   1.504  1.00  0.00    -0.084 Cl
ENDBRANCH   8  12
BRANCH   7  20
ATOM     20  N   UNL     1     -11.325   6.255  10.349  1.00  0.00     0.062 N 
ATOM     21  O   UNL     1     -10.595   5.992  11.233  1.00  0.00    -0.258 OA
ATOM     22  O   UNL     1     -12.415   6.887  10.692  1.00  0.00    -0.258 OA
ENDBRANCH   7  20
TORSDOF 2
ENDMDL
MODEL 8
REMARK VINA RESULT:    -4.165      3.087      4.430
REMARK INTER + INTRA:          -4.967
REMARK INTER:                  -4.662
REMARK INTRA:                  -0.305
REMARK UNBOUND:                -0.315
REMARK SMILES O=[N+]([O-])c1ccc2c(c1)N[C@@H](c1cc(Cl)cc(Cl)c1)N2
REMARK SMILES IDX 7 1 8 2 5 3 6 4 20 5 10 6 4 7 11 8 9 9 12 12 14 13 13 14
REMARK SMILES IDX 16 15 17 16 19 17 15 18 18 19 2 20 3 21 1 22
REMARK H PARENT 20 10 10 11
ROOT
ATOM      1  C   UNL     1     -10.809   5.769  10.024  1.00  0.00     0.060 A 
ATOM      2  C   UNL     1      -9.586   6.263  10.412  1.00  0.00     0.066 A 
ATOM      3  C   UNL     1     -11.779   6.375  12.083  1.00  0.00     0.088 A 
ATOM      4  C   UNL     1     -11.901   6.022  10.712  1.00  0.00     0.035 A 
ATOM      5  N   UNL     1     -10.704   5.235   8.681  1.00  0.00    -0.360 N 
ATOM      6  N   UNL     1      -8.752   6.070   9.307  1.00  0.00    -0.360 N 
ATOM      7  C   UNL     1     -10.524   6.748  12.559  1.00  0.00     0.271 A 
ATOM      8  C   UNL     1      -9.636   5.949   8.205  1.00  0.00     0.205 C 
ATOM      9  C   UNL     1      -9.397   6.714  11.680  1.00  0.00     0.113 A 
ATOM     10  H   UNL     1     -11.275   4.517   8.213  1.00  0.00     0.163 HD
ATOM     11  H   UNL     1      -7.723   6.025   9.296  1.00  0.00     0.163 HD
ENDROOT
BRANCH   8  12
ATOM     12  C   UNL     1      -8.966   5.509   6.874  1.00  0.00    -0.003 A 
ATOM     13  C   UNL     1      -8.306   3.620   5.414  1.00  0.00     0.042 A 
ATOM     14  C   UNL     1      -9.296   4.288   6.242  1.00  0.00     0.028 A 
ATOM     15  C   UNL     1      -7.281   4.464   4.789  1.00  0.00     0.041 A 
ATOM     16  C   UNL     1      -7.227   5.854   5.229  1.00  0.00     0.042 A 
ATOM     17  C   UNL     1      -7.916   6.352   6.362  1.00  0.00     0.028 A 
ATOM     18  Cl  UNL     1      -8.389   2.157   4.883  1.00  0.00    -0.084 Cl
ATOM     19  Cl  UNL     1      -6.179   6.884   4.355  1.00  0.00    -0.084 Cl
ENDBRANCH   8  12
BRANCH   7  20
ATOM     20  N   UNL     1     -10.305   7.256  13.823  1.00  0.00     0.062 N 
ATOM     21  O   UNL     1     -10.112   6.531  14.728  1.00  0.00    -0.258 OA
ATOM     22  O   UNL     1     -10.071   8.519  14.056  1.00  0.00    -0.258 OA
ENDBRANCH   7  20
TORSDOF 2
ENDMDL
MODEL 9
REMARK VINA RESULT:    -4.141      3.896      5.604
REMARK INTER + INTRA:          -4.940
REMARK INTER:                  -4.637
REMARK INTRA:                  -0.303
REMARK UNBOUND:                -0.315
REMARK SMILES O=[N+]([O-])c1ccc2c(c1)N[C@@H](c1cc(Cl)cc(Cl)c1)N2
REMARK SMILES IDX 7 1 8 2 5 3 6 4 20 5 10 6 4 7 11 8 9 9 12 12 14 13 13 14
REMARK SMILES IDX 16 15 17 16 19 17 15 18 18 19 2 20 3 21 1 22
REMARK H PARENT 20 10 10 11
ROOT
ATOM      1  C   UNL     1      -9.950   6.754  11.313  1.00  0.00     0.060 A 
ATOM      2  C   UNL     1     -11.220   6.246  11.182  1.00  0.00     0.066 A 
ATOM      3  C   UNL     1     -10.232   7.040  13.634  1.00  0.00     0.088 A 
ATOM      4  C   UNL     1      -9.393   6.917  12.493  1.00  0.00     0.035 A 
ATOM      5  N   UNL     1      -9.308   6.776  10.013  1.00  0.00    -0.360 N 
ATOM      6  N   UNL     1     -11.342   5.924   9.828  1.00  0.00    -0.360 N 
ATOM      7  C   UNL     1     -11.569   6.669  13.511  1.00  0.00     0.271 A 
ATOM      8  C   UNL     1     -10.008   5.791   9.367  1.00  0.00     0.205 C 
ATOM      9  C   UNL     1     -12.067   6.232  12.244  1.00  0.00     0.113 A 
ATOM     10  H   UNL     1      -8.537   7.367   9.670  1.00  0.00     0.163 HD
ATOM     11  H   UNL     1     -12.210   5.808   9.285  1.00  0.00     0.163 HD
ENDROOT
BRANCH   8  12
ATOM     12  C   UNL     1      -9.859   5.646   7.826  1.00  0.00    -0.003 A 
ATOM     13  C   UNL     1      -8.316   5.317   5.917  1.00  0.00     0.042 A 
ATOM     14  C   UNL     1      -8.777   4.947   7.245  1.00  0.00     0.028 A 
ATOM     15  C   UNL     1      -9.299   5.934   5.019  1.00  0.00     0.041 A 
ATOM     16  C   UNL     1     -10.576   6.312   5.615  1.00  0.00     0.042 A 
ATOM     17  C   UNL     1     -10.820   6.343   7.010  1.00  0.00     0.028 A 
ATOM     18  Cl  UNL     1      -6.985   4.862   5.247  1.00  0.00    -0.084 Cl
ATOM     19  Cl  UNL     1     -11.791   6.836   4.532  1.00  0.00    -0.084 Cl
ENDBRANCH   8  12
BRANCH   7  20
ATOM     20  N   UNL     1     -12.444   6.596  14.575  1.00  0.00     0.062 N 
ATOM     21  O   UNL     1     -12.393   5.691  15.325  1.00  0.00    -0.258 OA
ATOM     22  O   UNL     1     -13.201   7.592  14.949  1.00  0.00    -0.258 OA
ENDBRANCH   7  20
TORSDOF 2
ENDMDL
