MODEL 1
REMARK VINA RESULT:    -5.200      0.000      0.000
REMARK INTER + INTRA:          -6.123
REMARK INTER:                  -5.808
REMARK INTRA:                  -0.315
REMARK UNBOUND:                -0.315
REMARK SMILES O=[N+]([O-])c1ccc2c(c1)N[C@@H](c1cc(Cl)cc(Cl)c1)N2
REMARK SMILES IDX 7 1 8 2 5 3 6 4 20 5 10 6 4 7 11 8 9 9 12 12 14 13 13 14
REMARK SMILES IDX 16 15 17 16 19 17 15 18 18 19 2 20 3 21 1 22
REMARK H PARENT 20 10 10 11
ROOT
ATOM      1  C   UNL     1      -4.712  -9.424   1.249  1.00  0.00     0.060 A 
ATOM      2  C   UNL     1      -3.573 -10.034   1.715  1.00  0.00     0.066 A 
ATOM      3  C   UNL     1      -5.983 -11.374   1.609  1.00  0.00     0.088 A 
ATOM      4  C   UNL     1      -5.899  -9.970   1.408  1.00  0.00     0.035 A 
ATOM      5  N   UNL     1      -4.402  -8.060   0.868  1.00  0.00    -0.360 N 
ATOM      6  N   UNL     1      -2.585  -9.047   1.658  1.00  0.00    -0.360 N 
ATOM      7  C   UNL     1      -4.820 -12.063   1.945  1.00  0.00     0.271 A 
ATOM      8  C   UNL     1      -3.300  -7.823   1.647  1.00  0.00     0.205 C 
ATOM      9  C   UNL     1      -3.579 -11.357   2.025  1.00  0.00     0.113 A 
ATOM     10  H   UNL     1      -4.879  -7.440   0.198  1.00  0.00     0.163 HD
ATOM     11  H   UNL     1      -1.564  -9.180   1.630  1.00  0.00     0.163 HD
ENDROOT
BRANCH   8  12
ATOM     12  C   UNL     1      -2.435  -6.562   1.366  1.00  0.00    -0.003 A 
ATOM     13  C   UNL     1      -2.409  -4.133   0.884  1.00  0.00     0.042 A 
ATOM     14  C   UNL     1      -2.897  -5.260   1.662  1.00  0.00     0.028 A 
ATOM     15  C   UNL     1      -1.083  -4.270   0.272  1.00  0.00     0.041 A 
ATOM     16  C   UNL     1      -0.477  -5.597   0.323  1.00  0.00     0.042 A 
ATOM     17  C   UNL     1      -1.177  -6.771   0.695  1.00  0.00     0.028 A 
ATOM     18  Cl  UNL     1      -3.009  -2.695   0.877  1.00  0.00    -0.084 Cl
ATOM     19  Cl  UNL     1       1.146  -5.709  -0.200  1.00  0.00    -0.084 Cl
ENDBRANCH   8  12
BRANCH   7  20
ATOM     20  N   UNL     1      -4.797 -13.393   2.314  1.00  0.00     0.062 N 
ATOM     21  O   UNL     1      -3.849 -13.847   2.839  1.00  0.00    -0.258 OA
ATOM     22  O   UNL     1      -5.860 -14.151   2.321  1.00  0.00    -0.258 OA
ENDBRANCH   7  20
TORSDOF 2
ENDMDL
MODEL 2
REMARK VINA RESULT:    -5.138      1.021      2.659
REMARK INTER + INTRA:          -6.054
REMARK INTER:                  -5.741
REMARK INTRA:                  -0.313
REMARK UNBOUND:                -0.315
REMARK SMILES O=[N+]([O-])c1ccc2c(c1)N[C@@H](c1cc(Cl)cc(Cl)c1)N2
REMARK SMILES IDX 7 1 8 2 5 3 6 4 20 5 10 6 4 7 11 8 9 9 12 12 14 13 13 14
REMARK SMILES IDX 16 15 17 16 19 17 15 18 18 19 2 20 3 21 1 22
REMARK H PARENT 20 10 10 11
ROOT
ATOM      1  C   UNL     1      -3.220 -10.167   1.750  1.00  0.00     0.060 A 
ATOM      2  C   UNL     1      -4.421  -9.696   1.276  1.00  0.00     0.066 A 
ATOM      3  C   UNL     1      -4.154 -12.280   2.209  1.00  0.00     0.088 A 
ATOM      4  C   UNL     1      -3.025 -11.448   1.978  1.00  0.00     0.035 A 
ATOM      5  N   UNL     1      -2.225  -9.117   1.657  1.00  0.00    -0.360 N 
ATOM      6  N   UNL     1      -4.158  -8.388   0.862  1.00  0.00    -0.360 N 
ATOM      7  C   UNL     1      -5.414 -11.789   1.875  1.00  0.00     0.271 A 
ATOM      8  C   UNL     1      -2.756  -8.351   0.652  1.00  0.00     0.205 C 
ATOM      9  C   UNL     1      -5.542 -10.459   1.366  1.00  0.00     0.113 A 
ATOM     10  H   UNL     1      -1.358  -8.983   2.196  1.00  0.00     0.163 HD
ATOM     11  H   UNL     1      -4.833  -7.620   0.736  1.00  0.00     0.163 HD
ENDROOT
BRANCH   8  12
ATOM     12  C   UNL     1      -2.170  -6.935   0.392  1.00  0.00    -0.003 A 
ATOM     13  C   UNL     1      -0.133  -5.564   0.074  1.00  0.00     0.042 A 
ATOM     14  C   UNL     1      -0.914  -6.751  -0.229  1.00  0.00     0.028 A 
ATOM     15  C   UNL     1      -0.873  -4.369   0.498  1.00  0.00     0.041 A 
ATOM     16  C   UNL     1      -2.293  -4.551   0.781  1.00  0.00     0.042 A 
ATOM     17  C   UNL     1      -2.919  -5.816   0.904  1.00  0.00     0.028 A 
ATOM     18  Cl  UNL     1       1.366  -5.334  -0.285  1.00  0.00    -0.084 Cl
ATOM     19  Cl  UNL     1      -3.195  -3.128   1.070  1.00  0.00    -0.084 Cl
ENDBRANCH   8  12
BRANCH   7  20
ATOM     20  N   UNL     1      -6.565 -12.549   1.908  1.00  0.00     0.062 N 
ATOM     21  O   UNL     1      -7.413 -12.376   1.112  1.00  0.00    -0.258 OA
ATOM     22  O   UNL     1      -6.694 -13.622   2.640  1.00  0.00    -0.258 OA
ENDBRANCH   7  20
TORSDOF 2
ENDMDL
MODEL 3
REMARK VINA RESULT:    -4.931      5.116      7.584
REMARK INTER + INTRA:          -5.823
REMARK INTER:                  -5.523
REMARK INTRA:                  -0.299
REMARK UNBOUND:                -0.315
REMARK SMILES O=[N+]([O-])c1ccc2c(c1)N[C@@H](c1cc(Cl)cc(Cl)c1)N2
REMARK SMILES IDX 7 1 8 2 5 3 6 4 20 5 10 6 4 7 11 8 9 9 12 12 14 13 13 14
REMARK SMILES IDX 16 15 17 16 19 17 15 18 18 19 2 20 3 21 1 22
REMARK H PARENT 20 10 10 11
ROOT
ATOM      1  C   UNL     1      -1.628  -6.929   0.786  1.00  0.00     0.060 A 
ATOM      2  C   UNL     1      -2.833  -6.276   0.678  1.00  0.00     0.066 A 
ATOM      3  C   UNL     1      -0.443  -4.894   0.723  1.00  0.00     0.088 A 
ATOM      4  C   UNL     1      -0.513  -6.278   1.038  1.00  0.00     0.035 A 
ATOM      5  N   UNL     1      -1.865  -8.357   0.867  1.00  0.00    -0.360 N 
ATOM      6  N   UNL     1      -3.797  -7.285   0.730  1.00  0.00    -0.360 N 
ATOM      7  C   UNL     1      -1.633  -4.217   0.465  1.00  0.00     0.271 A 
ATOM      8  C   UNL     1      -3.144  -8.376   1.359  1.00  0.00     0.205 C 
ATOM      9  C   UNL     1      -2.870  -4.934   0.470  1.00  0.00     0.113 A 
ATOM     10  H   UNL     1      -1.244  -9.141   0.622  1.00  0.00     0.163 HD
ATOM     11  H   UNL     1      -4.768  -7.246   0.388  1.00  0.00     0.163 HD
ENDROOT
BRANCH   8  12
ATOM     12  C   UNL     1      -3.939  -9.711   1.344  1.00  0.00    -0.003 A 
ATOM     13  C   UNL     1      -6.165 -10.796   1.323  1.00  0.00     0.042 A 
ATOM     14  C   UNL     1      -5.244  -9.796   0.809  1.00  0.00     0.028 A 
ATOM     15  C   UNL     1      -5.577 -12.011   1.898  1.00  0.00     0.041 A 
ATOM     16  C   UNL     1      -4.131 -12.003   2.093  1.00  0.00     0.042 A 
ATOM     17  C   UNL     1      -3.326 -10.842   1.994  1.00  0.00     0.028 A 
ATOM     18  Cl  UNL     1      -7.701 -10.850   1.062  1.00  0.00    -0.084 Cl
ATOM     19  Cl  UNL     1      -3.422 -13.486   2.564  1.00  0.00    -0.084 Cl
ENDBRANCH   8  12
BRANCH   7  20
ATOM     20  N   UNL     1      -1.714  -2.849   0.298  1.00  0.00     0.062 N 
ATOM     21  O   UNL     1      -0.769  -2.236  -0.039  1.00  0.00    -0.258 OA
ATOM     22  O   UNL     1      -2.844  -2.197   0.275  1.00  0.00    -0.258 OA
ENDBRANCH   7  20
TORSDOF 2
ENDMDL
MODEL 4
REMARK VINA RESULT:    -4.926      5.033      7.660
REMARK INTER + INTRA:          -5.817
REMARK INTER:                  -5.518
REMARK INTRA:                  -0.299
REMARK UNBOUND:                -0.315
REMARK SMILES O=[N+]([O-])c1ccc2c(c1)N[C@@H](c1cc(Cl)cc(Cl)c1)N2
REMARK SMILES IDX 7 1 8 2 5 3 6 4 20 5 10 6 4 7 11 8 9 9 12 12 14 13 13 14
REMARK SMILES IDX 16 15 17 16 19 17 15 18 18 19 2 20 3 21 1 22
REMARK H PARENT 20 10 10 11
ROOT
ATOM      1  C   UNL     1      -3.040  -6.062   1.343  1.00  0.00     0.060 A 
ATOM      2  C   UNL     1      -1.781  -6.603   1.241  1.00  0.00     0.066 A 
ATOM      3  C   UNL     1      -2.247  -3.932   0.724  1.00  0.00     0.088 A 
ATOM      4  C   UNL     1      -3.312  -4.861   0.881  1.00  0.00     0.035 A 
ATOM      5  N   UNL     1      -3.974  -7.098   1.738  1.00  0.00    -0.360 N 
ATOM      6  N   UNL     1      -1.946  -7.960   1.532  1.00  0.00    -0.360 N 
ATOM      7  C   UNL     1      -0.941  -4.416   0.756  1.00  0.00     0.271 A 
ATOM      8  C   UNL     1      -3.320  -8.215   1.291  1.00  0.00     0.205 C 
ATOM      9  C   UNL     1      -0.708  -5.806   0.997  1.00  0.00     0.113 A 
ATOM     10  H   UNL     1      -4.880  -7.017   2.221  1.00  0.00     0.163 HD
ATOM     11  H   UNL     1      -1.228  -8.627   1.850  1.00  0.00     0.163 HD
ENDROOT
BRANCH   8  12
ATOM     12  C   UNL     1      -3.815  -9.615   1.750  1.00  0.00    -0.003 A 
ATOM     13  C   UNL     1      -3.199 -11.943   2.328  1.00  0.00     0.042 A 
ATOM     14  C   UNL     1      -2.974 -10.512   2.446  1.00  0.00     0.028 A 
ATOM     15  C   UNL     1      -4.566 -12.379   2.020  1.00  0.00     0.041 A 
ATOM     16  C   UNL     1      -5.515 -11.334   1.652  1.00  0.00     0.042 A 
ATOM     17  C   UNL     1      -5.143 -10.001   1.345  1.00  0.00     0.028 A 
ATOM     18  Cl  UNL     1      -2.220 -13.067   2.782  1.00  0.00    -0.084 Cl
ATOM     19  Cl  UNL     1      -7.148 -11.813   1.498  1.00  0.00    -0.084 Cl
ENDBRANCH   8  12
BRANCH   7  20
ATOM     20  N   UNL     1       0.167  -3.647   0.464  1.00  0.00     0.062 N 
ATOM     21  O   UNL     1       0.073  -2.478   0.381  1.00  0.00    -0.258 OA
ATOM     22  O   UNL     1       1.387  -4.111   0.490  1.00  0.00    -0.258 OA
ENDBRANCH   7  20
TORSDOF 2
ENDMDL
MODEL 5
REMARK VINA RESULT:    -4.883      5.034      7.445
REMARK INTER + INTRA:          -5.769
REMARK INTER:                  -5.450
REMARK INTRA:                  -0.319
REMARK UNBOUND:                -0.315
REMARK SMILES O=[N+]([O-])c1ccc2c(c1)N[C@@H](c1cc(Cl)cc(Cl)c1)N2
REMARK SMILES IDX 7 1 8 2 5 3 6 4 20 5 10 6 4 7 11 8 9 9 12 12 14 13 13 14
REMARK SMILES IDX 16 15 17 16 19 17 15 18 18 19 2 20 3 21 1 22
REMARK H PARENT 20 10 10 11
ROOT
ATOM      1  C   UNL     1      -2.973  -6.102   0.921  1.00  0.00     0.060 A 
ATOM      2  C   UNL     1      -1.686  -6.582   0.979  1.00  0.00     0.066 A 
ATOM      3  C   UNL     1      -2.207  -3.910   0.525  1.00  0.00     0.088 A 
ATOM      4  C   UNL     1      -3.235  -4.890   0.481  1.00  0.00     0.035 A 
ATOM      5  N   UNL     1      -3.901  -7.196   1.125  1.00  0.00    -0.360 N 
ATOM      6  N   UNL     1      -1.823  -7.958   1.178  1.00  0.00    -0.360 N 
ATOM      7  C   UNL     1      -0.896  -4.338   0.725  1.00  0.00     0.271 A 
ATOM      8  C   UNL     1      -3.133  -8.259   0.726  1.00  0.00     0.205 C 
ATOM      9  C   UNL     1      -0.631  -5.727   0.933  1.00  0.00     0.113 A 
ATOM     10  H   UNL     1      -4.871  -7.180   1.473  1.00  0.00     0.163 HD
ATOM     11  H   UNL     1      -1.127  -8.610   1.567  1.00  0.00     0.163 HD
ENDROOT
BRANCH   8  12
ATOM     12  C   UNL     1      -3.619  -9.702   1.042  1.00  0.00    -0.003 A 
ATOM     13  C   UNL     1      -5.551 -11.183   1.494  1.00  0.00     0.042 A 
ATOM     14  C   UNL     1      -4.919 -10.140   0.703  1.00  0.00     0.028 A 
ATOM     15  C   UNL     1      -4.664 -12.127   2.184  1.00  0.00     0.041 A 
ATOM     16  C   UNL     1      -3.242 -11.800   2.184  1.00  0.00     0.042 A 
ATOM     17  C   UNL     1      -2.719 -10.545   1.787  1.00  0.00     0.028 A 
ATOM     18  Cl  UNL     1      -7.057 -11.585   1.449  1.00  0.00    -0.084 Cl
ATOM     19  Cl  UNL     1      -2.190 -12.997   2.801  1.00  0.00    -0.084 Cl
ENDBRANCH   8  12
BRANCH   7  20
ATOM     20  N   UNL     1       0.202  -3.507   0.636  1.00  0.00     0.062 N 
ATOM     21  O   UNL     1       1.283  -3.961   0.550  1.00  0.00    -0.258 OA
ATOM     22  O   UNL     1       0.113  -2.224   0.415  1.00  0.00    -0.258 OA
ENDBRANCH   7  20
TORSDOF 2
ENDMDL
MODEL 6
REMARK VINA RESULT:    -4.762      1.303      2.005
REMARK INTER + INTRA:          -5.634
REMARK INTER:                  -5.335
REMARK INTRA:                  -0.300
REMARK UNBOUND:                -0.315
REMARK SMILES O=[N+]([O-])c1ccc2c(c1)N[C@@H](c1cc(Cl)cc(Cl)c1)N2
REMARK SMILES IDX 7 1 8 2 5 3 6 4 20 5 10 6 4 7 11 8 9 9 12 12 14 13 13 14
REMARK SMILES IDX 16 15 17 16 19 17 15 18 18 19 2 20 3 21 1 22
REMARK H PARENT 20 10 10 11
ROOT
ATOM      1  C   UNL     1      -3.868 -10.007   1.832  1.00  0.00     0.060 A 
ATOM      2  C   UNL     1      -4.932  -9.345   1.268  1.00  0.00     0.066 A 
ATOM      3  C   UNL     1      -5.094 -12.016   1.944  1.00  0.00     0.088 A 
ATOM      4  C   UNL     1      -3.856 -11.318   1.944  1.00  0.00     0.035 A 
ATOM      5  N   UNL     1      -2.755  -9.090   1.975  1.00  0.00    -0.360 N 
ATOM      6  N   UNL     1      -4.466  -8.048   1.033  1.00  0.00    -0.360 N 
ATOM      7  C   UNL     1      -6.232 -11.338   1.513  1.00  0.00     0.271 A 
ATOM      8  C   UNL     1      -3.054  -8.173   1.002  1.00  0.00     0.205 C 
ATOM      9  C   UNL     1      -6.136  -9.962   1.138  1.00  0.00     0.113 A 
ATOM     10  H   UNL     1      -1.959  -9.119   2.628  1.00  0.00     0.163 HD
ATOM     11  H   UNL     1      -5.025  -7.192   0.909  1.00  0.00     0.163 HD
ENDROOT
BRANCH   8  12
ATOM     12  C   UNL     1      -2.279  -6.826   0.970  1.00  0.00    -0.003 A 
ATOM     13  C   UNL     1      -2.423  -4.355   0.913  1.00  0.00     0.042 A 
ATOM     14  C   UNL     1      -2.842  -5.630   1.470  1.00  0.00     0.028 A 
ATOM     15  C   UNL     1      -1.078  -4.291   0.330  1.00  0.00     0.041 A 
ATOM     16  C   UNL     1      -0.378  -5.561   0.172  1.00  0.00     0.042 A 
ATOM     17  C   UNL     1      -0.996  -6.828   0.314  1.00  0.00     0.028 A 
ATOM     18  Cl  UNL     1      -3.127  -2.981   1.133  1.00  0.00    -0.084 Cl
ATOM     19  Cl  UNL     1       1.260  -5.468  -0.310  1.00  0.00    -0.084 Cl
ENDBRANCH   8  12
BRANCH   7  20
ATOM     20  N   UNL     1      -7.457 -11.944   1.322  1.00  0.00     0.062 N 
ATOM     21  O   UNL     1      -8.346 -11.346   0.838  1.00  0.00    -0.258 OA
ATOM     22  O   UNL     1      -7.646 -13.230   1.442  1.00  0.00    -0.258 OA
ENDBRANCH   7  20
TORSDOF 2
ENDMDL
MODEL 7
REMARK VINA RESULT:    -4.750      0.835      2.199
REMARK INTER + INTRA:          -5.620
REMARK INTER:                  -5.321
REMARK INTRA:                  -0.300
REMARK UNBOUND:                -0.315
REMARK SMILES O=[N+]([O-])c1ccc2c(c1)N[C@@H](c1cc(Cl)cc(Cl)c1)N2
REMARK SMILES IDX 7 1 8 2 5 3 6 4 20 5 10 6 4 7 11 8 9 9 12 12 14 13 13 14
REMARK SMILES IDX 16 15 17 16 19 17 15 18 18 19 2 20 3 21 1 22
REMARK H PARENT 20 10 10 11
ROOT
ATOM      1  C   UNL     1      -4.150  -9.927   1.319  1.00  0.00     0.060 A 
ATOM      2  C   UNL     1      -2.891 -10.214   1.790  1.00  0.00     0.066 A 
ATOM      3  C   UNL     1      -4.939 -12.059   1.937  1.00  0.00     0.088 A 
ATOM      4  C   UNL     1      -5.178 -10.702   1.589  1.00  0.00     0.035 A 
ATOM      5  N   UNL     1      -4.165  -8.579   0.786  1.00  0.00    -0.360 N 
ATOM      6  N   UNL     1      -2.153  -9.046   1.585  1.00  0.00    -0.360 N 
ATOM      7  C   UNL     1      -3.643 -12.431   2.287  1.00  0.00     0.271 A 
ATOM      8  C   UNL     1      -3.126  -8.019   1.482  1.00  0.00     0.205 C 
ATOM      9  C   UNL     1      -2.592 -11.463   2.235  1.00  0.00     0.113 A 
ATOM     10  H   UNL     1      -4.784  -8.158   0.079  1.00  0.00     0.163 HD
ATOM     11  H   UNL     1      -1.130  -8.951   1.522  1.00  0.00     0.163 HD
ENDROOT
BRANCH   8  12
ATOM     12  C   UNL     1      -2.574  -6.637   1.033  1.00  0.00    -0.003 A 
ATOM     13  C   UNL     1      -0.577  -5.300   0.434  1.00  0.00     0.042 A 
ATOM     14  C   UNL     1      -1.364  -6.517   0.313  1.00  0.00     0.028 A 
ATOM     15  C   UNL     1      -1.301  -4.070   0.774  1.00  0.00     0.041 A 
ATOM     16  C   UNL     1      -2.697  -4.225   1.169  1.00  0.00     0.042 A 
ATOM     17  C   UNL     1      -3.300  -5.472   1.469  1.00  0.00     0.028 A 
ATOM     18  Cl  UNL     1       0.893  -5.105  -0.047  1.00  0.00    -0.084 Cl
ATOM     19  Cl  UNL     1      -3.594  -2.783   1.362  1.00  0.00    -0.084 Cl
ENDBRANCH   8  12
BRANCH   7  20
ATOM     20  N   UNL     1      -3.313 -13.673   2.789  1.00  0.00     0.062 N 
ATOM     21  O   UNL     1      -2.228 -13.881   3.192  1.00  0.00    -0.258 OA
ATOM     22  O   UNL     1      -4.197 -14.594   3.058  1.00  0.00    -0.258 OA
ENDBRANCH   7  20
TORSDOF 2
ENDMDL
MODEL 8
REMARK VINA RESULT:    -4.134      3.057      4.370
REMARK INTER + INTRA:          -4.932
REMARK INTER:                  -4.627
REMARK INTRA:                  -0.305
REMARK UNBOUND:                -0.315
REMARK SMILES O=[N+]([O-])c1ccc2c(c1)N[C@@H](c1cc(Cl)cc(Cl)c1)N2
REMARK SMILES IDX 7 1 8 2 5 3 6 4 20 5 10 6 4 7 11 8 9 9 12 12 14 13 13 14
REMARK SMILES IDX 16 15 17 16 19 17 15 18 18 19 2 20 3 21 1 22
REMARK H PARENT 20 10 10 11
ROOT
ATOM      1  C   UNL     1      -2.837 -13.015   2.536  1.00  0.00     0.060 A 
ATOM      2  C   UNL     1      -2.113 -12.469   3.569  1.00  0.00     0.066 A 
ATOM      3  C   UNL     1      -2.757 -15.153   3.522  1.00  0.00     0.088 A 
ATOM      4  C   UNL     1      -3.342 -14.228   2.615  1.00  0.00     0.035 A 
ATOM      5  N   UNL     1      -3.158 -11.977   1.577  1.00  0.00    -0.360 N 
ATOM      6  N   UNL     1      -2.025 -11.108   3.268  1.00  0.00    -0.360 N 
ATOM      7  C   UNL     1      -1.900 -14.661   4.504  1.00  0.00     0.271 A 
ATOM      8  C   UNL     1      -3.100 -10.865   2.376  1.00  0.00     0.205 C 
ATOM      9  C   UNL     1      -1.593 -13.266   4.539  1.00  0.00     0.113 A 
ATOM     10  H   UNL     1      -3.372 -12.053   0.572  1.00  0.00     0.163 HD
ATOM     11  H   UNL     1      -1.332 -10.431   3.617  1.00  0.00     0.163 HD
ENDROOT
BRANCH   8  12
ATOM     12  C   UNL     1      -3.096  -9.459   1.714  1.00  0.00    -0.003 A 
ATOM     13  C   UNL     1      -2.243  -8.039  -0.127  1.00  0.00     0.042 A 
ATOM     14  C   UNL     1      -2.831  -9.285   0.337  1.00  0.00     0.028 A 
ATOM     15  C   UNL     1      -2.494  -6.841   0.683  1.00  0.00     0.041 A 
ATOM     16  C   UNL     1      -3.124  -7.055   1.981  1.00  0.00     0.042 A 
ATOM     17  C   UNL     1      -3.275  -8.327   2.587  1.00  0.00     0.028 A 
ATOM     18  Cl  UNL     1      -1.629  -7.782  -1.537  1.00  0.00    -0.084 Cl
ATOM     19  Cl  UNL     1      -3.605  -5.651   2.830  1.00  0.00    -0.084 Cl
ENDBRANCH   8  12
BRANCH   7  20
ATOM     20  N   UNL     1      -1.393 -15.430   5.531  1.00  0.00     0.062 N 
ATOM     21  O   UNL     1      -0.634 -16.299   5.303  1.00  0.00    -0.258 OA
ATOM     22  O   UNL     1      -1.526 -15.118   6.792  1.00  0.00    -0.258 OA
ENDBRANCH   7  20
TORSDOF 2
ENDMDL
MODEL 9
REMARK VINA RESULT:    -3.675      5.121      7.515
REMARK INTER + INTRA:          -4.420
REMARK INTER:                  -4.125
REMARK INTRA:                  -0.296
REMARK UNBOUND:                -0.315
REMARK SMILES O=[N+]([O-])c1ccc2c(c1)N[C@@H](c1cc(Cl)cc(Cl)c1)N2
REMARK SMILES IDX 7 1 8 2 5 3 6 4 20 5 10 6 4 7 11 8 9 9 12 12 14 13 13 14
REMARK SMILES IDX 16 15 17 16 19 17 15 18 18 19 2 20 3 21 1 22
REMARK H PARENT 20 10 10 11
ROOT
ATOM      1  C   UNL     1      -4.039  -8.460   1.882  1.00  0.00     0.060 A 
ATOM      2  C   UNL     1      -3.499  -8.911   0.701  1.00  0.00     0.066 A 
ATOM      3  C   UNL     1      -2.368  -6.812   2.093  1.00  0.00     0.088 A 
ATOM      4  C   UNL     1      -3.650  -7.327   2.427  1.00  0.00     0.035 A 
ATOM      5  N   UNL     1      -5.215  -9.245   2.201  1.00  0.00    -0.360 N 
ATOM      6  N   UNL     1      -4.353  -9.934   0.281  1.00  0.00    -0.360 N 
ATOM      7  C   UNL     1      -1.715  -7.341   0.981  1.00  0.00     0.271 A 
ATOM      8  C   UNL     1      -5.576  -9.680   0.952  1.00  0.00     0.205 C 
ATOM      9  C   UNL     1      -2.320  -8.409   0.249  1.00  0.00     0.113 A 
ATOM     10  H   UNL     1      -5.657  -9.426   3.113  1.00  0.00     0.163 HD
ATOM     11  H   UNL     1      -4.141 -10.701  -0.372  1.00  0.00     0.163 HD
ENDROOT
BRANCH   8  12
ATOM     12  C   UNL     1      -6.639 -10.807   0.824  1.00  0.00    -0.003 A 
ATOM     13  C   UNL     1      -8.830 -11.491  -0.105  1.00  0.00     0.042 A 
ATOM     14  C   UNL     1      -7.525 -10.874  -0.275  1.00  0.00     0.028 A 
ATOM     15  C   UNL     1      -8.954 -12.511   0.942  1.00  0.00     0.041 A 
ATOM     16  C   UNL     1      -7.820 -12.653   1.849  1.00  0.00     0.042 A 
ATOM     17  C   UNL     1      -6.750 -11.727   1.927  1.00  0.00     0.028 A 
ATOM     18  Cl  UNL     1     -10.025 -11.402  -1.102  1.00  0.00    -0.084 Cl
ATOM     19  Cl  UNL     1      -7.876 -13.975   2.931  1.00  0.00    -0.084 Cl
ENDBRANCH   8  12
BRANCH   7  20
ATOM     20  N   UNL     1      -0.544  -6.825   0.466  1.00  0.00     0.062 N 
ATOM     21  O   UNL     1      -0.342  -6.854  -0.692  1.00  0.00    -0.258 OA
ATOM     22  O   UNL     1       0.283  -6.092   1.161  1.00  0.00    -0.258 OA
ENDBRANCH   7  20
TORSDOF 2
ENDMDL
