MODEL 1
REMARK VINA RESULT:    -4.386      0.000      0.000
REMARK INTER + INTRA:          -5.214
REMARK INTER:                  -4.899
REMARK INTRA:                  -0.315
REMARK UNBOUND:                -0.315
REMARK SMILES O=[N+]([O-])c1ccc2c(c1)N[C@@H](c1cc(Cl)cc(Cl)c1)N2
REMARK SMILES IDX 7 1 8 2 5 3 6 4 20 5 10 6 4 7 11 8 9 9 12 12 14 13 13 14
REMARK SMILES IDX 16 15 17 16 19 17 15 18 18 19 2 20 3 21 1 22
REMARK H PARENT 20 10 10 11
ROOT
ATOM      1  C   UNL     1      -1.154 -11.509   2.090  1.00  0.00     0.060 A 
ATOM      2  C   UNL     1      -2.452 -11.356   1.665  1.00  0.00     0.066 A 
ATOM      3  C   UNL     1      -1.449 -13.830   2.366  1.00  0.00     0.088 A 
ATOM      4  C   UNL     1      -0.604 -12.698   2.204  1.00  0.00     0.035 A 
ATOM      5  N   UNL     1      -0.494 -10.218   2.086  1.00  0.00    -0.360 N 
ATOM      6  N   UNL     1      -2.576  -9.996   1.367  1.00  0.00    -0.360 N 
ATOM      7  C   UNL     1      -2.805 -13.685   2.082  1.00  0.00     0.271 A 
ATOM      8  C   UNL     1      -1.247  -9.550   1.156  1.00  0.00     0.205 C 
ATOM      9  C   UNL     1      -3.313 -12.406   1.693  1.00  0.00     0.113 A 
ATOM     10  H   UNL     1       0.316  -9.892   2.631  1.00  0.00     0.163 HD
ATOM     11  H   UNL     1      -3.442  -9.441   1.313  1.00  0.00     0.163 HD
ENDROOT
BRANCH   8  12
ATOM     12  C   UNL     1      -1.087  -8.010   1.019  1.00  0.00    -0.003 A 
ATOM     13  C   UNL     1       0.477  -6.094   0.895  1.00  0.00     0.042 A 
ATOM     14  C   UNL     1       0.081  -7.428   0.476  1.00  0.00     0.028 A 
ATOM     15  C   UNL     1      -0.588  -5.198   1.359  1.00  0.00     0.041 A 
ATOM     16  C   UNL     1      -1.903  -5.798   1.557  1.00  0.00     0.042 A 
ATOM     17  C   UNL     1      -2.141  -7.194   1.565  1.00  0.00     0.028 A 
ATOM     18  Cl  UNL     1       1.857  -5.420   0.628  1.00  0.00    -0.084 Cl
ATOM     19  Cl  UNL     1      -3.185  -4.719   1.893  1.00  0.00    -0.084 Cl
ENDBRANCH   8  12
BRANCH   7  20
ATOM     20  N   UNL     1      -3.697 -14.737   2.053  1.00  0.00     0.062 N 
ATOM     21  O   UNL     1      -4.703 -14.646   1.451  1.00  0.00    -0.258 OA
ATOM     22  O   UNL     1      -3.402 -15.938   2.473  1.00  0.00    -0.258 OA
ENDBRANCH   7  20
TORSDOF 2
ENDMDL
MODEL 2
REMARK VINA RESULT:    -4.385     10.864     11.618
REMARK INTER + INTRA:          -5.213
REMARK INTER:                  -4.917
REMARK INTRA:                  -0.296
REMARK UNBOUND:                -0.315
REMARK SMILES O=[N+]([O-])c1ccc2c(c1)N[C@@H](c1cc(Cl)cc(Cl)c1)N2
REMARK SMILES IDX 7 1 8 2 5 3 6 4 20 5 10 6 4 7 11 8 9 9 12 12 14 13 13 14
REMARK SMILES IDX 16 15 17 16 19 17 15 18 18 19 2 20 3 21 1 22
REMARK H PARENT 20 10 10 11
ROOT
ATOM      1  C   UNL     1      -1.363  -0.059   0.110  1.00  0.00     0.060 A 
ATOM      2  C   UNL     1      -0.225   0.310  -0.566  1.00  0.00     0.066 A 
ATOM      3  C   UNL     1      -2.538  -0.375  -1.908  1.00  0.00     0.088 A 
ATOM      4  C   UNL     1      -2.387  -0.603  -0.513  1.00  0.00     0.035 A 
ATOM      5  N   UNL     1      -1.107  -0.017   1.536  1.00  0.00    -0.360 N 
ATOM      6  N   UNL     1       0.729   0.538   0.430  1.00  0.00    -0.360 N 
ATOM      7  C   UNL     1      -1.451   0.135  -2.614  1.00  0.00     0.271 A 
ATOM      8  C   UNL     1       0.253  -0.182   1.555  1.00  0.00     0.205 C 
ATOM      9  C   UNL     1      -0.246   0.462  -1.916  1.00  0.00     0.113 A 
ATOM     10  H   UNL     1      -1.765   0.102   2.319  1.00  0.00     0.163 HD
ATOM     11  H   UNL     1       1.587   1.104   0.361  1.00  0.00     0.163 HD
ENDROOT
BRANCH   8  12
ATOM     12  C   UNL     1       1.028   0.083   2.876  1.00  0.00    -0.003 A 
ATOM     13  C   UNL     1       3.234   0.213   3.993  1.00  0.00     0.042 A 
ATOM     14  C   UNL     1       2.364   0.544   2.877  1.00  0.00     0.028 A 
ATOM     15  C   UNL     1       2.591  -0.038   5.288  1.00  0.00     0.041 A 
ATOM     16  C   UNL     1       1.136  -0.143   5.282  1.00  0.00     0.042 A 
ATOM     17  C   UNL     1       0.357  -0.259   4.105  1.00  0.00     0.028 A 
ATOM     18  Cl  UNL     1       4.783   0.385   4.033  1.00  0.00    -0.084 Cl
ATOM     19  Cl  UNL     1       0.376  -0.225   6.811  1.00  0.00    -0.084 Cl
ENDBRANCH   8  12
BRANCH   7  20
ATOM     20  N   UNL     1      -1.419   0.257  -3.988  1.00  0.00     0.062 N 
ATOM     21  O   UNL     1      -0.512  -0.172  -4.601  1.00  0.00    -0.258 OA
ATOM     22  O   UNL     1      -2.451   0.627  -4.697  1.00  0.00    -0.258 OA
ENDBRANCH   7  20
TORSDOF 2
ENDMDL
MODEL 3
REMARK VINA RESULT:    -4.378      1.102      2.717
REMARK INTER + INTRA:          -5.205
REMARK INTER:                  -4.890
REMARK INTRA:                  -0.315
REMARK UNBOUND:                -0.315
REMARK SMILES O=[N+]([O-])c1ccc2c(c1)N[C@@H](c1cc(Cl)cc(Cl)c1)N2
REMARK SMILES IDX 7 1 8 2 5 3 6 4 20 5 10 6 4 7 11 8 9 9 12 12 14 13 13 14
REMARK SMILES IDX 16 15 17 16 19 17 15 18 18 19 2 20 3 21 1 22
REMARK H PARENT 20 10 10 11
ROOT
ATOM      1  C   UNL     1      -2.579 -11.265   1.714  1.00  0.00     0.060 A 
ATOM      2  C   UNL     1      -1.291 -11.494   2.136  1.00  0.00     0.066 A 
ATOM      3  C   UNL     1      -3.120 -13.549   1.919  1.00  0.00     0.088 A 
ATOM      4  C   UNL     1      -3.512 -12.186   1.826  1.00  0.00     0.035 A 
ATOM      5  N   UNL     1      -2.749  -9.852   1.440  1.00  0.00    -0.360 N 
ATOM      6  N   UNL     1      -0.690 -10.233   2.158  1.00  0.00    -0.360 N 
ATOM      7  C   UNL     1      -1.787 -13.833   2.207  1.00  0.00     0.271 A 
ATOM      8  C   UNL     1      -1.771  -9.319   2.238  1.00  0.00     0.205 C 
ATOM      9  C   UNL     1      -0.851 -12.762   2.345  1.00  0.00     0.113 A 
ATOM     10  H   UNL     1      -3.419  -9.379   0.817  1.00  0.00     0.163 HD
ATOM     11  H   UNL     1       0.316 -10.015   2.124  1.00  0.00     0.163 HD
ENDROOT
BRANCH   8  12
ATOM     12  C   UNL     1      -1.381  -7.825   2.058  1.00  0.00    -0.003 A 
ATOM     13  C   UNL     1      -2.175  -5.502   1.737  1.00  0.00     0.042 A 
ATOM     14  C   UNL     1      -2.253  -6.777   2.429  1.00  0.00     0.028 A 
ATOM     15  C   UNL     1      -0.882  -5.143   1.143  1.00  0.00     0.041 A 
ATOM     16  C   UNL     1       0.134  -6.190   1.119  1.00  0.00     0.042 A 
ATOM     17  C   UNL     1      -0.128  -7.554   1.399  1.00  0.00     0.028 A 
ATOM     18  Cl  UNL     1      -3.223  -4.350   1.812  1.00  0.00    -0.084 Cl
ATOM     19  Cl  UNL     1       1.699  -5.715   0.622  1.00  0.00    -0.084 Cl
ENDBRANCH   8  12
BRANCH   7  20
ATOM     20  N   UNL     1      -1.316 -15.102   2.473  1.00  0.00     0.062 N 
ATOM     21  O   UNL     1      -0.292 -15.250   3.031  1.00  0.00    -0.258 OA
ATOM     22  O   UNL     1      -2.043 -16.178   2.342  1.00  0.00    -0.258 OA
ENDBRANCH   7  20
TORSDOF 2
ENDMDL
MODEL 4
REMARK VINA RESULT:    -4.302     10.865     11.803
REMARK INTER + INTRA:          -5.120
REMARK INTER:                  -4.824
REMARK INTRA:                  -0.295
REMARK UNBOUND:                -0.315
REMARK SMILES O=[N+]([O-])c1ccc2c(c1)N[C@@H](c1cc(Cl)cc(Cl)c1)N2
REMARK SMILES IDX 7 1 8 2 5 3 6 4 20 5 10 6 4 7 11 8 9 9 12 12 14 13 13 14
REMARK SMILES IDX 16 15 17 16 19 17 15 18 18 19 2 20 3 21 1 22
REMARK H PARENT 20 10 10 11
ROOT
ATOM      1  C   UNL     1       1.130  -0.367   1.641  1.00  0.00     0.060 A 
ATOM      2  C   UNL     1       0.243   0.530   2.186  1.00  0.00     0.066 A 
ATOM      3  C   UNL     1       2.196  -0.674   3.719  1.00  0.00     0.088 A 
ATOM      4  C   UNL     1       1.906  -1.112   2.399  1.00  0.00     0.035 A 
ATOM      5  N   UNL     1       0.841  -0.528   0.230  1.00  0.00    -0.360 N 
ATOM      6  N   UNL     1      -0.604   0.886   1.132  1.00  0.00    -0.360 N 
ATOM      7  C   UNL     1       1.410   0.338   4.266  1.00  0.00     0.271 A 
ATOM      8  C   UNL     1      -0.483  -0.175   0.199  1.00  0.00     0.205 C 
ATOM      9  C   UNL     1       0.381   0.938   3.474  1.00  0.00     0.113 A 
ATOM     10  H   UNL     1       1.459  -0.827  -0.538  1.00  0.00     0.163 HD
ATOM     11  H   UNL     1      -1.186   1.731   1.052  1.00  0.00     0.163 HD
ENDROOT
BRANCH   8  12
ATOM     12  C   UNL     1      -1.164   0.081  -1.174  1.00  0.00    -0.003 A 
ATOM     13  C   UNL     1      -3.253   0.653  -2.375  1.00  0.00     0.042 A 
ATOM     14  C   UNL     1      -2.309   0.899  -1.297  1.00  0.00     0.028 A 
ATOM     15  C   UNL     1      -2.727   0.019  -3.589  1.00  0.00     0.041 A 
ATOM     16  C   UNL     1      -1.364  -0.497  -3.515  1.00  0.00     0.042 A 
ATOM     17  C   UNL     1      -0.636  -0.636  -2.307  1.00  0.00     0.028 A 
ATOM     18  Cl  UNL     1      -4.685   1.255  -2.497  1.00  0.00    -0.084 Cl
ATOM     19  Cl  UNL     1      -0.680  -1.044  -4.983  1.00  0.00    -0.084 Cl
ENDBRANCH   8  12
BRANCH   7  20
ATOM     20  N   UNL     1       1.490   0.743   5.582  1.00  0.00     0.062 N 
ATOM     21  O   UNL     1       0.525   0.777   6.252  1.00  0.00    -0.258 OA
ATOM     22  O   UNL     1       2.620   0.887   6.219  1.00  0.00    -0.258 OA
ENDBRANCH   7  20
TORSDOF 2
ENDMDL
MODEL 5
REMARK VINA RESULT:    -4.107      3.886      5.715
REMARK INTER + INTRA:          -4.902
REMARK INTER:                  -4.590
REMARK INTRA:                  -0.312
REMARK UNBOUND:                -0.315
REMARK SMILES O=[N+]([O-])c1ccc2c(c1)N[C@@H](c1cc(Cl)cc(Cl)c1)N2
REMARK SMILES IDX 7 1 8 2 5 3 6 4 20 5 10 6 4 7 11 8 9 9 12 12 14 13 13 14
REMARK SMILES IDX 16 15 17 16 19 17 15 18 18 19 2 20 3 21 1 22
REMARK H PARENT 20 10 10 11
ROOT
ATOM      1  C   UNL     1      -5.817 -14.264   0.175  1.00  0.00     0.060 A 
ATOM      2  C   UNL     1      -5.597 -15.006   1.310  1.00  0.00     0.066 A 
ATOM      3  C   UNL     1      -7.638 -15.625  -0.442  1.00  0.00     0.088 A 
ATOM      4  C   UNL     1      -6.914 -14.406  -0.538  1.00  0.00     0.035 A 
ATOM      5  N   UNL     1      -4.843 -13.192   0.109  1.00  0.00    -0.360 N 
ATOM      6  N   UNL     1      -4.528 -14.376   1.952  1.00  0.00    -0.360 N 
ATOM      7  C   UNL     1      -7.349 -16.481   0.618  1.00  0.00     0.271 A 
ATOM      8  C   UNL     1      -4.524 -13.056   1.434  1.00  0.00     0.205 C 
ATOM      9  C   UNL     1      -6.309 -16.141   1.538  1.00  0.00     0.113 A 
ATOM     10  H   UNL     1      -4.489 -12.674  -0.709  1.00  0.00     0.163 HD
ATOM     11  H   UNL     1      -3.885 -14.780   2.648  1.00  0.00     0.163 HD
ENDROOT
BRANCH   8  12
ATOM     12  C   UNL     1      -3.287 -12.201   1.829  1.00  0.00    -0.003 A 
ATOM     13  C   UNL     1      -2.135 -10.017   1.643  1.00  0.00     0.042 A 
ATOM     14  C   UNL     1      -3.343 -10.790   1.881  1.00  0.00     0.028 A 
ATOM     15  C   UNL     1      -0.856 -10.668   1.951  1.00  0.00     0.041 A 
ATOM     16  C   UNL     1      -0.909 -12.093   2.258  1.00  0.00     0.042 A 
ATOM     17  C   UNL     1      -2.049 -12.906   2.042  1.00  0.00     0.028 A 
ATOM     18  Cl  UNL     1      -2.064  -8.482   1.382  1.00  0.00    -0.084 Cl
ATOM     19  Cl  UNL     1       0.542 -12.801   2.818  1.00  0.00    -0.084 Cl
ENDBRANCH   8  12
BRANCH   7  20
ATOM     20  N   UNL     1      -8.081 -17.614   0.908  1.00  0.00     0.062 N 
ATOM     21  O   UNL     1      -8.980 -17.932   0.220  1.00  0.00    -0.258 OA
ATOM     22  O   UNL     1      -7.706 -18.504   1.787  1.00  0.00    -0.258 OA
ENDBRANCH   7  20
TORSDOF 2
ENDMDL
MODEL 6
REMARK VINA RESULT:    -4.056      3.852      4.929
REMARK INTER + INTRA:          -4.845
REMARK INTER:                  -4.539
REMARK INTRA:                  -0.306
REMARK UNBOUND:                -0.315
REMARK SMILES O=[N+]([O-])c1ccc2c(c1)N[C@@H](c1cc(Cl)cc(Cl)c1)N2
REMARK SMILES IDX 7 1 8 2 5 3 6 4 20 5 10 6 4 7 11 8 9 9 12 12 14 13 13 14
REMARK SMILES IDX 16 15 17 16 19 17 15 18 18 19 2 20 3 21 1 22
REMARK H PARENT 20 10 10 11
ROOT
ATOM      1  C   UNL     1       0.338 -14.639   2.705  1.00  0.00     0.060 A 
ATOM      2  C   UNL     1       0.819 -13.958   3.798  1.00  0.00     0.066 A 
ATOM      3  C   UNL     1       1.141 -16.688   3.546  1.00  0.00     0.088 A 
ATOM      4  C   UNL     1       0.282 -15.954   2.684  1.00  0.00     0.035 A 
ATOM      5  N   UNL     1      -0.312 -13.705   1.808  1.00  0.00    -0.360 N 
ATOM      6  N   UNL     1       0.435 -12.630   3.594  1.00  0.00    -0.360 N 
ATOM      7  C   UNL     1       1.767 -16.008   4.589  1.00  0.00     0.271 A 
ATOM      8  C   UNL     1      -0.649 -12.705   2.683  1.00  0.00     0.205 C 
ATOM      9  C   UNL     1       1.573 -14.599   4.730  1.00  0.00     0.113 A 
ATOM     10  H   UNL     1      -0.477 -13.773   0.794  1.00  0.00     0.163 HD
ATOM     11  H   UNL     1       0.848 -11.785   4.012  1.00  0.00     0.163 HD
ENDROOT
BRANCH   8  12
ATOM     12  C   UNL     1      -1.125 -11.337   2.118  1.00  0.00    -0.003 A 
ATOM     13  C   UNL     1      -0.867  -9.625   0.347  1.00  0.00     0.042 A 
ATOM     14  C   UNL     1      -1.007 -11.016   0.747  1.00  0.00     0.028 A 
ATOM     15  C   UNL     1      -1.433  -8.613   1.246  1.00  0.00     0.041 A 
ATOM     16  C   UNL     1      -1.889  -9.083   2.550  1.00  0.00     0.042 A 
ATOM     17  C   UNL     1      -1.599 -10.367   3.073  1.00  0.00     0.028 A 
ATOM     18  Cl  UNL     1      -0.447  -9.114  -1.064  1.00  0.00    -0.084 Cl
ATOM     19  Cl  UNL     1      -2.735  -7.950   3.509  1.00  0.00    -0.084 Cl
ENDBRANCH   8  12
BRANCH   7  20
ATOM     20  N   UNL     1       2.498 -16.632   5.579  1.00  0.00     0.062 N 
ATOM     21  O   UNL     1       3.590 -17.009   5.362  1.00  0.00    -0.258 OA
ATOM     22  O   UNL     1       2.141 -16.640   6.835  1.00  0.00    -0.258 OA
ENDBRANCH   7  20
TORSDOF 2
ENDMDL
MODEL 7
REMARK VINA RESULT:    -4.053      3.129      4.530
REMARK INTER + INTRA:          -4.842
REMARK INTER:                  -4.536
REMARK INTRA:                  -0.305
REMARK UNBOUND:                -0.315
REMARK SMILES O=[N+]([O-])c1ccc2c(c1)N[C@@H](c1cc(Cl)cc(Cl)c1)N2
REMARK SMILES IDX 7 1 8 2 5 3 6 4 20 5 10 6 4 7 11 8 9 9 12 12 14 13 13 14
REMARK SMILES IDX 16 15 17 16 19 17 15 18 18 19 2 20 3 21 1 22
REMARK H PARENT 20 10 10 11
ROOT
ATOM      1  C   UNL     1      -4.946 -13.806   1.677  1.00  0.00     0.060 A 
ATOM      2  C   UNL     1      -5.239 -13.218   0.469  1.00  0.00     0.066 A 
ATOM      3  C   UNL     1      -6.359 -15.631   1.207  1.00  0.00     0.088 A 
ATOM      4  C   UNL     1      -5.288 -15.049   1.937  1.00  0.00     0.035 A 
ATOM      5  N   UNL     1      -4.011 -12.968   2.401  1.00  0.00    -0.360 N 
ATOM      6  N   UNL     1      -4.466 -12.055   0.436  1.00  0.00    -0.360 N 
ATOM      7  C   UNL     1      -6.789 -14.991   0.046  1.00  0.00     0.271 A 
ATOM      8  C   UNL     1      -3.421 -12.290   1.366  1.00  0.00     0.205 C 
ATOM      9  C   UNL     1      -6.185 -13.756  -0.344  1.00  0.00     0.113 A 
ATOM     10  H   UNL     1      -3.836 -12.900   3.414  1.00  0.00     0.163 HD
ATOM     11  H   UNL     1      -4.620 -11.213  -0.137  1.00  0.00     0.163 HD
ENDROOT
BRANCH   8  12
ATOM     12  C   UNL     1      -2.535 -11.053   1.681  1.00  0.00    -0.003 A 
ATOM     13  C   UNL     1      -2.207  -9.048   3.097  1.00  0.00     0.042 A 
ATOM     14  C   UNL     1      -2.509 -10.463   2.965  1.00  0.00     0.028 A 
ATOM     15  C   UNL     1      -1.385  -8.441   2.044  1.00  0.00     0.041 A 
ATOM     16  C   UNL     1      -1.132  -9.260   0.863  1.00  0.00     0.042 A 
ATOM     17  C   UNL     1      -1.815 -10.469   0.579  1.00  0.00     0.028 A 
ATOM     18  Cl  UNL     1      -2.410  -8.180   4.376  1.00  0.00    -0.084 Cl
ATOM     19  Cl  UNL     1      -0.008  -8.638  -0.264  1.00  0.00    -0.084 Cl
ENDBRANCH   8  12
BRANCH   7  20
ATOM     20  N   UNL     1      -7.711 -15.531  -0.828  1.00  0.00     0.062 N 
ATOM     21  O   UNL     1      -8.859 -15.490  -0.579  1.00  0.00    -0.258 OA
ATOM     22  O   UNL     1      -7.413 -15.898  -2.044  1.00  0.00    -0.258 OA
ENDBRANCH   7  20
TORSDOF 2
ENDMDL
MODEL 8
REMARK VINA RESULT:    -4.025      5.122      7.583
REMARK INTER + INTRA:          -4.811
REMARK INTER:                  -4.512
REMARK INTRA:                  -0.299
REMARK UNBOUND:                -0.315
REMARK SMILES O=[N+]([O-])c1ccc2c(c1)N[C@@H](c1cc(Cl)cc(Cl)c1)N2
REMARK SMILES IDX 7 1 8 2 5 3 6 4 20 5 10 6 4 7 11 8 9 9 12 12 14 13 13 14
REMARK SMILES IDX 16 15 17 16 19 17 15 18 18 19 2 20 3 21 1 22
REMARK H PARENT 20 10 10 11
ROOT
ATOM      1  C   UNL     1      -2.225  -7.523   2.063  1.00  0.00     0.060 A 
ATOM      2  C   UNL     1      -0.876  -7.708   1.875  1.00  0.00     0.066 A 
ATOM      3  C   UNL     1      -2.032  -5.212   1.648  1.00  0.00     0.088 A 
ATOM      4  C   UNL     1      -2.816  -6.394   1.735  1.00  0.00     0.035 A 
ATOM      5  N   UNL     1      -2.843  -8.797   2.372  1.00  0.00    -0.360 N 
ATOM      6  N   UNL     1      -0.675  -9.082   2.027  1.00  0.00    -0.360 N 
ATOM      7  C   UNL     1      -0.646  -5.343   1.597  1.00  0.00     0.271 A 
ATOM      8  C   UNL     1      -1.949  -9.660   1.795  1.00  0.00     0.205 C 
ATOM      9  C   UNL     1      -0.055  -6.641   1.687  1.00  0.00     0.113 A 
ATOM     10  H   UNL     1      -3.715  -8.998   2.883  1.00  0.00     0.163 HD
ATOM     11  H   UNL     1       0.203  -9.568   2.257  1.00  0.00     0.163 HD
ENDROOT
BRANCH   8  12
ATOM     12  C   UNL     1      -2.049 -11.177   2.119  1.00  0.00    -0.003 A 
ATOM     13  C   UNL     1      -0.829 -13.304   2.470  1.00  0.00     0.042 A 
ATOM     14  C   UNL     1      -0.983 -11.881   2.724  1.00  0.00     0.028 A 
ATOM     15  C   UNL     1      -2.042 -14.054   2.125  1.00  0.00     0.041 A 
ATOM     16  C   UNL     1      -3.241 -13.266   1.861  1.00  0.00     0.042 A 
ATOM     17  C   UNL     1      -3.240 -11.861   1.683  1.00  0.00     0.028 A 
ATOM     18  Cl  UNL     1       0.423 -14.168   2.812  1.00  0.00    -0.084 Cl
ATOM     19  Cl  UNL     1      -4.696 -14.142   1.667  1.00  0.00    -0.084 Cl
ENDBRANCH   8  12
BRANCH   7  20
ATOM     20  N   UNL     1       0.213  -4.290   1.359  1.00  0.00     0.062 N 
ATOM     21  O   UNL     1      -0.194  -3.187   1.328  1.00  0.00    -0.258 OA
ATOM     22  O   UNL     1       1.513  -4.407   1.384  1.00  0.00    -0.258 OA
ENDBRANCH   7  20
TORSDOF 2
ENDMDL
MODEL 9
REMARK VINA RESULT:    -4.024      1.595      2.214
REMARK INTER + INTRA:          -4.810
REMARK INTER:                  -4.510
REMARK INTRA:                  -0.300
REMARK UNBOUND:                -0.315
REMARK SMILES O=[N+]([O-])c1ccc2c(c1)N[C@@H](c1cc(Cl)cc(Cl)c1)N2
REMARK SMILES IDX 7 1 8 2 5 3 6 4 20 5 10 6 4 7 11 8 9 9 12 12 14 13 13 14
REMARK SMILES IDX 16 15 17 16 19 17 15 18 18 19 2 20 3 21 1 22
REMARK H PARENT 20 10 10 11
ROOT
ATOM      1  C   UNL     1      -2.033 -11.642   1.723  1.00  0.00     0.060 A 
ATOM      2  C   UNL     1      -0.726 -11.572   2.143  1.00  0.00     0.066 A 
ATOM      3  C   UNL     1      -2.124 -13.951   2.178  1.00  0.00     0.088 A 
ATOM      4  C   UNL     1      -2.771 -12.707   1.950  1.00  0.00     0.035 A 
ATOM      5  N   UNL     1      -2.472 -10.325   1.305  1.00  0.00    -0.360 N 
ATOM      6  N   UNL     1      -0.379 -10.224   2.020  1.00  0.00    -0.360 N 
ATOM      7  C   UNL     1      -0.761 -13.942   2.468  1.00  0.00     0.271 A 
ATOM      8  C   UNL     1      -1.617  -9.531   2.024  1.00  0.00     0.205 C 
ATOM      9  C   UNL     1      -0.049 -12.702   2.475  1.00  0.00     0.113 A 
ATOM     10  H   UNL     1      -3.220 -10.059   0.650  1.00  0.00     0.163 HD
ATOM     11  H   UNL     1       0.566  -9.822   1.944  1.00  0.00     0.163 HD
ENDROOT
BRANCH   8  12
ATOM     12  C   UNL     1      -1.522  -8.019   1.680  1.00  0.00    -0.003 A 
ATOM     13  C   UNL     1      -0.040  -6.095   1.192  1.00  0.00     0.042 A 
ATOM     14  C   UNL     1      -0.419  -7.482   0.978  1.00  0.00     0.028 A 
ATOM     15  C   UNL     1      -1.100  -5.173   1.618  1.00  0.00     0.041 A 
ATOM     16  C   UNL     1      -2.374  -5.777   1.992  1.00  0.00     0.042 A 
ATOM     17  C   UNL     1      -2.562  -7.166   2.197  1.00  0.00     0.028 A 
ATOM     18  Cl  UNL     1       1.291  -5.426   0.735  1.00  0.00    -0.084 Cl
ATOM     19  Cl  UNL     1      -3.666  -4.697   2.285  1.00  0.00    -0.084 Cl
ENDBRANCH   8  12
BRANCH   7  20
ATOM     20  N   UNL     1      -0.054 -15.061   2.857  1.00  0.00     0.062 N 
ATOM     21  O   UNL     1       1.020 -14.952   3.322  1.00  0.00    -0.258 OA
ATOM     22  O   UNL     1      -0.589 -16.248   2.952  1.00  0.00    -0.258 OA
ENDBRANCH   7  20
TORSDOF 2
ENDMDL
