MODEL 1
REMARK VINA RESULT:    -4.091      0.000      0.000
REMARK INTER + INTRA:          -4.875
REMARK INTER:                  -4.569
REMARK INTRA:                  -0.306
REMARK UNBOUND:                -0.306
REMARK SMILES O=[N+]([O-])c1ccc2c(c1)N[C@@H](c1cc(Cl)cc(Cl)c1)N2
REMARK SMILES IDX 7 1 8 2 5 3 6 4 20 5 10 6 4 7 11 8 9 9 12 12 14 13 13 14
REMARK SMILES IDX 16 15 17 16 19 17 15 18 18 19 2 20 3 21 1 22
REMARK H PARENT 20 10 10 11
ROOT
ATOM      1  C   UNL     1      11.166  -4.737   8.021  1.00  0.00     0.060 A 
ATOM      2  C   UNL     1      11.009  -5.184   6.731  1.00  0.00     0.066 A 
ATOM      3  C   UNL     1      12.756  -6.414   8.478  1.00  0.00     0.088 A 
ATOM      4  C   UNL     1      12.151  -5.164   8.782  1.00  0.00     0.035 A 
ATOM      5  N   UNL     1      10.303  -3.593   8.239  1.00  0.00    -0.360 N 
ATOM      6  N   UNL     1      10.091  -4.303   6.153  1.00  0.00    -0.360 N 
ATOM      7  C   UNL     1      12.511  -6.979   7.229  1.00  0.00     0.271 A 
ATOM      8  C   UNL     1      10.158  -3.135   6.956  1.00  0.00     0.205 C 
ATOM      9  C   UNL     1      11.625  -6.322   6.318  1.00  0.00     0.113 A 
ATOM     10  H   UNL     1       9.909  -3.224   9.116  1.00  0.00     0.163 HD
ATOM     11  H   UNL     1       9.498  -4.465   5.327  1.00  0.00     0.163 HD
ENDROOT
BRANCH   8  12
ATOM     12  C   UNL     1       9.068  -2.070   6.653  1.00  0.00    -0.003 A 
ATOM     13  C   UNL     1       6.818  -1.195   7.204  1.00  0.00     0.042 A 
ATOM     14  C   UNL     1       8.124  -1.672   7.626  1.00  0.00     0.028 A 
ATOM     15  C   UNL     1       6.729  -0.588   5.871  1.00  0.00     0.041 A 
ATOM     16  C   UNL     1       7.906  -0.716   5.019  1.00  0.00     0.042 A 
ATOM     17  C   UNL     1       8.997  -1.576   5.301  1.00  0.00     0.028 A 
ATOM     18  Cl  UNL     1       5.574  -0.990   8.121  1.00  0.00    -0.084 Cl
ATOM     19  Cl  UNL     1       7.882   0.166   3.555  1.00  0.00    -0.084 Cl
ENDBRANCH   8  12
BRANCH   7  20
ATOM     20  N   UNL     1      13.155  -8.104   6.758  1.00  0.00     0.062 N 
ATOM     21  O   UNL     1      12.807  -9.174   7.100  1.00  0.00    -0.258 OA
ATOM     22  O   UNL     1      14.003  -8.081   5.766  1.00  0.00    -0.258 OA
ENDBRANCH   7  20
TORSDOF 2
ENDMDL
MODEL 2
REMARK VINA RESULT:    -4.063      5.949      7.282
REMARK INTER + INTRA:          -4.844
REMARK INTER:                  -4.537
REMARK INTRA:                  -0.308
REMARK UNBOUND:                -0.306
REMARK SMILES O=[N+]([O-])c1ccc2c(c1)N[C@@H](c1cc(Cl)cc(Cl)c1)N2
REMARK SMILES IDX 7 1 8 2 5 3 6 4 20 5 10 6 4 7 11 8 9 9 12 12 14 13 13 14
REMARK SMILES IDX 16 15 17 16 19 17 15 18 18 19 2 20 3 21 1 22
REMARK H PARENT 20 10 10 11
ROOT
ATOM      1  C   UNL     1      12.369   0.860   8.238  1.00  0.00     0.060 A 
ATOM      2  C   UNL     1      11.426   1.596   8.916  1.00  0.00     0.066 A 
ATOM      3  C   UNL     1      14.093   1.675   9.622  1.00  0.00     0.088 A 
ATOM      4  C   UNL     1      13.590   0.712   8.705  1.00  0.00     0.035 A 
ATOM      5  N   UNL     1      11.721   0.108   7.183  1.00  0.00    -0.360 N 
ATOM      6  N   UNL     1      10.210   1.270   8.309  1.00  0.00    -0.360 N 
ATOM      7  C   UNL     1      13.187   2.541  10.230  1.00  0.00     0.271 A 
ATOM      8  C   UNL     1      10.446   0.022   7.677  1.00  0.00     0.205 C 
ATOM      9  C   UNL     1      11.803   2.476   9.880  1.00  0.00     0.113 A 
ATOM     10  H   UNL     1      12.111  -0.261   6.304  1.00  0.00     0.163 HD
ATOM     11  H   UNL     1       9.336   1.815   8.319  1.00  0.00     0.163 HD
ENDROOT
BRANCH   8  12
ATOM     12  C   UNL     1       9.304  -0.463   6.740  1.00  0.00    -0.003 A 
ATOM     13  C   UNL     1       8.399  -0.517   4.436  1.00  0.00     0.042 A 
ATOM     14  C   UNL     1       9.512  -0.669   5.358  1.00  0.00     0.028 A 
ATOM     15  C   UNL     1       7.053  -0.750   4.972  1.00  0.00     0.041 A 
ATOM     16  C   UNL     1       6.947  -0.900   6.420  1.00  0.00     0.042 A 
ATOM     17  C   UNL     1       7.994  -0.597   7.325  1.00  0.00     0.028 A 
ATOM     18  Cl  UNL     1       8.498  -0.426   2.883  1.00  0.00    -0.084 Cl
ATOM     19  Cl  UNL     1       5.420  -1.377   7.022  1.00  0.00    -0.084 Cl
ENDBRANCH   8  12
BRANCH   7  20
ATOM     20  N   UNL     1      13.525   3.412  11.246  1.00  0.00     0.062 N 
ATOM     21  O   UNL     1      14.249   4.315  11.037  1.00  0.00    -0.258 OA
ATOM     22  O   UNL     1      12.914   3.439  12.399  1.00  0.00    -0.258 OA
ENDBRANCH   7  20
TORSDOF 2
ENDMDL
MODEL 3
REMARK VINA RESULT:    -3.789      3.272      4.752
REMARK INTER + INTRA:          -4.538
REMARK INTER:                  -4.222
REMARK INTRA:                  -0.316
REMARK UNBOUND:                -0.306
REMARK SMILES O=[N+]([O-])c1ccc2c(c1)N[C@@H](c1cc(Cl)cc(Cl)c1)N2
REMARK SMILES IDX 7 1 8 2 5 3 6 4 20 5 10 6 4 7 11 8 9 9 12 12 14 13 13 14
REMARK SMILES IDX 16 15 17 16 19 17 15 18 18 19 2 20 3 21 1 22
REMARK H PARENT 20 10 10 11
ROOT
ATOM      1  C   UNL     1       9.275  -0.636   6.706  1.00  0.00     0.060 A 
ATOM      2  C   UNL     1       9.043  -1.976   6.513  1.00  0.00     0.066 A 
ATOM      3  C   UNL     1      11.290  -1.081   7.842  1.00  0.00     0.088 A 
ATOM      4  C   UNL     1      10.441  -0.194   7.128  1.00  0.00     0.035 A 
ATOM      5  N   UNL     1       8.194   0.127   6.115  1.00  0.00    -0.360 N 
ATOM      6  N   UNL     1       7.855  -2.035   5.779  1.00  0.00    -0.360 N 
ATOM      7  C   UNL     1      11.010  -2.445   7.792  1.00  0.00     0.271 A 
ATOM      8  C   UNL     1       7.744  -0.759   5.171  1.00  0.00     0.205 C 
ATOM      9  C   UNL     1       9.859  -2.904   7.078  1.00  0.00     0.113 A 
ATOM     10  H   UNL     1       7.856   1.073   6.341  1.00  0.00     0.163 HD
ATOM     11  H   UNL     1       7.204  -2.829   5.699  1.00  0.00     0.163 HD
ENDROOT
BRANCH   8  12
ATOM     12  C   UNL     1       6.385  -0.486   4.466  1.00  0.00    -0.003 A 
ATOM     13  C   UNL     1       4.872   1.202   3.470  1.00  0.00     0.042 A 
ATOM     14  C   UNL     1       6.198   0.626   3.614  1.00  0.00     0.028 A 
ATOM     15  C   UNL     1       3.729   0.310   3.699  1.00  0.00     0.041 A 
ATOM     16  C   UNL     1       4.032  -1.004   4.256  1.00  0.00     0.042 A 
ATOM     17  C   UNL     1       5.291  -1.362   4.799  1.00  0.00     0.028 A 
ATOM     18  Cl  UNL     1       4.533   2.575   2.814  1.00  0.00    -0.084 Cl
ATOM     19  Cl  UNL     1       2.734  -2.114   4.326  1.00  0.00    -0.084 Cl
ENDBRANCH   8  12
BRANCH   7  20
ATOM     20  N   UNL     1      11.840  -3.416   8.312  1.00  0.00     0.062 N 
ATOM     21  O   UNL     1      11.782  -4.521   7.914  1.00  0.00    -0.258 OA
ATOM     22  O   UNL     1      12.863  -3.149   9.079  1.00  0.00    -0.258 OA
ENDBRANCH   7  20
TORSDOF 2
ENDMDL
MODEL 4
REMARK VINA RESULT:    -3.765      4.022      5.171
REMARK INTER + INTRA:          -4.512
REMARK INTER:                  -4.196
REMARK INTRA:                  -0.316
REMARK UNBOUND:                -0.306
REMARK SMILES O=[N+]([O-])c1ccc2c(c1)N[C@@H](c1cc(Cl)cc(Cl)c1)N2
REMARK SMILES IDX 7 1 8 2 5 3 6 4 20 5 10 6 4 7 11 8 9 9 12 12 14 13 13 14
REMARK SMILES IDX 16 15 17 16 19 17 15 18 18 19 2 20 3 21 1 22
REMARK H PARENT 20 10 10 11
ROOT
ATOM      1  C   UNL     1       9.037  -1.897   6.595  1.00  0.00     0.060 A 
ATOM      2  C   UNL     1       9.291  -0.562   6.802  1.00  0.00     0.066 A 
ATOM      3  C   UNL     1      11.025  -2.513   7.698  1.00  0.00     0.088 A 
ATOM      4  C   UNL     1       9.729  -2.832   7.211  1.00  0.00     0.035 A 
ATOM      5  N   UNL     1       7.785  -2.040   5.879  1.00  0.00    -0.360 N 
ATOM      6  N   UNL     1       8.191   0.103   6.255  1.00  0.00    -0.360 N 
ATOM      7  C   UNL     1      11.382  -1.170   7.792  1.00  0.00     0.271 A 
ATOM      8  C   UNL     1       7.160  -0.870   6.223  1.00  0.00     0.205 C 
ATOM      9  C   UNL     1      10.468  -0.163   7.351  1.00  0.00     0.113 A 
ATOM     10  H   UNL     1       7.455  -2.809   5.279  1.00  0.00     0.163 HD
ATOM     11  H   UNL     1       8.139   1.084   5.944  1.00  0.00     0.163 HD
ENDROOT
BRANCH   8  12
ATOM     12  C   UNL     1       5.880  -0.443   5.452  1.00  0.00    -0.003 A 
ATOM     13  C   UNL     1       3.748  -1.164   4.418  1.00  0.00     0.042 A 
ATOM     14  C   UNL     1       4.679  -1.183   5.534  1.00  0.00     0.028 A 
ATOM     15  C   UNL     1       3.768   0.022   3.554  1.00  0.00     0.041 A 
ATOM     16  C   UNL     1       4.861   0.965   3.769  1.00  0.00     0.042 A 
ATOM     17  C   UNL     1       5.999   0.687   4.566  1.00  0.00     0.028 A 
ATOM     18  Cl  UNL     1       2.537  -2.124   4.215  1.00  0.00    -0.084 Cl
ATOM     19  Cl  UNL     1       4.768   2.440   2.912  1.00  0.00    -0.084 Cl
ENDBRANCH   8  12
BRANCH   7  20
ATOM     20  N   UNL     1      12.545  -0.727   8.388  1.00  0.00     0.062 N 
ATOM     21  O   UNL     1      12.627   0.378   8.782  1.00  0.00    -0.258 OA
ATOM     22  O   UNL     1      13.511  -1.526   8.755  1.00  0.00    -0.258 OA
ENDBRANCH   7  20
TORSDOF 2
ENDMDL
MODEL 5
REMARK VINA RESULT:    -3.431      1.918      2.538
REMARK INTER + INTRA:          -4.138
REMARK INTER:                  -3.825
REMARK INTRA:                  -0.313
REMARK UNBOUND:                -0.306
REMARK SMILES O=[N+]([O-])c1ccc2c(c1)N[C@@H](c1cc(Cl)cc(Cl)c1)N2
REMARK SMILES IDX 7 1 8 2 5 3 6 4 20 5 10 6 4 7 11 8 9 9 12 12 14 13 13 14
REMARK SMILES IDX 16 15 17 16 19 17 15 18 18 19 2 20 3 21 1 22
REMARK H PARENT 20 10 10 11
ROOT
ATOM      1  C   UNL     1      11.620  -5.616   6.698  1.00  0.00     0.060 A 
ATOM      2  C   UNL     1      12.000  -5.219   7.958  1.00  0.00     0.066 A 
ATOM      3  C   UNL     1      12.757  -7.666   6.931  1.00  0.00     0.088 A 
ATOM      4  C   UNL     1      11.778  -6.858   6.293  1.00  0.00     0.035 A 
ATOM      5  N   UNL     1      10.813  -4.576   6.092  1.00  0.00    -0.360 N 
ATOM      6  N   UNL     1      11.402  -3.968   8.137  1.00  0.00    -0.360 N 
ATOM      7  C   UNL     1      13.279  -7.231   8.148  1.00  0.00     0.271 A 
ATOM      8  C   UNL     1      10.331  -3.944   7.208  1.00  0.00     0.205 C 
ATOM      9  C   UNL     1      12.861  -5.975   8.687  1.00  0.00     0.113 A 
ATOM     10  H   UNL     1      10.647  -4.369   5.097  1.00  0.00     0.163 HD
ATOM     11  H   UNL     1      11.679  -3.228   8.798  1.00  0.00     0.163 HD
ENDROOT
BRANCH   8  12
ATOM     12  C   UNL     1       9.632  -2.565   7.051  1.00  0.00    -0.003 A 
ATOM     13  C   UNL     1       7.913  -1.238   5.860  1.00  0.00     0.042 A 
ATOM     14  C   UNL     1       8.313  -2.450   6.555  1.00  0.00     0.028 A 
ATOM     15  C   UNL     1       8.628  -0.005   6.206  1.00  0.00     0.041 A 
ATOM     16  C   UNL     1       9.808  -0.152   7.051  1.00  0.00     0.042 A 
ATOM     17  C   UNL     1      10.423  -1.396   7.339  1.00  0.00     0.028 A 
ATOM     18  Cl  UNL     1       6.618  -1.051   5.013  1.00  0.00    -0.084 Cl
ATOM     19  Cl  UNL     1      10.516   1.294   7.623  1.00  0.00    -0.084 Cl
ENDBRANCH   8  12
BRANCH   7  20
ATOM     20  N   UNL     1      14.116  -7.993   8.937  1.00  0.00     0.062 N 
ATOM     21  O   UNL     1      14.580  -8.990   8.520  1.00  0.00    -0.258 OA
ATOM     22  O   UNL     1      14.620  -7.568  10.064  1.00  0.00    -0.258 OA
ENDBRANCH   7  20
TORSDOF 2
ENDMDL
MODEL 6
REMARK VINA RESULT:    -3.422      4.432      5.772
REMARK INTER + INTRA:          -4.128
REMARK INTER:                  -3.829
REMARK INTRA:                  -0.299
REMARK UNBOUND:                -0.306
REMARK SMILES O=[N+]([O-])c1ccc2c(c1)N[C@@H](c1cc(Cl)cc(Cl)c1)N2
REMARK SMILES IDX 7 1 8 2 5 3 6 4 20 5 10 6 4 7 11 8 9 9 12 12 14 13 13 14
REMARK SMILES IDX 16 15 17 16 19 17 15 18 18 19 2 20 3 21 1 22
REMARK H PARENT 20 10 10 11
ROOT
ATOM      1  C   UNL     1       9.459  -1.475   6.593  1.00  0.00     0.060 A 
ATOM      2  C   UNL     1       9.482  -0.105   6.693  1.00  0.00     0.066 A 
ATOM      3  C   UNL     1      11.429  -1.668   7.871  1.00  0.00     0.088 A 
ATOM      4  C   UNL     1      10.240  -2.232   7.334  1.00  0.00     0.035 A 
ATOM      5  N   UNL     1       8.303  -1.878   5.817  1.00  0.00    -0.360 N 
ATOM      6  N   UNL     1       8.336   0.326   6.021  1.00  0.00    -0.360 N 
ATOM      7  C   UNL     1      11.561  -0.281   7.864  1.00  0.00     0.271 A 
ATOM      8  C   UNL     1       7.477  -0.803   6.013  1.00  0.00     0.205 C 
ATOM      9  C   UNL     1      10.535   0.524   7.277  1.00  0.00     0.113 A 
ATOM     10  H   UNL     1       8.145  -2.736   5.269  1.00  0.00     0.163 HD
ATOM     11  H   UNL     1       8.155   1.257   5.619  1.00  0.00     0.163 HD
ENDROOT
BRANCH   8  12
ATOM     12  C   UNL     1       6.208  -0.654   5.127  1.00  0.00    -0.003 A 
ATOM     13  C   UNL     1       4.808   0.858   3.753  1.00  0.00     0.042 A 
ATOM     14  C   UNL     1       6.113   0.336   4.122  1.00  0.00     0.028 A 
ATOM     15  C   UNL     1       3.654  -0.024   3.962  1.00  0.00     0.041 A 
ATOM     16  C   UNL     1       3.900  -1.249   4.716  1.00  0.00     0.042 A 
ATOM     17  C   UNL     1       5.089  -1.505   5.442  1.00  0.00     0.028 A 
ATOM     18  Cl  UNL     1       4.537   2.127   2.890  1.00  0.00    -0.084 Cl
ATOM     19  Cl  UNL     1       2.612  -2.371   4.780  1.00  0.00    -0.084 Cl
ENDBRANCH   8  12
BRANCH   7  20
ATOM     20  N   UNL     1      12.591   0.392   8.490  1.00  0.00     0.062 N 
ATOM     21  O   UNL     1      12.475   1.529   8.765  1.00  0.00    -0.258 OA
ATOM     22  O   UNL     1      13.627  -0.208   9.009  1.00  0.00    -0.258 OA
ENDBRANCH   7  20
TORSDOF 2
ENDMDL
MODEL 7
REMARK VINA RESULT:    -3.417      2.850      4.021
REMARK INTER + INTRA:          -4.123
REMARK INTER:                  -3.823
REMARK INTRA:                  -0.299
REMARK UNBOUND:                -0.306
REMARK SMILES O=[N+]([O-])c1ccc2c(c1)N[C@@H](c1cc(Cl)cc(Cl)c1)N2
REMARK SMILES IDX 7 1 8 2 5 3 6 4 20 5 10 6 4 7 11 8 9 9 12 12 14 13 13 14
REMARK SMILES IDX 16 15 17 16 19 17 15 18 18 19 2 20 3 21 1 22
REMARK H PARENT 20 10 10 11
ROOT
ATOM      1  C   UNL     1       9.377  -1.130   6.980  1.00  0.00     0.060 A 
ATOM      2  C   UNL     1       8.927  -2.391   6.669  1.00  0.00     0.066 A 
ATOM      3  C   UNL     1      11.366  -1.994   7.899  1.00  0.00     0.088 A 
ATOM      4  C   UNL     1      10.621  -0.915   7.351  1.00  0.00     0.035 A 
ATOM      5  N   UNL     1       8.391  -0.154   6.559  1.00  0.00    -0.360 N 
ATOM      6  N   UNL     1       7.700  -2.190   6.031  1.00  0.00    -0.360 N 
ATOM      7  C   UNL     1      10.875  -3.287   7.732  1.00  0.00     0.271 A 
ATOM      8  C   UNL     1       7.750  -0.850   5.568  1.00  0.00     0.205 C 
ATOM      9  C   UNL     1       9.624  -3.487   7.069  1.00  0.00     0.113 A 
ATOM     10  H   UNL     1       8.220   0.800   6.908  1.00  0.00     0.163 HD
ATOM     11  H   UNL     1       6.930  -2.865   5.922  1.00  0.00     0.163 HD
ENDROOT
BRANCH   8  12
ATOM     12  C   UNL     1       6.409  -0.302   5.007  1.00  0.00    -0.003 A 
ATOM     13  C   UNL     1       4.081  -0.814   4.336  1.00  0.00     0.042 A 
ATOM     14  C   UNL     1       5.172  -0.925   5.289  1.00  0.00     0.028 A 
ATOM     15  C   UNL     1       4.073   0.367   3.466  1.00  0.00     0.041 A 
ATOM     16  C   UNL     1       5.269   1.201   3.492  1.00  0.00     0.042 A 
ATOM     17  C   UNL     1       6.490   0.815   4.100  1.00  0.00     0.028 A 
ATOM     18  Cl  UNL     1       2.768  -1.655   4.341  1.00  0.00    -0.084 Cl
ATOM     19  Cl  UNL     1       5.179   2.682   2.643  1.00  0.00    -0.084 Cl
ENDBRANCH   8  12
BRANCH   7  20
ATOM     20  N   UNL     1      11.576  -4.423   8.081  1.00  0.00     0.062 N 
ATOM     21  O   UNL     1      11.285  -5.464   7.619  1.00  0.00    -0.258 OA
ATOM     22  O   UNL     1      12.705  -4.394   8.735  1.00  0.00    -0.258 OA
ENDBRANCH   7  20
TORSDOF 2
ENDMDL
MODEL 8
REMARK VINA RESULT:    -3.392      5.810      8.324
REMARK INTER + INTRA:          -4.095
REMARK INTER:                  -3.795
REMARK INTRA:                  -0.300
REMARK UNBOUND:                -0.306
REMARK SMILES O=[N+]([O-])c1ccc2c(c1)N[C@@H](c1cc(Cl)cc(Cl)c1)N2
REMARK SMILES IDX 7 1 8 2 5 3 6 4 20 5 10 6 4 7 11 8 9 9 12 12 14 13 13 14
REMARK SMILES IDX 16 15 17 16 19 17 15 18 18 19 2 20 3 21 1 22
REMARK H PARENT 20 10 10 11
ROOT
ATOM      1  C   UNL     1       6.391   0.409   4.530  1.00  0.00     0.060 A 
ATOM      2  C   UNL     1       5.937  -0.880   4.675  1.00  0.00     0.066 A 
ATOM      3  C   UNL     1       4.332   1.101   3.619  1.00  0.00     0.088 A 
ATOM      4  C   UNL     1       5.571   1.399   4.248  1.00  0.00     0.035 A 
ATOM      5  N   UNL     1       7.757   0.492   5.009  1.00  0.00    -0.360 N 
ATOM      6  N   UNL     1       6.996  -1.571   5.270  1.00  0.00    -0.360 N 
ATOM      7  C   UNL     1       3.896  -0.222   3.616  1.00  0.00     0.271 A 
ATOM      8  C   UNL     1       7.785  -0.564   5.883  1.00  0.00     0.205 C 
ATOM      9  C   UNL     1       4.720  -1.239   4.189  1.00  0.00     0.113 A 
ATOM     10  H   UNL     1       8.501   1.159   4.761  1.00  0.00     0.163 HD
ATOM     11  H   UNL     1       7.166  -2.587   5.266  1.00  0.00     0.163 HD
ENDROOT
BRANCH   8  12
ATOM     12  C   UNL     1       9.153  -1.050   6.436  1.00  0.00    -0.003 A 
ATOM     13  C   UNL     1      10.449  -2.929   7.397  1.00  0.00     0.042 A 
ATOM     14  C   UNL     1       9.532  -2.411   6.395  1.00  0.00     0.028 A 
ATOM     15  C   UNL     1      11.380  -1.973   8.006  1.00  0.00     0.041 A 
ATOM     16  C   UNL     1      11.153  -0.563   7.706  1.00  0.00     0.042 A 
ATOM     17  C   UNL     1       9.981  -0.066   7.086  1.00  0.00     0.028 A 
ATOM     18  Cl  UNL     1      10.749  -4.432   7.677  1.00  0.00    -0.084 Cl
ATOM     19  Cl  UNL     1      12.355   0.528   8.241  1.00  0.00    -0.084 Cl
ENDBRANCH   8  12
BRANCH   7  20
ATOM     20  N   UNL     1       2.648  -0.615   3.176  1.00  0.00     0.062 N 
ATOM     21  O   UNL     1       2.005   0.100   2.500  1.00  0.00    -0.258 OA
ATOM     22  O   UNL     1       2.207  -1.839   3.276  1.00  0.00    -0.258 OA
ENDBRANCH   7  20
TORSDOF 2
ENDMDL
MODEL 9
REMARK VINA RESULT:    -3.385      5.836      8.394
REMARK INTER + INTRA:          -4.087
REMARK INTER:                  -3.770
REMARK INTRA:                  -0.317
REMARK UNBOUND:                -0.306
REMARK SMILES O=[N+]([O-])c1ccc2c(c1)N[C@@H](c1cc(Cl)cc(Cl)c1)N2
REMARK SMILES IDX 7 1 8 2 5 3 6 4 20 5 10 6 4 7 11 8 9 9 12 12 14 13 13 14
REMARK SMILES IDX 16 15 17 16 19 17 15 18 18 19 2 20 3 21 1 22
REMARK H PARENT 20 10 10 11
ROOT
ATOM      1  C   UNL     1       6.314   0.346   4.623  1.00  0.00     0.060 A 
ATOM      2  C   UNL     1       5.725  -0.861   4.917  1.00  0.00     0.066 A 
ATOM      3  C   UNL     1       4.405   1.065   3.444  1.00  0.00     0.088 A 
ATOM      4  C   UNL     1       5.619   1.348   4.128  1.00  0.00     0.035 A 
ATOM      5  N   UNL     1       7.642   0.383   5.201  1.00  0.00    -0.360 N 
ATOM      6  N   UNL     1       6.664  -1.540   5.697  1.00  0.00    -0.360 N 
ATOM      7  C   UNL     1       3.841  -0.200   3.598  1.00  0.00     0.271 A 
ATOM      8  C   UNL     1       7.502  -0.522   6.220  1.00  0.00     0.205 C 
ATOM      9  C   UNL     1       4.517  -1.184   4.385  1.00  0.00     0.113 A 
ATOM     10  H   UNL     1       8.465   0.937   4.924  1.00  0.00     0.163 HD
ATOM     11  H   UNL     1       6.733  -2.555   5.857  1.00  0.00     0.163 HD
ENDROOT
BRANCH   8  12
ATOM     12  C   UNL     1       8.772  -1.034   6.956  1.00  0.00    -0.003 A 
ATOM     13  C   UNL     1      11.061  -0.510   7.744  1.00  0.00     0.042 A 
ATOM     14  C   UNL     1       9.658  -0.151   7.614  1.00  0.00     0.028 A 
ATOM     15  C   UNL     1      11.384  -1.941   7.749  1.00  0.00     0.041 A 
ATOM     16  C   UNL     1      10.299  -2.854   7.408  1.00  0.00     0.042 A 
ATOM     17  C   UNL     1       9.063  -2.441   6.853  1.00  0.00     0.028 A 
ATOM     18  Cl  UNL     1      12.217   0.443   8.173  1.00  0.00    -0.084 Cl
ATOM     19  Cl  UNL     1      10.617  -4.521   7.617  1.00  0.00    -0.084 Cl
ENDBRANCH   8  12
BRANCH   7  20
ATOM     20  N   UNL     1       2.596  -0.547   3.115  1.00  0.00     0.062 N 
ATOM     21  O   UNL     1       1.970   0.222   2.483  1.00  0.00    -0.258 OA
ATOM     22  O   UNL     1       2.141  -1.770   3.121  1.00  0.00    -0.258 OA
ENDBRANCH   7  20
TORSDOF 2
ENDMDL
