MODEL 1
REMARK VINA RESULT:    -4.419      0.000      0.000
REMARK INTER + INTRA:          -5.251
REMARK INTER:                  -4.936
REMARK INTRA:                  -0.315
REMARK UNBOUND:                -0.315
REMARK SMILES O=[N+]([O-])c1ccc2c(c1)N[C@@H](c1cc(Cl)cc(Cl)c1)N2
REMARK SMILES IDX 7 1 8 2 5 3 6 4 20 5 10 6 4 7 11 8 9 9 12 12 14 13 13 14
REMARK SMILES IDX 16 15 17 16 19 17 15 18 18 19 2 20 3 21 1 22
REMARK H PARENT 20 10 10 11
ROOT
ATOM      1  C   UNL     1      -5.660   4.421  -8.874  1.00  0.00     0.060 A 
ATOM      2  C   UNL     1      -6.845   4.591  -8.199  1.00  0.00     0.066 A 
ATOM      3  C   UNL     1      -6.557   5.391 -10.824  1.00  0.00     0.088 A 
ATOM      4  C   UNL     1      -5.442   5.000 -10.035  1.00  0.00     0.035 A 
ATOM      5  N   UNL     1      -4.692   3.797  -7.994  1.00  0.00    -0.360 N 
ATOM      6  N   UNL     1      -6.596   4.113  -6.909  1.00  0.00    -0.360 N 
ATOM      7  C   UNL     1      -7.809   5.441 -10.216  1.00  0.00     0.271 A 
ATOM      8  C   UNL     1      -5.186   4.167  -6.770  1.00  0.00     0.205 C 
ATOM      9  C   UNL     1      -7.946   5.051  -8.848  1.00  0.00     0.113 A 
ATOM     10  H   UNL     1      -3.862   3.232  -8.223  1.00  0.00     0.163 HD
ATOM     11  H   UNL     1      -7.285   3.793  -6.214  1.00  0.00     0.163 HD
ENDROOT
BRANCH   8  12
ATOM     12  C   UNL     1      -4.628   3.481  -5.492  1.00  0.00    -0.003 A 
ATOM     13  C   UNL     1      -2.621   2.699  -4.271  1.00  0.00     0.042 A 
ATOM     14  C   UNL     1      -3.316   3.726  -5.028  1.00  0.00     0.028 A 
ATOM     15  C   UNL     1      -3.450   1.747  -3.522  1.00  0.00     0.041 A 
ATOM     16  C   UNL     1      -4.885   1.792  -3.780  1.00  0.00     0.042 A 
ATOM     17  C   UNL     1      -5.473   2.504  -4.854  1.00  0.00     0.028 A 
ATOM     18  Cl  UNL     1      -1.099   2.678  -3.931  1.00  0.00    -0.084 Cl
ATOM     19  Cl  UNL     1      -5.868   0.835  -2.761  1.00  0.00    -0.084 Cl
ENDBRANCH   8  12
BRANCH   7  20
ATOM     20  N   UNL     1      -8.938   5.948 -10.828  1.00  0.00     0.062 N 
ATOM     21  O   UNL     1      -9.842   6.331 -10.182  1.00  0.00    -0.258 OA
ATOM     22  O   UNL     1      -8.991   6.245 -12.098  1.00  0.00    -0.258 OA
ENDBRANCH   7  20
TORSDOF 2
ENDMDL
MODEL 2
REMARK VINA RESULT:    -4.414      1.082      2.706
REMARK INTER + INTRA:          -5.244
REMARK INTER:                  -4.930
REMARK INTRA:                  -0.315
REMARK UNBOUND:                -0.315
REMARK SMILES O=[N+]([O-])c1ccc2c(c1)N[C@@H](c1cc(Cl)cc(Cl)c1)N2
REMARK SMILES IDX 7 1 8 2 5 3 6 4 20 5 10 6 4 7 11 8 9 9 12 12 14 13 13 14
REMARK SMILES IDX 16 15 17 16 19 17 15 18 18 19 2 20 3 21 1 22
REMARK H PARENT 20 10 10 11
ROOT
ATOM      1  C   UNL     1      -6.905   4.565  -8.176  1.00  0.00     0.060 A 
ATOM      2  C   UNL     1      -5.766   4.419  -8.932  1.00  0.00     0.066 A 
ATOM      3  C   UNL     1      -8.062   5.530  -9.987  1.00  0.00     0.088 A 
ATOM      4  C   UNL     1      -8.059   4.875  -8.725  1.00  0.00     0.035 A 
ATOM      5  N   UNL     1      -6.661   4.056  -6.841  1.00  0.00    -0.360 N 
ATOM      6  N   UNL     1      -4.848   3.793  -8.084  1.00  0.00    -0.360 N 
ATOM      7  C   UNL     1      -6.884   5.531 -10.731  1.00  0.00     0.271 A 
ATOM      8  C   UNL     1      -5.643   3.172  -7.087  1.00  0.00     0.205 C 
ATOM      9  C   UNL     1      -5.706   4.929 -10.189  1.00  0.00     0.113 A 
ATOM     10  H   UNL     1      -7.124   4.292  -5.952  1.00  0.00     0.163 HD
ATOM     11  H   UNL     1      -3.821   3.785  -8.165  1.00  0.00     0.163 HD
ENDROOT
BRANCH   8  12
ATOM     12  C   UNL     1      -4.847   2.584  -5.889  1.00  0.00    -0.003 A 
ATOM     13  C   UNL     1      -4.953   1.568  -3.633  1.00  0.00     0.042 A 
ATOM     14  C   UNL     1      -5.419   1.638  -5.007  1.00  0.00     0.028 A 
ATOM     15  C   UNL     1      -3.577   2.007  -3.372  1.00  0.00     0.041 A 
ATOM     16  C   UNL     1      -2.888   2.671  -4.473  1.00  0.00     0.042 A 
ATOM     17  C   UNL     1      -3.531   3.120  -5.653  1.00  0.00     0.028 A 
ATOM     18  Cl  UNL     1      -5.647   0.803  -2.465  1.00  0.00    -0.084 Cl
ATOM     19  Cl  UNL     1      -1.225   2.994  -4.241  1.00  0.00    -0.084 Cl
ENDBRANCH   8  12
BRANCH   7  20
ATOM     20  N   UNL     1      -6.799   5.995 -12.028  1.00  0.00     0.062 N 
ATOM     21  O   UNL     1      -5.948   5.609 -12.741  1.00  0.00    -0.258 OA
ATOM     22  O   UNL     1      -7.746   6.683 -12.605  1.00  0.00    -0.258 OA
ENDBRANCH   7  20
TORSDOF 2
ENDMDL
MODEL 3
REMARK VINA RESULT:    -4.136      0.763      2.159
REMARK INTER + INTRA:          -4.935
REMARK INTER:                  -4.635
REMARK INTRA:                  -0.300
REMARK UNBOUND:                -0.315
REMARK SMILES O=[N+]([O-])c1ccc2c(c1)N[C@@H](c1cc(Cl)cc(Cl)c1)N2
REMARK SMILES IDX 7 1 8 2 5 3 6 4 20 5 10 6 4 7 11 8 9 9 12 12 14 13 13 14
REMARK SMILES IDX 16 15 17 16 19 17 15 18 18 19 2 20 3 21 1 22
REMARK H PARENT 20 10 10 11
ROOT
ATOM      1  C   UNL     1      -6.385   4.383  -8.850  1.00  0.00     0.060 A 
ATOM      2  C   UNL     1      -7.389   4.514  -7.920  1.00  0.00     0.066 A 
ATOM      3  C   UNL     1      -7.654   5.522 -10.476  1.00  0.00     0.088 A 
ATOM      4  C   UNL     1      -6.406   5.052  -9.983  1.00  0.00     0.035 A 
ATOM      5  N   UNL     1      -5.270   3.675  -8.253  1.00  0.00    -0.360 N 
ATOM      6  N   UNL     1      -6.881   3.929  -6.757  1.00  0.00    -0.360 N 
ATOM      7  C   UNL     1      -8.741   5.541  -9.605  1.00  0.00     0.271 A 
ATOM      8  C   UNL     1      -5.474   3.951  -6.927  1.00  0.00     0.205 C 
ATOM      9  C   UNL     1      -8.589   5.042  -8.274  1.00  0.00     0.113 A 
ATOM     10  H   UNL     1      -4.528   3.119  -8.702  1.00  0.00     0.163 HD
ATOM     11  H   UNL     1      -7.413   3.563  -5.954  1.00  0.00     0.163 HD
ENDROOT
BRANCH   8  12
ATOM     12  C   UNL     1      -4.673   3.155  -5.858  1.00  0.00    -0.003 A 
ATOM     13  C   UNL     1      -4.765   1.784  -3.798  1.00  0.00     0.042 A 
ATOM     14  C   UNL     1      -5.254   2.091  -5.132  1.00  0.00     0.028 A 
ATOM     15  C   UNL     1      -3.374   2.144  -3.499  1.00  0.00     0.041 A 
ATOM     16  C   UNL     1      -2.687   2.964  -4.491  1.00  0.00     0.042 A 
ATOM     17  C   UNL     1      -3.339   3.615  -5.567  1.00  0.00     0.028 A 
ATOM     18  Cl  UNL     1      -5.459   0.854  -2.758  1.00  0.00    -0.084 Cl
ATOM     19  Cl  UNL     1      -1.013   3.206  -4.245  1.00  0.00    -0.084 Cl
ENDBRANCH   8  12
BRANCH   7  20
ATOM     20  N   UNL     1      -9.959   6.112  -9.914  1.00  0.00     0.062 N 
ATOM     21  O   UNL     1     -10.759   6.293  -9.073  1.00  0.00    -0.258 OA
ATOM     22  O   UNL     1     -10.212   6.682 -11.061  1.00  0.00    -0.258 OA
ENDBRANCH   7  20
TORSDOF 2
ENDMDL
MODEL 4
REMARK VINA RESULT:    -4.101      1.586      2.213
REMARK INTER + INTRA:          -4.895
REMARK INTER:                  -4.595
REMARK INTRA:                  -0.300
REMARK UNBOUND:                -0.315
REMARK SMILES O=[N+]([O-])c1ccc2c(c1)N[C@@H](c1cc(Cl)cc(Cl)c1)N2
REMARK SMILES IDX 7 1 8 2 5 3 6 4 20 5 10 6 4 7 11 8 9 9 12 12 14 13 13 14
REMARK SMILES IDX 16 15 17 16 19 17 15 18 18 19 2 20 3 21 1 22
REMARK H PARENT 20 10 10 11
ROOT
ATOM      1  C   UNL     1      -6.355   4.837  -8.637  1.00  0.00     0.060 A 
ATOM      2  C   UNL     1      -5.145   4.481  -9.183  1.00  0.00     0.066 A 
ATOM      3  C   UNL     1      -7.156   5.571 -10.728  1.00  0.00     0.088 A 
ATOM      4  C   UNL     1      -7.389   5.137  -9.394  1.00  0.00     0.035 A 
ATOM      5  N   UNL     1      -6.345   4.540  -7.219  1.00  0.00    -0.360 N 
ATOM      6  N   UNL     1      -4.416   3.938  -8.122  1.00  0.00    -0.360 N 
ATOM      7  C   UNL     1      -5.894   5.359 -11.279  1.00  0.00     0.271 A 
ATOM      8  C   UNL     1      -5.395   3.553  -7.171  1.00  0.00     0.205 C 
ATOM      9  C   UNL     1      -4.865   4.769 -10.481  1.00  0.00     0.113 A 
ATOM     10  H   UNL     1      -6.899   4.955  -6.456  1.00  0.00     0.163 HD
ATOM     11  H   UNL     1      -3.394   3.839  -8.047  1.00  0.00     0.163 HD
ENDROOT
BRANCH   8  12
ATOM     12  C   UNL     1      -4.831   3.114  -5.791  1.00  0.00    -0.003 A 
ATOM     13  C   UNL     1      -2.817   2.768  -4.393  1.00  0.00     0.042 A 
ATOM     14  C   UNL     1      -3.592   3.590  -5.308  1.00  0.00     0.028 A 
ATOM     15  C   UNL     1      -3.561   1.815  -3.561  1.00  0.00     0.041 A 
ATOM     16  C   UNL     1      -4.972   1.633  -3.884  1.00  0.00     0.042 A 
ATOM     17  C   UNL     1      -5.581   2.119  -5.067  1.00  0.00     0.028 A 
ATOM     18  Cl  UNL     1      -1.329   2.995  -3.989  1.00  0.00    -0.084 Cl
ATOM     19  Cl  UNL     1      -5.883   0.687  -2.791  1.00  0.00    -0.084 Cl
ENDBRANCH   8  12
BRANCH   7  20
ATOM     20  N   UNL     1      -5.589   5.593 -12.604  1.00  0.00     0.062 N 
ATOM     21  O   UNL     1      -4.594   5.172 -13.067  1.00  0.00    -0.258 OA
ATOM     22  O   UNL     1      -6.448   6.073 -13.462  1.00  0.00    -0.258 OA
ENDBRANCH   7  20
TORSDOF 2
ENDMDL
MODEL 5
REMARK VINA RESULT:    -4.067      4.979      7.409
REMARK INTER + INTRA:          -4.857
REMARK INTER:                  -4.538
REMARK INTRA:                  -0.319
REMARK UNBOUND:                -0.315
REMARK SMILES O=[N+]([O-])c1ccc2c(c1)N[C@@H](c1cc(Cl)cc(Cl)c1)N2
REMARK SMILES IDX 7 1 8 2 5 3 6 4 20 5 10 6 4 7 11 8 9 9 12 12 14 13 13 14
REMARK SMILES IDX 16 15 17 16 19 17 15 18 18 19 2 20 3 21 1 22
REMARK H PARENT 20 10 10 11
ROOT
ATOM      1  C   UNL     1      -3.891   3.299  -5.890  1.00  0.00     0.060 A 
ATOM      2  C   UNL     1      -5.064   2.935  -5.274  1.00  0.00     0.066 A 
ATOM      3  C   UNL     1      -2.611   2.426  -4.116  1.00  0.00     0.088 A 
ATOM      4  C   UNL     1      -2.726   2.862  -5.464  1.00  0.00     0.035 A 
ATOM      5  N   UNL     1      -4.194   3.940  -7.154  1.00  0.00    -0.360 N 
ATOM      6  N   UNL     1      -6.072   3.311  -6.165  1.00  0.00    -0.360 N 
ATOM      7  C   UNL     1      -3.781   2.179  -3.401  1.00  0.00     0.271 A 
ATOM      8  C   UNL     1      -5.426   3.402  -7.424  1.00  0.00     0.205 C 
ATOM      9  C   UNL     1      -5.048   2.418  -4.017  1.00  0.00     0.113 A 
ATOM     10  H   UNL     1      -3.639   4.613  -7.700  1.00  0.00     0.163 HD
ATOM     11  H   UNL     1      -7.065   3.485  -5.954  1.00  0.00     0.163 HD
ENDROOT
BRANCH   8  12
ATOM     12  C   UNL     1      -6.288   4.020  -8.559  1.00  0.00    -0.003 A 
ATOM     13  C   UNL     1      -6.307   5.236 -10.717  1.00  0.00     0.042 A 
ATOM     14  C   UNL     1      -5.792   4.169  -9.874  1.00  0.00     0.028 A 
ATOM     15  C   UNL     1      -7.667   5.708 -10.437  1.00  0.00     0.041 A 
ATOM     16  C   UNL     1      -8.287   5.215  -9.211  1.00  0.00     0.042 A 
ATOM     17  C   UNL     1      -7.584   4.529  -8.190  1.00  0.00     0.028 A 
ATOM     18  Cl  UNL     1      -5.689   5.723 -12.062  1.00  0.00    -0.084 Cl
ATOM     19  Cl  UNL     1      -9.939   5.596  -8.992  1.00  0.00    -0.084 Cl
ENDBRANCH   8  12
BRANCH   7  20
ATOM     20  N   UNL     1      -3.804   1.610  -2.144  1.00  0.00     0.062 N 
ATOM     21  O   UNL     1      -4.825   1.295  -1.654  1.00  0.00    -0.258 OA
ATOM     22  O   UNL     1      -2.732   1.184  -1.532  1.00  0.00    -0.258 OA
ENDBRANCH   7  20
TORSDOF 2
ENDMDL
MODEL 6
REMARK VINA RESULT:    -4.058      4.984      7.636
REMARK INTER + INTRA:          -4.847
REMARK INTER:                  -4.548
REMARK INTRA:                  -0.299
REMARK UNBOUND:                -0.315
REMARK SMILES O=[N+]([O-])c1ccc2c(c1)N[C@@H](c1cc(Cl)cc(Cl)c1)N2
REMARK SMILES IDX 7 1 8 2 5 3 6 4 20 5 10 6 4 7 11 8 9 9 12 12 14 13 13 14
REMARK SMILES IDX 16 15 17 16 19 17 15 18 18 19 2 20 3 21 1 22
REMARK H PARENT 20 10 10 11
ROOT
ATOM      1  C   UNL     1      -3.916   3.160  -5.976  1.00  0.00     0.060 A 
ATOM      2  C   UNL     1      -5.068   3.184  -5.226  1.00  0.00     0.066 A 
ATOM      3  C   UNL     1      -2.775   1.955  -4.304  1.00  0.00     0.088 A 
ATOM      4  C   UNL     1      -2.901   2.388  -5.652  1.00  0.00     0.035 A 
ATOM      5  N   UNL     1      -4.148   3.848  -7.230  1.00  0.00    -0.360 N 
ATOM      6  N   UNL     1      -6.005   3.843  -6.026  1.00  0.00    -0.360 N 
ATOM      7  C   UNL     1      -3.877   2.090  -3.462  1.00  0.00     0.271 A 
ATOM      8  C   UNL     1      -5.507   3.714  -7.347  1.00  0.00     0.205 C 
ATOM      9  C   UNL     1      -5.071   2.703  -3.955  1.00  0.00     0.113 A 
ATOM     10  H   UNL     1      -3.477   4.309  -7.861  1.00  0.00     0.163 HD
ATOM     11  H   UNL     1      -6.867   4.318  -5.722  1.00  0.00     0.163 HD
ENDROOT
BRANCH   8  12
ATOM     12  C   UNL     1      -6.259   4.555  -8.416  1.00  0.00    -0.003 A 
ATOM     13  C   UNL     1      -8.447   5.348  -9.262  1.00  0.00     0.042 A 
ATOM     14  C   UNL     1      -7.528   5.123  -8.159  1.00  0.00     0.028 A 
ATOM     15  C   UNL     1      -7.858   5.552 -10.590  1.00  0.00     0.041 A 
ATOM     16  C   UNL     1      -6.427   5.296 -10.712  1.00  0.00     0.042 A 
ATOM     17  C   UNL     1      -5.652   4.647  -9.719  1.00  0.00     0.028 A 
ATOM     18  Cl  UNL     1      -9.963   5.691  -9.138  1.00  0.00    -0.084 Cl
ATOM     19  Cl  UNL     1      -5.703   5.732 -12.198  1.00  0.00    -0.084 Cl
ENDBRANCH   8  12
BRANCH   7  20
ATOM     20  N   UNL     1      -3.932   1.572  -2.185  1.00  0.00     0.062 N 
ATOM     21  O   UNL     1      -4.962   1.242  -1.723  1.00  0.00    -0.258 OA
ATOM     22  O   UNL     1      -2.874   1.207  -1.514  1.00  0.00    -0.258 OA
ENDBRANCH   7  20
TORSDOF 2
ENDMDL
MODEL 7
REMARK VINA RESULT:    -3.987      3.660      4.669
REMARK INTER + INTRA:          -4.768
REMARK INTER:                  -4.464
REMARK INTRA:                  -0.305
REMARK UNBOUND:                -0.315
REMARK SMILES O=[N+]([O-])c1ccc2c(c1)N[C@@H](c1cc(Cl)cc(Cl)c1)N2
REMARK SMILES IDX 7 1 8 2 5 3 6 4 20 5 10 6 4 7 11 8 9 9 12 12 14 13 13 14
REMARK SMILES IDX 16 15 17 16 19 17 15 18 18 19 2 20 3 21 1 22
REMARK H PARENT 20 10 10 11
ROOT
ATOM      1  C   UNL     1      -5.284   5.431 -11.916  1.00  0.00     0.060 A 
ATOM      2  C   UNL     1      -4.623   4.233 -12.042  1.00  0.00     0.066 A 
ATOM      3  C   UNL     1      -5.254   5.768 -14.248  1.00  0.00     0.088 A 
ATOM      4  C   UNL     1      -5.788   6.051 -12.962  1.00  0.00     0.035 A 
ATOM      5  N   UNL     1      -5.553   5.684 -10.515  1.00  0.00    -0.360 N 
ATOM      6  N   UNL     1      -4.522   3.738 -10.739  1.00  0.00    -0.360 N 
ATOM      7  C   UNL     1      -4.456   4.635 -14.395  1.00  0.00     0.271 A 
ATOM      8  C   UNL     1      -5.545   4.406 -10.019  1.00  0.00     0.205 C 
ATOM      9  C   UNL     1      -4.156   3.829 -13.252  1.00  0.00     0.113 A 
ATOM     10  H   UNL     1      -5.708   6.577 -10.025  1.00  0.00     0.163 HD
ATOM     11  H   UNL     1      -3.853   3.042 -10.381  1.00  0.00     0.163 HD
ENDROOT
BRANCH   8  12
ATOM     12  C   UNL     1      -5.508   4.194  -8.480  1.00  0.00    -0.003 A 
ATOM     13  C   UNL     1      -4.564   4.925  -6.311  1.00  0.00     0.042 A 
ATOM     14  C   UNL     1      -5.175   5.240  -7.591  1.00  0.00     0.028 A 
ATOM     15  C   UNL     1      -4.855   3.604  -5.741  1.00  0.00     0.041 A 
ATOM     16  C   UNL     1      -5.549   2.660  -6.610  1.00  0.00     0.042 A 
ATOM     17  C   UNL     1      -5.731   2.853  -8.002  1.00  0.00     0.028 A 
ATOM     18  Cl  UNL     1      -3.880   5.939  -5.344  1.00  0.00    -0.084 Cl
ATOM     19  Cl  UNL     1      -6.072   1.204  -5.882  1.00  0.00    -0.084 Cl
ENDBRANCH   8  12
BRANCH   7  20
ATOM     20  N   UNL     1      -4.006   4.169 -15.613  1.00  0.00     0.062 N 
ATOM     21  O   UNL     1      -3.099   4.689 -16.149  1.00  0.00    -0.258 OA
ATOM     22  O   UNL     1      -4.382   3.028 -16.126  1.00  0.00    -0.258 OA
ENDBRANCH   7  20
TORSDOF 2
ENDMDL
MODEL 8
REMARK VINA RESULT:    -3.510      5.115      7.475
REMARK INTER + INTRA:          -4.236
REMARK INTER:                  -3.940
REMARK INTRA:                  -0.296
REMARK UNBOUND:                -0.315
REMARK SMILES O=[N+]([O-])c1ccc2c(c1)N[C@@H](c1cc(Cl)cc(Cl)c1)N2
REMARK SMILES IDX 7 1 8 2 5 3 6 4 20 5 10 6 4 7 11 8 9 9 12 12 14 13 13 14
REMARK SMILES IDX 16 15 17 16 19 17 15 18 18 19 2 20 3 21 1 22
REMARK H PARENT 20 10 10 11
ROOT
ATOM      1  C   UNL     1      -5.076   4.837  -7.702  1.00  0.00     0.060 A 
ATOM      2  C   UNL     1      -5.636   3.597  -7.901  1.00  0.00     0.066 A 
ATOM      3  C   UNL     1      -4.799   4.414  -5.401  1.00  0.00     0.088 A 
ATOM      4  C   UNL     1      -4.469   5.144  -6.575  1.00  0.00     0.035 A 
ATOM      5  N   UNL     1      -5.023   5.546  -8.965  1.00  0.00    -0.360 N 
ATOM      6  N   UNL     1      -5.888   3.532  -9.274  1.00  0.00    -0.360 N 
ATOM      7  C   UNL     1      -5.495   3.216  -5.543  1.00  0.00     0.271 A 
ATOM      8  C   UNL     1      -5.020   4.496  -9.846  1.00  0.00     0.205 C 
ATOM      9  C   UNL     1      -5.902   2.786  -6.844  1.00  0.00     0.113 A 
ATOM     10  H   UNL     1      -4.994   6.558  -9.149  1.00  0.00     0.163 HD
ATOM     11  H   UNL     1      -6.556   2.918  -9.762  1.00  0.00     0.163 HD
ENDROOT
BRANCH   8  12
ATOM     12  C   UNL     1      -5.260   4.778 -11.356  1.00  0.00    -0.003 A 
ATOM     13  C   UNL     1      -4.409   4.531 -13.668  1.00  0.00     0.042 A 
ATOM     14  C   UNL     1      -4.700   3.961 -12.364  1.00  0.00     0.028 A 
ATOM     15  C   UNL     1      -5.213   5.686 -14.085  1.00  0.00     0.041 A 
ATOM     16  C   UNL     1      -6.075   6.279 -13.068  1.00  0.00     0.042 A 
ATOM     17  C   UNL     1      -5.996   5.971 -11.688  1.00  0.00     0.028 A 
ATOM     18  Cl  UNL     1      -3.545   3.873 -14.787  1.00  0.00    -0.084 Cl
ATOM     19  Cl  UNL     1      -7.162   7.484 -13.605  1.00  0.00    -0.084 Cl
ENDBRANCH   8  12
BRANCH   7  20
ATOM     20  N   UNL     1      -5.739   2.345  -4.501  1.00  0.00     0.062 N 
ATOM     21  O   UNL     1      -5.800   2.743  -3.397  1.00  0.00    -0.258 OA
ATOM     22  O   UNL     1      -6.134   1.113  -4.676  1.00  0.00    -0.258 OA
ENDBRANCH   7  20
TORSDOF 2
ENDMDL
MODEL 9
REMARK VINA RESULT:    -3.350      6.590      8.568
REMARK INTER + INTRA:          -4.057
REMARK INTER:                  -3.746
REMARK INTRA:                  -0.311
REMARK UNBOUND:                -0.315
REMARK SMILES O=[N+]([O-])c1ccc2c(c1)N[C@@H](c1cc(Cl)cc(Cl)c1)N2
REMARK SMILES IDX 7 1 8 2 5 3 6 4 20 5 10 6 4 7 11 8 9 9 12 12 14 13 13 14
REMARK SMILES IDX 16 15 17 16 19 17 15 18 18 19 2 20 3 21 1 22
REMARK H PARENT 20 10 10 11
ROOT
ATOM      1  C   UNL     1      -8.221   8.540 -15.394  1.00  0.00     0.060 A 
ATOM      2  C   UNL     1      -8.926   8.044 -14.324  1.00  0.00     0.066 A 
ATOM      3  C   UNL     1      -9.843  10.206 -15.776  1.00  0.00     0.088 A 
ATOM      4  C   UNL     1      -8.526   9.697 -15.942  1.00  0.00     0.035 A 
ATOM      5  N   UNL     1      -7.011   7.762 -15.572  1.00  0.00    -0.360 N 
ATOM      6  N   UNL     1      -8.142   6.999 -13.828  1.00  0.00    -0.360 N 
ATOM      7  C   UNL     1     -10.650   9.636 -14.794  1.00  0.00     0.271 A 
ATOM      8  C   UNL     1      -6.835   7.273 -14.304  1.00  0.00     0.205 C 
ATOM      9  C   UNL     1     -10.158   8.534 -14.027  1.00  0.00     0.113 A 
ATOM     10  H   UNL     1      -6.441   7.616 -16.417  1.00  0.00     0.163 HD
ATOM     11  H   UNL     1      -8.447   6.206 -13.246  1.00  0.00     0.163 HD
ENDROOT
BRANCH   8  12
ATOM     12  C   UNL     1      -5.802   6.135 -14.071  1.00  0.00    -0.003 A 
ATOM     13  C   UNL     1      -4.869   3.988 -14.879  1.00  0.00     0.042 A 
ATOM     14  C   UNL     1      -5.304   5.351 -15.136  1.00  0.00     0.028 A 
ATOM     15  C   UNL     1      -4.401   3.683 -13.522  1.00  0.00     0.041 A 
ATOM     16  C   UNL     1      -4.619   4.712 -12.512  1.00  0.00     0.042 A 
ATOM     17  C   UNL     1      -5.449   5.845 -12.704  1.00  0.00     0.028 A 
ATOM     18  Cl  UNL     1      -4.566   2.902 -15.956  1.00  0.00    -0.084 Cl
ATOM     19  Cl  UNL     1      -3.892   4.446 -10.989  1.00  0.00    -0.084 Cl
ENDBRANCH   8  12
BRANCH   7  20
ATOM     20  N   UNL     1     -11.884  10.137 -14.432  1.00  0.00     0.062 N 
ATOM     21  O   UNL     1     -12.352   9.864 -13.388  1.00  0.00    -0.258 OA
ATOM     22  O   UNL     1     -12.489  11.090 -15.087  1.00  0.00    -0.258 OA
ENDBRANCH   7  20
TORSDOF 2
ENDMDL
