MODEL 1
REMARK VINA RESULT:    -5.009      0.000      0.000
REMARK INTER + INTRA:          -5.908
REMARK INTER:                  -5.594
REMARK INTRA:                  -0.314
REMARK UNBOUND:                -0.314
REMARK SMILES O=[N+]([O-])c1ccc2c(c1)N[C@@H](c1cc(Cl)cc(Cl)c1)N2
REMARK SMILES IDX 7 1 8 2 5 3 6 4 20 5 10 6 4 7 11 8 9 9 12 12 14 13 13 14
REMARK SMILES IDX 16 15 17 16 19 17 15 18 18 19 2 20 3 21 1 22
REMARK H PARENT 20 10 10 11
ROOT
ATOM      1  C   UNL     1      -9.946  -1.775   2.402  1.00  0.00     0.060 A 
ATOM      2  C   UNL     1      -9.973  -0.466   2.821  1.00  0.00     0.066 A 
ATOM      3  C   UNL     1     -12.166  -2.117   3.112  1.00  0.00     0.088 A 
ATOM      4  C   UNL     1     -11.045  -2.495   2.324  1.00  0.00     0.035 A 
ATOM      5  N   UNL     1      -8.647  -2.066   1.828  1.00  0.00    -0.360 N 
ATOM      6  N   UNL     1      -8.721   0.050   2.475  1.00  0.00    -0.360 N 
ATOM      7  C   UNL     1     -12.174  -0.844   3.679  1.00  0.00     0.271 A 
ATOM      8  C   UNL     1      -8.247  -0.811   1.452  1.00  0.00     0.205 C 
ATOM      9  C   UNL     1     -11.046   0.016   3.501  1.00  0.00     0.113 A 
ATOM     10  H   UNL     1      -8.159  -2.968   1.730  1.00  0.00     0.163 HD
ATOM     11  H   UNL     1      -8.248   0.873   2.874  1.00  0.00     0.163 HD
ENDROOT
BRANCH   8  12
ATOM     12  C   UNL     1      -6.766  -0.582   1.039  1.00  0.00    -0.003 A 
ATOM     13  C   UNL     1      -4.845  -1.380  -0.305  1.00  0.00     0.042 A 
ATOM     14  C   UNL     1      -6.256  -1.050  -0.193  1.00  0.00     0.028 A 
ATOM     15  C   UNL     1      -3.925  -0.684   0.602  1.00  0.00     0.041 A 
ATOM     16  C   UNL     1      -4.534   0.105   1.667  1.00  0.00     0.042 A 
ATOM     17  C   UNL     1      -5.907   0.041   2.013  1.00  0.00     0.028 A 
ATOM     18  Cl  UNL     1      -4.175  -2.164  -1.473  1.00  0.00    -0.084 Cl
ATOM     19  Cl  UNL     1      -3.474   1.079   2.589  1.00  0.00    -0.084 Cl
ENDBRANCH   8  12
BRANCH   7  20
ATOM     20  N   UNL     1     -13.264  -0.305   4.332  1.00  0.00     0.062 N 
ATOM     21  O   UNL     1     -13.353   0.859   4.476  1.00  0.00    -0.258 OA
ATOM     22  O   UNL     1     -14.338  -0.989   4.618  1.00  0.00    -0.258 OA
ENDBRANCH   7  20
TORSDOF 2
ENDMDL
MODEL 2
REMARK VINA RESULT:    -5.004      1.020      2.670
REMARK INTER + INTRA:          -5.903
REMARK INTER:                  -5.588
REMARK INTRA:                  -0.315
REMARK UNBOUND:                -0.314
REMARK SMILES O=[N+]([O-])c1ccc2c(c1)N[C@@H](c1cc(Cl)cc(Cl)c1)N2
REMARK SMILES IDX 7 1 8 2 5 3 6 4 20 5 10 6 4 7 11 8 9 9 12 12 14 13 13 14
REMARK SMILES IDX 16 15 17 16 19 17 15 18 18 19 2 20 3 21 1 22
REMARK H PARENT 20 10 10 11
ROOT
ATOM      1  C   UNL     1      -9.802  -0.216   3.001  1.00  0.00     0.060 A 
ATOM      2  C   UNL     1      -9.922  -1.515   2.570  1.00  0.00     0.066 A 
ATOM      3  C   UNL     1     -11.993  -0.231   3.866  1.00  0.00     0.088 A 
ATOM      4  C   UNL     1     -10.685   0.323   3.813  1.00  0.00     0.035 A 
ATOM      5  N   UNL     1      -8.482   0.280   2.664  1.00  0.00    -0.360 N 
ATOM      6  N   UNL     1      -8.680  -1.826   2.010  1.00  0.00    -0.360 N 
ATOM      7  C   UNL     1     -12.196  -1.493   3.312  1.00  0.00     0.271 A 
ATOM      8  C   UNL     1      -7.780  -0.895   2.589  1.00  0.00     0.205 C 
ATOM      9  C   UNL     1     -11.112  -2.164   2.666  1.00  0.00     0.113 A 
ATOM     10  H   UNL     1      -8.160   1.247   2.521  1.00  0.00     0.163 HD
ATOM     11  H   UNL     1      -8.466  -2.567   1.328  1.00  0.00     0.163 HD
ENDROOT
BRANCH   8  12
ATOM     12  C   UNL     1      -6.357  -0.886   1.965  1.00  0.00    -0.003 A 
ATOM     13  C   UNL     1      -4.165   0.258   1.825  1.00  0.00     0.042 A 
ATOM     14  C   UNL     1      -5.262  -0.273   2.616  1.00  0.00     0.028 A 
ATOM     15  C   UNL     1      -3.930  -0.357   0.514  1.00  0.00     0.041 A 
ATOM     16  C   UNL     1      -4.947  -1.290   0.042  1.00  0.00     0.042 A 
ATOM     17  C   UNL     1      -6.221  -1.442   0.643  1.00  0.00     0.028 A 
ATOM     18  Cl  UNL     1      -3.035   1.202   2.339  1.00  0.00    -0.084 Cl
ATOM     19  Cl  UNL     1      -4.574  -2.161  -1.381  1.00  0.00    -0.084 Cl
ENDBRANCH   8  12
BRANCH   7  20
ATOM     20  N   UNL     1     -13.375  -2.201   3.433  1.00  0.00     0.062 N 
ATOM     21  O   UNL     1     -13.381  -3.369   3.298  1.00  0.00    -0.258 OA
ATOM     22  O   UNL     1     -14.473  -1.685   3.915  1.00  0.00    -0.258 OA
ENDBRANCH   7  20
TORSDOF 2
ENDMDL
MODEL 3
REMARK VINA RESULT:    -4.779      5.098      7.812
REMARK INTER + INTRA:          -5.652
REMARK INTER:                  -5.333
REMARK INTRA:                  -0.319
REMARK UNBOUND:                -0.314
REMARK SMILES O=[N+]([O-])c1ccc2c(c1)N[C@@H](c1cc(Cl)cc(Cl)c1)N2
REMARK SMILES IDX 7 1 8 2 5 3 6 4 20 5 10 6 4 7 11 8 9 9 12 12 14 13 13 14
REMARK SMILES IDX 16 15 17 16 19 17 15 18 18 19 2 20 3 21 1 22
REMARK H PARENT 20 10 10 11
ROOT
ATOM      1  C   UNL     1      -6.206  -0.043   2.145  1.00  0.00     0.060 A 
ATOM      2  C   UNL     1      -6.238  -1.137   1.314  1.00  0.00     0.066 A 
ATOM      3  C   UNL     1      -3.952   0.382   1.606  1.00  0.00     0.088 A 
ATOM      4  C   UNL     1      -5.207   0.813   2.116  1.00  0.00     0.035 A 
ATOM      5  N   UNL     1      -7.504   0.124   2.767  1.00  0.00    -0.360 N 
ATOM      6  N   UNL     1      -7.550  -1.614   1.396  1.00  0.00    -0.360 N 
ATOM      7  C   UNL     1      -3.911  -0.803   0.874  1.00  0.00     0.271 A 
ATOM      8  C   UNL     1      -8.308  -0.506   1.853  1.00  0.00     0.205 C 
ATOM      9  C   UNL     1      -5.105  -1.571   0.704  1.00  0.00     0.113 A 
ATOM     10  H   UNL     1      -7.755   0.587   3.652  1.00  0.00     0.163 HD
ATOM     11  H   UNL     1      -7.890  -2.560   1.173  1.00  0.00     0.163 HD
ENDROOT
BRANCH   8  12
ATOM     12  C   UNL     1      -9.778  -0.832   2.237  1.00  0.00    -0.003 A 
ATOM     13  C   UNL     1     -11.738  -0.228   3.625  1.00  0.00     0.042 A 
ATOM     14  C   UNL     1     -10.655   0.157   2.736  1.00  0.00     0.028 A 
ATOM     15  C   UNL     1     -12.246  -1.599   3.500  1.00  0.00     0.041 A 
ATOM     16  C   UNL     1     -11.477  -2.503   2.652  1.00  0.00     0.042 A 
ATOM     17  C   UNL     1     -10.180  -2.213   2.159  1.00  0.00     0.028 A 
ATOM     18  Cl  UNL     1     -12.610   0.737   4.483  1.00  0.00    -0.084 Cl
ATOM     19  Cl  UNL     1     -12.178  -4.030   2.340  1.00  0.00    -0.084 Cl
ENDBRANCH   8  12
BRANCH   7  20
ATOM     20  N   UNL     1      -2.791  -1.248   0.201  1.00  0.00     0.062 N 
ATOM     21  O   UNL     1      -2.881  -2.103  -0.601  1.00  0.00    -0.258 OA
ATOM     22  O   UNL     1      -1.644  -0.624   0.229  1.00  0.00    -0.258 OA
ENDBRANCH   7  20
TORSDOF 2
ENDMDL
MODEL 4
REMARK VINA RESULT:    -4.751      5.102      7.615
REMARK INTER + INTRA:          -5.621
REMARK INTER:                  -5.322
REMARK INTRA:                  -0.299
REMARK UNBOUND:                -0.314
REMARK SMILES O=[N+]([O-])c1ccc2c(c1)N[C@@H](c1cc(Cl)cc(Cl)c1)N2
REMARK SMILES IDX 7 1 8 2 5 3 6 4 20 5 10 6 4 7 11 8 9 9 12 12 14 13 13 14
REMARK SMILES IDX 16 15 17 16 19 17 15 18 18 19 2 20 3 21 1 22
REMARK H PARENT 20 10 10 11
ROOT
ATOM      1  C   UNL     1      -6.316   0.022   2.163  1.00  0.00     0.060 A 
ATOM      2  C   UNL     1      -6.296  -1.227   1.591  1.00  0.00     0.066 A 
ATOM      3  C   UNL     1      -4.179   0.521   1.307  1.00  0.00     0.088 A 
ATOM      4  C   UNL     1      -5.426   0.938   1.847  1.00  0.00     0.035 A 
ATOM      5  N   UNL     1      -7.567   0.203   2.873  1.00  0.00    -0.360 N 
ATOM      6  N   UNL     1      -7.533  -1.791   1.911  1.00  0.00    -0.360 N 
ATOM      7  C   UNL     1      -4.066  -0.787   0.842  1.00  0.00     0.271 A 
ATOM      8  C   UNL     1      -8.369  -0.684   2.203  1.00  0.00     0.205 C 
ATOM      9  C   UNL     1      -5.176  -1.679   0.967  1.00  0.00     0.113 A 
ATOM     10  H   UNL     1      -7.792   0.826   3.661  1.00  0.00     0.163 HD
ATOM     11  H   UNL     1      -7.782  -2.790   1.931  1.00  0.00     0.163 HD
ENDROOT
BRANCH   8  12
ATOM     12  C   UNL     1      -9.755  -1.050   2.804  1.00  0.00    -0.003 A 
ATOM     13  C   UNL     1     -11.691  -2.594   2.754  1.00  0.00     0.042 A 
ATOM     14  C   UNL     1     -10.255  -2.372   2.772  1.00  0.00     0.028 A 
ATOM     15  C   UNL     1     -12.534  -1.553   3.354  1.00  0.00     0.041 A 
ATOM     16  C   UNL     1     -11.869  -0.306   3.715  1.00  0.00     0.042 A 
ATOM     17  C   UNL     1     -10.556   0.037   3.307  1.00  0.00     0.028 A 
ATOM     18  Cl  UNL     1     -12.408  -3.941   2.437  1.00  0.00    -0.084 Cl
ATOM     19  Cl  UNL     1     -12.800   0.821   4.600  1.00  0.00    -0.084 Cl
ENDBRANCH   8  12
BRANCH   7  20
ATOM     20  N   UNL     1      -2.965  -1.265   0.161  1.00  0.00     0.062 N 
ATOM     21  O   UNL     1      -3.090  -2.102  -0.655  1.00  0.00    -0.258 OA
ATOM     22  O   UNL     1      -1.794  -0.689   0.200  1.00  0.00    -0.258 OA
ENDBRANCH   7  20
TORSDOF 2
ENDMDL
MODEL 5
REMARK VINA RESULT:    -4.733      4.992      7.643
REMARK INTER + INTRA:          -5.601
REMARK INTER:                  -5.302
REMARK INTRA:                  -0.299
REMARK UNBOUND:                -0.314
REMARK SMILES O=[N+]([O-])c1ccc2c(c1)N[C@@H](c1cc(Cl)cc(Cl)c1)N2
REMARK SMILES IDX 7 1 8 2 5 3 6 4 20 5 10 6 4 7 11 8 9 9 12 12 14 13 13 14
REMARK SMILES IDX 16 15 17 16 19 17 15 18 18 19 2 20 3 21 1 22
REMARK H PARENT 20 10 10 11
ROOT
ATOM      1  C   UNL     1      -6.485  -1.311   1.282  1.00  0.00     0.060 A 
ATOM      2  C   UNL     1      -6.369  -0.031   1.767  1.00  0.00     0.066 A 
ATOM      3  C   UNL     1      -4.186  -1.395   0.771  1.00  0.00     0.088 A 
ATOM      4  C   UNL     1      -5.425  -2.046   1.022  1.00  0.00     0.035 A 
ATOM      5  N   UNL     1      -7.863  -1.745   1.399  1.00  0.00    -0.360 N 
ATOM      6  N   UNL     1      -7.651   0.303   2.213  1.00  0.00    -0.360 N 
ATOM      7  C   UNL     1      -4.067  -0.051   1.118  1.00  0.00     0.271 A 
ATOM      8  C   UNL     1      -8.296  -0.942   2.423  1.00  0.00     0.205 C 
ATOM      9  C   UNL     1      -5.194   0.642   1.659  1.00  0.00     0.113 A 
ATOM     10  H   UNL     1      -8.375  -2.459   0.863  1.00  0.00     0.163 HD
ATOM     11  H   UNL     1      -8.041   1.246   2.357  1.00  0.00     0.163 HD
ENDROOT
BRANCH   8  12
ATOM     12  C   UNL     1      -9.819  -0.849   2.716  1.00  0.00    -0.003 A 
ATOM     13  C   UNL     1     -11.627   0.339   3.921  1.00  0.00     0.042 A 
ATOM     14  C   UNL     1     -10.432   0.367   3.094  1.00  0.00     0.028 A 
ATOM     15  C   UNL     1     -12.469  -0.859   3.836  1.00  0.00     0.041 A 
ATOM     16  C   UNL     1     -11.918  -1.990   3.098  1.00  0.00     0.042 A 
ATOM     17  C   UNL     1     -10.565  -2.082   2.686  1.00  0.00     0.028 A 
ATOM     18  Cl  UNL     1     -12.262   1.557   4.658  1.00  0.00    -0.084 Cl
ATOM     19  Cl  UNL     1     -12.977  -3.303   2.821  1.00  0.00    -0.084 Cl
ENDBRANCH   8  12
BRANCH   7  20
ATOM     20  N   UNL     1      -2.879   0.650   1.067  1.00  0.00     0.062 N 
ATOM     21  O   UNL     1      -2.661   1.505   1.844  1.00  0.00    -0.258 OA
ATOM     22  O   UNL     1      -1.860   0.279   0.340  1.00  0.00    -0.258 OA
ENDBRANCH   7  20
TORSDOF 2
ENDMDL
MODEL 6
REMARK VINA RESULT:    -4.591      1.464      2.117
REMARK INTER + INTRA:          -5.441
REMARK INTER:                  -5.142
REMARK INTRA:                  -0.300
REMARK UNBOUND:                -0.314
REMARK SMILES O=[N+]([O-])c1ccc2c(c1)N[C@@H](c1cc(Cl)cc(Cl)c1)N2
REMARK SMILES IDX 7 1 8 2 5 3 6 4 20 5 10 6 4 7 11 8 9 9 12 12 14 13 13 14
REMARK SMILES IDX 16 15 17 16 19 17 15 18 18 19 2 20 3 21 1 22
REMARK H PARENT 20 10 10 11
ROOT
ATOM      1  C   UNL     1     -10.133  -0.668   2.775  1.00  0.00     0.060 A 
ATOM      2  C   UNL     1      -9.943  -1.940   2.291  1.00  0.00     0.066 A 
ATOM      3  C   UNL     1     -12.307  -1.200   3.508  1.00  0.00     0.088 A 
ATOM      4  C   UNL     1     -11.152  -0.373   3.553  1.00  0.00     0.035 A 
ATOM      5  N   UNL     1      -8.939   0.118   2.534  1.00  0.00    -0.360 N 
ATOM      6  N   UNL     1      -8.637  -1.947   1.795  1.00  0.00    -0.360 N 
ATOM      7  C   UNL     1     -12.201  -2.448   2.898  1.00  0.00     0.271 A 
ATOM      8  C   UNL     1      -7.994  -0.872   2.459  1.00  0.00     0.205 C 
ATOM      9  C   UNL     1     -10.965  -2.836   2.294  1.00  0.00     0.113 A 
ATOM     10  H   UNL     1      -8.830   1.138   2.445  1.00  0.00     0.163 HD
ATOM     11  H   UNL     1      -8.232  -2.590   1.100  1.00  0.00     0.163 HD
ENDROOT
BRANCH   8  12
ATOM     12  C   UNL     1      -6.578  -0.524   1.921  1.00  0.00    -0.003 A 
ATOM     13  C   UNL     1      -4.742  -1.134   0.374  1.00  0.00     0.042 A 
ATOM     14  C   UNL     1      -6.156  -0.911   0.629  1.00  0.00     0.028 A 
ATOM     15  C   UNL     1      -3.790  -0.407   1.221  1.00  0.00     0.041 A 
ATOM     16  C   UNL     1      -4.348   0.300   2.369  1.00  0.00     0.042 A 
ATOM     17  C   UNL     1      -5.674   0.125   2.836  1.00  0.00     0.028 A 
ATOM     18  Cl  UNL     1      -4.134  -1.827  -0.882  1.00  0.00    -0.084 Cl
ATOM     19  Cl  UNL     1      -3.274   1.314   3.230  1.00  0.00    -0.084 Cl
ENDBRANCH   8  12
BRANCH   7  20
ATOM     20  N   UNL     1     -13.200  -3.400   2.924  1.00  0.00     0.062 N 
ATOM     21  O   UNL     1     -12.998  -4.483   2.513  1.00  0.00    -0.258 OA
ATOM     22  O   UNL     1     -14.314  -3.251   3.588  1.00  0.00    -0.258 OA
ENDBRANCH   7  20
TORSDOF 2
ENDMDL
MODEL 7
REMARK VINA RESULT:    -4.580      0.697      2.125
REMARK INTER + INTRA:          -5.430
REMARK INTER:                  -5.130
REMARK INTRA:                  -0.300
REMARK UNBOUND:                -0.314
REMARK SMILES O=[N+]([O-])c1ccc2c(c1)N[C@@H](c1cc(Cl)cc(Cl)c1)N2
REMARK SMILES IDX 7 1 8 2 5 3 6 4 20 5 10 6 4 7 11 8 9 9 12 12 14 13 13 14
REMARK SMILES IDX 16 15 17 16 19 17 15 18 18 19 2 20 3 21 1 22
REMARK H PARENT 20 10 10 11
ROOT
ATOM      1  C   UNL     1      -9.988  -1.351   2.861  1.00  0.00     0.060 A 
ATOM      2  C   UNL     1      -9.782  -0.048   3.248  1.00  0.00     0.066 A 
ATOM      3  C   UNL     1     -12.252  -1.251   3.505  1.00  0.00     0.088 A 
ATOM      4  C   UNL     1     -11.200  -1.855   2.765  1.00  0.00     0.035 A 
ATOM      5  N   UNL     1      -8.752  -1.897   2.338  1.00  0.00    -0.360 N 
ATOM      6  N   UNL     1      -8.446   0.214   2.931  1.00  0.00    -0.360 N 
ATOM      7  C   UNL     1     -12.038   0.017   4.041  1.00  0.00     0.271 A 
ATOM      8  C   UNL     1      -8.113  -0.749   1.946  1.00  0.00     0.205 C 
ATOM      9  C   UNL     1     -10.764   0.645   3.880  1.00  0.00     0.113 A 
ATOM     10  H   UNL     1      -8.439  -2.876   2.277  1.00  0.00     0.163 HD
ATOM     11  H   UNL     1      -7.838   0.946   3.326  1.00  0.00     0.163 HD
ENDROOT
BRANCH   8  12
ATOM     12  C   UNL     1      -6.605  -0.814   1.576  1.00  0.00    -0.003 A 
ATOM     13  C   UNL     1      -4.362   0.202   1.845  1.00  0.00     0.042 A 
ATOM     14  C   UNL     1      -5.607  -0.277   2.422  1.00  0.00     0.028 A 
ATOM     15  C   UNL     1      -3.938  -0.405   0.578  1.00  0.00     0.041 A 
ATOM     16  C   UNL     1      -4.907  -1.270  -0.085  1.00  0.00     0.042 A 
ATOM     17  C   UNL     1      -6.273  -1.356   0.284  1.00  0.00     0.028 A 
ATOM     18  Cl  UNL     1      -3.288   1.070   2.569  1.00  0.00    -0.084 Cl
ATOM     19  Cl  UNL     1      -4.342  -2.138  -1.445  1.00  0.00    -0.084 Cl
ENDBRANCH   8  12
BRANCH   7  20
ATOM     20  N   UNL     1     -13.025   0.769   4.644  1.00  0.00     0.062 N 
ATOM     21  O   UNL     1     -12.812   1.881   4.962  1.00  0.00    -0.258 OA
ATOM     22  O   UNL     1     -14.276   0.401   4.694  1.00  0.00    -0.258 OA
ENDBRANCH   7  20
TORSDOF 2
ENDMDL
MODEL 8
REMARK VINA RESULT:    -3.974      3.852      4.977
REMARK INTER + INTRA:          -4.753
REMARK INTER:                  -4.451
REMARK INTRA:                  -0.302
REMARK UNBOUND:                -0.314
REMARK SMILES O=[N+]([O-])c1ccc2c(c1)N[C@@H](c1cc(Cl)cc(Cl)c1)N2
REMARK SMILES IDX 7 1 8 2 5 3 6 4 20 5 10 6 4 7 11 8 9 9 12 12 14 13 13 14
REMARK SMILES IDX 16 15 17 16 19 17 15 18 18 19 2 20 3 21 1 22
REMARK H PARENT 20 10 10 11
ROOT
ATOM      1  C   UNL     1     -12.894  -3.836   2.681  1.00  0.00     0.060 A 
ATOM      2  C   UNL     1     -11.904  -4.745   2.969  1.00  0.00     0.066 A 
ATOM      3  C   UNL     1     -14.572  -5.368   3.305  1.00  0.00     0.088 A 
ATOM      4  C   UNL     1     -14.140  -4.038   3.051  1.00  0.00     0.035 A 
ATOM      5  N   UNL     1     -12.291  -2.604   2.214  1.00  0.00    -0.360 N 
ATOM      6  N   UNL     1     -10.708  -4.067   2.719  1.00  0.00    -0.360 N 
ATOM      7  C   UNL     1     -13.602  -6.356   3.463  1.00  0.00     0.271 A 
ATOM      8  C   UNL     1     -11.051  -2.693   2.790  1.00  0.00     0.205 C 
ATOM      9  C   UNL     1     -12.221  -6.020   3.315  1.00  0.00     0.113 A 
ATOM     10  H   UNL     1     -12.685  -1.865   1.615  1.00  0.00     0.163 HD
ATOM     11  H   UNL     1      -9.782  -4.475   2.525  1.00  0.00     0.163 HD
ENDROOT
BRANCH   8  12
ATOM     12  C   UNL     1      -9.933  -1.715   2.332  1.00  0.00    -0.003 A 
ATOM     13  C   UNL     1      -8.809  -0.602   0.427  1.00  0.00     0.042 A 
ATOM     14  C   UNL     1     -10.025  -0.995   1.119  1.00  0.00     0.028 A 
ATOM     15  C   UNL     1      -7.604  -0.422   1.246  1.00  0.00     0.041 A 
ATOM     16  C   UNL     1      -7.690  -0.861   2.634  1.00  0.00     0.042 A 
ATOM     17  C   UNL     1      -8.749  -1.649   3.150  1.00  0.00     0.028 A 
ATOM     18  Cl  UNL     1      -8.716  -0.067  -1.034  1.00  0.00    -0.084 Cl
ATOM     19  Cl  UNL     1      -6.366  -0.462   3.638  1.00  0.00    -0.084 Cl
ENDBRANCH   8  12
BRANCH   7  20
ATOM     20  N   UNL     1     -13.884  -7.647   3.862  1.00  0.00     0.062 N 
ATOM     21  O   UNL     1     -14.087  -7.886   4.995  1.00  0.00    -0.258 OA
ATOM     22  O   UNL     1     -14.163  -8.609   3.026  1.00  0.00    -0.258 OA
ENDBRANCH   7  20
TORSDOF 2
ENDMDL
MODEL 9
REMARK VINA RESULT:    -3.915      4.520      5.976
REMARK INTER + INTRA:          -4.687
REMARK INTER:                  -4.396
REMARK INTRA:                  -0.291
REMARK UNBOUND:                -0.314
REMARK SMILES O=[N+]([O-])c1ccc2c(c1)N[C@@H](c1cc(Cl)cc(Cl)c1)N2
REMARK SMILES IDX 7 1 8 2 5 3 6 4 20 5 10 6 4 7 11 8 9 9 12 12 14 13 13 14
REMARK SMILES IDX 16 15 17 16 19 17 15 18 18 19 2 20 3 21 1 22
REMARK H PARENT 20 10 10 11
ROOT
ATOM      1  C   UNL     1     -13.441  -4.473   2.834  1.00  0.00     0.060 A 
ATOM      2  C   UNL     1     -12.318  -5.178   3.198  1.00  0.00     0.066 A 
ATOM      3  C   UNL     1     -14.820  -6.343   3.221  1.00  0.00     0.088 A 
ATOM      4  C   UNL     1     -14.649  -4.941   3.060  1.00  0.00     0.035 A 
ATOM      5  N   UNL     1     -13.061  -3.120   2.476  1.00  0.00    -0.360 N 
ATOM      6  N   UNL     1     -11.269  -4.260   3.102  1.00  0.00    -0.360 N 
ATOM      7  C   UNL     1     -13.689  -7.122   3.451  1.00  0.00     0.271 A 
ATOM      8  C   UNL     1     -11.893  -2.989   3.181  1.00  0.00     0.205 C 
ATOM      9  C   UNL     1     -12.398  -6.507   3.465  1.00  0.00     0.113 A 
ATOM     10  H   UNL     1     -13.537  -2.444   1.863  1.00  0.00     0.163 HD
ATOM     11  H   UNL     1     -10.264  -4.462   2.997  1.00  0.00     0.163 HD
ENDROOT
BRANCH   8  12
ATOM     12  C   UNL     1     -10.962  -1.782   2.880  1.00  0.00    -0.003 A 
ATOM     13  C   UNL     1      -8.702  -1.029   2.202  1.00  0.00     0.042 A 
ATOM     14  C   UNL     1      -9.853  -1.896   2.011  1.00  0.00     0.028 A 
ATOM     15  C   UNL     1      -8.943   0.268   2.845  1.00  0.00     0.041 A 
ATOM     16  C   UNL     1     -10.268   0.472   3.420  1.00  0.00     0.042 A 
ATOM     17  C   UNL     1     -11.217  -0.564   3.605  1.00  0.00     0.028 A 
ATOM     18  Cl  UNL     1      -7.302  -1.201   1.538  1.00  0.00    -0.084 Cl
ATOM     19  Cl  UNL     1     -10.617   2.049   3.979  1.00  0.00    -0.084 Cl
ENDBRANCH   8  12
BRANCH   7  20
ATOM     20  N   UNL     1     -13.736  -8.463   3.774  1.00  0.00     0.062 N 
ATOM     21  O   UNL     1     -13.694  -8.804   4.898  1.00  0.00    -0.258 OA
ATOM     22  O   UNL     1     -14.052  -9.395   2.916  1.00  0.00    -0.258 OA
ENDBRANCH   7  20
TORSDOF 2
ENDMDL
