MODEL 1
REMARK VINA RESULT:    -4.249      0.000      0.000
REMARK INTER + INTRA:          -5.061
REMARK INTER:                  -4.745
REMARK INTRA:                  -0.315
REMARK UNBOUND:                -0.315
REMARK SMILES O=[N+]([O-])c1ccc2c(c1)N[C@@H](c1cc(Cl)cc(Cl)c1)N2
REMARK SMILES IDX 7 1 8 2 5 3 6 4 20 5 10 6 4 7 11 8 9 9 12 12 14 13 13 14
REMARK SMILES IDX 16 15 17 16 19 17 15 18 18 19 2 20 3 21 1 22
REMARK H PARENT 20 10 10 11
ROOT
ATOM      1  C   UNL     1       6.069  -3.252   9.185  1.00  0.00     0.060 A 
ATOM      2  C   UNL     1       6.454  -1.933   9.178  1.00  0.00     0.066 A 
ATOM      3  C   UNL     1       7.563  -3.746  10.938  1.00  0.00     0.088 A 
ATOM      4  C   UNL     1       6.417  -4.065  10.160  1.00  0.00     0.035 A 
ATOM      5  N   UNL     1       5.055  -3.460   8.171  1.00  0.00    -0.360 N 
ATOM      6  N   UNL     1       5.658  -1.331   8.200  1.00  0.00    -0.360 N 
ATOM      7  C   UNL     1       8.077  -2.454  10.856  1.00  0.00     0.271 A 
ATOM      8  C   UNL     1       4.542  -2.194   8.061  1.00  0.00     0.205 C 
ATOM      9  C   UNL     1       7.480  -1.512   9.962  1.00  0.00     0.113 A 
ATOM     10  H   UNL     1       4.791  -4.322   7.672  1.00  0.00     0.163 HD
ATOM     11  H   UNL     1       5.842  -0.453   7.692  1.00  0.00     0.163 HD
ENDROOT
BRANCH   8  12
ATOM     12  C   UNL     1       3.601  -1.862   6.869  1.00  0.00    -0.003 A 
ATOM     13  C   UNL     1       1.728  -2.618   5.436  1.00  0.00     0.042 A 
ATOM     14  C   UNL     1       2.314  -2.434   6.753  1.00  0.00     0.028 A 
ATOM     15  C   UNL     1       2.175  -1.708   4.375  1.00  0.00     0.041 A 
ATOM     16  C   UNL     1       3.314  -0.853   4.689  1.00  0.00     0.042 A 
ATOM     17  C   UNL     1       4.139  -1.021   5.829  1.00  0.00     0.028 A 
ATOM     18  Cl  UNL     1       0.469  -3.474   5.102  1.00  0.00    -0.084 Cl
ATOM     19  Cl  UNL     1       3.701   0.348   3.536  1.00  0.00    -0.084 Cl
ENDBRANCH   8  12
BRANCH   7  20
ATOM     20  N   UNL     1       9.085  -1.978  11.670  1.00  0.00     0.062 N 
ATOM     21  O   UNL     1       9.205  -0.823  11.852  1.00  0.00    -0.258 OA
ATOM     22  O   UNL     1       9.800  -2.746  12.447  1.00  0.00    -0.258 OA
ENDBRANCH   7  20
TORSDOF 2
ENDMDL
MODEL 2
REMARK VINA RESULT:    -4.232      1.159      2.750
REMARK INTER + INTRA:          -5.043
REMARK INTER:                  -4.727
REMARK INTRA:                  -0.315
REMARK UNBOUND:                -0.315
REMARK SMILES O=[N+]([O-])c1ccc2c(c1)N[C@@H](c1cc(Cl)cc(Cl)c1)N2
REMARK SMILES IDX 7 1 8 2 5 3 6 4 20 5 10 6 4 7 11 8 9 9 12 12 14 13 13 14
REMARK SMILES IDX 16 15 17 16 19 17 15 18 18 19 2 20 3 21 1 22
REMARK H PARENT 20 10 10 11
ROOT
ATOM      1  C   UNL     1       6.468  -2.001   9.135  1.00  0.00     0.060 A 
ATOM      2  C   UNL     1       6.113  -3.328   9.184  1.00  0.00     0.066 A 
ATOM      3  C   UNL     1       8.026  -2.285  10.879  1.00  0.00     0.088 A 
ATOM      4  C   UNL     1       7.528  -1.549   9.770  1.00  0.00     0.035 A 
ATOM      5  N   UNL     1       5.699  -1.339   8.100  1.00  0.00    -0.360 N 
ATOM      6  N   UNL     1       5.167  -3.486   8.168  1.00  0.00    -0.360 N 
ATOM      7  C   UNL     1       7.584  -3.594  11.053  1.00  0.00     0.271 A 
ATOM      8  C   UNL     1       5.399  -2.400   7.287  1.00  0.00     0.205 C 
ATOM      9  C   UNL     1       6.613  -4.137  10.155  1.00  0.00     0.113 A 
ATOM     10  H   UNL     1       5.448  -0.345   8.002  1.00  0.00     0.163 HD
ATOM     11  H   UNL     1       4.458  -4.228   8.080  1.00  0.00     0.163 HD
ENDROOT
BRANCH   8  12
ATOM     12  C   UNL     1       4.329  -2.220   6.174  1.00  0.00    -0.003 A 
ATOM     13  C   UNL     1       3.411  -0.754   4.402  1.00  0.00     0.042 A 
ATOM     14  C   UNL     1       4.546  -1.377   5.061  1.00  0.00     0.028 A 
ATOM     15  C   UNL     1       2.121  -1.447   4.500  1.00  0.00     0.041 A 
ATOM     16  C   UNL     1       2.057  -2.574   5.423  1.00  0.00     0.042 A 
ATOM     17  C   UNL     1       3.060  -2.872   6.378  1.00  0.00     0.028 A 
ATOM     18  Cl  UNL     1       3.475   0.406   3.363  1.00  0.00    -0.084 Cl
ATOM     19  Cl  UNL     1       0.625  -3.507   5.382  1.00  0.00    -0.084 Cl
ENDBRANCH   8  12
BRANCH   7  20
ATOM     20  N   UNL     1       8.104  -4.459  11.995  1.00  0.00     0.062 N 
ATOM     21  O   UNL     1       7.999  -5.621  11.854  1.00  0.00    -0.258 OA
ATOM     22  O   UNL     1       8.915  -4.079  12.944  1.00  0.00    -0.258 OA
ENDBRANCH   7  20
TORSDOF 2
ENDMDL
MODEL 3
REMARK VINA RESULT:    -4.018      3.146      4.539
REMARK INTER + INTRA:          -4.804
REMARK INTER:                  -4.498
REMARK INTRA:                  -0.306
REMARK UNBOUND:                -0.315
REMARK SMILES O=[N+]([O-])c1ccc2c(c1)N[C@@H](c1cc(Cl)cc(Cl)c1)N2
REMARK SMILES IDX 7 1 8 2 5 3 6 4 20 5 10 6 4 7 11 8 9 9 12 12 14 13 13 14
REMARK SMILES IDX 16 15 17 16 19 17 15 18 18 19 2 20 3 21 1 22
REMARK H PARENT 20 10 10 11
ROOT
ATOM      1  C   UNL     1       9.096  -0.561  11.069  1.00  0.00     0.060 A 
ATOM      2  C   UNL     1       8.140   0.406  11.269  1.00  0.00     0.066 A 
ATOM      3  C   UNL     1      10.486   0.380  12.722  1.00  0.00     0.088 A 
ATOM      4  C   UNL     1      10.101  -0.717  11.905  1.00  0.00     0.035 A 
ATOM      5  N   UNL     1       8.646  -1.474  10.037  1.00  0.00    -0.360 N 
ATOM      6  N   UNL     1       7.100   0.069  10.398  1.00  0.00    -0.360 N 
ATOM      7  C   UNL     1       9.606   1.453  12.842  1.00  0.00     0.271 A 
ATOM      8  C   UNL     1       7.288  -1.310  10.127  1.00  0.00     0.205 C 
ATOM      9  C   UNL     1       8.380   1.447  12.107  1.00  0.00     0.113 A 
ATOM     10  H   UNL     1       9.194  -2.079   9.409  1.00  0.00     0.163 HD
ATOM     11  H   UNL     1       6.360   0.687  10.034  1.00  0.00     0.163 HD
ENDROOT
BRANCH   8  12
ATOM     12  C   UNL     1       6.382  -1.886   9.003  1.00  0.00    -0.003 A 
ATOM     13  C   UNL     1       6.149  -2.401   6.592  1.00  0.00     0.042 A 
ATOM     14  C   UNL     1       6.923  -2.441   7.821  1.00  0.00     0.028 A 
ATOM     15  C   UNL     1       4.689  -2.356   6.725  1.00  0.00     0.041 A 
ATOM     16  C   UNL     1       4.165  -2.139   8.070  1.00  0.00     0.042 A 
ATOM     17  C   UNL     1       4.959  -1.737   9.172  1.00  0.00     0.028 A 
ATOM     18  Cl  UNL     1       6.685  -2.699   5.159  1.00  0.00    -0.084 Cl
ATOM     19  Cl  UNL     1       2.473  -2.295   8.258  1.00  0.00    -0.084 Cl
ENDBRANCH   8  12
BRANCH   7  20
ATOM     20  N   UNL     1       9.793   2.502  13.719  1.00  0.00     0.062 N 
ATOM     21  O   UNL     1      10.301   3.498  13.354  1.00  0.00    -0.258 OA
ATOM     22  O   UNL     1       9.238   2.556  14.900  1.00  0.00    -0.258 OA
ENDBRANCH   7  20
TORSDOF 2
ENDMDL
MODEL 4
REMARK VINA RESULT:    -4.009      3.925      5.028
REMARK INTER + INTRA:          -4.794
REMARK INTER:                  -4.488
REMARK INTRA:                  -0.306
REMARK UNBOUND:                -0.315
REMARK SMILES O=[N+]([O-])c1ccc2c(c1)N[C@@H](c1cc(Cl)cc(Cl)c1)N2
REMARK SMILES IDX 7 1 8 2 5 3 6 4 20 5 10 6 4 7 11 8 9 9 12 12 14 13 13 14
REMARK SMILES IDX 16 15 17 16 19 17 15 18 18 19 2 20 3 21 1 22
REMARK H PARENT 20 10 10 11
ROOT
ATOM      1  C   UNL     1       7.226  -5.723  11.644  1.00  0.00     0.060 A 
ATOM      2  C   UNL     1       7.362  -6.470  10.498  1.00  0.00     0.066 A 
ATOM      3  C   UNL     1       8.400  -7.327  12.908  1.00  0.00     0.088 A 
ATOM      4  C   UNL     1       7.907  -6.006  12.734  1.00  0.00     0.035 A 
ATOM      5  N   UNL     1       6.496  -4.509  11.339  1.00  0.00    -0.360 N 
ATOM      6  N   UNL     1       6.758  -5.706   9.496  1.00  0.00    -0.360 N 
ATOM      7  C   UNL     1       8.426  -8.172  11.800  1.00  0.00     0.271 A 
ATOM      8  C   UNL     1       6.761  -4.381  10.001  1.00  0.00     0.205 C 
ATOM      9  C   UNL     1       7.912  -7.711  10.548  1.00  0.00     0.113 A 
ATOM     10  H   UNL     1       5.933  -3.907  11.957  1.00  0.00     0.163 HD
ATOM     11  H   UNL     1       6.392  -6.034   8.591  1.00  0.00     0.163 HD
ENDROOT
BRANCH   8  12
ATOM     12  C   UNL     1       5.943  -3.360   9.163  1.00  0.00    -0.003 A 
ATOM     13  C   UNL     1       3.770  -2.217   8.838  1.00  0.00     0.042 A 
ATOM     14  C   UNL     1       4.847  -2.655   9.710  1.00  0.00     0.028 A 
ATOM     15  C   UNL     1       4.108  -1.977   7.430  1.00  0.00     0.041 A 
ATOM     16  C   UNL     1       5.434  -2.407   6.998  1.00  0.00     0.042 A 
ATOM     17  C   UNL     1       6.287  -3.236   7.769  1.00  0.00     0.028 A 
ATOM     18  Cl  UNL     1       2.375  -1.691   9.294  1.00  0.00    -0.084 Cl
ATOM     19  Cl  UNL     1       5.904  -1.943   5.422  1.00  0.00    -0.084 Cl
ENDBRANCH   8  12
BRANCH   7  20
ATOM     20  N   UNL     1       9.018  -9.418  11.802  1.00  0.00     0.062 N 
ATOM     21  O   UNL     1       8.414 -10.362  12.157  1.00  0.00    -0.258 OA
ATOM     22  O   UNL     1      10.159  -9.669  11.219  1.00  0.00    -0.258 OA
ENDBRANCH   7  20
TORSDOF 2
ENDMDL
MODEL 5
REMARK VINA RESULT:    -3.841      4.499      5.987
REMARK INTER + INTRA:          -4.606
REMARK INTER:                  -4.295
REMARK INTRA:                  -0.311
REMARK UNBOUND:                -0.315
REMARK SMILES O=[N+]([O-])c1ccc2c(c1)N[C@@H](c1cc(Cl)cc(Cl)c1)N2
REMARK SMILES IDX 7 1 8 2 5 3 6 4 20 5 10 6 4 7 11 8 9 9 12 12 14 13 13 14
REMARK SMILES IDX 16 15 17 16 19 17 15 18 18 19 2 20 3 21 1 22
REMARK H PARENT 20 10 10 11
ROOT
ATOM      1  C   UNL     1       8.065  -7.207  11.095  1.00  0.00     0.060 A 
ATOM      2  C   UNL     1       8.018  -6.557  12.305  1.00  0.00     0.066 A 
ATOM      3  C   UNL     1       8.800  -9.198  12.118  1.00  0.00     0.088 A 
ATOM      4  C   UNL     1       8.211  -8.513  11.021  1.00  0.00     0.035 A 
ATOM      5  N   UNL     1       7.652  -6.296  10.046  1.00  0.00    -0.360 N 
ATOM      6  N   UNL     1       7.546  -5.276  12.008  1.00  0.00    -0.360 N 
ATOM      7  C   UNL     1       8.905  -8.526  13.334  1.00  0.00     0.271 A 
ATOM      8  C   UNL     1       6.884  -5.416  10.762  1.00  0.00     0.205 C 
ATOM      9  C   UNL     1       8.472  -7.167  13.431  1.00  0.00     0.113 A 
ATOM     10  H   UNL     1       7.874  -6.306   9.040  1.00  0.00     0.163 HD
ATOM     11  H   UNL     1       7.654  -4.420  12.570  1.00  0.00     0.163 HD
ENDROOT
BRANCH   8  12
ATOM     12  C   UNL     1       6.450  -4.079  10.098  1.00  0.00    -0.003 A 
ATOM     13  C   UNL     1       5.309  -2.990   8.189  1.00  0.00     0.042 A 
ATOM     14  C   UNL     1       5.339  -4.006   9.228  1.00  0.00     0.028 A 
ATOM     15  C   UNL     1       6.072  -1.761   8.436  1.00  0.00     0.041 A 
ATOM     16  C   UNL     1       6.956  -1.767   9.597  1.00  0.00     0.042 A 
ATOM     17  C   UNL     1       7.292  -2.933  10.328  1.00  0.00     0.028 A 
ATOM     18  Cl  UNL     1       4.324  -2.939   6.982  1.00  0.00    -0.084 Cl
ATOM     19  Cl  UNL     1       7.682  -0.274  10.004  1.00  0.00    -0.084 Cl
ENDBRANCH   8  12
BRANCH   7  20
ATOM     20  N   UNL     1       9.314  -9.127  14.507  1.00  0.00     0.062 N 
ATOM     21  O   UNL     1       9.915 -10.138  14.478  1.00  0.00    -0.258 OA
ATOM     22  O   UNL     1       9.274  -8.532  15.668  1.00  0.00    -0.258 OA
ENDBRANCH   7  20
TORSDOF 2
ENDMDL
MODEL 6
REMARK VINA RESULT:    -3.809      0.701      2.117
REMARK INTER + INTRA:          -4.569
REMARK INTER:                  -4.270
REMARK INTRA:                  -0.299
REMARK UNBOUND:                -0.315
REMARK SMILES O=[N+]([O-])c1ccc2c(c1)N[C@@H](c1cc(Cl)cc(Cl)c1)N2
REMARK SMILES IDX 7 1 8 2 5 3 6 4 20 5 10 6 4 7 11 8 9 9 12 12 14 13 13 14
REMARK SMILES IDX 16 15 17 16 19 17 15 18 18 19 2 20 3 21 1 22
REMARK H PARENT 20 10 10 11
ROOT
ATOM      1  C   UNL     1       6.556  -2.876   9.245  1.00  0.00     0.060 A 
ATOM      2  C   UNL     1       6.730  -1.523   9.076  1.00  0.00     0.066 A 
ATOM      3  C   UNL     1       8.047  -2.906  11.068  1.00  0.00     0.088 A 
ATOM      4  C   UNL     1       6.993  -3.496  10.320  1.00  0.00     0.035 A 
ATOM      5  N   UNL     1       5.622  -3.366   8.251  1.00  0.00    -0.360 N 
ATOM      6  N   UNL     1       5.884  -1.180   8.017  1.00  0.00    -0.360 N 
ATOM      7  C   UNL     1       8.357  -1.568  10.830  1.00  0.00     0.271 A 
ATOM      8  C   UNL     1       4.922  -2.221   7.973  1.00  0.00     0.205 C 
ATOM      9  C   UNL     1       7.651  -0.851   9.814  1.00  0.00     0.113 A 
ATOM     10  H   UNL     1       5.513  -4.313   7.862  1.00  0.00     0.163 HD
ATOM     11  H   UNL     1       5.946  -0.355   7.405  1.00  0.00     0.163 HD
ENDROOT
BRANCH   8  12
ATOM     12  C   UNL     1       3.983  -2.192   6.735  1.00  0.00    -0.003 A 
ATOM     13  C   UNL     1       3.283  -0.975   4.695  1.00  0.00     0.042 A 
ATOM     14  C   UNL     1       4.332  -1.503   5.552  1.00  0.00     0.028 A 
ATOM     15  C   UNL     1       1.982  -1.652   4.740  1.00  0.00     0.041 A 
ATOM     16  C   UNL     1       1.804  -2.649   5.790  1.00  0.00     0.042 A 
ATOM     17  C   UNL     1       2.692  -2.815   6.881  1.00  0.00     0.028 A 
ATOM     18  Cl  UNL     1       3.475   0.038   3.526  1.00  0.00    -0.084 Cl
ATOM     19  Cl  UNL     1       0.374  -3.582   5.714  1.00  0.00    -0.084 Cl
ENDBRANCH   8  12
BRANCH   7  20
ATOM     20  N   UNL     1       9.249  -0.842  11.591  1.00  0.00     0.062 N 
ATOM     21  O   UNL     1       9.236   0.334  11.559  1.00  0.00    -0.258 OA
ATOM     22  O   UNL     1       9.981  -1.369  12.534  1.00  0.00    -0.258 OA
ENDBRANCH   7  20
TORSDOF 2
ENDMDL
MODEL 7
REMARK VINA RESULT:    -3.772      1.747      2.341
REMARK INTER + INTRA:          -4.529
REMARK INTER:                  -4.229
REMARK INTRA:                  -0.299
REMARK UNBOUND:                -0.315
REMARK SMILES O=[N+]([O-])c1ccc2c(c1)N[C@@H](c1cc(Cl)cc(Cl)c1)N2
REMARK SMILES IDX 7 1 8 2 5 3 6 4 20 5 10 6 4 7 11 8 9 9 12 12 14 13 13 14
REMARK SMILES IDX 16 15 17 16 19 17 15 18 18 19 2 20 3 21 1 22
REMARK H PARENT 20 10 10 11
ROOT
ATOM      1  C   UNL     1       6.335  -2.677   9.624  1.00  0.00     0.060 A 
ATOM      2  C   UNL     1       5.885  -3.949   9.361  1.00  0.00     0.066 A 
ATOM      3  C   UNL     1       7.840  -3.476  11.250  1.00  0.00     0.088 A 
ATOM      4  C   UNL     1       7.414  -2.466  10.345  1.00  0.00     0.035 A 
ATOM      5  N   UNL     1       5.631  -1.736   8.775  1.00  0.00    -0.360 N 
ATOM      6  N   UNL     1       4.946  -3.796   8.337  1.00  0.00    -0.360 N 
ATOM      7  C   UNL     1       7.303  -4.753  11.112  1.00  0.00     0.271 A 
ATOM      8  C   UNL     1       5.269  -2.553   7.735  1.00  0.00     0.205 C 
ATOM      9  C   UNL     1       6.310  -4.998  10.113  1.00  0.00     0.113 A 
ATOM     10  H   UNL     1       5.453  -0.732   8.913  1.00  0.00     0.163 HD
ATOM     11  H   UNL     1       4.187  -4.442   8.078  1.00  0.00     0.163 HD
ENDROOT
BRANCH   8  12
ATOM     12  C   UNL     1       4.232  -2.039   6.698  1.00  0.00    -0.003 A 
ATOM     13  C   UNL     1       2.094  -2.464   5.522  1.00  0.00     0.042 A 
ATOM     14  C   UNL     1       2.873  -2.425   6.749  1.00  0.00     0.028 A 
ATOM     15  C   UNL     1       2.516  -1.573   4.436  1.00  0.00     0.041 A 
ATOM     16  C   UNL     1       3.797  -0.896   4.611  1.00  0.00     0.042 A 
ATOM     17  C   UNL     1       4.736  -1.230   5.618  1.00  0.00     0.028 A 
ATOM     18  Cl  UNL     1       0.693  -3.125   5.345  1.00  0.00    -0.084 Cl
ATOM     19  Cl  UNL     1       4.189   0.295   3.450  1.00  0.00    -0.084 Cl
ENDBRANCH   8  12
BRANCH   7  20
ATOM     20  N   UNL     1       7.744  -5.850  11.824  1.00  0.00     0.062 N 
ATOM     21  O   UNL     1       7.479  -6.937  11.463  1.00  0.00    -0.258 OA
ATOM     22  O   UNL     1       8.640  -5.776  12.770  1.00  0.00    -0.258 OA
ENDBRANCH   7  20
TORSDOF 2
ENDMDL
MODEL 8
REMARK VINA RESULT:    -3.730      5.111      7.574
REMARK INTER + INTRA:          -4.481
REMARK INTER:                  -4.181
REMARK INTRA:                  -0.300
REMARK UNBOUND:                -0.315
REMARK SMILES O=[N+]([O-])c1ccc2c(c1)N[C@@H](c1cc(Cl)cc(Cl)c1)N2
REMARK SMILES IDX 7 1 8 2 5 3 6 4 20 5 10 6 4 7 11 8 9 9 12 12 14 13 13 14
REMARK SMILES IDX 16 15 17 16 19 17 15 18 18 19 2 20 3 21 1 22
REMARK H PARENT 20 10 10 11
ROOT
ATOM      1  C   UNL     1       4.560  -1.445   5.967  1.00  0.00     0.060 A 
ATOM      2  C   UNL     1       3.813  -2.543   6.319  1.00  0.00     0.066 A 
ATOM      3  C   UNL     1       2.986  -0.815   4.331  1.00  0.00     0.088 A 
ATOM      4  C   UNL     1       4.072  -0.500   5.193  1.00  0.00     0.035 A 
ATOM      5  N   UNL     1       5.754  -1.396   6.788  1.00  0.00    -0.360 N 
ATOM      6  N   UNL     1       4.518  -3.139   7.367  1.00  0.00    -0.360 N 
ATOM      7  C   UNL     1       2.283  -1.996   4.562  1.00  0.00     0.271 A 
ATOM      8  C   UNL     1       5.337  -2.104   7.885  1.00  0.00     0.205 C 
ATOM      9  C   UNL     1       2.701  -2.873   5.611  1.00  0.00     0.113 A 
ATOM     10  H   UNL     1       6.664  -0.952   6.599  1.00  0.00     0.163 HD
ATOM     11  H   UNL     1       4.456  -4.114   7.693  1.00  0.00     0.163 HD
ENDROOT
BRANCH   8  12
ATOM     12  C   UNL     1       6.391  -2.564   8.931  1.00  0.00    -0.003 A 
ATOM     13  C   UNL     1       7.025  -4.256  10.624  1.00  0.00     0.042 A 
ATOM     14  C   UNL     1       6.532  -3.921   9.299  1.00  0.00     0.028 A 
ATOM     15  C   UNL     1       7.892  -3.271  11.281  1.00  0.00     0.041 A 
ATOM     16  C   UNL     1       7.999  -1.967  10.637  1.00  0.00     0.042 A 
ATOM     17  C   UNL     1       7.151  -1.531   9.588  1.00  0.00     0.028 A 
ATOM     18  Cl  UNL     1       6.977  -5.663  11.294  1.00  0.00    -0.084 Cl
ATOM     19  Cl  UNL     1       9.164  -0.896  11.282  1.00  0.00    -0.084 Cl
ENDBRANCH   8  12
BRANCH   7  20
ATOM     20  N   UNL     1       1.124  -2.338   3.897  1.00  0.00     0.062 N 
ATOM     21  O   UNL     1       0.788  -1.739   2.943  1.00  0.00    -0.258 OA
ATOM     22  O   UNL     1       0.468  -3.443   4.125  1.00  0.00    -0.258 OA
ENDBRANCH   7  20
TORSDOF 2
ENDMDL
MODEL 9
REMARK VINA RESULT:    -3.725      5.099      7.779
REMARK INTER + INTRA:          -4.476
REMARK INTER:                  -4.159
REMARK INTRA:                  -0.317
REMARK UNBOUND:                -0.315
REMARK SMILES O=[N+]([O-])c1ccc2c(c1)N[C@@H](c1cc(Cl)cc(Cl)c1)N2
REMARK SMILES IDX 7 1 8 2 5 3 6 4 20 5 10 6 4 7 11 8 9 9 12 12 14 13 13 14
REMARK SMILES IDX 16 15 17 16 19 17 15 18 18 19 2 20 3 21 1 22
REMARK H PARENT 20 10 10 11
ROOT
ATOM      1  C   UNL     1       4.360  -1.338   6.162  1.00  0.00     0.060 A 
ATOM      2  C   UNL     1       3.558  -2.400   6.507  1.00  0.00     0.066 A 
ATOM      3  C   UNL     1       2.955  -0.781   4.354  1.00  0.00     0.088 A 
ATOM      4  C   UNL     1       3.965  -0.433   5.292  1.00  0.00     0.035 A 
ATOM      5  N   UNL     1       5.475  -1.262   7.085  1.00  0.00    -0.360 N 
ATOM      6  N   UNL     1       4.151  -2.944   7.649  1.00  0.00    -0.360 N 
ATOM      7  C   UNL     1       2.207  -1.933   4.588  1.00  0.00     0.271 A 
ATOM      8  C   UNL     1       4.944  -1.894   8.178  1.00  0.00     0.205 C 
ATOM      9  C   UNL     1       2.507  -2.752   5.721  1.00  0.00     0.113 A 
ATOM     10  H   UNL     1       6.408  -0.846   6.955  1.00  0.00     0.163 HD
ATOM     11  H   UNL     1       4.038  -3.897   8.024  1.00  0.00     0.163 HD
ENDROOT
BRANCH   8  12
ATOM     12  C   UNL     1       5.887  -2.309   9.342  1.00  0.00    -0.003 A 
ATOM     13  C   UNL     1       7.943  -1.796  10.624  1.00  0.00     0.042 A 
ATOM     14  C   UNL     1       6.692  -1.366  10.020  1.00  0.00     0.028 A 
ATOM     15  C   UNL     1       8.037  -3.202  11.033  1.00  0.00     0.041 A 
ATOM     16  C   UNL     1       6.954  -4.079  10.599  1.00  0.00     0.042 A 
ATOM     17  C   UNL     1       5.982  -3.716   9.634  1.00  0.00     0.028 A 
ATOM     18  Cl  UNL     1       9.075  -0.864  11.153  1.00  0.00    -0.084 Cl
ATOM     19  Cl  UNL     1       6.955  -5.660  11.247  1.00  0.00    -0.084 Cl
ENDBRANCH   8  12
BRANCH   7  20
ATOM     20  N   UNL     1       1.105  -2.294   3.841  1.00  0.00     0.062 N 
ATOM     21  O   UNL     1       0.818  -1.687   2.875  1.00  0.00    -0.258 OA
ATOM     22  O   UNL     1       0.466  -3.420   4.006  1.00  0.00    -0.258 OA
ENDBRANCH   7  20
TORSDOF 2
ENDMDL
