MODEL 1
REMARK VINA RESULT:    -4.465      0.000      0.000
REMARK INTER + INTRA:          -5.303
REMARK INTER:                  -4.988
REMARK INTRA:                  -0.316
REMARK UNBOUND:                -0.316
REMARK SMILES O=[N+]([O-])c1ccc2c(c1)N[C@@H](c1cc(Cl)cc(Cl)c1)N2
REMARK SMILES IDX 7 1 8 2 5 3 6 4 20 5 10 6 4 7 11 8 9 9 12 12 14 13 13 14
REMARK SMILES IDX 16 15 17 16 19 17 15 18 18 19 2 20 3 21 1 22
REMARK H PARENT 20 10 10 11
ROOT
ATOM      1  C   UNL     1      -4.112   9.128  -6.019  1.00  0.00     0.060 A 
ATOM      2  C   UNL     1      -5.344   8.564  -5.790  1.00  0.00     0.066 A 
ATOM      3  C   UNL     1      -5.094  11.055  -6.952  1.00  0.00     0.088 A 
ATOM      4  C   UNL     1      -3.987  10.394  -6.354  1.00  0.00     0.035 A 
ATOM      5  N   UNL     1      -3.078   8.221  -5.559  1.00  0.00    -0.360 N 
ATOM      6  N   UNL     1      -5.072   7.345  -5.164  1.00  0.00    -0.360 N 
ATOM      7  C   UNL     1      -6.346  10.449  -6.870  1.00  0.00     0.271 A 
ATOM      8  C   UNL     1      -3.771   7.500  -4.622  1.00  0.00     0.205 C 
ATOM      9  C   UNL     1      -6.472   9.171  -6.242  1.00  0.00     0.113 A 
ATOM     10  H   UNL     1      -2.095   8.141  -5.854  1.00  0.00     0.163 HD
ATOM     11  H   UNL     1      -5.682   6.517  -5.107  1.00  0.00     0.163 HD
ENDROOT
BRANCH   8  12
ATOM     12  C   UNL     1      -3.140   6.199  -4.053  1.00  0.00    -0.003 A 
ATOM     13  C   UNL     1      -1.093   5.087  -3.210  1.00  0.00     0.042 A 
ATOM     14  C   UNL     1      -1.995   6.227  -3.224  1.00  0.00     0.028 A 
ATOM     15  C   UNL     1      -1.667   3.780  -3.547  1.00  0.00     0.041 A 
ATOM     16  C   UNL     1      -3.029   3.783  -4.071  1.00  0.00     0.042 A 
ATOM     17  C   UNL     1      -3.712   4.951  -4.489  1.00  0.00     0.028 A 
ATOM     18  Cl  UNL     1       0.337   5.055  -2.591  1.00  0.00    -0.084 Cl
ATOM     19  Cl  UNL     1      -3.769   2.254  -4.266  1.00  0.00    -0.084 Cl
ENDBRANCH   8  12
BRANCH   7  20
ATOM     20  N   UNL     1      -7.517  11.057  -7.273  1.00  0.00     0.062 N 
ATOM     21  O   UNL     1      -8.551  10.694  -6.846  1.00  0.00    -0.258 OA
ATOM     22  O   UNL     1      -7.549  12.177  -7.943  1.00  0.00    -0.258 OA
ENDBRANCH   7  20
TORSDOF 2
ENDMDL
MODEL 2
REMARK VINA RESULT:    -4.460      1.036      2.683
REMARK INTER + INTRA:          -5.297
REMARK INTER:                  -4.982
REMARK INTRA:                  -0.315
REMARK UNBOUND:                -0.316
REMARK SMILES O=[N+]([O-])c1ccc2c(c1)N[C@@H](c1cc(Cl)cc(Cl)c1)N2
REMARK SMILES IDX 7 1 8 2 5 3 6 4 20 5 10 6 4 7 11 8 9 9 12 12 14 13 13 14
REMARK SMILES IDX 16 15 17 16 19 17 15 18 18 19 2 20 3 21 1 22
REMARK H PARENT 20 10 10 11
ROOT
ATOM      1  C   UNL     1      -5.444   8.479  -5.787  1.00  0.00     0.060 A 
ATOM      2  C   UNL     1      -4.270   9.136  -6.066  1.00  0.00     0.066 A 
ATOM      3  C   UNL     1      -6.720  10.226  -6.721  1.00  0.00     0.088 A 
ATOM      4  C   UNL     1      -6.592   8.876  -6.295  1.00  0.00     0.035 A 
ATOM      5  N   UNL     1      -5.144   7.216  -5.143  1.00  0.00    -0.360 N 
ATOM      6  N   UNL     1      -3.261   8.271  -5.635  1.00  0.00    -0.360 N 
ATOM      7  C   UNL     1      -5.559  10.979  -6.882  1.00  0.00     0.271 A 
ATOM      8  C   UNL     1      -3.873   6.992  -5.602  1.00  0.00     0.205 C 
ATOM      9  C   UNL     1      -4.291  10.399  -6.567  1.00  0.00     0.113 A 
ATOM     10  H   UNL     1      -5.726   6.643  -4.514  1.00  0.00     0.163 HD
ATOM     11  H   UNL     1      -2.289   8.509  -5.394  1.00  0.00     0.163 HD
ENDROOT
BRANCH   8  12
ATOM     12  C   UNL     1      -3.018   5.874  -4.942  1.00  0.00    -0.003 A 
ATOM     13  C   UNL     1      -2.953   3.554  -4.078  1.00  0.00     0.042 A 
ATOM     14  C   UNL     1      -3.321   4.504  -5.114  1.00  0.00     0.028 A 
ATOM     15  C   UNL     1      -1.810   3.904  -3.228  1.00  0.00     0.041 A 
ATOM     16  C   UNL     1      -1.290   5.261  -3.364  1.00  0.00     0.042 A 
ATOM     17  C   UNL     1      -1.959   6.297  -4.062  1.00  0.00     0.028 A 
ATOM     18  Cl  UNL     1      -3.450   2.081  -3.964  1.00  0.00    -0.084 Cl
ATOM     19  Cl  UNL     1       0.164   5.602  -2.533  1.00  0.00    -0.084 Cl
ENDBRANCH   8  12
BRANCH   7  20
ATOM     20  N   UNL     1      -5.538  12.244  -7.433  1.00  0.00     0.062 N 
ATOM     21  O   UNL     1      -4.534  12.696  -7.843  1.00  0.00    -0.258 OA
ATOM     22  O   UNL     1      -6.619  12.909  -7.740  1.00  0.00    -0.258 OA
ENDBRANCH   7  20
TORSDOF 2
ENDMDL
MODEL 3
REMARK VINA RESULT:    -4.180      3.840      4.948
REMARK INTER + INTRA:          -4.985
REMARK INTER:                  -4.679
REMARK INTRA:                  -0.305
REMARK UNBOUND:                -0.316
REMARK SMILES O=[N+]([O-])c1ccc2c(c1)N[C@@H](c1cc(Cl)cc(Cl)c1)N2
REMARK SMILES IDX 7 1 8 2 5 3 6 4 20 5 10 6 4 7 11 8 9 9 12 12 14 13 13 14
REMARK SMILES IDX 16 15 17 16 19 17 15 18 18 19 2 20 3 21 1 22
REMARK H PARENT 20 10 10 11
ROOT
ATOM      1  C   UNL     1      -3.792  12.425  -7.412  1.00  0.00     0.060 A 
ATOM      2  C   UNL     1      -2.825  11.777  -8.144  1.00  0.00     0.066 A 
ATOM      3  C   UNL     1      -3.611  14.350  -8.757  1.00  0.00     0.088 A 
ATOM      4  C   UNL     1      -4.332  13.549  -7.831  1.00  0.00     0.035 A 
ATOM      5  N   UNL     1      -4.262  11.547  -6.359  1.00  0.00    -0.360 N 
ATOM      6  N   UNL     1      -2.731  10.505  -7.571  1.00  0.00    -0.360 N 
ATOM      7  C   UNL     1      -2.529  13.777  -9.422  1.00  0.00     0.271 A 
ATOM      8  C   UNL     1      -3.963  10.322  -6.895  1.00  0.00     0.205 C 
ATOM      9  C   UNL     1      -2.145  12.434  -9.119  1.00  0.00     0.113 A 
ATOM     10  H   UNL     1      -4.700  11.780  -5.456  1.00  0.00     0.163 HD
ATOM     11  H   UNL     1      -1.940   9.847  -7.628  1.00  0.00     0.163 HD
ENDROOT
BRANCH   8  12
ATOM     12  C   UNL     1      -4.031   9.063  -5.986  1.00  0.00    -0.003 A 
ATOM     13  C   UNL     1      -3.628   8.111  -3.736  1.00  0.00     0.042 A 
ATOM     14  C   UNL     1      -4.162   9.164  -4.582  1.00  0.00     0.028 A 
ATOM     15  C   UNL     1      -3.529   6.770  -4.323  1.00  0.00     0.041 A 
ATOM     16  C   UNL     1      -3.772   6.669  -5.758  1.00  0.00     0.042 A 
ATOM     17  C   UNL     1      -3.851   7.786  -6.627  1.00  0.00     0.028 A 
ATOM     18  Cl  UNL     1      -3.429   8.185  -2.191  1.00  0.00    -0.084 Cl
ATOM     19  Cl  UNL     1      -3.863   5.089  -6.402  1.00  0.00    -0.084 Cl
ENDBRANCH   8  12
BRANCH   7  20
ATOM     20  N   UNL     1      -1.848  14.397 -10.450  1.00  0.00     0.062 N 
ATOM     21  O   UNL     1      -0.947  15.114 -10.216  1.00  0.00    -0.258 OA
ATOM     22  O   UNL     1      -1.992  14.067 -11.705  1.00  0.00    -0.258 OA
ENDBRANCH   7  20
TORSDOF 2
ENDMDL
MODEL 4
REMARK VINA RESULT:    -4.137      0.719      2.130
REMARK INTER + INTRA:          -4.936
REMARK INTER:                  -4.637
REMARK INTRA:                  -0.299
REMARK UNBOUND:                -0.316
REMARK SMILES O=[N+]([O-])c1ccc2c(c1)N[C@@H](c1cc(Cl)cc(Cl)c1)N2
REMARK SMILES IDX 7 1 8 2 5 3 6 4 20 5 10 6 4 7 11 8 9 9 12 12 14 13 13 14
REMARK SMILES IDX 16 15 17 16 19 17 15 18 18 19 2 20 3 21 1 22
REMARK H PARENT 20 10 10 11
ROOT
ATOM      1  C   UNL     1      -4.698   9.032  -6.231  1.00  0.00     0.060 A 
ATOM      2  C   UNL     1      -5.783   8.281  -5.847  1.00  0.00     0.066 A 
ATOM      3  C   UNL     1      -6.089  10.788  -6.959  1.00  0.00     0.088 A 
ATOM      4  C   UNL     1      -4.819  10.304  -6.544  1.00  0.00     0.035 A 
ATOM      5  N   UNL     1      -3.483   8.294  -5.950  1.00  0.00    -0.360 N 
ATOM      6  N   UNL     1      -5.240   7.115  -5.301  1.00  0.00    -0.360 N 
ATOM      7  C   UNL     1      -7.208   9.995  -6.717  1.00  0.00     0.271 A 
ATOM      8  C   UNL     1      -3.913   7.467  -4.945  1.00  0.00     0.205 C 
ATOM      9  C   UNL     1      -7.045   8.708  -6.115  1.00  0.00     0.113 A 
ATOM     10  H   UNL     1      -2.552   8.370  -6.384  1.00  0.00     0.163 HD
ATOM     11  H   UNL     1      -5.701   6.202  -5.182  1.00  0.00     0.163 HD
ENDROOT
BRANCH   8  12
ATOM     12  C   UNL     1      -3.014   6.277  -4.510  1.00  0.00    -0.003 A 
ATOM     13  C   UNL     1      -2.887   3.858  -3.996  1.00  0.00     0.042 A 
ATOM     14  C   UNL     1      -3.324   4.943  -4.858  1.00  0.00     0.028 A 
ATOM     15  C   UNL     1      -1.692   4.096  -3.179  1.00  0.00     0.041 A 
ATOM     16  C   UNL     1      -1.187   5.464  -3.149  1.00  0.00     0.042 A 
ATOM     17  C   UNL     1      -1.902   6.582  -3.647  1.00  0.00     0.028 A 
ATOM     18  Cl  UNL     1      -3.371   2.378  -4.065  1.00  0.00    -0.084 Cl
ATOM     19  Cl  UNL     1       0.317   5.700  -2.372  1.00  0.00    -0.084 Cl
ENDBRANCH   8  12
BRANCH   7  20
ATOM     20  N   UNL     1      -8.505  10.415  -6.931  1.00  0.00     0.062 N 
ATOM     21  O   UNL     1      -9.406   9.818  -6.468  1.00  0.00    -0.258 OA
ATOM     22  O   UNL     1      -8.805  11.579  -7.440  1.00  0.00    -0.258 OA
ENDBRANCH   7  20
TORSDOF 2
ENDMDL
MODEL 5
REMARK VINA RESULT:    -4.125      1.491      2.139
REMARK INTER + INTRA:          -4.923
REMARK INTER:                  -4.624
REMARK INTRA:                  -0.299
REMARK UNBOUND:                -0.316
REMARK SMILES O=[N+]([O-])c1ccc2c(c1)N[C@@H](c1cc(Cl)cc(Cl)c1)N2
REMARK SMILES IDX 7 1 8 2 5 3 6 4 20 5 10 6 4 7 11 8 9 9 12 12 14 13 13 14
REMARK SMILES IDX 16 15 17 16 19 17 15 18 18 19 2 20 3 21 1 22
REMARK H PARENT 20 10 10 11
ROOT
ATOM      1  C   UNL     1      -5.075   9.012  -5.803  1.00  0.00     0.060 A 
ATOM      2  C   UNL     1      -3.777   9.411  -6.010  1.00  0.00     0.066 A 
ATOM      3  C   UNL     1      -5.906  10.905  -6.932  1.00  0.00     0.088 A 
ATOM      4  C   UNL     1      -6.079   9.587  -6.429  1.00  0.00     0.035 A 
ATOM      5  N   UNL     1      -5.080   7.760  -5.073  1.00  0.00    -0.360 N 
ATOM      6  N   UNL     1      -2.994   8.399  -5.449  1.00  0.00    -0.360 N 
ATOM      7  C   UNL     1      -4.611  11.409  -7.028  1.00  0.00     0.271 A 
ATOM      8  C   UNL     1      -3.846   7.266  -5.406  1.00  0.00     0.205 C 
ATOM      9  C   UNL     1      -3.510  10.618  -6.574  1.00  0.00     0.113 A 
ATOM     10  H   UNL     1      -5.809   7.353  -4.470  1.00  0.00     0.163 HD
ATOM     11  H   UNL     1      -2.015   8.462  -5.136  1.00  0.00     0.163 HD
ENDROOT
BRANCH   8  12
ATOM     12  C   UNL     1      -3.281   6.051  -4.619  1.00  0.00    -0.003 A 
ATOM     13  C   UNL     1      -1.346   5.084  -3.412  1.00  0.00     0.042 A 
ATOM     14  C   UNL     1      -2.246   6.197  -3.667  1.00  0.00     0.028 A 
ATOM     15  C   UNL     1      -1.866   3.735  -3.664  1.00  0.00     0.041 A 
ATOM     16  C   UNL     1      -3.153   3.651  -4.345  1.00  0.00     0.042 A 
ATOM     17  C   UNL     1      -3.788   4.751  -4.975  1.00  0.00     0.028 A 
ATOM     18  Cl  UNL     1      -0.002   5.152  -2.626  1.00  0.00    -0.084 Cl
ATOM     19  Cl  UNL     1      -3.855   2.096  -4.450  1.00  0.00    -0.084 Cl
ENDBRANCH   8  12
BRANCH   7  20
ATOM     20  N   UNL     1      -4.300  12.608  -7.637  1.00  0.00     0.062 N 
ATOM     21  O   UNL     1      -3.185  12.861  -7.912  1.00  0.00    -0.258 OA
ATOM     22  O   UNL     1      -5.198  13.408  -8.142  1.00  0.00    -0.258 OA
ENDBRANCH   7  20
TORSDOF 2
ENDMDL
MODEL 6
REMARK VINA RESULT:    -4.066      5.107      7.782
REMARK INTER + INTRA:          -4.857
REMARK INTER:                  -4.540
REMARK INTRA:                  -0.317
REMARK UNBOUND:                -0.316
REMARK SMILES O=[N+]([O-])c1ccc2c(c1)N[C@@H](c1cc(Cl)cc(Cl)c1)N2
REMARK SMILES IDX 7 1 8 2 5 3 6 4 20 5 10 6 4 7 11 8 9 9 12 12 14 13 13 14
REMARK SMILES IDX 16 15 17 16 19 17 15 18 18 19 2 20 3 21 1 22
REMARK H PARENT 20 10 10 11
ROOT
ATOM      1  C   UNL     1      -3.644   5.398  -4.685  1.00  0.00     0.060 A 
ATOM      2  C   UNL     1      -2.530   6.121  -4.328  1.00  0.00     0.066 A 
ATOM      3  C   UNL     1      -2.719   3.416  -3.810  1.00  0.00     0.088 A 
ATOM      4  C   UNL     1      -3.840   4.175  -4.243  1.00  0.00     0.035 A 
ATOM      5  N   UNL     1      -4.600   6.280  -5.325  1.00  0.00    -0.360 N 
ATOM      6  N   UNL     1      -2.815   7.435  -4.707  1.00  0.00    -0.360 N 
ATOM      7  C   UNL     1      -1.522   4.088  -3.570  1.00  0.00     0.271 A 
ATOM      8  C   UNL     1      -4.230   7.487  -4.792  1.00  0.00     0.205 C 
ATOM      9  C   UNL     1      -1.440   5.494  -3.814  1.00  0.00     0.113 A 
ATOM     10  H   UNL     1      -5.351   6.060  -5.994  1.00  0.00     0.163 HD
ATOM     11  H   UNL     1      -2.146   8.197  -4.886  1.00  0.00     0.163 HD
ENDROOT
BRANCH   8  12
ATOM     12  C   UNL     1      -4.801   8.793  -5.412  1.00  0.00    -0.003 A 
ATOM     13  C   UNL     1      -6.732   9.894  -6.504  1.00  0.00     0.042 A 
ATOM     14  C   UNL     1      -6.189   9.054  -5.449  1.00  0.00     0.028 A 
ATOM     15  C   UNL     1      -5.828  10.887  -7.096  1.00  0.00     0.041 A 
ATOM     16  C   UNL     1      -4.421  10.790  -6.722  1.00  0.00     0.042 A 
ATOM     17  C   UNL     1      -3.859   9.682  -6.041  1.00  0.00     0.028 A 
ATOM     18  Cl  UNL     1      -8.239  10.056  -6.866  1.00  0.00    -0.084 Cl
ATOM     19  Cl  UNL     1      -3.409  12.065  -7.243  1.00  0.00    -0.084 Cl
ENDBRANCH   8  12
BRANCH   7  20
ATOM     20  N   UNL     1      -0.413   3.494  -3.004  1.00  0.00     0.062 N 
ATOM     21  O   UNL     1      -0.404   2.339  -2.785  1.00  0.00    -0.258 OA
ATOM     22  O   UNL     1       0.741   4.095  -2.890  1.00  0.00    -0.258 OA
ENDBRANCH   7  20
TORSDOF 2
ENDMDL
MODEL 7
REMARK VINA RESULT:    -4.058      5.112      7.581
REMARK INTER + INTRA:          -4.848
REMARK INTER:                  -4.548
REMARK INTRA:                  -0.299
REMARK UNBOUND:                -0.316
REMARK SMILES O=[N+]([O-])c1ccc2c(c1)N[C@@H](c1cc(Cl)cc(Cl)c1)N2
REMARK SMILES IDX 7 1 8 2 5 3 6 4 20 5 10 6 4 7 11 8 9 9 12 12 14 13 13 14
REMARK SMILES IDX 16 15 17 16 19 17 15 18 18 19 2 20 3 21 1 22
REMARK H PARENT 20 10 10 11
ROOT
ATOM      1  C   UNL     1      -3.655   5.213  -4.914  1.00  0.00     0.060 A 
ATOM      2  C   UNL     1      -2.554   5.989  -4.639  1.00  0.00     0.066 A 
ATOM      3  C   UNL     1      -2.709   3.362  -3.804  1.00  0.00     0.088 A 
ATOM      4  C   UNL     1      -3.838   4.048  -4.330  1.00  0.00     0.035 A 
ATOM      5  N   UNL     1      -4.619   5.998  -5.658  1.00  0.00    -0.360 N 
ATOM      6  N   UNL     1      -2.855   7.244  -5.174  1.00  0.00    -0.360 N 
ATOM      7  C   UNL     1      -1.524   4.075  -3.640  1.00  0.00     0.271 A 
ATOM      8  C   UNL     1      -4.269   7.265  -5.271  1.00  0.00     0.205 C 
ATOM      9  C   UNL     1      -1.459   5.443  -4.049  1.00  0.00     0.113 A 
ATOM     10  H   UNL     1      -5.363   5.690  -6.301  1.00  0.00     0.163 HD
ATOM     11  H   UNL     1      -2.195   7.989  -5.438  1.00  0.00     0.163 HD
ENDROOT
BRANCH   8  12
ATOM     12  C   UNL     1      -4.854   8.480  -6.045  1.00  0.00    -0.003 A 
ATOM     13  C   UNL     1      -4.483  10.788  -6.861  1.00  0.00     0.042 A 
ATOM     14  C   UNL     1      -4.022   9.420  -6.694  1.00  0.00     0.028 A 
ATOM     15  C   UNL     1      -5.934  11.001  -6.913  1.00  0.00     0.041 A 
ATOM     16  C   UNL     1      -6.771   9.855  -6.577  1.00  0.00     0.042 A 
ATOM     17  C   UNL     1      -6.282   8.664  -5.987  1.00  0.00     0.028 A 
ATOM     18  Cl  UNL     1      -3.608  12.006  -7.286  1.00  0.00    -0.084 Cl
ATOM     19  Cl  UNL     1      -8.450  10.041  -6.839  1.00  0.00    -0.084 Cl
ENDBRANCH   8  12
BRANCH   7  20
ATOM     20  N   UNL     1      -0.410   3.569  -3.001  1.00  0.00     0.062 N 
ATOM     21  O   UNL     1      -0.343   2.424  -2.743  1.00  0.00    -0.258 OA
ATOM     22  O   UNL     1       0.699   4.242  -2.855  1.00  0.00    -0.258 OA
ENDBRANCH   7  20
TORSDOF 2
ENDMDL
MODEL 8
REMARK VINA RESULT:    -3.916      4.261      5.708
REMARK INTER + INTRA:          -4.690
REMARK INTER:                  -4.382
REMARK INTRA:                  -0.308
REMARK UNBOUND:                -0.316
REMARK SMILES O=[N+]([O-])c1ccc2c(c1)N[C@@H](c1cc(Cl)cc(Cl)c1)N2
REMARK SMILES IDX 7 1 8 2 5 3 6 4 20 5 10 6 4 7 11 8 9 9 12 12 14 13 13 14
REMARK SMILES IDX 16 15 17 16 19 17 15 18 18 19 2 20 3 21 1 22
REMARK H PARENT 20 10 10 11
ROOT
ATOM      1  C   UNL     1      -2.787  12.278  -8.744  1.00  0.00     0.060 A 
ATOM      2  C   UNL     1      -3.709  13.090  -8.129  1.00  0.00     0.066 A 
ATOM      3  C   UNL     1      -1.869  14.101  -9.921  1.00  0.00     0.088 A 
ATOM      4  C   UNL     1      -1.770  12.777  -9.414  1.00  0.00     0.035 A 
ATOM      5  N   UNL     1      -2.971  10.915  -8.288  1.00  0.00    -0.360 N 
ATOM      6  N   UNL     1      -4.424  12.244  -7.277  1.00  0.00    -0.360 N 
ATOM      7  C   UNL     1      -2.883  14.921  -9.429  1.00  0.00     0.271 A 
ATOM      8  C   UNL     1      -3.570  11.131  -7.074  1.00  0.00     0.205 C 
ATOM      9  C   UNL     1      -3.815  14.399  -8.480  1.00  0.00     0.113 A 
ATOM     10  H   UNL     1      -2.720  10.028  -8.748  1.00  0.00     0.163 HD
ATOM     11  H   UNL     1      -5.364  12.395  -6.885  1.00  0.00     0.163 HD
ENDROOT
BRANCH   8  12
ATOM     12  C   UNL     1      -4.222   9.932  -6.330  1.00  0.00    -0.003 A 
ATOM     13  C   UNL     1      -3.955   7.610  -5.512  1.00  0.00     0.042 A 
ATOM     14  C   UNL     1      -3.446   8.964  -5.653  1.00  0.00     0.028 A 
ATOM     15  C   UNL     1      -5.413   7.442  -5.518  1.00  0.00     0.041 A 
ATOM     16  C   UNL     1      -6.201   8.615  -5.881  1.00  0.00     0.042 A 
ATOM     17  C   UNL     1      -5.651   9.793  -6.446  1.00  0.00     0.028 A 
ATOM     18  Cl  UNL     1      -3.136   6.364  -5.059  1.00  0.00    -0.084 Cl
ATOM     19  Cl  UNL     1      -7.893   8.480  -5.687  1.00  0.00    -0.084 Cl
ENDBRANCH   8  12
BRANCH   7  20
ATOM     20  N   UNL     1      -2.991  16.264  -9.725  1.00  0.00     0.062 N 
ATOM     21  O   UNL     1      -2.040  16.955  -9.706  1.00  0.00    -0.258 OA
ATOM     22  O   UNL     1      -4.061  16.797 -10.251  1.00  0.00    -0.258 OA
ENDBRANCH   7  20
TORSDOF 2
ENDMDL
MODEL 9
REMARK VINA RESULT:    -3.603      5.138      7.530
REMARK INTER + INTRA:          -4.339
REMARK INTER:                  -4.044
REMARK INTRA:                  -0.296
REMARK UNBOUND:                -0.316
REMARK SMILES O=[N+]([O-])c1ccc2c(c1)N[C@@H](c1cc(Cl)cc(Cl)c1)N2
REMARK SMILES IDX 7 1 8 2 5 3 6 4 20 5 10 6 4 7 11 8 9 9 12 12 14 13 13 14
REMARK SMILES IDX 16 15 17 16 19 17 15 18 18 19 2 20 3 21 1 22
REMARK H PARENT 20 10 10 11
ROOT
ATOM      1  C   UNL     1      -3.895   8.756  -4.894  1.00  0.00     0.060 A 
ATOM      2  C   UNL     1      -4.037   8.014  -6.043  1.00  0.00     0.066 A 
ATOM      3  C   UNL     1      -3.746   6.809  -3.576  1.00  0.00     0.088 A 
ATOM      4  C   UNL     1      -3.528   8.202  -3.759  1.00  0.00     0.035 A 
ATOM      5  N   UNL     1      -3.924  10.166  -5.230  1.00  0.00    -0.360 N 
ATOM      6  N   UNL     1      -4.114   8.955  -7.073  1.00  0.00    -0.360 N 
ATOM      7  C   UNL     1      -4.036   6.035  -4.698  1.00  0.00     0.271 A 
ATOM      8  C   UNL     1      -3.518  10.125  -6.538  1.00  0.00     0.205 C 
ATOM      9  C   UNL     1      -4.158   6.663  -5.977  1.00  0.00     0.113 A 
ATOM     10  H   UNL     1      -4.179  10.976  -4.646  1.00  0.00     0.163 HD
ATOM     11  H   UNL     1      -4.514   8.826  -8.013  1.00  0.00     0.163 HD
ENDROOT
BRANCH   8  12
ATOM     12  C   UNL     1      -3.672  11.398  -7.416  1.00  0.00    -0.003 A 
ATOM     13  C   UNL     1      -2.553  13.044  -8.890  1.00  0.00     0.042 A 
ATOM     14  C   UNL     1      -2.801  11.667  -8.497  1.00  0.00     0.028 A 
ATOM     15  C   UNL     1      -3.607  14.022  -8.595  1.00  0.00     0.041 A 
ATOM     16  C   UNL     1      -4.702  13.561  -7.748  1.00  0.00     0.042 A 
ATOM     17  C   UNL     1      -4.680  12.347  -7.018  1.00  0.00     0.028 A 
ATOM     18  Cl  UNL     1      -1.428  13.537  -9.850  1.00  0.00    -0.084 Cl
ATOM     19  Cl  UNL     1      -6.027  14.627  -7.576  1.00  0.00    -0.084 Cl
ENDBRANCH   8  12
BRANCH   7  20
ATOM     20  N   UNL     1      -4.116   4.658  -4.677  1.00  0.00     0.062 N 
ATOM     21  O   UNL     1      -3.805   4.031  -5.621  1.00  0.00    -0.258 OA
ATOM     22  O   UNL     1      -4.310   3.969  -3.585  1.00  0.00    -0.258 OA
ENDBRANCH   7  20
TORSDOF 2
ENDMDL
