MODEL 1
REMARK VINA RESULT:    -4.308      0.000      0.000
REMARK INTER + INTRA:          -5.127
REMARK INTER:                  -4.812
REMARK INTRA:                  -0.316
REMARK UNBOUND:                -0.316
REMARK SMILES O=[N+]([O-])c1ccc2c(c1)N[C@@H](c1cc(Cl)cc(Cl)c1)N2
REMARK SMILES IDX 7 1 8 2 5 3 6 4 20 5 10 6 4 7 11 8 9 9 12 12 14 13 13 14
REMARK SMILES IDX 16 15 17 16 19 17 15 18 18 19 2 20 3 21 1 22
REMARK H PARENT 20 10 10 11
ROOT
ATOM      1  C   UNL     1      -0.447   0.060 -10.715  1.00  0.00     0.060 A 
ATOM      2  C   UNL     1      -0.048   1.364 -10.539  1.00  0.00     0.066 A 
ATOM      3  C   UNL     1      -0.287   0.259 -13.056  1.00  0.00     0.088 A 
ATOM      4  C   UNL     1      -0.343  -0.539 -11.881  1.00  0.00     0.035 A 
ATOM      5  N   UNL     1      -0.686  -0.545  -9.420  1.00  0.00    -0.360 N 
ATOM      6  N   UNL     1      -0.005   1.544  -9.154  1.00  0.00    -0.360 N 
ATOM      7  C   UNL     1      -0.024   1.620 -12.917  1.00  0.00     0.271 A 
ATOM      8  C   UNL     1       0.111   0.235  -8.623  1.00  0.00     0.205 C 
ATOM      9  C   UNL     1       0.126   2.180 -11.611  1.00  0.00     0.113 A 
ATOM     10  H   UNL     1      -1.288  -1.342  -9.167  1.00  0.00     0.163 HD
ATOM     11  H   UNL     1      -0.048   2.432  -8.634  1.00  0.00     0.163 HD
ENDROOT
BRANCH   8  12
ATOM     12  C   UNL     1      -0.041   0.138  -7.079  1.00  0.00    -0.003 A 
ATOM     13  C   UNL     1      -0.363  -1.340  -5.118  1.00  0.00     0.042 A 
ATOM     14  C   UNL     1       0.313  -1.030  -6.367  1.00  0.00     0.028 A 
ATOM     15  C   UNL     1      -0.910  -0.210  -4.358  1.00  0.00     0.041 A 
ATOM     16  C   UNL     1      -0.912   1.085  -5.031  1.00  0.00     0.042 A 
ATOM     17  C   UNL     1      -0.655   1.259  -6.413  1.00  0.00     0.028 A 
ATOM     18  Cl  UNL     1      -0.309  -2.699  -4.358  1.00  0.00    -0.084 Cl
ATOM     19  Cl  UNL     1      -1.352   2.433  -4.076  1.00  0.00    -0.084 Cl
ENDBRANCH   8  12
BRANCH   7  20
ATOM     20  N   UNL     1       0.206   2.467 -13.982  1.00  0.00     0.062 N 
ATOM     21  O   UNL     1       0.719   3.510 -13.809  1.00  0.00    -0.258 OA
ATOM     22  O   UNL     1       0.091   2.098 -15.229  1.00  0.00    -0.258 OA
ENDBRANCH   7  20
TORSDOF 2
ENDMDL
MODEL 2
REMARK VINA RESULT:    -4.289      1.053      2.694
REMARK INTER + INTRA:          -5.107
REMARK INTER:                  -4.791
REMARK INTRA:                  -0.316
REMARK UNBOUND:                -0.316
REMARK SMILES O=[N+]([O-])c1ccc2c(c1)N[C@@H](c1cc(Cl)cc(Cl)c1)N2
REMARK SMILES IDX 7 1 8 2 5 3 6 4 20 5 10 6 4 7 11 8 9 9 12 12 14 13 13 14
REMARK SMILES IDX 16 15 17 16 19 17 15 18 18 19 2 20 3 21 1 22
REMARK H PARENT 20 10 10 11
ROOT
ATOM      1  C   UNL     1      -0.065   1.492 -10.471  1.00  0.00     0.060 A 
ATOM      2  C   UNL     1      -0.450   0.202 -10.750  1.00  0.00     0.066 A 
ATOM      3  C   UNL     1       0.142   1.996 -12.762  1.00  0.00     0.088 A 
ATOM      4  C   UNL     1      -0.005   2.410 -11.411  1.00  0.00     0.035 A 
ATOM      5  N   UNL     1      -0.045   1.684  -9.034  1.00  0.00    -0.360 N 
ATOM      6  N   UNL     1      -0.700  -0.378  -9.504  1.00  0.00    -0.360 N 
ATOM      7  C   UNL     1      -0.100   0.659 -13.072  1.00  0.00     0.271 A 
ATOM      8  C   UNL     1      -0.933   0.719  -8.635  1.00  0.00     0.205 C 
ATOM      9  C   UNL     1      -0.434  -0.258 -12.028  1.00  0.00     0.113 A 
ATOM     10  H   UNL     1       0.488   2.359  -8.468  1.00  0.00     0.163 HD
ATOM     11  H   UNL     1      -0.713  -1.380  -9.268  1.00  0.00     0.163 HD
ENDROOT
BRANCH   8  12
ATOM     12  C   UNL     1      -1.023   0.353  -7.128  1.00  0.00    -0.003 A 
ATOM     13  C   UNL     1      -1.045   1.180  -4.794  1.00  0.00     0.042 A 
ATOM     14  C   UNL     1      -1.512   1.267  -6.167  1.00  0.00     0.028 A 
ATOM     15  C   UNL     1      -0.593  -0.135  -4.325  1.00  0.00     0.041 A 
ATOM     16  C   UNL     1      -0.455  -1.174  -5.340  1.00  0.00     0.042 A 
ATOM     17  C   UNL     1      -0.491  -0.927  -6.735  1.00  0.00     0.028 A 
ATOM     18  Cl  UNL     1      -1.249   2.256  -3.685  1.00  0.00    -0.084 Cl
ATOM     19  Cl  UNL     1      -0.133  -2.753  -4.769  1.00  0.00    -0.084 Cl
ENDBRANCH   8  12
BRANCH   7  20
ATOM     20  N   UNL     1      -0.140   0.168 -14.361  1.00  0.00     0.062 N 
ATOM     21  O   UNL     1      -0.675  -0.854 -14.590  1.00  0.00    -0.258 OA
ATOM     22  O   UNL     1       0.189   0.876 -15.407  1.00  0.00    -0.258 OA
ENDBRANCH   7  20
TORSDOF 2
ENDMDL
MODEL 3
REMARK VINA RESULT:    -3.964      3.180      4.552
REMARK INTER + INTRA:          -4.744
REMARK INTER:                  -4.437
REMARK INTRA:                  -0.307
REMARK UNBOUND:                -0.316
REMARK SMILES O=[N+]([O-])c1ccc2c(c1)N[C@@H](c1cc(Cl)cc(Cl)c1)N2
REMARK SMILES IDX 7 1 8 2 5 3 6 4 20 5 10 6 4 7 11 8 9 9 12 12 14 13 13 14
REMARK SMILES IDX 16 15 17 16 19 17 15 18 18 19 2 20 3 21 1 22
REMARK H PARENT 20 10 10 11
ROOT
ATOM      1  C   UNL     1       0.614   3.792 -12.916  1.00  0.00     0.060 A 
ATOM      2  C   UNL     1       1.723   3.995 -12.129  1.00  0.00     0.066 A 
ATOM      3  C   UNL     1       1.501   5.142 -14.630  1.00  0.00     0.088 A 
ATOM      4  C   UNL     1       0.598   4.139 -14.185  1.00  0.00     0.035 A 
ATOM      5  N   UNL     1      -0.316   2.928 -12.216  1.00  0.00    -0.360 N 
ATOM      6  N   UNL     1       1.494   3.235 -10.979  1.00  0.00    -0.360 N 
ATOM      7  C   UNL     1       2.567   5.485 -13.800  1.00  0.00     0.271 A 
ATOM      8  C   UNL     1       0.537   2.266 -11.372  1.00  0.00     0.205 C 
ATOM      9  C   UNL     1       2.690   4.866 -12.517  1.00  0.00     0.113 A 
ATOM     10  H   UNL     1      -1.336   2.836 -12.323  1.00  0.00     0.163 HD
ATOM     11  H   UNL     1       1.925   3.353 -10.051  1.00  0.00     0.163 HD
ENDROOT
BRANCH   8  12
ATOM     12  C   UNL     1      -0.056   1.422 -10.209  1.00  0.00    -0.003 A 
ATOM     13  C   UNL     1      -1.864   1.189  -8.533  1.00  0.00     0.042 A 
ATOM     14  C   UNL     1      -1.434   1.449  -9.897  1.00  0.00     0.028 A 
ATOM     15  C   UNL     1      -0.987   0.353  -7.706  1.00  0.00     0.041 A 
ATOM     16  C   UNL     1       0.328   0.045  -8.258  1.00  0.00     0.042 A 
ATOM     17  C   UNL     1       0.878   0.687  -9.395  1.00  0.00     0.028 A 
ATOM     18  Cl  UNL     1      -3.287   1.451  -7.953  1.00  0.00    -0.084 Cl
ATOM     19  Cl  UNL     1       1.265  -1.094  -7.394  1.00  0.00    -0.084 Cl
ENDBRANCH   8  12
BRANCH   7  20
ATOM     20  N   UNL     1       3.592   6.327 -14.180  1.00  0.00     0.062 N 
ATOM     21  O   UNL     1       3.405   7.484 -14.272  1.00  0.00    -0.258 OA
ATOM     22  O   UNL     1       4.841   5.954 -14.235  1.00  0.00    -0.258 OA
ENDBRANCH   7  20
TORSDOF 2
ENDMDL
MODEL 4
REMARK VINA RESULT:    -3.954      3.816      4.906
REMARK INTER + INTRA:          -4.732
REMARK INTER:                  -4.427
REMARK INTRA:                  -0.306
REMARK UNBOUND:                -0.316
REMARK SMILES O=[N+]([O-])c1ccc2c(c1)N[C@@H](c1cc(Cl)cc(Cl)c1)N2
REMARK SMILES IDX 7 1 8 2 5 3 6 4 20 5 10 6 4 7 11 8 9 9 12 12 14 13 13 14
REMARK SMILES IDX 16 15 17 16 19 17 15 18 18 19 2 20 3 21 1 22
REMARK H PARENT 20 10 10 11
ROOT
ATOM      1  C   UNL     1      -0.688  -1.377 -13.937  1.00  0.00     0.060 A 
ATOM      2  C   UNL     1      -1.880  -1.807 -13.405  1.00  0.00     0.066 A 
ATOM      3  C   UNL     1      -1.300  -2.131 -16.084  1.00  0.00     0.088 A 
ATOM      4  C   UNL     1      -0.498  -1.317 -15.238  1.00  0.00     0.035 A 
ATOM      5  N   UNL     1       0.113  -0.775 -12.890  1.00  0.00    -0.360 N 
ATOM      6  N   UNL     1      -1.827  -1.439 -12.058  1.00  0.00    -0.360 N 
ATOM      7  C   UNL     1      -2.449  -2.707 -15.547  1.00  0.00     0.271 A 
ATOM      8  C   UNL     1      -0.864  -0.400 -12.005  1.00  0.00     0.205 C 
ATOM      9  C   UNL     1      -2.758  -2.513 -14.165  1.00  0.00     0.113 A 
ATOM     10  H   UNL     1       1.135  -0.659 -12.828  1.00  0.00     0.163 HD
ATOM     11  H   UNL     1      -2.369  -1.835 -11.276  1.00  0.00     0.163 HD
ENDROOT
BRANCH   8  12
ATOM     12  C   UNL     1      -0.455   0.042 -10.572  1.00  0.00    -0.003 A 
ATOM     13  C   UNL     1       1.085  -0.293  -8.662  1.00  0.00     0.042 A 
ATOM     14  C   UNL     1       0.863  -0.125 -10.089  1.00  0.00     0.028 A 
ATOM     15  C   UNL     1       0.089   0.293  -7.758  1.00  0.00     0.041 A 
ATOM     16  C   UNL     1      -1.132   0.797  -8.377  1.00  0.00     0.042 A 
ATOM     17  C   UNL     1      -1.504   0.538  -9.719  1.00  0.00     0.028 A 
ATOM     18  Cl  UNL     1       2.409  -0.766  -7.989  1.00  0.00    -0.084 Cl
ATOM     19  Cl  UNL     1      -2.195   1.664  -7.357  1.00  0.00    -0.084 Cl
ENDBRANCH   8  12
BRANCH   7  20
ATOM     20  N   UNL     1      -3.386  -3.387 -16.298  1.00  0.00     0.062 N 
ATOM     21  O   UNL     1      -3.165  -4.479 -16.675  1.00  0.00    -0.258 OA
ATOM     22  O   UNL     1      -4.619  -2.983 -16.441  1.00  0.00    -0.258 OA
ENDBRANCH   7  20
TORSDOF 2
ENDMDL
MODEL 5
REMARK VINA RESULT:    -3.947      1.447      2.102
REMARK INTER + INTRA:          -4.724
REMARK INTER:                  -4.425
REMARK INTRA:                  -0.299
REMARK UNBOUND:                -0.316
REMARK SMILES O=[N+]([O-])c1ccc2c(c1)N[C@@H](c1cc(Cl)cc(Cl)c1)N2
REMARK SMILES IDX 7 1 8 2 5 3 6 4 20 5 10 6 4 7 11 8 9 9 12 12 14 13 13 14
REMARK SMILES IDX 16 15 17 16 19 17 15 18 18 19 2 20 3 21 1 22
REMARK H PARENT 20 10 10 11
ROOT
ATOM      1  C   UNL     1       0.031   1.003 -10.821  1.00  0.00     0.060 A 
ATOM      2  C   UNL     1      -0.409  -0.299 -10.843  1.00  0.00     0.066 A 
ATOM      3  C   UNL     1      -0.037   1.135 -13.172  1.00  0.00     0.088 A 
ATOM      4  C   UNL     1      -0.009   1.760 -11.896  1.00  0.00     0.035 A 
ATOM      5  N   UNL     1       0.231   1.416  -9.447  1.00  0.00    -0.360 N 
ATOM      6  N   UNL     1      -0.514  -0.668  -9.500  1.00  0.00    -0.360 N 
ATOM      7  C   UNL     1      -0.340  -0.224 -13.234  1.00  0.00     0.271 A 
ATOM      8  C   UNL     1      -0.618   0.559  -8.796  1.00  0.00     0.205 C 
ATOM      9  C   UNL     1      -0.559  -0.954 -12.024  1.00  0.00     0.113 A 
ATOM     10  H   UNL     1       0.843   2.151  -9.063  1.00  0.00     0.163 HD
ATOM     11  H   UNL     1      -0.516  -1.620  -9.107  1.00  0.00     0.163 HD
ENDROOT
BRANCH   8  12
ATOM     12  C   UNL     1      -0.528   0.437  -7.249  1.00  0.00    -0.003 A 
ATOM     13  C   UNL     1      -0.432  -1.080  -5.295  1.00  0.00     0.042 A 
ATOM     14  C   UNL     1       0.022  -0.704  -6.623  1.00  0.00     0.028 A 
ATOM     15  C   UNL     1      -0.948  -0.007  -4.438  1.00  0.00     0.041 A 
ATOM     16  C   UNL     1      -1.156   1.289  -5.075  1.00  0.00     0.042 A 
ATOM     17  C   UNL     1      -1.124   1.496  -6.476  1.00  0.00     0.028 A 
ATOM     18  Cl  UNL     1      -0.156  -2.438  -4.580  1.00  0.00    -0.084 Cl
ATOM     19  Cl  UNL     1      -1.556   2.587  -4.037  1.00  0.00    -0.084 Cl
ENDBRANCH   8  12
BRANCH   7  20
ATOM     20  N   UNL     1      -0.547  -0.909 -14.413  1.00  0.00     0.062 N 
ATOM     21  O   UNL     1      -1.156  -1.915 -14.416  1.00  0.00    -0.258 OA
ATOM     22  O   UNL     1      -0.300  -0.399 -15.590  1.00  0.00    -0.258 OA
ENDBRANCH   7  20
TORSDOF 2
ENDMDL
MODEL 6
REMARK VINA RESULT:    -3.947      0.712      2.125
REMARK INTER + INTRA:          -4.724
REMARK INTER:                  -4.425
REMARK INTRA:                  -0.299
REMARK UNBOUND:                -0.316
REMARK SMILES O=[N+]([O-])c1ccc2c(c1)N[C@@H](c1cc(Cl)cc(Cl)c1)N2
REMARK SMILES IDX 7 1 8 2 5 3 6 4 20 5 10 6 4 7 11 8 9 9 12 12 14 13 13 14
REMARK SMILES IDX 16 15 17 16 19 17 15 18 18 19 2 20 3 21 1 22
REMARK H PARENT 20 10 10 11
ROOT
ATOM      1  C   UNL     1      -0.479   0.659 -10.926  1.00  0.00     0.060 A 
ATOM      2  C   UNL     1      -0.074   1.897 -10.486  1.00  0.00     0.066 A 
ATOM      3  C   UNL     1      -0.050   1.243 -13.167  1.00  0.00     0.088 A 
ATOM      4  C   UNL     1      -0.256   0.262 -12.160  1.00  0.00     0.035 A 
ATOM      5  N   UNL     1      -0.876  -0.146  -9.788  1.00  0.00    -0.360 N 
ATOM      6  N   UNL     1      -0.185   1.839  -9.094  1.00  0.00    -0.360 N 
ATOM      7  C   UNL     1       0.224   2.549 -12.768  1.00  0.00     0.271 A 
ATOM      8  C   UNL     1      -0.159   0.455  -8.787  1.00  0.00     0.205 C 
ATOM      9  C   UNL     1       0.237   2.875 -11.376  1.00  0.00     0.113 A 
ATOM     10  H   UNL     1      -1.520  -0.949  -9.743  1.00  0.00     0.163 HD
ATOM     11  H   UNL     1      -0.268   2.628  -8.437  1.00  0.00     0.163 HD
ENDROOT
BRANCH   8  12
ATOM     12  C   UNL     1      -0.486   0.106  -7.308  1.00  0.00    -0.003 A 
ATOM     13  C   UNL     1      -0.917   0.963  -5.025  1.00  0.00     0.042 A 
ATOM     14  C   UNL     1      -1.153   1.017  -6.458  1.00  0.00     0.028 A 
ATOM     15  C   UNL     1      -0.511  -0.331  -4.465  1.00  0.00     0.041 A 
ATOM     16  C   UNL     1      -0.177  -1.379  -5.424  1.00  0.00     0.042 A 
ATOM     17  C   UNL     1       0.010  -1.151  -6.810  1.00  0.00     0.028 A 
ATOM     18  Cl  UNL     1      -1.331   2.047  -3.984  1.00  0.00    -0.084 Cl
ATOM     19  Cl  UNL     1       0.090  -2.939  -4.779  1.00  0.00    -0.084 Cl
ENDBRANCH   8  12
BRANCH   7  20
ATOM     20  N   UNL     1       0.592   3.554 -13.640  1.00  0.00     0.062 N 
ATOM     21  O   UNL     1       1.138   4.516 -13.240  1.00  0.00    -0.258 OA
ATOM     22  O   UNL     1       0.574   3.418 -14.938  1.00  0.00    -0.258 OA
ENDBRANCH   7  20
TORSDOF 2
ENDMDL
MODEL 7
REMARK VINA RESULT:    -3.897      5.104      7.573
REMARK INTER + INTRA:          -4.669
REMARK INTER:                  -4.370
REMARK INTRA:                  -0.299
REMARK UNBOUND:                -0.316
REMARK SMILES O=[N+]([O-])c1ccc2c(c1)N[C@@H](c1cc(Cl)cc(Cl)c1)N2
REMARK SMILES IDX 7 1 8 2 5 3 6 4 20 5 10 6 4 7 11 8 9 9 12 12 14 13 13 14
REMARK SMILES IDX 16 15 17 16 19 17 15 18 18 19 2 20 3 21 1 22
REMARK H PARENT 20 10 10 11
ROOT
ATOM      1  C   UNL     1      -0.571   1.070  -6.878  1.00  0.00     0.060 A 
ATOM      2  C   UNL     1      -0.759  -0.280  -7.063  1.00  0.00     0.066 A 
ATOM      3  C   UNL     1      -0.444   0.798  -4.541  1.00  0.00     0.088 A 
ATOM      4  C   UNL     1      -0.194   1.558  -5.716  1.00  0.00     0.035 A 
ATOM      5  N   UNL     1      -0.571   1.733  -8.166  1.00  0.00    -0.360 N 
ATOM      6  N   UNL     1      -0.834  -0.447  -8.448  1.00  0.00    -0.360 N 
ATOM      7  C   UNL     1      -0.778  -0.546  -4.685  1.00  0.00     0.271 A 
ATOM      8  C   UNL     1      -0.196   0.700  -8.985  1.00  0.00     0.205 C 
ATOM      9  C   UNL     1      -0.913  -1.105  -5.994  1.00  0.00     0.113 A 
ATOM     10  H   UNL     1      -0.792   2.711  -8.403  1.00  0.00     0.163 HD
ATOM     11  H   UNL     1      -1.258  -1.230  -8.964  1.00  0.00     0.163 HD
ENDROOT
BRANCH   8  12
ATOM     12  C   UNL     1      -0.336   0.867 -10.524  1.00  0.00    -0.003 A 
ATOM     13  C   UNL     1      -0.437  -0.258 -12.728  1.00  0.00     0.042 A 
ATOM     14  C   UNL     1      -0.858  -0.162 -11.340  1.00  0.00     0.028 A 
ATOM     15  C   UNL     1       0.001   0.982 -13.379  1.00  0.00     0.041 A 
ATOM     16  C   UNL     1       0.175   2.143 -12.514  1.00  0.00     0.042 A 
ATOM     17  C   UNL     1       0.185   2.081 -11.098  1.00  0.00     0.028 A 
ATOM     18  Cl  UNL     1      -0.680  -1.469 -13.679  1.00  0.00    -0.084 Cl
ATOM     19  Cl  UNL     1       0.480   3.632 -13.296  1.00  0.00    -0.084 Cl
ENDBRANCH   8  12
BRANCH   7  20
ATOM     20  N   UNL     1      -0.894  -1.423  -3.626  1.00  0.00     0.062 N 
ATOM     21  O   UNL     1      -1.211  -1.032  -2.564  1.00  0.00    -0.258 OA
ATOM     22  O   UNL     1      -0.891  -2.721  -3.768  1.00  0.00    -0.258 OA
ENDBRANCH   7  20
TORSDOF 2
ENDMDL
MODEL 8
REMARK VINA RESULT:    -3.863      4.977      7.641
REMARK INTER + INTRA:          -4.631
REMARK INTER:                  -4.332
REMARK INTRA:                  -0.299
REMARK UNBOUND:                -0.316
REMARK SMILES O=[N+]([O-])c1ccc2c(c1)N[C@@H](c1cc(Cl)cc(Cl)c1)N2
REMARK SMILES IDX 7 1 8 2 5 3 6 4 20 5 10 6 4 7 11 8 9 9 12 12 14 13 13 14
REMARK SMILES IDX 16 15 17 16 19 17 15 18 18 19 2 20 3 21 1 22
REMARK H PARENT 20 10 10 11
ROOT
ATOM      1  C   UNL     1      -0.399  -0.602  -7.050  1.00  0.00     0.060 A 
ATOM      2  C   UNL     1      -0.282   0.743  -6.794  1.00  0.00     0.066 A 
ATOM      3  C   UNL     1      -0.877  -1.058  -4.789  1.00  0.00     0.088 A 
ATOM      4  C   UNL     1      -0.903  -1.430  -6.160  1.00  0.00     0.035 A 
ATOM      5  N   UNL     1      -0.169  -0.842  -8.461  1.00  0.00    -0.360 N 
ATOM      6  N   UNL     1      -0.023   1.326  -8.037  1.00  0.00    -0.360 N 
ATOM      7  C   UNL     1      -0.620   0.274  -4.472  1.00  0.00     0.271 A 
ATOM      8  C   UNL     1      -0.495   0.382  -8.983  1.00  0.00     0.205 C 
ATOM      9  C   UNL     1      -0.340   1.207  -5.518  1.00  0.00     0.113 A 
ATOM     10  H   UNL     1       0.151  -1.696  -8.939  1.00  0.00     0.163 HD
ATOM     11  H   UNL     1       0.415   2.240  -8.224  1.00  0.00     0.163 HD
ENDROOT
BRANCH   8  12
ATOM     12  C   UNL     1      -0.126   0.695 -10.460  1.00  0.00    -0.003 A 
ATOM     13  C   UNL     1       0.282   2.443 -12.167  1.00  0.00     0.042 A 
ATOM     14  C   UNL     1       0.495   1.910 -10.832  1.00  0.00     0.028 A 
ATOM     15  C   UNL     1      -0.035   1.479 -13.227  1.00  0.00     0.041 A 
ATOM     16  C   UNL     1      -0.316   0.113 -12.800  1.00  0.00     0.042 A 
ATOM     17  C   UNL     1      -0.536  -0.265 -11.452  1.00  0.00     0.028 A 
ATOM     18  Cl  UNL     1       0.643   3.880 -12.650  1.00  0.00    -0.084 Cl
ATOM     19  Cl  UNL     1      -0.477  -1.051 -14.042  1.00  0.00    -0.084 Cl
ENDBRANCH   8  12
BRANCH   7  20
ATOM     20  N   UNL     1      -0.718   0.790  -3.196  1.00  0.00     0.062 N 
ATOM     21  O   UNL     1      -0.585   0.089  -2.261  1.00  0.00    -0.258 OA
ATOM     22  O   UNL     1      -0.731   2.070  -2.940  1.00  0.00    -0.258 OA
ENDBRANCH   7  20
TORSDOF 2
ENDMDL
MODEL 9
REMARK VINA RESULT:    -3.617      3.959      5.766
REMARK INTER + INTRA:          -4.355
REMARK INTER:                  -4.049
REMARK INTRA:                  -0.306
REMARK UNBOUND:                -0.316
REMARK SMILES O=[N+]([O-])c1ccc2c(c1)N[C@@H](c1cc(Cl)cc(Cl)c1)N2
REMARK SMILES IDX 7 1 8 2 5 3 6 4 20 5 10 6 4 7 11 8 9 9 12 12 14 13 13 14
REMARK SMILES IDX 16 15 17 16 19 17 15 18 18 19 2 20 3 21 1 22
REMARK H PARENT 20 10 10 11
ROOT
ATOM      1  C   UNL     1       2.285   4.565 -12.966  1.00  0.00     0.060 A 
ATOM      2  C   UNL     1       1.271   4.496 -13.891  1.00  0.00     0.066 A 
ATOM      3  C   UNL     1       3.295   6.360 -14.109  1.00  0.00     0.088 A 
ATOM      4  C   UNL     1       3.117   5.584 -12.932  1.00  0.00     0.035 A 
ATOM      5  N   UNL     1       2.077   3.551 -11.952  1.00  0.00    -0.360 N 
ATOM      6  N   UNL     1       0.431   3.479 -13.430  1.00  0.00    -0.360 N 
ATOM      7  C   UNL     1       2.367   6.219 -15.138  1.00  0.00     0.271 A 
ATOM      8  C   UNL     1       0.722   3.370 -12.047  1.00  0.00     0.205 C 
ATOM      9  C   UNL     1       1.305   5.271 -15.007  1.00  0.00     0.113 A 
ATOM     10  H   UNL     1       2.759   3.092 -11.331  1.00  0.00     0.163 HD
ATOM     11  H   UNL     1      -0.249   2.930 -13.976  1.00  0.00     0.163 HD
ENDROOT
BRANCH   8  12
ATOM     12  C   UNL     1       0.071   2.151 -11.336  1.00  0.00    -0.003 A 
ATOM     13  C   UNL     1      -0.246   0.921  -9.210  1.00  0.00     0.042 A 
ATOM     14  C   UNL     1      -0.232   2.169  -9.955  1.00  0.00     0.028 A 
ATOM     15  C   UNL     1      -0.541  -0.303  -9.964  1.00  0.00     0.041 A 
ATOM     16  C   UNL     1      -0.578  -0.178 -11.417  1.00  0.00     0.042 A 
ATOM     17  C   UNL     1      -0.118   0.960 -12.124  1.00  0.00     0.028 A 
ATOM     18  Cl  UNL     1      -0.276   0.779  -7.658  1.00  0.00    -0.084 Cl
ATOM     19  Cl  UNL     1      -1.124  -1.548 -12.281  1.00  0.00    -0.084 Cl
ENDBRANCH   8  12
BRANCH   7  20
ATOM     20  N   UNL     1       2.342   7.021 -16.261  1.00  0.00     0.062 N 
ATOM     21  O   UNL     1       2.514   6.554 -17.327  1.00  0.00    -0.258 OA
ATOM     22  O   UNL     1       1.914   8.254 -16.251  1.00  0.00    -0.258 OA
ENDBRANCH   7  20
TORSDOF 2
ENDMDL
