MODEL 1
REMARK VINA RESULT:    -3.589      0.000      0.000
REMARK INTER + INTRA:          -4.314
REMARK INTER:                  -4.009
REMARK INTRA:                  -0.305
REMARK UNBOUND:                -0.305
REMARK SMILES O=[N+]([O-])c1ccc2c(c1)N[C@@H](c1cc(Cl)cc(Cl)c1)N2
REMARK SMILES IDX 7 1 8 2 5 3 6 4 20 5 10 6 4 7 11 8 9 9 12 12 14 13 13 14
REMARK SMILES IDX 16 15 17 16 19 17 15 18 18 19 2 20 3 21 1 22
REMARK H PARENT 20 10 10 11
ROOT
ATOM      1  C   UNL     1      -3.926  -7.503  12.902  1.00  0.00     0.060 A 
ATOM      2  C   UNL     1      -2.870  -6.623  12.912  1.00  0.00     0.066 A 
ATOM      3  C   UNL     1      -3.426  -8.228  15.087  1.00  0.00     0.088 A 
ATOM      4  C   UNL     1      -4.335  -8.097  14.002  1.00  0.00     0.035 A 
ATOM      5  N   UNL     1      -4.615  -7.409  11.630  1.00  0.00    -0.360 N 
ATOM      6  N   UNL     1      -2.933  -5.970  11.678  1.00  0.00    -0.360 N 
ATOM      7  C   UNL     1      -2.266  -7.458  15.071  1.00  0.00     0.271 A 
ATOM      8  C   UNL     1      -4.274  -6.137  11.250  1.00  0.00     0.205 C 
ATOM      9  C   UNL     1      -1.998  -6.608  13.953  1.00  0.00     0.113 A 
ATOM     10  H   UNL     1      -5.200  -8.105  11.146  1.00  0.00     0.163 HD
ATOM     11  H   UNL     1      -2.173  -5.477  11.188  1.00  0.00     0.163 HD
ENDROOT
BRANCH   8  12
ATOM     12  C   UNL     1      -4.557  -5.685   9.790  1.00  0.00    -0.003 A 
ATOM     13  C   UNL     1      -4.568  -6.311   7.394  1.00  0.00     0.042 A 
ATOM     14  C   UNL     1      -4.900  -6.609   8.777  1.00  0.00     0.028 A 
ATOM     15  C   UNL     1      -4.457  -4.895   7.025  1.00  0.00     0.041 A 
ATOM     16  C   UNL     1      -4.478  -3.934   8.122  1.00  0.00     0.042 A 
ATOM     17  C   UNL     1      -4.354  -4.291   9.488  1.00  0.00     0.028 A 
ATOM     18  Cl  UNL     1      -4.609  -7.316   6.203  1.00  0.00    -0.084 Cl
ATOM     19  Cl  UNL     1      -4.559  -2.285   7.683  1.00  0.00    -0.084 Cl
ENDBRANCH   8  12
BRANCH   7  20
ATOM     20  N   UNL     1      -1.384  -7.380  16.130  1.00  0.00     0.062 N 
ATOM     21  O   UNL     1      -0.507  -8.156  16.229  1.00  0.00    -0.258 OA
ATOM     22  O   UNL     1      -1.318  -6.352  16.932  1.00  0.00    -0.258 OA
ENDBRANCH   7  20
TORSDOF 2
ENDMDL
MODEL 2
REMARK VINA RESULT:    -3.417      5.756      7.591
REMARK INTER + INTRA:          -4.121
REMARK INTER:                  -3.818
REMARK INTRA:                  -0.303
REMARK UNBOUND:                -0.305
REMARK SMILES O=[N+]([O-])c1ccc2c(c1)N[C@@H](c1cc(Cl)cc(Cl)c1)N2
REMARK SMILES IDX 7 1 8 2 5 3 6 4 20 5 10 6 4 7 11 8 9 9 12 12 14 13 13 14
REMARK SMILES IDX 16 15 17 16 19 17 15 18 18 19 2 20 3 21 1 22
REMARK H PARENT 20 10 10 11
ROOT
ATOM      1  C   UNL     1      -6.994  -9.779  16.573  1.00  0.00     0.060 A 
ATOM      2  C   UNL     1      -7.647  -8.871  15.774  1.00  0.00     0.066 A 
ATOM      3  C   UNL     1      -9.025 -10.817  17.164  1.00  0.00     0.088 A 
ATOM      4  C   UNL     1      -7.608 -10.841  17.051  1.00  0.00     0.035 A 
ATOM      5  N   UNL     1      -5.569  -9.519  16.526  1.00  0.00    -0.360 N 
ATOM      6  N   UNL     1      -6.634  -8.089  15.214  1.00  0.00    -0.360 N 
ATOM      7  C   UNL     1      -9.724  -9.824  16.483  1.00  0.00     0.271 A 
ATOM      8  C   UNL     1      -5.465  -8.887  15.315  1.00  0.00     0.205 C 
ATOM      9  C   UNL     1      -9.005  -8.835  15.742  1.00  0.00     0.113 A 
ATOM     10  H   UNL     1      -4.836  -9.748  17.213  1.00  0.00     0.163 HD
ATOM     11  H   UNL     1      -6.717  -7.143  14.816  1.00  0.00     0.163 HD
ENDROOT
BRANCH   8  12
ATOM     12  C   UNL     1      -4.141  -8.156  14.956  1.00  0.00    -0.003 A 
ATOM     13  C   UNL     1      -2.362  -6.606  15.708  1.00  0.00     0.042 A 
ATOM     14  C   UNL     1      -3.219  -7.755  15.949  1.00  0.00     0.028 A 
ATOM     15  C   UNL     1      -2.049  -6.290  14.310  1.00  0.00     0.041 A 
ATOM     16  C   UNL     1      -2.797  -7.023  13.295  1.00  0.00     0.042 A 
ATOM     17  C   UNL     1      -3.940  -7.814  13.571  1.00  0.00     0.028 A 
ATOM     18  Cl  UNL     1      -1.506  -5.859  16.775  1.00  0.00    -0.084 Cl
ATOM     19  Cl  UNL     1      -2.289  -6.809  11.677  1.00  0.00    -0.084 Cl
ENDBRANCH   8  12
BRANCH   7  20
ATOM     20  N   UNL     1     -11.100  -9.784  16.389  1.00  0.00     0.062 N 
ATOM     21  O   UNL     1     -11.710  -8.953  16.953  1.00  0.00    -0.258 OA
ATOM     22  O   UNL     1     -11.779 -10.486  15.522  1.00  0.00    -0.258 OA
ENDBRANCH   7  20
TORSDOF 2
ENDMDL
MODEL 3
REMARK VINA RESULT:    -3.118      5.087      7.478
REMARK INTER + INTRA:          -3.787
REMARK INTER:                  -3.480
REMARK INTRA:                  -0.308
REMARK UNBOUND:                -0.305
REMARK SMILES O=[N+]([O-])c1ccc2c(c1)N[C@@H](c1cc(Cl)cc(Cl)c1)N2
REMARK SMILES IDX 7 1 8 2 5 3 6 4 20 5 10 6 4 7 11 8 9 9 12 12 14 13 13 14
REMARK SMILES IDX 16 15 17 16 19 17 15 18 18 19 2 20 3 21 1 22
REMARK H PARENT 20 10 10 11
ROOT
ATOM      1  C   UNL     1      -4.568  -6.160   8.877  1.00  0.00     0.060 A 
ATOM      2  C   UNL     1      -4.506  -4.926   9.480  1.00  0.00     0.066 A 
ATOM      3  C   UNL     1      -4.827  -5.179   6.751  1.00  0.00     0.088 A 
ATOM      4  C   UNL     1      -4.489  -6.290   7.570  1.00  0.00     0.035 A 
ATOM      5  N   UNL     1      -4.437  -7.192   9.885  1.00  0.00    -0.360 N 
ATOM      6  N   UNL     1      -4.300  -5.198  10.836  1.00  0.00    -0.360 N 
ATOM      7  C   UNL     1      -4.916  -3.923   7.348  1.00  0.00     0.271 A 
ATOM      8  C   UNL     1      -3.762  -6.509  10.863  1.00  0.00     0.205 C 
ATOM      9  C   UNL     1      -4.721  -3.796   8.758  1.00  0.00     0.113 A 
ATOM     10  H   UNL     1      -4.761  -8.170   9.871  1.00  0.00     0.163 HD
ATOM     11  H   UNL     1      -4.496  -4.581  11.637  1.00  0.00     0.163 HD
ENDROOT
BRANCH   8  12
ATOM     12  C   UNL     1      -3.644  -7.139  12.279  1.00  0.00    -0.003 A 
ATOM     13  C   UNL     1      -4.824  -8.221  14.169  1.00  0.00     0.042 A 
ATOM     14  C   UNL     1      -4.564  -8.106  12.744  1.00  0.00     0.028 A 
ATOM     15  C   UNL     1      -3.752  -7.798  15.078  1.00  0.00     0.041 A 
ATOM     16  C   UNL     1      -2.620  -7.107  14.470  1.00  0.00     0.042 A 
ATOM     17  C   UNL     1      -2.612  -6.619  13.140  1.00  0.00     0.028 A 
ATOM     18  Cl  UNL     1      -5.991  -9.014  14.830  1.00  0.00    -0.084 Cl
ATOM     19  Cl  UNL     1      -1.282  -6.802  15.490  1.00  0.00    -0.084 Cl
ENDBRANCH   8  12
BRANCH   7  20
ATOM     20  N   UNL     1      -5.085  -2.750   6.640  1.00  0.00     0.062 N 
ATOM     21  O   UNL     1      -4.523  -1.772   6.972  1.00  0.00    -0.258 OA
ATOM     22  O   UNL     1      -5.664  -2.696   5.472  1.00  0.00    -0.258 OA
ENDBRANCH   7  20
TORSDOF 2
ENDMDL
MODEL 4
REMARK VINA RESULT:    -3.025      1.982      2.654
REMARK INTER + INTRA:          -3.684
REMARK INTER:                  -3.378
REMARK INTRA:                  -0.306
REMARK UNBOUND:                -0.305
REMARK SMILES O=[N+]([O-])c1ccc2c(c1)N[C@@H](c1cc(Cl)cc(Cl)c1)N2
REMARK SMILES IDX 7 1 8 2 5 3 6 4 20 5 10 6 4 7 11 8 9 9 12 12 14 13 13 14
REMARK SMILES IDX 16 15 17 16 19 17 15 18 18 19 2 20 3 21 1 22
REMARK H PARENT 20 10 10 11
ROOT
ATOM      1  C   UNL     1      -2.710  -6.775  13.861  1.00  0.00     0.060 A 
ATOM      2  C   UNL     1      -3.665  -7.759  13.954  1.00  0.00     0.066 A 
ATOM      3  C   UNL     1      -1.607  -7.573  15.784  1.00  0.00     0.088 A 
ATOM      4  C   UNL     1      -1.610  -6.815  14.581  1.00  0.00     0.035 A 
ATOM      5  N   UNL     1      -2.990  -5.945  12.707  1.00  0.00    -0.360 N 
ATOM      6  N   UNL     1      -4.498  -7.559  12.850  1.00  0.00    -0.360 N 
ATOM      7  C   UNL     1      -2.639  -8.487  15.989  1.00  0.00     0.271 A 
ATOM      8  C   UNL     1      -3.710  -6.818  11.933  1.00  0.00     0.205 C 
ATOM      9  C   UNL     1      -3.687  -8.597  15.023  1.00  0.00     0.113 A 
ATOM     10  H   UNL     1      -2.722  -4.968  12.518  1.00  0.00     0.163 HD
ATOM     11  H   UNL     1      -5.469  -7.880  12.729  1.00  0.00     0.163 HD
ENDROOT
BRANCH   8  12
ATOM     12  C   UNL     1      -4.481  -6.273  10.698  1.00  0.00    -0.003 A 
ATOM     13  C   UNL     1      -4.349  -5.045   8.552  1.00  0.00     0.042 A 
ATOM     14  C   UNL     1      -3.843  -6.066   9.454  1.00  0.00     0.028 A 
ATOM     15  C   UNL     1      -5.773  -4.706   8.661  1.00  0.00     0.041 A 
ATOM     16  C   UNL     1      -6.489  -5.267   9.801  1.00  0.00     0.042 A 
ATOM     17  C   UNL     1      -5.855  -5.893  10.903  1.00  0.00     0.028 A 
ATOM     18  Cl  UNL     1      -3.620  -4.490   7.292  1.00  0.00    -0.084 Cl
ATOM     19  Cl  UNL     1      -8.184  -5.046   9.814  1.00  0.00    -0.084 Cl
ENDBRANCH   8  12
BRANCH   7  20
ATOM     20  N   UNL     1      -2.668  -9.385  17.036  1.00  0.00     0.062 N 
ATOM     21  O   UNL     1      -3.597  -9.428  17.755  1.00  0.00    -0.258 OA
ATOM     22  O   UNL     1      -1.816 -10.366  17.161  1.00  0.00    -0.258 OA
ENDBRANCH   7  20
TORSDOF 2
ENDMDL
MODEL 5
REMARK VINA RESULT:    -2.904      5.991      7.434
REMARK INTER + INTRA:          -3.548
REMARK INTER:                  -3.238
REMARK INTRA:                  -0.310
REMARK UNBOUND:                -0.305
REMARK SMILES O=[N+]([O-])c1ccc2c(c1)N[C@@H](c1cc(Cl)cc(Cl)c1)N2
REMARK SMILES IDX 7 1 8 2 5 3 6 4 20 5 10 6 4 7 11 8 9 9 12 12 14 13 13 14
REMARK SMILES IDX 16 15 17 16 19 17 15 18 18 19 2 20 3 21 1 22
REMARK H PARENT 20 10 10 11
ROOT
ATOM      1  C   UNL     1      -5.422  -3.977   9.291  1.00  0.00     0.060 A 
ATOM      2  C   UNL     1      -5.426  -5.231   8.729  1.00  0.00     0.066 A 
ATOM      3  C   UNL     1      -3.613  -3.306   7.939  1.00  0.00     0.088 A 
ATOM      4  C   UNL     1      -4.724  -2.991   8.768  1.00  0.00     0.035 A 
ATOM      5  N   UNL     1      -6.474  -3.894  10.284  1.00  0.00    -0.360 N 
ATOM      6  N   UNL     1      -6.491  -5.897   9.341  1.00  0.00    -0.360 N 
ATOM      7  C   UNL     1      -3.496  -4.608   7.459  1.00  0.00     0.271 A 
ATOM      8  C   UNL     1      -7.330  -4.864   9.829  1.00  0.00     0.205 C 
ATOM      9  C   UNL     1      -4.455  -5.594   7.850  1.00  0.00     0.113 A 
ATOM     10  H   UNL     1      -6.557  -3.278  11.105  1.00  0.00     0.163 HD
ATOM     11  H   UNL     1      -6.635  -6.914   9.419  1.00  0.00     0.163 HD
ENDROOT
BRANCH   8  12
ATOM     12  C   UNL     1      -8.488  -5.340  10.750  1.00  0.00    -0.003 A 
ATOM     13  C   UNL     1      -9.180  -5.994  13.036  1.00  0.00     0.042 A 
ATOM     14  C   UNL     1      -8.489  -5.082  12.139  1.00  0.00     0.028 A 
ATOM     15  C   UNL     1     -10.302  -6.757  12.476  1.00  0.00     0.041 A 
ATOM     16  C   UNL     1     -10.477  -6.688  11.029  1.00  0.00     0.042 A 
ATOM     17  C   UNL     1      -9.514  -6.148  10.141  1.00  0.00     0.028 A 
ATOM     18  Cl  UNL     1      -9.051  -6.029  14.589  1.00  0.00    -0.084 Cl
ATOM     19  Cl  UNL     1     -11.899  -7.401  10.403  1.00  0.00    -0.084 Cl
ENDBRANCH   8  12
BRANCH   7  20
ATOM     20  N   UNL     1      -2.555  -4.999   6.529  1.00  0.00     0.062 N 
ATOM     21  O   UNL     1      -2.804  -5.847   5.753  1.00  0.00    -0.258 OA
ATOM     22  O   UNL     1      -1.457  -4.332   6.298  1.00  0.00    -0.258 OA
ENDBRANCH   7  20
TORSDOF 2
ENDMDL
MODEL 6
REMARK VINA RESULT:    -2.852      5.186      7.666
REMARK INTER + INTRA:          -3.490
REMARK INTER:                  -3.195
REMARK INTRA:                  -0.296
REMARK UNBOUND:                -0.305
REMARK SMILES O=[N+]([O-])c1ccc2c(c1)N[C@@H](c1cc(Cl)cc(Cl)c1)N2
REMARK SMILES IDX 7 1 8 2 5 3 6 4 20 5 10 6 4 7 11 8 9 9 12 12 14 13 13 14
REMARK SMILES IDX 16 15 17 16 19 17 15 18 18 19 2 20 3 21 1 22
REMARK H PARENT 20 10 10 11
ROOT
ATOM      1  C   UNL     1      -4.627  -6.124   8.724  1.00  0.00     0.060 A 
ATOM      2  C   UNL     1      -4.596  -4.831   9.189  1.00  0.00     0.066 A 
ATOM      3  C   UNL     1      -4.758  -5.388   6.491  1.00  0.00     0.088 A 
ATOM      4  C   UNL     1      -4.472  -6.400   7.447  1.00  0.00     0.035 A 
ATOM      5  N   UNL     1      -4.558  -7.038   9.847  1.00  0.00    -0.360 N 
ATOM      6  N   UNL     1      -4.471  -4.949  10.576  1.00  0.00    -0.360 N 
ATOM      7  C   UNL     1      -4.878  -4.074   6.937  1.00  0.00     0.271 A 
ATOM      8  C   UNL     1      -3.940  -6.248  10.781  1.00  0.00     0.205 C 
ATOM      9  C   UNL     1      -4.765  -3.789   8.334  1.00  0.00     0.113 A 
ATOM     10  H   UNL     1      -4.884  -8.012   9.924  1.00  0.00     0.163 HD
ATOM     11  H   UNL     1      -4.712  -4.248  11.291  1.00  0.00     0.163 HD
ENDROOT
BRANCH   8  12
ATOM     12  C   UNL     1      -3.907  -6.715  12.263  1.00  0.00    -0.003 A 
ATOM     13  C   UNL     1      -2.508  -7.246  14.236  1.00  0.00     0.042 A 
ATOM     14  C   UNL     1      -2.848  -6.365  13.131  1.00  0.00     0.028 A 
ATOM     15  C   UNL     1      -3.581  -8.095  14.766  1.00  0.00     0.041 A 
ATOM     16  C   UNL     1      -4.821  -8.131  13.998  1.00  0.00     0.042 A 
ATOM     17  C   UNL     1      -4.955  -7.608  12.688  1.00  0.00     0.028 A 
ATOM     18  Cl  UNL     1      -1.216  -7.171  15.106  1.00  0.00    -0.084 Cl
ATOM     19  Cl  UNL     1      -6.136  -8.949  14.721  1.00  0.00    -0.084 Cl
ENDBRANCH   8  12
BRANCH   7  20
ATOM     20  N   UNL     1      -5.001  -2.987   6.095  1.00  0.00     0.062 N 
ATOM     21  O   UNL     1      -5.524  -3.104   5.049  1.00  0.00    -0.258 OA
ATOM     22  O   UNL     1      -4.770  -1.759   6.473  1.00  0.00    -0.258 OA
ENDBRANCH   7  20
TORSDOF 2
ENDMDL
MODEL 7
REMARK VINA RESULT:    -2.478      4.978      6.200
REMARK INTER + INTRA:          -3.073
REMARK INTER:                  -2.778
REMARK INTRA:                  -0.295
REMARK UNBOUND:                -0.305
REMARK SMILES O=[N+]([O-])c1ccc2c(c1)N[C@@H](c1cc(Cl)cc(Cl)c1)N2
REMARK SMILES IDX 7 1 8 2 5 3 6 4 20 5 10 6 4 7 11 8 9 9 12 12 14 13 13 14
REMARK SMILES IDX 16 15 17 16 19 17 15 18 18 19 2 20 3 21 1 22
REMARK H PARENT 20 10 10 11
ROOT
ATOM      1  C   UNL     1      -9.278  -6.081  10.809  1.00  0.00     0.060 A 
ATOM      2  C   UNL     1      -8.514  -6.025  11.950  1.00  0.00     0.066 A 
ATOM      3  C   UNL     1     -11.232  -6.493  12.059  1.00  0.00     0.088 A 
ATOM      4  C   UNL     1     -10.593  -6.073  10.861  1.00  0.00     0.035 A 
ATOM      5  N   UNL     1      -8.431  -5.859   9.654  1.00  0.00    -0.360 N 
ATOM      6  N   UNL     1      -7.222  -5.734  11.505  1.00  0.00    -0.360 N 
ATOM      7  C   UNL     1     -10.463  -6.589  13.217  1.00  0.00     0.271 A 
ATOM      8  C   UNL     1      -7.404  -5.153  10.224  1.00  0.00     0.205 C 
ATOM      9  C   UNL     1      -9.061  -6.318  13.159  1.00  0.00     0.113 A 
ATOM     10  H   UNL     1      -8.563  -6.151   8.676  1.00  0.00     0.163 HD
ATOM     11  H   UNL     1      -6.334  -5.904  11.998  1.00  0.00     0.163 HD
ENDROOT
BRANCH   8  12
ATOM     12  C   UNL     1      -6.097  -4.934   9.413  1.00  0.00    -0.003 A 
ATOM     13  C   UNL     1      -4.485  -3.298   8.485  1.00  0.00     0.042 A 
ATOM     14  C   UNL     1      -5.293  -3.785   9.591  1.00  0.00     0.028 A 
ATOM     15  C   UNL     1      -4.065  -4.284   7.483  1.00  0.00     0.041 A 
ATOM     16  C   UNL     1      -4.674  -5.606   7.575  1.00  0.00     0.042 A 
ATOM     17  C   UNL     1      -5.791  -5.906   8.395  1.00  0.00     0.028 A 
ATOM     18  Cl  UNL     1      -3.773  -1.914   8.408  1.00  0.00    -0.084 Cl
ATOM     19  Cl  UNL     1      -4.034  -6.810   6.544  1.00  0.00    -0.084 Cl
ENDBRANCH   8  12
BRANCH   7  20
ATOM     20  N   UNL     1     -10.992  -6.835  14.468  1.00  0.00     0.062 N 
ATOM     21  O   UNL     1     -11.884  -7.590  14.597  1.00  0.00    -0.258 OA
ATOM     22  O   UNL     1     -10.418  -6.451  15.576  1.00  0.00    -0.258 OA
ENDBRANCH   7  20
TORSDOF 2
ENDMDL
