MODEL 1
REMARK VINA RESULT:    -3.997      0.000      0.000
REMARK INTER + INTRA:          -4.780
REMARK INTER:                  -4.464
REMARK INTRA:                  -0.316
REMARK UNBOUND:                -0.316
REMARK SMILES O=[N+]([O-])c1ccc2c(c1)N[C@@H](c1cc(Cl)cc(Cl)c1)N2
REMARK SMILES IDX 7 1 8 2 5 3 6 4 20 5 10 6 4 7 11 8 9 9 12 12 14 13 13 14
REMARK SMILES IDX 16 15 17 16 19 17 15 18 18 19 2 20 3 21 1 22
REMARK H PARENT 20 10 10 11
ROOT
ATOM      1  C   UNL     1       1.719  -8.842  -7.346  1.00  0.00     0.060 A 
ATOM      2  C   UNL     1       2.722  -9.104  -6.444  1.00  0.00     0.066 A 
ATOM      3  C   UNL     1       2.371 -10.658  -8.698  1.00  0.00     0.088 A 
ATOM      4  C   UNL     1       1.401  -9.702  -8.290  1.00  0.00     0.035 A 
ATOM      5  N   UNL     1       0.961  -7.691  -6.897  1.00  0.00    -0.360 N 
ATOM      6  N   UNL     1       2.559  -8.151  -5.435  1.00  0.00    -0.360 N 
ATOM      7  C   UNL     1       3.483 -10.858  -7.883  1.00  0.00     0.271 A 
ATOM      8  C   UNL     1       1.209  -7.733  -5.550  1.00  0.00     0.205 C 
ATOM      9  C   UNL     1       3.644 -10.068  -6.702  1.00  0.00     0.113 A 
ATOM     10  H   UNL     1       0.393  -7.025  -7.440  1.00  0.00     0.163 HD
ATOM     11  H   UNL     1       3.263  -7.825  -4.758  1.00  0.00     0.163 HD
ENDROOT
BRANCH   8  12
ATOM     12  C   UNL     1       0.827  -6.507  -4.673  1.00  0.00    -0.003 A 
ATOM     13  C   UNL     1      -0.841  -4.738  -4.202  1.00  0.00     0.042 A 
ATOM     14  C   UNL     1      -0.520  -6.131  -4.466  1.00  0.00     0.028 A 
ATOM     15  C   UNL     1       0.206  -3.918  -3.584  1.00  0.00     0.041 A 
ATOM     16  C   UNL     1       1.533  -4.519  -3.491  1.00  0.00     0.042 A 
ATOM     17  C   UNL     1       1.911  -5.708  -4.163  1.00  0.00     0.028 A 
ATOM     18  Cl  UNL     1      -2.264  -4.103  -4.232  1.00  0.00    -0.084 Cl
ATOM     19  Cl  UNL     1       2.696  -3.652  -2.587  1.00  0.00    -0.084 Cl
ENDBRANCH   8  12
BRANCH   7  20
ATOM     20  N   UNL     1       4.412 -11.857  -8.088  1.00  0.00     0.062 N 
ATOM     21  O   UNL     1       5.115 -12.202  -7.211  1.00  0.00    -0.258 OA
ATOM     22  O   UNL     1       4.420 -12.621  -9.147  1.00  0.00    -0.258 OA
ENDBRANCH   7  20
TORSDOF 2
ENDMDL
MODEL 2
REMARK VINA RESULT:    -3.964      1.185      2.759
REMARK INTER + INTRA:          -4.743
REMARK INTER:                  -4.428
REMARK INTRA:                  -0.315
REMARK UNBOUND:                -0.316
REMARK SMILES O=[N+]([O-])c1ccc2c(c1)N[C@@H](c1cc(Cl)cc(Cl)c1)N2
REMARK SMILES IDX 7 1 8 2 5 3 6 4 20 5 10 6 4 7 11 8 9 9 12 12 14 13 13 14
REMARK SMILES IDX 16 15 17 16 19 17 15 18 18 19 2 20 3 21 1 22
REMARK H PARENT 20 10 10 11
ROOT
ATOM      1  C   UNL     1       2.850  -9.103  -6.495  1.00  0.00     0.060 A 
ATOM      2  C   UNL     1       1.872  -8.850  -7.426  1.00  0.00     0.066 A 
ATOM      3  C   UNL     1       3.615 -10.970  -7.711  1.00  0.00     0.088 A 
ATOM      4  C   UNL     1       3.821  -9.959  -6.734  1.00  0.00     0.035 A 
ATOM      5  N   UNL     1       2.776  -8.111  -5.441  1.00  0.00    -0.360 N 
ATOM      6  N   UNL     1       1.230  -7.695  -6.970  1.00  0.00    -0.360 N 
ATOM      7  C   UNL     1       2.545 -10.828  -8.591  1.00  0.00     0.271 A 
ATOM      8  C   UNL     1       2.170  -7.077  -6.107  1.00  0.00     0.205 C 
ATOM      9  C   UNL     1       1.662  -9.712  -8.455  1.00  0.00     0.113 A 
ATOM     10  H   UNL     1       3.092  -8.166  -4.463  1.00  0.00     0.163 HD
ATOM     11  H   UNL     1       0.284  -7.366  -7.209  1.00  0.00     0.163 HD
ENDROOT
BRANCH   8  12
ATOM     12  C   UNL     1       1.618  -5.875  -5.291  1.00  0.00    -0.003 A 
ATOM     13  C   UNL     1       2.019  -4.256  -3.461  1.00  0.00     0.042 A 
ATOM     14  C   UNL     1       2.476  -4.951  -4.653  1.00  0.00     0.028 A 
ATOM     15  C   UNL     1       0.572  -4.066  -3.314  1.00  0.00     0.041 A 
ATOM     16  C   UNL     1      -0.277  -4.779  -4.262  1.00  0.00     0.042 A 
ATOM     17  C   UNL     1       0.188  -5.799  -5.128  1.00  0.00     0.028 A 
ATOM     18  Cl  UNL     1       2.909  -3.435  -2.479  1.00  0.00    -0.084 Cl
ATOM     19  Cl  UNL     1      -1.942  -4.396  -4.224  1.00  0.00    -0.084 Cl
ENDBRANCH   8  12
BRANCH   7  20
ATOM     20  N   UNL     1       2.330 -11.656  -9.674  1.00  0.00     0.062 N 
ATOM     21  O   UNL     1       1.731 -11.266 -10.609  1.00  0.00    -0.258 OA
ATOM     22  O   UNL     1       2.943 -12.796  -9.837  1.00  0.00    -0.258 OA
ENDBRANCH   7  20
TORSDOF 2
ENDMDL
MODEL 3
REMARK VINA RESULT:    -3.816      3.785      4.859
REMARK INTER + INTRA:          -4.578
REMARK INTER:                  -4.274
REMARK INTRA:                  -0.305
REMARK UNBOUND:                -0.316
REMARK SMILES O=[N+]([O-])c1ccc2c(c1)N[C@@H](c1cc(Cl)cc(Cl)c1)N2
REMARK SMILES IDX 7 1 8 2 5 3 6 4 20 5 10 6 4 7 11 8 9 9 12 12 14 13 13 14
REMARK SMILES IDX 16 15 17 16 19 17 15 18 18 19 2 20 3 21 1 22
REMARK H PARENT 20 10 10 11
ROOT
ATOM      1  C   UNL     1       1.177 -10.889 -10.069  1.00  0.00     0.060 A 
ATOM      2  C   UNL     1       1.005  -9.669 -10.678  1.00  0.00     0.066 A 
ATOM      3  C   UNL     1       1.102 -12.009 -12.140  1.00  0.00     0.088 A 
ATOM      4  C   UNL     1       1.453 -11.972 -10.763  1.00  0.00     0.035 A 
ATOM      5  N   UNL     1       1.288 -10.696  -8.636  1.00  0.00    -0.360 N 
ATOM      6  N   UNL     1       1.049  -8.737  -9.639  1.00  0.00    -0.360 N 
ATOM      7  C   UNL     1       0.780 -10.809 -12.770  1.00  0.00     0.271 A 
ATOM      8  C   UNL     1       1.732  -9.401  -8.588  1.00  0.00     0.205 C 
ATOM      9  C   UNL     1       0.759  -9.596 -12.012  1.00  0.00     0.113 A 
ATOM     10  H   UNL     1       1.089 -11.352  -7.867  1.00  0.00     0.163 HD
ATOM     11  H   UNL     1       0.670  -7.779  -9.636  1.00  0.00     0.163 HD
ENDROOT
BRANCH   8  12
ATOM     12  C   UNL     1       1.725  -8.651  -7.226  1.00  0.00    -0.003 A 
ATOM     13  C   UNL     1       0.498  -8.181  -5.127  1.00  0.00     0.042 A 
ATOM     14  C   UNL     1       0.987  -9.125  -6.118  1.00  0.00     0.028 A 
ATOM     15  C   UNL     1       1.249  -6.931  -4.969  1.00  0.00     0.041 A 
ATOM     16  C   UNL     1       2.281  -6.663  -5.965  1.00  0.00     0.042 A 
ATOM     17  C   UNL     1       2.425  -7.392  -7.171  1.00  0.00     0.028 A 
ATOM     18  Cl  UNL     1      -0.554  -8.479  -4.016  1.00  0.00    -0.084 Cl
ATOM     19  Cl  UNL     1       3.293  -5.319  -5.665  1.00  0.00    -0.084 Cl
ENDBRANCH   8  12
BRANCH   7  20
ATOM     20  N   UNL     1       0.573 -10.690 -14.129  1.00  0.00     0.062 N 
ATOM     21  O   UNL     1      -0.431 -11.067 -14.611  1.00  0.00    -0.258 OA
ATOM     22  O   UNL     1       1.336  -9.973 -14.910  1.00  0.00    -0.258 OA
ENDBRANCH   7  20
TORSDOF 2
ENDMDL
MODEL 4
REMARK VINA RESULT:    -3.813      3.096      4.475
REMARK INTER + INTRA:          -4.574
REMARK INTER:                  -4.270
REMARK INTRA:                  -0.305
REMARK UNBOUND:                -0.316
REMARK SMILES O=[N+]([O-])c1ccc2c(c1)N[C@@H](c1cc(Cl)cc(Cl)c1)N2
REMARK SMILES IDX 7 1 8 2 5 3 6 4 20 5 10 6 4 7 11 8 9 9 12 12 14 13 13 14
REMARK SMILES IDX 16 15 17 16 19 17 15 18 18 19 2 20 3 21 1 22
REMARK H PARENT 20 10 10 11
ROOT
ATOM      1  C   UNL     1       5.162 -11.471  -6.793  1.00  0.00     0.060 A 
ATOM      2  C   UNL     1       4.904 -11.645  -5.455  1.00  0.00     0.066 A 
ATOM      3  C   UNL     1       6.450 -13.442  -6.867  1.00  0.00     0.088 A 
ATOM      4  C   UNL     1       5.697 -12.429  -7.520  1.00  0.00     0.035 A 
ATOM      5  N   UNL     1       4.508 -10.262  -7.254  1.00  0.00    -0.360 N 
ATOM      6  N   UNL     1       4.070 -10.579  -5.107  1.00  0.00    -0.360 N 
ATOM      7  C   UNL     1       6.330 -13.566  -5.485  1.00  0.00     0.271 A 
ATOM      8  C   UNL     1       3.499 -10.153  -6.333  1.00  0.00     0.205 C 
ATOM      9  C   UNL     1       5.505 -12.648  -4.763  1.00  0.00     0.113 A 
ATOM     10  H   UNL     1       4.737  -9.654  -8.053  1.00  0.00     0.163 HD
ATOM     11  H   UNL     1       3.907 -10.188  -4.168  1.00  0.00     0.163 HD
ENDROOT
BRANCH   8  12
ATOM     12  C   UNL     1       2.691  -8.827  -6.253  1.00  0.00    -0.003 A 
ATOM     13  C   UNL     1       2.761  -6.353  -6.313  1.00  0.00     0.042 A 
ATOM     14  C   UNL     1       3.145  -7.640  -6.869  1.00  0.00     0.028 A 
ATOM     15  C   UNL     1       1.501  -6.301  -5.563  1.00  0.00     0.041 A 
ATOM     16  C   UNL     1       0.868  -7.581  -5.264  1.00  0.00     0.042 A 
ATOM     17  C   UNL     1       1.504  -8.836  -5.436  1.00  0.00     0.028 A 
ATOM     18  Cl  UNL     1       3.385  -4.972  -6.677  1.00  0.00    -0.084 Cl
ATOM     19  Cl  UNL     1      -0.695  -7.512  -4.578  1.00  0.00    -0.084 Cl
ENDBRANCH   8  12
BRANCH   7  20
ATOM     20  N   UNL     1       6.885 -14.599  -4.758  1.00  0.00     0.062 N 
ATOM     21  O   UNL     1       8.035 -14.602  -4.516  1.00  0.00    -0.258 OA
ATOM     22  O   UNL     1       6.173 -15.485  -4.115  1.00  0.00    -0.258 OA
ENDBRANCH   7  20
TORSDOF 2
ENDMDL
MODEL 5
REMARK VINA RESULT:    -3.726      1.602      2.217
REMARK INTER + INTRA:          -4.477
REMARK INTER:                  -4.178
REMARK INTRA:                  -0.299
REMARK UNBOUND:                -0.316
REMARK SMILES O=[N+]([O-])c1ccc2c(c1)N[C@@H](c1cc(Cl)cc(Cl)c1)N2
REMARK SMILES IDX 7 1 8 2 5 3 6 4 20 5 10 6 4 7 11 8 9 9 12 12 14 13 13 14
REMARK SMILES IDX 16 15 17 16 19 17 15 18 18 19 2 20 3 21 1 22
REMARK H PARENT 20 10 10 11
ROOT
ATOM      1  C   UNL     1       2.378  -9.333  -6.843  1.00  0.00     0.060 A 
ATOM      2  C   UNL     1       1.352  -8.873  -7.634  1.00  0.00     0.066 A 
ATOM      3  C   UNL     1       2.930 -10.998  -8.416  1.00  0.00     0.088 A 
ATOM      4  C   UNL     1       3.271 -10.184  -7.302  1.00  0.00     0.035 A 
ATOM      5  N   UNL     1       2.444  -8.537  -5.634  1.00  0.00    -0.360 N 
ATOM      6  N   UNL     1       0.821  -7.783  -6.938  1.00  0.00    -0.360 N 
ATOM      7  C   UNL     1       1.809 -10.651  -9.168  1.00  0.00     0.271 A 
ATOM      8  C   UNL     1       1.859  -7.374  -6.063  1.00  0.00     0.205 C 
ATOM      9  C   UNL     1       1.012  -9.532  -8.772  1.00  0.00     0.113 A 
ATOM     10  H   UNL     1       2.826  -8.777  -4.709  1.00  0.00     0.163 HD
ATOM     11  H   UNL     1      -0.117  -7.370  -7.038  1.00  0.00     0.163 HD
ENDROOT
BRANCH   8  12
ATOM     12  C   UNL     1       1.447  -6.304  -5.013  1.00  0.00    -0.003 A 
ATOM     13  C   UNL     1      -0.330  -4.789  -4.189  1.00  0.00     0.042 A 
ATOM     14  C   UNL     1       0.097  -6.100  -4.649  1.00  0.00     0.028 A 
ATOM     15  C   UNL     1       0.689  -3.938  -3.563  1.00  0.00     0.041 A 
ATOM     16  C   UNL     1       2.069  -4.401  -3.657  1.00  0.00     0.042 A 
ATOM     17  C   UNL     1       2.494  -5.458  -4.500  1.00  0.00     0.028 A 
ATOM     18  Cl  UNL     1      -1.803  -4.309  -4.021  1.00  0.00    -0.084 Cl
ATOM     19  Cl  UNL     1       3.225  -3.524  -2.753  1.00  0.00    -0.084 Cl
ENDBRANCH   8  12
BRANCH   7  20
ATOM     20  N   UNL     1       1.463 -11.266 -10.353  1.00  0.00     0.062 N 
ATOM     21  O   UNL     1       0.686 -10.762 -11.078  1.00  0.00    -0.258 OA
ATOM     22  O   UNL     1       2.112 -12.285 -10.848  1.00  0.00    -0.258 OA
ENDBRANCH   7  20
TORSDOF 2
ENDMDL
MODEL 6
REMARK VINA RESULT:    -3.702      0.750      2.143
REMARK INTER + INTRA:          -4.451
REMARK INTER:                  -4.151
REMARK INTRA:                  -0.299
REMARK UNBOUND:                -0.316
REMARK SMILES O=[N+]([O-])c1ccc2c(c1)N[C@@H](c1cc(Cl)cc(Cl)c1)N2
REMARK SMILES IDX 7 1 8 2 5 3 6 4 20 5 10 6 4 7 11 8 9 9 12 12 14 13 13 14
REMARK SMILES IDX 16 15 17 16 19 17 15 18 18 19 2 20 3 21 1 22
REMARK H PARENT 20 10 10 11
ROOT
ATOM      1  C   UNL     1       2.423  -9.034  -7.255  1.00  0.00     0.060 A 
ATOM      2  C   UNL     1       3.294  -9.114  -6.195  1.00  0.00     0.066 A 
ATOM      3  C   UNL     1       3.296 -11.003  -8.208  1.00  0.00     0.088 A 
ATOM      4  C   UNL     1       2.259 -10.039  -8.088  1.00  0.00     0.035 A 
ATOM      5  N   UNL     1       1.585  -7.862  -7.097  1.00  0.00    -0.360 N 
ATOM      6  N   UNL     1       2.971  -8.028  -5.378  1.00  0.00    -0.360 N 
ATOM      7  C   UNL     1       4.287 -11.030  -7.228  1.00  0.00     0.271 A 
ATOM      8  C   UNL     1       1.642  -7.689  -5.738  1.00  0.00     0.205 C 
ATOM      9  C   UNL     1       4.264 -10.066  -6.173  1.00  0.00     0.113 A 
ATOM     10  H   UNL     1       1.085  -7.310  -7.809  1.00  0.00     0.163 HD
ATOM     11  H   UNL     1       3.566  -7.574  -4.671  1.00  0.00     0.163 HD
ENDROOT
BRANCH   8  12
ATOM     12  C   UNL     1       1.114  -6.363  -5.123  1.00  0.00    -0.003 A 
ATOM     13  C   UNL     1       1.557  -4.476  -3.582  1.00  0.00     0.042 A 
ATOM     14  C   UNL     1       1.991  -5.361  -4.650  1.00  0.00     0.028 A 
ATOM     15  C   UNL     1       0.113  -4.244  -3.455  1.00  0.00     0.041 A 
ATOM     16  C   UNL     1      -0.755  -5.088  -4.269  1.00  0.00     0.042 A 
ATOM     17  C   UNL     1      -0.312  -6.241  -4.962  1.00  0.00     0.028 A 
ATOM     18  Cl  UNL     1       2.468  -3.520  -2.754  1.00  0.00    -0.084 Cl
ATOM     19  Cl  UNL     1      -2.415  -4.680  -4.279  1.00  0.00    -0.084 Cl
ENDBRANCH   8  12
BRANCH   7  20
ATOM     20  N   UNL     1       5.256 -12.009  -7.148  1.00  0.00     0.062 N 
ATOM     21  O   UNL     1       5.922 -12.107  -6.183  1.00  0.00    -0.258 OA
ATOM     22  O   UNL     1       5.346 -13.000  -7.994  1.00  0.00    -0.258 OA
ENDBRANCH   7  20
TORSDOF 2
ENDMDL
MODEL 7
REMARK VINA RESULT:    -3.699      4.356      5.828
REMARK INTER + INTRA:          -4.447
REMARK INTER:                  -4.135
REMARK INTRA:                  -0.312
REMARK UNBOUND:                -0.316
REMARK SMILES O=[N+]([O-])c1ccc2c(c1)N[C@@H](c1cc(Cl)cc(Cl)c1)N2
REMARK SMILES IDX 7 1 8 2 5 3 6 4 20 5 10 6 4 7 11 8 9 9 12 12 14 13 13 14
REMARK SMILES IDX 16 15 17 16 19 17 15 18 18 19 2 20 3 21 1 22
REMARK H PARENT 20 10 10 11
ROOT
ATOM      1  C   UNL     1       1.089 -10.202 -11.759  1.00  0.00     0.060 A 
ATOM      2  C   UNL     1       1.344 -11.488 -11.346  1.00  0.00     0.066 A 
ATOM      3  C   UNL     1       0.501 -10.942 -13.917  1.00  0.00     0.088 A 
ATOM      4  C   UNL     1       0.473  -9.954 -12.895  1.00  0.00     0.035 A 
ATOM      5  N   UNL     1       1.331  -9.289 -10.659  1.00  0.00    -0.360 N 
ATOM      6  N   UNL     1       1.700 -11.370 -10.000  1.00  0.00    -0.360 N 
ATOM      7  C   UNL     1       0.892 -12.235 -13.573  1.00  0.00     0.271 A 
ATOM      8  C   UNL     1       1.154 -10.127  -9.589  1.00  0.00     0.205 C 
ATOM      9  C   UNL     1       1.301 -12.516 -12.233  1.00  0.00     0.113 A 
ATOM     10  H   UNL     1       1.569  -8.287 -10.677  1.00  0.00     0.163 HD
ATOM     11  H   UNL     1       2.240 -12.038  -9.431  1.00  0.00     0.163 HD
ENDROOT
BRANCH   8  12
ATOM     12  C   UNL     1       1.596  -9.652  -8.177  1.00  0.00    -0.003 A 
ATOM     13  C   UNL     1       1.490  -7.864  -6.467  1.00  0.00     0.042 A 
ATOM     14  C   UNL     1       0.829  -8.733  -7.426  1.00  0.00     0.028 A 
ATOM     15  C   UNL     1       2.747  -8.349  -5.885  1.00  0.00     0.041 A 
ATOM     16  C   UNL     1       3.320  -9.550  -6.483  1.00  0.00     0.042 A 
ATOM     17  C   UNL     1       2.878 -10.112  -7.706  1.00  0.00     0.028 A 
ATOM     18  Cl  UNL     1       0.863  -6.618  -5.771  1.00  0.00    -0.084 Cl
ATOM     19  Cl  UNL     1       4.664 -10.231  -5.676  1.00  0.00    -0.084 Cl
ENDBRANCH   8  12
BRANCH   7  20
ATOM     20  N   UNL     1       0.815 -13.311 -14.433  1.00  0.00     0.062 N 
ATOM     21  O   UNL     1       1.534 -14.231 -14.297  1.00  0.00    -0.258 OA
ATOM     22  O   UNL     1      -0.168 -13.487 -15.274  1.00  0.00    -0.258 OA
ENDBRANCH   7  20
TORSDOF 2
ENDMDL
MODEL 8
REMARK VINA RESULT:    -3.675      5.100      7.566
REMARK INTER + INTRA:          -4.421
REMARK INTER:                  -4.121
REMARK INTRA:                  -0.299
REMARK UNBOUND:                -0.316
REMARK SMILES O=[N+]([O-])c1ccc2c(c1)N[C@@H](c1cc(Cl)cc(Cl)c1)N2
REMARK SMILES IDX 7 1 8 2 5 3 6 4 20 5 10 6 4 7 11 8 9 9 12 12 14 13 13 14
REMARK SMILES IDX 16 15 17 16 19 17 15 18 18 19 2 20 3 21 1 22
REMARK H PARENT 20 10 10 11
ROOT
ATOM      1  C   UNL     1       2.202  -5.792  -4.754  1.00  0.00     0.060 A 
ATOM      2  C   UNL     1       0.931  -5.894  -5.267  1.00  0.00     0.066 A 
ATOM      3  C   UNL     1       1.537  -4.086  -3.271  1.00  0.00     0.088 A 
ATOM      4  C   UNL     1       2.447  -5.107  -3.658  1.00  0.00     0.035 A 
ATOM      5  N   UNL     1       3.064  -6.748  -5.420  1.00  0.00    -0.360 N 
ATOM      6  N   UNL     1       1.003  -6.924  -6.208  1.00  0.00    -0.360 N 
ATOM      7  C   UNL     1       0.280  -4.063  -3.872  1.00  0.00     0.271 A 
ATOM      8  C   UNL     1       2.145  -7.677  -5.832  1.00  0.00     0.205 C 
ATOM      9  C   UNL     1      -0.037  -5.020  -4.886  1.00  0.00     0.113 A 
ATOM     10  H   UNL     1       4.086  -6.733  -5.548  1.00  0.00     0.163 HD
ATOM     11  H   UNL     1       0.368  -7.099  -7.000  1.00  0.00     0.163 HD
ENDROOT
BRANCH   8  12
ATOM     12  C   UNL     1       2.577  -8.765  -6.853  1.00  0.00    -0.003 A 
ATOM     13  C   UNL     1       1.910 -10.198  -8.760  1.00  0.00     0.042 A 
ATOM     14  C   UNL     1       1.949  -8.897  -8.112  1.00  0.00     0.028 A 
ATOM     15  C   UNL     1       2.980 -11.143  -8.422  1.00  0.00     0.041 A 
ATOM     16  C   UNL     1       3.853 -10.768  -7.315  1.00  0.00     0.042 A 
ATOM     17  C   UNL     1       3.582  -9.703  -6.421  1.00  0.00     0.028 A 
ATOM     18  Cl  UNL     1       1.031 -10.587  -9.987  1.00  0.00    -0.084 Cl
ATOM     19  Cl  UNL     1       5.220 -11.761  -7.058  1.00  0.00    -0.084 Cl
ENDBRANCH   8  12
BRANCH   7  20
ATOM     20  N   UNL     1      -0.741  -3.223  -3.476  1.00  0.00     0.062 N 
ATOM     21  O   UNL     1      -0.539  -2.371  -2.692  1.00  0.00    -0.258 OA
ATOM     22  O   UNL     1      -1.894  -3.161  -4.086  1.00  0.00    -0.258 OA
ENDBRANCH   7  20
TORSDOF 2
ENDMDL
MODEL 9
REMARK VINA RESULT:    -3.668      4.957      7.635
REMARK INTER + INTRA:          -4.413
REMARK INTER:                  -4.114
REMARK INTRA:                  -0.299
REMARK UNBOUND:                -0.316
REMARK SMILES O=[N+]([O-])c1ccc2c(c1)N[C@@H](c1cc(Cl)cc(Cl)c1)N2
REMARK SMILES IDX 7 1 8 2 5 3 6 4 20 5 10 6 4 7 11 8 9 9 12 12 14 13 13 14
REMARK SMILES IDX 16 15 17 16 19 17 15 18 18 19 2 20 3 21 1 22
REMARK H PARENT 20 10 10 11
ROOT
ATOM      1  C   UNL     1       0.119  -6.311  -5.079  1.00  0.00     0.060 A 
ATOM      2  C   UNL     1       1.352  -6.192  -4.484  1.00  0.00     0.066 A 
ATOM      3  C   UNL     1      -0.654  -4.352  -4.024  1.00  0.00     0.088 A 
ATOM      4  C   UNL     1      -0.756  -5.330  -5.051  1.00  0.00     0.035 A 
ATOM      5  N   UNL     1       0.107  -7.493  -5.919  1.00  0.00    -0.360 N 
ATOM      6  N   UNL     1       2.099  -7.263  -4.981  1.00  0.00    -0.360 N 
ATOM      7  C   UNL     1       0.530  -4.286  -3.293  1.00  0.00     0.271 A 
ATOM      8  C   UNL     1       1.444  -7.631  -6.184  1.00  0.00     0.205 C 
ATOM      9  C   UNL     1       1.576  -5.225  -3.556  1.00  0.00     0.113 A 
ATOM     10  H   UNL     1      -0.687  -8.069  -6.232  1.00  0.00     0.163 HD
ATOM     11  H   UNL     1       2.938  -7.691  -4.565  1.00  0.00     0.163 HD
ENDROOT
BRANCH   8  12
ATOM     12  C   UNL     1       1.954  -8.950  -6.829  1.00  0.00    -0.003 A 
ATOM     13  C   UNL     1       3.816 -10.570  -7.036  1.00  0.00     0.042 A 
ATOM     14  C   UNL     1       2.945  -9.746  -6.213  1.00  0.00     0.028 A 
ATOM     15  C   UNL     1       3.287 -11.010  -8.332  1.00  0.00     0.041 A 
ATOM     16  C   UNL     1       2.031 -10.404  -8.761  1.00  0.00     0.042 A 
ATOM     17  C   UNL     1       1.443  -9.276  -8.136  1.00  0.00     0.028 A 
ATOM     18  Cl  UNL     1       5.123 -11.277  -6.567  1.00  0.00    -0.084 Cl
ATOM     19  Cl  UNL     1       1.311 -11.065 -10.163  1.00  0.00    -0.084 Cl
ENDBRANCH   8  12
BRANCH   7  20
ATOM     20  N   UNL     1       0.811  -3.290  -2.380  1.00  0.00     0.062 N 
ATOM     21  O   UNL     1      -0.027  -2.535  -2.049  1.00  0.00    -0.258 OA
ATOM     22  O   UNL     1       1.907  -3.256  -1.673  1.00  0.00    -0.258 OA
ENDBRANCH   7  20
TORSDOF 2
ENDMDL
