MODEL 1
REMARK VINA RESULT:    -4.730      0.000      0.000
REMARK INTER + INTRA:          -5.599
REMARK INTER:                  -5.283
REMARK INTRA:                  -0.316
REMARK UNBOUND:                -0.316
REMARK SMILES O=[N+]([O-])c1ccc2c(c1)N[C@@H](c1cc(Cl)cc(Cl)c1)N2
REMARK SMILES IDX 7 1 8 2 5 3 6 4 20 5 10 6 4 7 11 8 9 9 12 12 14 13 13 14
REMARK SMILES IDX 16 15 17 16 19 17 15 18 18 19 2 20 3 21 1 22
REMARK H PARENT 20 10 10 11
ROOT
ATOM      1  C   UNL     1      -7.172  -8.381  -1.070  1.00  0.00     0.060 A 
ATOM      2  C   UNL     1      -6.290  -9.346  -0.646  1.00  0.00     0.066 A 
ATOM      3  C   UNL     1      -8.887  -9.974  -1.340  1.00  0.00     0.088 A 
ATOM      4  C   UNL     1      -8.459  -8.627  -1.181  1.00  0.00     0.035 A 
ATOM      5  N   UNL     1      -6.507  -7.093  -1.069  1.00  0.00    -0.360 N 
ATOM      6  N   UNL     1      -5.112  -8.655  -0.351  1.00  0.00    -0.360 N 
ATOM      7  C   UNL     1      -7.978 -10.991  -1.057  1.00  0.00     0.271 A 
ATOM      8  C   UNL     1      -5.524  -7.314  -0.140  1.00  0.00     0.205 C 
ATOM      9  C   UNL     1      -6.642 -10.658  -0.671  1.00  0.00     0.113 A 
ATOM     10  H   UNL     1      -6.716  -6.245  -1.615  1.00  0.00     0.163 HD
ATOM     11  H   UNL     1      -4.156  -9.035  -0.299  1.00  0.00     0.163 HD
ENDROOT
BRANCH   8  12
ATOM     12  C   UNL     1      -4.366  -6.287  -0.008  1.00  0.00    -0.003 A 
ATOM     13  C   UNL     1      -3.714  -3.898   0.057  1.00  0.00     0.042 A 
ATOM     14  C   UNL     1      -4.581  -4.982   0.490  1.00  0.00     0.028 A 
ATOM     15  C   UNL     1      -2.355  -4.260  -0.362  1.00  0.00     0.041 A 
ATOM     16  C   UNL     1      -2.077  -5.684  -0.509  1.00  0.00     0.042 A 
ATOM     17  C   UNL     1      -3.077  -6.689  -0.510  1.00  0.00     0.028 A 
ATOM     18  Cl  UNL     1      -3.970  -2.376   0.271  1.00  0.00    -0.084 Cl
ATOM     19  Cl  UNL     1      -0.447  -6.113  -0.792  1.00  0.00    -0.084 Cl
ENDBRANCH   8  12
BRANCH   7  20
ATOM     20  N   UNL     1      -8.314 -12.329  -1.025  1.00  0.00     0.062 N 
ATOM     21  O   UNL     1      -7.657 -13.091  -0.417  1.00  0.00    -0.258 OA
ATOM     22  O   UNL     1      -9.458 -12.791  -1.451  1.00  0.00    -0.258 OA
ENDBRANCH   7  20
TORSDOF 2
ENDMDL
MODEL 2
REMARK VINA RESULT:    -4.723      1.075      2.702
REMARK INTER + INTRA:          -5.591
REMARK INTER:                  -5.276
REMARK INTRA:                  -0.315
REMARK UNBOUND:                -0.316
REMARK SMILES O=[N+]([O-])c1ccc2c(c1)N[C@@H](c1cc(Cl)cc(Cl)c1)N2
REMARK SMILES IDX 7 1 8 2 5 3 6 4 20 5 10 6 4 7 11 8 9 9 12 12 14 13 13 14
REMARK SMILES IDX 16 15 17 16 19 17 15 18 18 19 2 20 3 21 1 22
REMARK H PARENT 20 10 10 11
ROOT
ATOM      1  C   UNL     1      -6.164  -9.443  -0.642  1.00  0.00     0.060 A 
ATOM      2  C   UNL     1      -7.090  -8.555  -1.135  1.00  0.00     0.066 A 
ATOM      3  C   UNL     1      -7.682 -11.234  -0.833  1.00  0.00     0.088 A 
ATOM      4  C   UNL     1      -6.354 -10.743  -0.710  1.00  0.00     0.035 A 
ATOM      5  N   UNL     1      -4.933  -8.736  -0.349  1.00  0.00    -0.360 N 
ATOM      6  N   UNL     1      -6.424  -7.327  -1.181  1.00  0.00    -0.360 N 
ATOM      7  C   UNL     1      -8.685 -10.337  -1.194  1.00  0.00     0.271 A 
ATOM      8  C   UNL     1      -5.047  -7.664  -1.196  1.00  0.00     0.205 C 
ATOM      9  C   UNL     1      -8.366  -8.955  -1.376  1.00  0.00     0.113 A 
ATOM     10  H   UNL     1      -4.179  -8.974   0.312  1.00  0.00     0.163 HD
ATOM     11  H   UNL     1      -6.841  -6.386  -1.200  1.00  0.00     0.163 HD
ENDROOT
BRANCH   8  12
ATOM     12  C   UNL     1      -4.077  -6.462  -1.026  1.00  0.00    -0.003 A 
ATOM     13  C   UNL     1      -1.744  -5.721  -0.647  1.00  0.00     0.042 A 
ATOM     14  C   UNL     1      -2.703  -6.563  -1.343  1.00  0.00     0.028 A 
ATOM     15  C   UNL     1      -2.238  -4.442  -0.122  1.00  0.00     0.041 A 
ATOM     16  C   UNL     1      -3.682  -4.238  -0.160  1.00  0.00     0.042 A 
ATOM     17  C   UNL     1      -4.619  -5.265  -0.435  1.00  0.00     0.028 A 
ATOM     18  Cl  UNL     1      -0.195  -5.891  -0.657  1.00  0.00    -0.084 Cl
ATOM     19  Cl  UNL     1      -4.237  -2.676   0.254  1.00  0.00    -0.084 Cl
ENDBRANCH   8  12
BRANCH   7  20
ATOM     20  N   UNL     1      -9.978 -10.715  -1.494  1.00  0.00     0.062 N 
ATOM     21  O   UNL     1     -10.664 -10.018  -2.147  1.00  0.00    -0.258 OA
ATOM     22  O   UNL     1     -10.438 -11.918  -1.285  1.00  0.00    -0.258 OA
ENDBRANCH   7  20
TORSDOF 2
ENDMDL
MODEL 3
REMARK VINA RESULT:    -4.368      5.067      7.460
REMARK INTER + INTRA:          -5.194
REMARK INTER:                  -4.879
REMARK INTRA:                  -0.315
REMARK UNBOUND:                -0.316
REMARK SMILES O=[N+]([O-])c1ccc2c(c1)N[C@@H](c1cc(Cl)cc(Cl)c1)N2
REMARK SMILES IDX 7 1 8 2 5 3 6 4 20 5 10 6 4 7 11 8 9 9 12 12 14 13 13 14
REMARK SMILES IDX 16 15 17 16 19 17 15 18 18 19 2 20 3 21 1 22
REMARK H PARENT 20 10 10 11
ROOT
ATOM      1  C   UNL     1      -5.002  -5.371  -0.018  1.00  0.00     0.060 A 
ATOM      2  C   UNL     1      -3.839  -6.035  -0.328  1.00  0.00     0.066 A 
ATOM      3  C   UNL     1      -3.837  -3.351   0.312  1.00  0.00     0.088 A 
ATOM      4  C   UNL     1      -5.044  -4.059   0.062  1.00  0.00     0.035 A 
ATOM      5  N   UNL     1      -6.116  -6.296  -0.096  1.00  0.00    -0.360 N 
ATOM      6  N   UNL     1      -4.238  -7.340  -0.631  1.00  0.00    -0.360 N 
ATOM      7  C   UNL     1      -2.630  -4.026   0.148  1.00  0.00     0.271 A 
ATOM      8  C   UNL     1      -5.612  -7.228  -0.965  1.00  0.00     0.205 C 
ATOM      9  C   UNL     1      -2.639  -5.410  -0.211  1.00  0.00     0.113 A 
ATOM     10  H   UNL     1      -7.033  -6.261   0.370  1.00  0.00     0.163 HD
ATOM     11  H   UNL     1      -3.662  -8.193  -0.615  1.00  0.00     0.163 HD
ENDROOT
BRANCH   8  12
ATOM     12  C   UNL     1      -6.356  -8.582  -1.135  1.00  0.00    -0.003 A 
ATOM     13  C   UNL     1      -8.540  -9.734  -1.329  1.00  0.00     0.042 A 
ATOM     14  C   UNL     1      -7.643  -8.657  -1.714  1.00  0.00     0.028 A 
ATOM     15  C   UNL     1      -7.922 -10.980  -0.860  1.00  0.00     0.041 A 
ATOM     16  C   UNL     1      -6.483 -10.943  -0.623  1.00  0.00     0.042 A 
ATOM     17  C   UNL     1      -5.719  -9.750  -0.583  1.00  0.00     0.028 A 
ATOM     18  Cl  UNL     1     -10.065  -9.814  -1.638  1.00  0.00    -0.084 Cl
ATOM     19  Cl  UNL     1      -5.733 -12.440  -0.281  1.00  0.00    -0.084 Cl
ENDBRANCH   8  12
BRANCH   7  20
ATOM     20  N   UNL     1      -1.395  -3.414   0.211  1.00  0.00     0.062 N 
ATOM     21  O   UNL     1      -0.437  -4.037   0.486  1.00  0.00    -0.258 OA
ATOM     22  O   UNL     1      -1.171  -2.208  -0.236  1.00  0.00    -0.258 OA
ENDBRANCH   7  20
TORSDOF 2
ENDMDL
MODEL 4
REMARK VINA RESULT:    -4.353      5.118      7.790
REMARK INTER + INTRA:          -5.178
REMARK INTER:                  -4.860
REMARK INTRA:                  -0.318
REMARK UNBOUND:                -0.316
REMARK SMILES O=[N+]([O-])c1ccc2c(c1)N[C@@H](c1cc(Cl)cc(Cl)c1)N2
REMARK SMILES IDX 7 1 8 2 5 3 6 4 20 5 10 6 4 7 11 8 9 9 12 12 14 13 13 14
REMARK SMILES IDX 16 15 17 16 19 17 15 18 18 19 2 20 3 21 1 22
REMARK H PARENT 20 10 10 11
ROOT
ATOM      1  C   UNL     1      -3.633  -6.660  -0.435  1.00  0.00     0.060 A 
ATOM      2  C   UNL     1      -4.587  -5.672  -0.377  1.00  0.00     0.066 A 
ATOM      3  C   UNL     1      -1.898  -5.091  -0.159  1.00  0.00     0.088 A 
ATOM      4  C   UNL     1      -2.381  -6.427  -0.106  1.00  0.00     0.035 A 
ATOM      5  N   UNL     1      -4.284  -7.942  -0.614  1.00  0.00    -0.360 N 
ATOM      6  N   UNL     1      -5.809  -6.343  -0.480  1.00  0.00    -0.360 N 
ATOM      7  C   UNL     1      -2.827  -4.057  -0.245  1.00  0.00     0.271 A 
ATOM      8  C   UNL     1      -5.522  -7.675  -0.089  1.00  0.00     0.205 C 
ATOM      9  C   UNL     1      -4.220  -4.364  -0.330  1.00  0.00     0.113 A 
ATOM     10  H   UNL     1      -3.918  -8.814  -1.022  1.00  0.00     0.163 HD
ATOM     11  H   UNL     1      -6.716  -5.955  -0.774  1.00  0.00     0.163 HD
ENDROOT
BRANCH   8  12
ATOM     12  C   UNL     1      -6.676  -8.689  -0.324  1.00  0.00    -0.003 A 
ATOM     13  C   UNL     1      -7.312 -11.053  -0.699  1.00  0.00     0.042 A 
ATOM     14  C   UNL     1      -6.556 -10.051   0.034  1.00  0.00     0.028 A 
ATOM     15  C   UNL     1      -8.562 -10.615  -1.331  1.00  0.00     0.041 A 
ATOM     16  C   UNL     1      -8.814  -9.178  -1.345  1.00  0.00     0.042 A 
ATOM     17  C   UNL     1      -7.841  -8.201  -1.017  1.00  0.00     0.028 A 
ATOM     18  Cl  UNL     1      -7.094 -12.595  -0.637  1.00  0.00    -0.084 Cl
ATOM     19  Cl  UNL     1     -10.357  -8.685  -1.890  1.00  0.00    -0.084 Cl
ENDBRANCH   8  12
BRANCH   7  20
ATOM     20  N   UNL     1      -2.495  -2.721  -0.150  1.00  0.00     0.062 N 
ATOM     21  O   UNL     1      -1.368  -2.387  -0.171  1.00  0.00    -0.258 OA
ATOM     22  O   UNL     1      -3.368  -1.757  -0.262  1.00  0.00    -0.258 OA
ENDBRANCH   7  20
TORSDOF 2
ENDMDL
MODEL 5
REMARK VINA RESULT:    -4.353      5.115      7.580
REMARK INTER + INTRA:          -5.177
REMARK INTER:                  -4.878
REMARK INTRA:                  -0.299
REMARK UNBOUND:                -0.316
REMARK SMILES O=[N+]([O-])c1ccc2c(c1)N[C@@H](c1cc(Cl)cc(Cl)c1)N2
REMARK SMILES IDX 7 1 8 2 5 3 6 4 20 5 10 6 4 7 11 8 9 9 12 12 14 13 13 14
REMARK SMILES IDX 16 15 17 16 19 17 15 18 18 19 2 20 3 21 1 22
REMARK H PARENT 20 10 10 11
ROOT
ATOM      1  C   UNL     1      -3.693  -6.758  -0.380  1.00  0.00     0.060 A 
ATOM      2  C   UNL     1      -4.621  -5.778  -0.636  1.00  0.00     0.066 A 
ATOM      3  C   UNL     1      -2.075  -5.158   0.229  1.00  0.00     0.088 A 
ATOM      4  C   UNL     1      -2.566  -6.491   0.246  1.00  0.00     0.035 A 
ATOM      5  N   UNL     1      -4.285  -8.056  -0.633  1.00  0.00    -0.360 N 
ATOM      6  N   UNL     1      -5.780  -6.466  -1.005  1.00  0.00    -0.360 N 
ATOM      7  C   UNL     1      -2.942  -4.140  -0.163  1.00  0.00     0.271 A 
ATOM      8  C   UNL     1      -5.614  -7.767  -0.465  1.00  0.00     0.205 C 
ATOM      9  C   UNL     1      -4.269  -4.467  -0.583  1.00  0.00     0.113 A 
ATOM     10  H   UNL     1      -3.833  -8.950  -0.874  1.00  0.00     0.163 HD
ATOM     11  H   UNL     1      -6.578  -6.108  -1.549  1.00  0.00     0.163 HD
ENDROOT
BRANCH   8  12
ATOM     12  C   UNL     1      -6.677  -8.805  -0.921  1.00  0.00    -0.003 A 
ATOM     13  C   UNL     1      -9.050  -9.226  -1.490  1.00  0.00     0.042 A 
ATOM     14  C   UNL     1      -7.847  -8.419  -1.612  1.00  0.00     0.028 A 
ATOM     15  C   UNL     1      -8.869 -10.650  -1.185  1.00  0.00     0.041 A 
ATOM     16  C   UNL     1      -7.520 -11.070  -0.823  1.00  0.00     0.042 A 
ATOM     17  C   UNL     1      -6.466 -10.173  -0.519  1.00  0.00     0.028 A 
ATOM     18  Cl  UNL     1     -10.484  -8.811  -1.938  1.00  0.00    -0.084 Cl
ATOM     19  Cl  UNL     1      -7.266 -12.754  -0.673  1.00  0.00    -0.084 Cl
ENDBRANCH   8  12
BRANCH   7  20
ATOM     20  N   UNL     1      -2.636  -2.798  -0.076  1.00  0.00     0.062 N 
ATOM     21  O   UNL     1      -1.517  -2.441  -0.124  1.00  0.00    -0.258 OA
ATOM     22  O   UNL     1      -3.531  -1.852  -0.166  1.00  0.00    -0.258 OA
ENDBRANCH   7  20
TORSDOF 2
ENDMDL
MODEL 6
REMARK VINA RESULT:    -4.304      1.455      2.115
REMARK INTER + INTRA:          -5.123
REMARK INTER:                  -4.823
REMARK INTRA:                  -0.300
REMARK UNBOUND:                -0.316
REMARK SMILES O=[N+]([O-])c1ccc2c(c1)N[C@@H](c1cc(Cl)cc(Cl)c1)N2
REMARK SMILES IDX 7 1 8 2 5 3 6 4 20 5 10 6 4 7 11 8 9 9 12 12 14 13 13 14
REMARK SMILES IDX 16 15 17 16 19 17 15 18 18 19 2 20 3 21 1 22
REMARK H PARENT 20 10 10 11
ROOT
ATOM      1  C   UNL     1      -6.773  -9.157  -0.602  1.00  0.00     0.060 A 
ATOM      2  C   UNL     1      -7.515  -8.107  -1.086  1.00  0.00     0.066 A 
ATOM      3  C   UNL     1      -8.487 -10.690  -1.111  1.00  0.00     0.088 A 
ATOM      4  C   UNL     1      -7.126 -10.406  -0.817  1.00  0.00     0.035 A 
ATOM      5  N   UNL     1      -5.496  -8.661  -0.127  1.00  0.00    -0.360 N 
ATOM      6  N   UNL     1      -6.691  -6.987  -0.947  1.00  0.00    -0.360 N 
ATOM      7  C   UNL     1      -9.318  -9.632  -1.472  1.00  0.00     0.271 A 
ATOM      8  C   UNL     1      -5.377  -7.514  -0.868  1.00  0.00     0.205 C 
ATOM      9  C   UNL     1      -8.800  -8.299  -1.483  1.00  0.00     0.113 A 
ATOM     10  H   UNL     1      -4.855  -9.060   0.573  1.00  0.00     0.163 HD
ATOM     11  H   UNL     1      -6.975  -5.998  -0.910  1.00  0.00     0.163 HD
ENDROOT
BRANCH   8  12
ATOM     12  C   UNL     1      -4.279  -6.482  -0.490  1.00  0.00    -0.003 A 
ATOM     13  C   UNL     1      -3.732  -4.105  -0.059  1.00  0.00     0.042 A 
ATOM     14  C   UNL     1      -4.593  -5.258   0.143  1.00  0.00     0.028 A 
ATOM     15  C   UNL     1      -2.325  -4.373  -0.380  1.00  0.00     0.041 A 
ATOM     16  C   UNL     1      -1.978  -5.759  -0.676  1.00  0.00     0.042 A 
ATOM     17  C   UNL     1      -2.932  -6.781  -0.905  1.00  0.00     0.028 A 
ATOM     18  Cl  UNL     1      -4.067  -2.630   0.317  1.00  0.00    -0.084 Cl
ATOM     19  Cl  UNL     1      -0.312  -6.103  -0.843  1.00  0.00    -0.084 Cl
ENDBRANCH   8  12
BRANCH   7  20
ATOM     20  N   UNL     1     -10.611  -9.794  -1.926  1.00  0.00     0.062 N 
ATOM     21  O   UNL     1     -11.190  -8.890  -2.405  1.00  0.00    -0.258 OA
ATOM     22  O   UNL     1     -11.178 -10.962  -2.067  1.00  0.00    -0.258 OA
ENDBRANCH   7  20
TORSDOF 2
ENDMDL
MODEL 7
REMARK VINA RESULT:    -4.253      0.687      2.214
REMARK INTER + INTRA:          -5.066
REMARK INTER:                  -4.767
REMARK INTRA:                  -0.299
REMARK UNBOUND:                -0.316
REMARK SMILES O=[N+]([O-])c1ccc2c(c1)N[C@@H](c1cc(Cl)cc(Cl)c1)N2
REMARK SMILES IDX 7 1 8 2 5 3 6 4 20 5 10 6 4 7 11 8 9 9 12 12 14 13 13 14
REMARK SMILES IDX 16 15 17 16 19 17 15 18 18 19 2 20 3 21 1 22
REMARK H PARENT 20 10 10 11
ROOT
ATOM      1  C   UNL     1      -7.010  -8.835  -1.124  1.00  0.00     0.060 A 
ATOM      2  C   UNL     1      -5.965  -9.581  -0.633  1.00  0.00     0.066 A 
ATOM      3  C   UNL     1      -8.426 -10.717  -1.153  1.00  0.00     0.088 A 
ATOM      4  C   UNL     1      -8.237  -9.308  -1.157  1.00  0.00     0.035 A 
ATOM      5  N   UNL     1      -6.580  -7.460  -1.289  1.00  0.00    -0.360 N 
ATOM      6  N   UNL     1      -4.920  -8.669  -0.462  1.00  0.00    -0.360 N 
ATOM      7  C   UNL     1      -7.349 -11.526  -0.798  1.00  0.00     0.271 A 
ATOM      8  C   UNL     1      -5.555  -7.404  -0.381  1.00  0.00     0.205 C 
ATOM      9  C   UNL     1      -6.084 -10.928  -0.503  1.00  0.00     0.113 A 
ATOM     10  H   UNL     1      -6.945  -6.728  -1.914  1.00  0.00     0.163 HD
ATOM     11  H   UNL     1      -3.912  -8.871  -0.406  1.00  0.00     0.163 HD
ENDROOT
BRANCH   8  12
ATOM     12  C   UNL     1      -4.591  -6.185  -0.406  1.00  0.00    -0.003 A 
ATOM     13  C   UNL     1      -2.243  -5.400  -0.336  1.00  0.00     0.042 A 
ATOM     14  C   UNL     1      -3.258  -6.298  -0.861  1.00  0.00     0.028 A 
ATOM     15  C   UNL     1      -2.698  -4.090   0.145  1.00  0.00     0.041 A 
ATOM     16  C   UNL     1      -4.140  -3.900   0.248  1.00  0.00     0.042 A 
ATOM     17  C   UNL     1      -5.085  -4.951   0.152  1.00  0.00     0.028 A 
ATOM     18  Cl  UNL     1      -0.702  -5.558  -0.501  1.00  0.00    -0.084 Cl
ATOM     19  Cl  UNL     1      -4.672  -2.315   0.605  1.00  0.00    -0.084 Cl
ENDBRANCH   8  12
BRANCH   7  20
ATOM     20  N   UNL     1      -7.445 -12.889  -0.608  1.00  0.00     0.062 N 
ATOM     21  O   UNL     1      -8.465 -13.443  -0.795  1.00  0.00    -0.258 OA
ATOM     22  O   UNL     1      -6.407 -13.664  -0.445  1.00  0.00    -0.258 OA
ENDBRANCH   7  20
TORSDOF 2
ENDMDL
MODEL 8
REMARK VINA RESULT:    -4.250      3.229      4.649
REMARK INTER + INTRA:          -5.063
REMARK INTER:                  -4.756
REMARK INTRA:                  -0.306
REMARK UNBOUND:                -0.316
REMARK SMILES O=[N+]([O-])c1ccc2c(c1)N[C@@H](c1cc(Cl)cc(Cl)c1)N2
REMARK SMILES IDX 7 1 8 2 5 3 6 4 20 5 10 6 4 7 11 8 9 9 12 12 14 13 13 14
REMARK SMILES IDX 16 15 17 16 19 17 15 18 18 19 2 20 3 21 1 22
REMARK H PARENT 20 10 10 11
ROOT
ATOM      1  C   UNL     1      -6.677 -12.884  -0.500  1.00  0.00     0.060 A 
ATOM      2  C   UNL     1      -6.109 -12.711   0.739  1.00  0.00     0.066 A 
ATOM      3  C   UNL     1      -7.224 -15.122  -0.010  1.00  0.00     0.088 A 
ATOM      4  C   UNL     1      -7.407 -13.942  -0.780  1.00  0.00     0.035 A 
ATOM      5  N   UNL     1      -6.576 -11.647  -1.250  1.00  0.00    -0.360 N 
ATOM      6  N   UNL     1      -5.700 -11.375   0.765  1.00  0.00    -0.360 N 
ATOM      7  C   UNL     1      -6.527 -15.022   1.193  1.00  0.00     0.271 A 
ATOM      8  C   UNL     1      -6.485 -10.738  -0.228  1.00  0.00     0.205 C 
ATOM      9  C   UNL     1      -5.976 -13.764   1.587  1.00  0.00     0.113 A 
ATOM     10  H   UNL     1      -6.573 -11.493  -2.268  1.00  0.00     0.163 HD
ATOM     11  H   UNL     1      -4.985 -10.948   1.372  1.00  0.00     0.163 HD
ENDROOT
BRANCH   8  12
ATOM     12  C   UNL     1      -6.069  -9.276  -0.554  1.00  0.00    -0.003 A 
ATOM     13  C   UNL     1      -4.653  -7.785  -1.934  1.00  0.00     0.042 A 
ATOM     14  C   UNL     1      -5.567  -8.910  -1.823  1.00  0.00     0.028 A 
ATOM     15  C   UNL     1      -4.751  -6.743  -0.906  1.00  0.00     0.041 A 
ATOM     16  C   UNL     1      -5.601  -7.040   0.242  1.00  0.00     0.042 A 
ATOM     17  C   UNL     1      -6.121  -8.327   0.528  1.00  0.00     0.028 A 
ATOM     18  Cl  UNL     1      -3.792  -7.421  -3.182  1.00  0.00    -0.084 Cl
ATOM     19  Cl  UNL     1      -5.880  -5.753   1.332  1.00  0.00    -0.084 Cl
ENDBRANCH   8  12
BRANCH   7  20
ATOM     20  N   UNL     1      -6.414 -16.056   2.100  1.00  0.00     0.062 N 
ATOM     21  O   UNL     1      -5.715 -16.973   1.870  1.00  0.00    -0.258 OA
ATOM     22  O   UNL     1      -6.869 -15.989   3.321  1.00  0.00    -0.258 OA
ENDBRANCH   7  20
TORSDOF 2
ENDMDL
MODEL 9
REMARK VINA RESULT:    -3.654      5.204      7.681
REMARK INTER + INTRA:          -4.397
REMARK INTER:                  -4.102
REMARK INTRA:                  -0.296
REMARK UNBOUND:                -0.316
REMARK SMILES O=[N+]([O-])c1ccc2c(c1)N[C@@H](c1cc(Cl)cc(Cl)c1)N2
REMARK SMILES IDX 7 1 8 2 5 3 6 4 20 5 10 6 4 7 11 8 9 9 12 12 14 13 13 14
REMARK SMILES IDX 16 15 17 16 19 17 15 18 18 19 2 20 3 21 1 22
REMARK H PARENT 20 10 10 11
ROOT
ATOM      1  C   UNL     1      -5.414  -8.640  -1.344  1.00  0.00     0.060 A 
ATOM      2  C   UNL     1      -5.965  -8.258  -0.144  1.00  0.00     0.066 A 
ATOM      3  C   UNL     1      -4.552  -6.479  -1.710  1.00  0.00     0.088 A 
ATOM      4  C   UNL     1      -4.554  -7.874  -1.980  1.00  0.00     0.035 A 
ATOM      5  N   UNL     1      -5.706 -10.040  -1.580  1.00  0.00    -0.360 N 
ATOM      6  N   UNL     1      -6.553  -9.418   0.369  1.00  0.00    -0.360 N 
ATOM      7  C   UNL     1      -5.221  -6.026  -0.575  1.00  0.00     0.271 A 
ATOM      8  C   UNL     1      -5.891 -10.481  -0.296  1.00  0.00     0.205 C 
ATOM      9  C   UNL     1      -5.928  -6.958   0.247  1.00  0.00     0.113 A 
ATOM     10  H   UNL     1      -5.759 -10.560  -2.467  1.00  0.00     0.163 HD
ATOM     11  H   UNL     1      -7.302  -9.485   1.073  1.00  0.00     0.163 HD
ENDROOT
BRANCH   8  12
ATOM     12  C   UNL     1      -6.513 -11.887  -0.063  1.00  0.00    -0.003 A 
ATOM     13  C   UNL     1      -6.261 -14.114   0.989  1.00  0.00     0.042 A 
ATOM     14  C   UNL     1      -6.192 -12.665   1.072  1.00  0.00     0.028 A 
ATOM     15  C   UNL     1      -7.191 -14.682   0.006  1.00  0.00     0.041 A 
ATOM     16  C   UNL     1      -7.793 -13.744  -0.936  1.00  0.00     0.042 A 
ATOM     17  C   UNL     1      -7.357 -12.407  -1.108  1.00  0.00     0.028 A 
ATOM     18  Cl  UNL     1      -5.680 -15.123   2.026  1.00  0.00    -0.084 Cl
ATOM     19  Cl  UNL     1      -9.028 -14.367  -1.940  1.00  0.00    -0.084 Cl
ENDBRANCH   8  12
BRANCH   7  20
ATOM     20  N   UNL     1      -5.164  -4.723  -0.122  1.00  0.00     0.062 N 
ATOM     21  O   UNL     1      -5.034  -3.836  -0.882  1.00  0.00    -0.258 OA
ATOM     22  O   UNL     1      -5.472  -4.376   1.098  1.00  0.00    -0.258 OA
ENDBRANCH   7  20
TORSDOF 2
ENDMDL
