MODEL 1
REMARK VINA RESULT:    -4.652      0.000      0.000
REMARK INTER + INTRA:          -5.492
REMARK INTER:                  -5.196
REMARK INTRA:                  -0.296
REMARK UNBOUND:                -0.296
REMARK SMILES O=[N+]([O-])c1ccc2c(c1)N[C@@H](c1cc(Cl)cc(Cl)c1)N2
REMARK SMILES IDX 7 1 8 2 5 3 6 4 20 5 10 6 4 7 11 8 9 9 12 12 14 13 13 14
REMARK SMILES IDX 16 15 17 16 19 17 15 18 18 19 2 20 3 21 1 22
REMARK H PARENT 20 10 10 11
ROOT
ATOM      1  C   UNL     1       2.092   1.414   0.461  1.00  0.00     0.060 A 
ATOM      2  C   UNL     1       2.102   0.291  -0.331  1.00  0.00     0.066 A 
ATOM      3  C   UNL     1       4.372   1.819   0.030  1.00  0.00     0.088 A 
ATOM      4  C   UNL     1       3.093   2.268   0.456  1.00  0.00     0.035 A 
ATOM      5  N   UNL     1       0.762   1.603   1.006  1.00  0.00    -0.360 N 
ATOM      6  N   UNL     1       0.787  -0.181  -0.304  1.00  0.00    -0.360 N 
ATOM      7  C   UNL     1       4.451   0.609  -0.656  1.00  0.00     0.271 A 
ATOM      8  C   UNL     1       0.008   0.942   0.072  1.00  0.00     0.205 C 
ATOM      9  C   UNL     1       3.266  -0.164  -0.863  1.00  0.00     0.113 A 
ATOM     10  H   UNL     1       0.465   2.098   1.859  1.00  0.00     0.163 HD
ATOM     11  H   UNL     1       0.457  -1.134  -0.511  1.00  0.00     0.163 HD
ENDROOT
BRANCH   8  12
ATOM     12  C   UNL     1      -1.482   0.630   0.388  1.00  0.00    -0.003 A 
ATOM     13  C   UNL     1      -3.563  -0.492  -0.348  1.00  0.00     0.042 A 
ATOM     14  C   UNL     1      -2.127  -0.518  -0.125  1.00  0.00     0.028 A 
ATOM     15  C   UNL     1      -4.350   0.427   0.483  1.00  0.00     0.041 A 
ATOM     16  C   UNL     1      -3.596   1.376   1.295  1.00  0.00     0.042 A 
ATOM     17  C   UNL     1      -2.208   1.617   1.146  1.00  0.00     0.028 A 
ATOM     18  Cl  UNL     1      -4.386  -1.539  -1.158  1.00  0.00    -0.084 Cl
ATOM     19  Cl  UNL     1      -4.500   2.299   2.414  1.00  0.00    -0.084 Cl
ENDBRANCH   8  12
BRANCH   7  20
ATOM     20  N   UNL     1       5.604   0.141  -1.251  1.00  0.00     0.062 N 
ATOM     21  O   UNL     1       5.601  -0.175  -2.384  1.00  0.00    -0.258 OA
ATOM     22  O   UNL     1       6.783   0.230  -0.697  1.00  0.00    -0.258 OA
ENDBRANCH   7  20
TORSDOF 2
ENDMDL
MODEL 2
REMARK VINA RESULT:    -4.648      1.031      2.689
REMARK INTER + INTRA:          -5.487
REMARK INTER:                  -5.191
REMARK INTRA:                  -0.296
REMARK UNBOUND:                -0.296
REMARK SMILES O=[N+]([O-])c1ccc2c(c1)N[C@@H](c1cc(Cl)cc(Cl)c1)N2
REMARK SMILES IDX 7 1 8 2 5 3 6 4 20 5 10 6 4 7 11 8 9 9 12 12 14 13 13 14
REMARK SMILES IDX 16 15 17 16 19 17 15 18 18 19 2 20 3 21 1 22
REMARK H PARENT 20 10 10 11
ROOT
ATOM      1  C   UNL     1       2.074   0.245  -0.597  1.00  0.00     0.060 A 
ATOM      2  C   UNL     1       2.112   1.351   0.219  1.00  0.00     0.066 A 
ATOM      3  C   UNL     1       4.426   0.143  -0.680  1.00  0.00     0.088 A 
ATOM      4  C   UNL     1       3.152  -0.468  -0.840  1.00  0.00     0.035 A 
ATOM      5  N   UNL     1       0.692  -0.112  -0.853  1.00  0.00    -0.360 N 
ATOM      6  N   UNL     1       0.774   1.644   0.492  1.00  0.00    -0.360 N 
ATOM      7  C   UNL     1       4.497   1.344   0.022  1.00  0.00     0.271 A 
ATOM      8  C   UNL     1       0.081   0.432   0.247  1.00  0.00     0.205 C 
ATOM      9  C   UNL     1       3.297   1.950   0.508  1.00  0.00     0.113 A 
ATOM     10  H   UNL     1       0.283  -0.632  -1.642  1.00  0.00     0.163 HD
ATOM     11  H   UNL     1       0.378   2.543   0.803  1.00  0.00     0.163 HD
ENDROOT
BRANCH   8  12
ATOM     12  C   UNL     1      -1.469   0.547   0.269  1.00  0.00    -0.003 A 
ATOM     13  C   UNL     1      -3.464   1.412   1.454  1.00  0.00     0.042 A 
ATOM     14  C   UNL     1      -2.127   1.614   0.920  1.00  0.00     0.028 A 
ATOM     15  C   UNL     1      -4.290   0.384   0.810  1.00  0.00     0.041 A 
ATOM     16  C   UNL     1      -3.618  -0.478  -0.156  1.00  0.00     0.042 A 
ATOM     17  C   UNL     1      -2.212  -0.539  -0.318  1.00  0.00     0.028 A 
ATOM     18  Cl  UNL     1      -4.216   2.364   2.433  1.00  0.00    -0.084 Cl
ATOM     19  Cl  UNL     1      -4.619  -1.532  -1.056  1.00  0.00    -0.084 Cl
ENDBRANCH   8  12
BRANCH   7  20
ATOM     20  N   UNL     1       5.682   1.955   0.375  1.00  0.00     0.062 N 
ATOM     21  O   UNL     1       5.872   2.283   1.488  1.00  0.00    -0.258 OA
ATOM     22  O   UNL     1       6.726   2.001  -0.409  1.00  0.00    -0.258 OA
ENDBRANCH   7  20
TORSDOF 2
ENDMDL
MODEL 3
REMARK VINA RESULT:    -4.620      5.112      7.772
REMARK INTER + INTRA:          -5.457
REMARK INTER:                  -5.161
REMARK INTRA:                  -0.296
REMARK UNBOUND:                -0.296
REMARK SMILES O=[N+]([O-])c1ccc2c(c1)N[C@@H](c1cc(Cl)cc(Cl)c1)N2
REMARK SMILES IDX 7 1 8 2 5 3 6 4 20 5 10 6 4 7 11 8 9 9 12 12 14 13 13 14
REMARK SMILES IDX 16 15 17 16 19 17 15 18 18 19 2 20 3 21 1 22
REMARK H PARENT 20 10 10 11
ROOT
ATOM      1  C   UNL     1      -0.673   0.477  -0.524  1.00  0.00     0.060 A 
ATOM      2  C   UNL     1      -0.551   0.603   0.839  1.00  0.00     0.066 A 
ATOM      3  C   UNL     1      -3.021   0.607  -0.392  1.00  0.00     0.088 A 
ATOM      4  C   UNL     1      -1.814   0.707  -1.136  1.00  0.00     0.035 A 
ATOM      5  N   UNL     1       0.647   0.359  -1.112  1.00  0.00    -0.360 N 
ATOM      6  N   UNL     1       0.825   0.600   1.081  1.00  0.00    -0.360 N 
ATOM      7  C   UNL     1      -2.938   0.587   0.998  1.00  0.00     0.271 A 
ATOM      8  C   UNL     1       1.409   0.977  -0.155  1.00  0.00     0.205 C 
ATOM      9  C   UNL     1      -1.656   0.613   1.630  1.00  0.00     0.113 A 
ATOM     10  H   UNL     1       0.933  -0.070  -2.004  1.00  0.00     0.163 HD
ATOM     11  H   UNL     1       1.308   0.375   1.962  1.00  0.00     0.163 HD
ENDROOT
BRANCH   8  12
ATOM     12  C   UNL     1       2.956   0.839  -0.218  1.00  0.00    -0.003 A 
ATOM     13  C   UNL     1       5.122   1.308   0.887  1.00  0.00     0.042 A 
ATOM     14  C   UNL     1       3.750   0.832   0.951  1.00  0.00     0.028 A 
ATOM     15  C   UNL     1       5.802   1.207  -0.410  1.00  0.00     0.041 A 
ATOM     16  C   UNL     1       4.973   0.842  -1.553  1.00  0.00     0.042 A 
ATOM     17  C   UNL     1       3.556   0.822  -1.527  1.00  0.00     0.028 A 
ATOM     18  Cl  UNL     1       6.038   1.636   2.104  1.00  0.00    -0.084 Cl
ATOM     19  Cl  UNL     1       5.797   0.521  -3.015  1.00  0.00    -0.084 Cl
ENDBRANCH   8  12
BRANCH   7  20
ATOM     20  N   UNL     1      -4.037   0.646   1.831  1.00  0.00     0.062 N 
ATOM     21  O   UNL     1      -4.101   1.465   2.672  1.00  0.00    -0.258 OA
ATOM     22  O   UNL     1      -5.139  -0.018   1.610  1.00  0.00    -0.258 OA
ENDBRANCH   7  20
TORSDOF 2
ENDMDL
MODEL 4
REMARK VINA RESULT:    -4.617      4.987      7.433
REMARK INTER + INTRA:          -5.452
REMARK INTER:                  -5.156
REMARK INTRA:                  -0.296
REMARK UNBOUND:                -0.296
REMARK SMILES O=[N+]([O-])c1ccc2c(c1)N[C@@H](c1cc(Cl)cc(Cl)c1)N2
REMARK SMILES IDX 7 1 8 2 5 3 6 4 20 5 10 6 4 7 11 8 9 9 12 12 14 13 13 14
REMARK SMILES IDX 16 15 17 16 19 17 15 18 18 19 2 20 3 21 1 22
REMARK H PARENT 20 10 10 11
ROOT
ATOM      1  C   UNL     1      -0.511   0.830   0.995  1.00  0.00     0.060 A 
ATOM      2  C   UNL     1      -0.674   0.692  -0.363  1.00  0.00     0.066 A 
ATOM      3  C   UNL     1      -2.797   0.407   1.378  1.00  0.00     0.088 A 
ATOM      4  C   UNL     1      -1.454   0.473   1.840  1.00  0.00     0.035 A 
ATOM      5  N   UNL     1       0.879   1.124   1.283  1.00  0.00    -0.360 N 
ATOM      6  N   UNL     1       0.606   0.861  -0.898  1.00  0.00    -0.360 N 
ATOM      7  C   UNL     1      -3.021   0.408   0.003  1.00  0.00     0.271 A 
ATOM      8  C   UNL     1       1.487   0.586   0.178  1.00  0.00     0.205 C 
ATOM      9  C   UNL     1      -1.914   0.529  -0.893  1.00  0.00     0.113 A 
ATOM     10  H   UNL     1       1.295   1.604   2.093  1.00  0.00     0.163 HD
ATOM     11  H   UNL     1       0.854   1.126  -1.862  1.00  0.00     0.163 HD
ENDROOT
BRANCH   8  12
ATOM     12  C   UNL     1       2.980   0.917  -0.097  1.00  0.00    -0.003 A 
ATOM     13  C   UNL     1       4.893   0.709  -1.656  1.00  0.00     0.042 A 
ATOM     14  C   UNL     1       3.492   1.010  -1.411  1.00  0.00     0.028 A 
ATOM     15  C   UNL     1       5.823   0.909  -0.539  1.00  0.00     0.041 A 
ATOM     16  C   UNL     1       5.225   1.182   0.764  1.00  0.00     0.042 A 
ATOM     17  C   UNL     1       3.846   1.024   1.049  1.00  0.00     0.028 A 
ATOM     18  Cl  UNL     1       5.554   0.484  -3.050  1.00  0.00    -0.084 Cl
ATOM     19  Cl  UNL     1       6.303   1.620   2.016  1.00  0.00    -0.084 Cl
ENDBRANCH   8  12
BRANCH   7  20
ATOM     20  N   UNL     1      -4.258   0.195  -0.571  1.00  0.00     0.062 N 
ATOM     21  O   UNL     1      -4.393  -0.625  -1.402  1.00  0.00    -0.258 OA
ATOM     22  O   UNL     1      -5.364   0.698  -0.094  1.00  0.00    -0.258 OA
ENDBRANCH   7  20
TORSDOF 2
ENDMDL
MODEL 5
REMARK VINA RESULT:    -4.168     10.945     11.646
REMARK INTER + INTRA:          -4.951
REMARK INTER:                  -4.636
REMARK INTRA:                  -0.315
REMARK UNBOUND:                -0.296
REMARK SMILES O=[N+]([O-])c1ccc2c(c1)N[C@@H](c1cc(Cl)cc(Cl)c1)N2
REMARK SMILES IDX 7 1 8 2 5 3 6 4 20 5 10 6 4 7 11 8 9 9 12 12 14 13 13 14
REMARK SMILES IDX 16 15 17 16 19 17 15 18 18 19 2 20 3 21 1 22
REMARK H PARENT 20 10 10 11
ROOT
ATOM      1  C   UNL     1       2.468  -9.576   5.349  1.00  0.00     0.060 A 
ATOM      2  C   UNL     1       1.567  -9.186   6.310  1.00  0.00     0.066 A 
ATOM      3  C   UNL     1       2.792 -11.657   6.404  1.00  0.00     0.088 A 
ATOM      4  C   UNL     1       2.878 -10.823   5.257  1.00  0.00     0.035 A 
ATOM      5  N   UNL     1       2.616  -8.514   4.373  1.00  0.00    -0.360 N 
ATOM      6  N   UNL     1       1.137  -7.918   5.909  1.00  0.00    -0.360 N 
ATOM      7  C   UNL     1       1.998 -11.234   7.468  1.00  0.00     0.271 A 
ATOM      8  C   UNL     1       1.418  -7.865   4.520  1.00  0.00     0.205 C 
ATOM      9  C   UNL     1       1.344  -9.965   7.401  1.00  0.00     0.113 A 
ATOM     10  H   UNL     1       3.403  -8.306   3.742  1.00  0.00     0.163 HD
ATOM     11  H   UNL     1       0.711  -7.184   6.493  1.00  0.00     0.163 HD
ENDROOT
BRANCH   8  12
ATOM     12  C   UNL     1       1.232  -6.467   3.867  1.00  0.00    -0.003 A 
ATOM     13  C   UNL     1       1.588  -5.052   1.866  1.00  0.00     0.042 A 
ATOM     14  C   UNL     1       1.155  -6.303   2.465  1.00  0.00     0.028 A 
ATOM     15  C   UNL     1       1.514  -3.850   2.704  1.00  0.00     0.041 A 
ATOM     16  C   UNL     1       1.218  -4.061   4.117  1.00  0.00     0.042 A 
ATOM     17  C   UNL     1       1.244  -5.328   4.750  1.00  0.00     0.028 A 
ATOM     18  Cl  UNL     1       1.839  -4.800   0.348  1.00  0.00    -0.084 Cl
ATOM     19  Cl  UNL     1       0.926  -2.657   5.047  1.00  0.00    -0.084 Cl
ENDBRANCH   8  12
BRANCH   7  20
ATOM     20  N   UNL     1       1.712 -12.018   8.567  1.00  0.00     0.062 N 
ATOM     21  O   UNL     1       0.755 -11.803   9.215  1.00  0.00    -0.258 OA
ATOM     22  O   UNL     1       2.321 -13.144   8.822  1.00  0.00    -0.258 OA
ENDBRANCH   7  20
TORSDOF 2
ENDMDL
MODEL 6
REMARK VINA RESULT:    -4.144     10.846     11.643
REMARK INTER + INTRA:          -4.924
REMARK INTER:                  -4.610
REMARK INTRA:                  -0.315
REMARK UNBOUND:                -0.296
REMARK SMILES O=[N+]([O-])c1ccc2c(c1)N[C@@H](c1cc(Cl)cc(Cl)c1)N2
REMARK SMILES IDX 7 1 8 2 5 3 6 4 20 5 10 6 4 7 11 8 9 9 12 12 14 13 13 14
REMARK SMILES IDX 16 15 17 16 19 17 15 18 18 19 2 20 3 21 1 22
REMARK H PARENT 20 10 10 11
ROOT
ATOM      1  C   UNL     1       1.617  -9.174   6.356  1.00  0.00     0.060 A 
ATOM      2  C   UNL     1       2.528  -9.606   5.422  1.00  0.00     0.066 A 
ATOM      3  C   UNL     1       1.800 -11.188   7.563  1.00  0.00     0.088 A 
ATOM      4  C   UNL     1       1.439  -9.816   7.490  1.00  0.00     0.035 A 
ATOM      5  N   UNL     1       1.172  -7.839   6.008  1.00  0.00    -0.360 N 
ATOM      6  N   UNL     1       2.669  -8.537   4.533  1.00  0.00    -0.360 N 
ATOM      7  C   UNL     1       2.610 -11.711   6.556  1.00  0.00     0.271 A 
ATOM      8  C   UNL     1       2.237  -7.401   5.265  1.00  0.00     0.205 C 
ATOM      9  C   UNL     1       3.006 -10.877   5.464  1.00  0.00     0.113 A 
ATOM     10  H   UNL     1       0.298  -7.353   6.251  1.00  0.00     0.163 HD
ATOM     11  H   UNL     1       3.011  -8.567   3.562  1.00  0.00     0.163 HD
ENDROOT
BRANCH   8  12
ATOM     12  C   UNL     1       2.089  -6.100   4.427  1.00  0.00    -0.003 A 
ATOM     13  C   UNL     1       1.279  -3.761   4.360  1.00  0.00     0.042 A 
ATOM     14  C   UNL     1       1.998  -4.828   5.036  1.00  0.00     0.028 A 
ATOM     15  C   UNL     1       1.204  -3.831   2.897  1.00  0.00     0.041 A 
ATOM     16  C   UNL     1       1.669  -5.068   2.280  1.00  0.00     0.042 A 
ATOM     17  C   UNL     1       1.946  -6.256   3.002  1.00  0.00     0.028 A 
ATOM     18  Cl  UNL     1       0.838  -2.407   4.993  1.00  0.00    -0.084 Cl
ATOM     19  Cl  UNL     1       1.778  -5.071   0.574  1.00  0.00    -0.084 Cl
ENDBRANCH   8  12
BRANCH   7  20
ATOM     20  N   UNL     1       3.152 -12.979   6.592  1.00  0.00     0.062 N 
ATOM     21  O   UNL     1       4.115 -13.230   5.966  1.00  0.00    -0.258 OA
ATOM     22  O   UNL     1       2.795 -13.886   7.460  1.00  0.00    -0.258 OA
ENDBRANCH   7  20
TORSDOF 2
ENDMDL
MODEL 7
REMARK VINA RESULT:    -4.131     12.828     13.526
REMARK INTER + INTRA:          -4.910
REMARK INTER:                  -4.604
REMARK INTRA:                  -0.306
REMARK UNBOUND:                -0.296
REMARK SMILES O=[N+]([O-])c1ccc2c(c1)N[C@@H](c1cc(Cl)cc(Cl)c1)N2
REMARK SMILES IDX 7 1 8 2 5 3 6 4 20 5 10 6 4 7 11 8 9 9 12 12 14 13 13 14
REMARK SMILES IDX 16 15 17 16 19 17 15 18 18 19 2 20 3 21 1 22
REMARK H PARENT 20 10 10 11
ROOT
ATOM      1  C   UNL     1       3.942 -12.687   5.200  1.00  0.00     0.060 A 
ATOM      2  C   UNL     1       5.069 -11.929   4.994  1.00  0.00     0.066 A 
ATOM      3  C   UNL     1       5.229 -14.636   5.504  1.00  0.00     0.088 A 
ATOM      4  C   UNL     1       4.015 -13.915   5.666  1.00  0.00     0.035 A 
ATOM      5  N   UNL     1       2.771 -11.838   5.104  1.00  0.00    -0.360 N 
ATOM      6  N   UNL     1       4.600 -10.625   4.813  1.00  0.00    -0.360 N 
ATOM      7  C   UNL     1       6.376 -13.927   5.154  1.00  0.00     0.271 A 
ATOM      8  C   UNL     1       3.314 -10.619   5.412  1.00  0.00     0.205 C 
ATOM      9  C   UNL     1       6.291 -12.519   4.918  1.00  0.00     0.113 A 
ATOM     10  H   UNL     1       1.798 -12.083   4.870  1.00  0.00     0.163 HD
ATOM     11  H   UNL     1       5.080  -9.842   4.347  1.00  0.00     0.163 HD
ENDROOT
BRANCH   8  12
ATOM     12  C   UNL     1       2.479  -9.333   5.156  1.00  0.00    -0.003 A 
ATOM     13  C   UNL     1       0.821  -8.195   3.711  1.00  0.00     0.042 A 
ATOM     14  C   UNL     1       1.255  -9.369   4.450  1.00  0.00     0.028 A 
ATOM     15  C   UNL     1       1.307  -6.893   4.182  1.00  0.00     0.041 A 
ATOM     16  C   UNL     1       2.344  -6.919   5.208  1.00  0.00     0.042 A 
ATOM     17  C   UNL     1       3.057  -8.084   5.583  1.00  0.00     0.028 A 
ATOM     18  Cl  UNL     1      -0.331  -8.144   2.662  1.00  0.00    -0.084 Cl
ATOM     19  Cl  UNL     1       2.758  -5.414   5.905  1.00  0.00    -0.084 Cl
ENDBRANCH   8  12
BRANCH   7  20
ATOM     20  N   UNL     1       7.638 -14.483   5.116  1.00  0.00     0.062 N 
ATOM     21  O   UNL     1       7.968 -15.142   4.200  1.00  0.00    -0.258 OA
ATOM     22  O   UNL     1       8.594 -14.145   5.938  1.00  0.00    -0.258 OA
ENDBRANCH   7  20
TORSDOF 2
ENDMDL
MODEL 8
REMARK VINA RESULT:    -4.123     13.556     14.666
REMARK INTER + INTRA:          -4.901
REMARK INTER:                  -4.595
REMARK INTRA:                  -0.306
REMARK UNBOUND:                -0.296
REMARK SMILES O=[N+]([O-])c1ccc2c(c1)N[C@@H](c1cc(Cl)cc(Cl)c1)N2
REMARK SMILES IDX 7 1 8 2 5 3 6 4 20 5 10 6 4 7 11 8 9 9 12 12 14 13 13 14
REMARK SMILES IDX 16 15 17 16 19 17 15 18 18 19 2 20 3 21 1 22
REMARK H PARENT 20 10 10 11
ROOT
ATOM      1  C   UNL     1       0.759 -10.837   9.081  1.00  0.00     0.060 A 
ATOM      2  C   UNL     1      -0.508 -10.494   8.675  1.00  0.00     0.066 A 
ATOM      3  C   UNL     1      -0.092 -12.311  10.710  1.00  0.00     0.088 A 
ATOM      4  C   UNL     1       0.971 -11.861   9.880  1.00  0.00     0.035 A 
ATOM      5  N   UNL     1       1.730 -10.113   8.284  1.00  0.00    -0.360 N 
ATOM      6  N   UNL     1      -0.318  -9.600   7.617  1.00  0.00    -0.360 N 
ATOM      7  C   UNL     1      -1.383 -11.874  10.422  1.00  0.00     0.271 A 
ATOM      8  C   UNL     1       0.996  -9.864   7.154  1.00  0.00     0.205 C 
ATOM      9  C   UNL     1      -1.594 -10.953   9.349  1.00  0.00     0.113 A 
ATOM     10  H   UNL     1       2.702  -9.857   8.506  1.00  0.00     0.163 HD
ATOM     11  H   UNL     1      -0.985  -8.904   7.255  1.00  0.00     0.163 HD
ENDROOT
BRANCH   8  12
ATOM     12  C   UNL     1       1.539  -8.847   6.111  1.00  0.00    -0.003 A 
ATOM     13  C   UNL     1       2.781  -6.740   5.725  1.00  0.00     0.042 A 
ATOM     14  C   UNL     1       2.662  -8.032   6.379  1.00  0.00     0.028 A 
ATOM     15  C   UNL     1       2.112  -6.585   4.429  1.00  0.00     0.041 A 
ATOM     16  C   UNL     1       1.218  -7.665   4.025  1.00  0.00     0.042 A 
ATOM     17  C   UNL     1       0.784  -8.698   4.892  1.00  0.00     0.028 A 
ATOM     18  Cl  UNL     1       3.780  -5.606   6.107  1.00  0.00    -0.084 Cl
ATOM     19  Cl  UNL     1       0.605  -7.586   2.432  1.00  0.00    -0.084 Cl
ENDBRANCH   8  12
BRANCH   7  20
ATOM     20  N   UNL     1      -2.512 -12.355  11.052  1.00  0.00     0.062 N 
ATOM     21  O   UNL     1      -2.780 -12.003  12.141  1.00  0.00    -0.258 OA
ATOM     22  O   UNL     1      -3.448 -13.023  10.433  1.00  0.00    -0.258 OA
ENDBRANCH   7  20
TORSDOF 2
ENDMDL
MODEL 9
REMARK VINA RESULT:    -3.906     11.186     12.093
REMARK INTER + INTRA:          -4.659
REMARK INTER:                  -4.368
REMARK INTRA:                  -0.291
REMARK UNBOUND:                -0.296
REMARK SMILES O=[N+]([O-])c1ccc2c(c1)N[C@@H](c1cc(Cl)cc(Cl)c1)N2
REMARK SMILES IDX 7 1 8 2 5 3 6 4 20 5 10 6 4 7 11 8 9 9 12 12 14 13 13 14
REMARK SMILES IDX 16 15 17 16 19 17 15 18 18 19 2 20 3 21 1 22
REMARK H PARENT 20 10 10 11
ROOT
ATOM      1  C   UNL     1       2.227  -9.598   6.118  1.00  0.00     0.060 A 
ATOM      2  C   UNL     1       1.247  -8.964   6.844  1.00  0.00     0.066 A 
ATOM      3  C   UNL     1       2.103 -11.507   7.493  1.00  0.00     0.088 A 
ATOM      4  C   UNL     1       2.476 -10.881   6.273  1.00  0.00     0.035 A 
ATOM      5  N   UNL     1       2.664  -8.729   5.044  1.00  0.00    -0.360 N 
ATOM      6  N   UNL     1       1.059  -7.738   6.201  1.00  0.00    -0.360 N 
ATOM      7  C   UNL     1       1.217 -10.836   8.334  1.00  0.00     0.271 A 
ATOM      8  C   UNL     1       1.556  -7.939   4.889  1.00  0.00     0.205 C 
ATOM      9  C   UNL     1       0.757  -9.530   7.978  1.00  0.00     0.113 A 
ATOM     10  H   UNL     1       3.561  -8.710   4.537  1.00  0.00     0.163 HD
ATOM     11  H   UNL     1       0.649  -6.879   6.594  1.00  0.00     0.163 HD
ENDROOT
BRANCH   8  12
ATOM     12  C   UNL     1       1.662  -6.651   4.025  1.00  0.00    -0.003 A 
ATOM     13  C   UNL     1       1.296  -4.205   3.901  1.00  0.00     0.042 A 
ATOM     14  C   UNL     1       1.797  -5.371   4.609  1.00  0.00     0.028 A 
ATOM     15  C   UNL     1       1.231  -4.290   2.438  1.00  0.00     0.041 A 
ATOM     16  C   UNL     1       1.471  -5.605   1.852  1.00  0.00     0.042 A 
ATOM     17  C   UNL     1       1.515  -6.807   2.600  1.00  0.00     0.028 A 
ATOM     18  Cl  UNL     1       1.102  -2.779   4.501  1.00  0.00    -0.084 Cl
ATOM     19  Cl  UNL     1       1.603  -5.663   0.149  1.00  0.00    -0.084 Cl
ENDBRANCH   8  12
BRANCH   7  20
ATOM     20  N   UNL     1       0.662 -11.398   9.466  1.00  0.00     0.062 N 
ATOM     21  O   UNL     1      -0.388 -11.924   9.412  1.00  0.00    -0.258 OA
ATOM     22  O   UNL     1       1.328 -11.586  10.572  1.00  0.00    -0.258 OA
ENDBRANCH   7  20
TORSDOF 2
ENDMDL
