MODEL 1
REMARK VINA RESULT:    -4.100      0.000      0.000
REMARK INTER + INTRA:          -4.894
REMARK INTER:                  -4.579
REMARK INTRA:                  -0.315
REMARK UNBOUND:                -0.315
REMARK SMILES O=[N+]([O-])c1ccc2c(c1)N[C@@H](c1cc(Cl)cc(Cl)c1)N2
REMARK SMILES IDX 7 1 8 2 5 3 6 4 20 5 10 6 4 7 11 8 9 9 12 12 14 13 13 14
REMARK SMILES IDX 16 15 17 16 19 17 15 18 18 19 2 20 3 21 1 22
REMARK H PARENT 20 10 10 11
ROOT
ATOM      1  C   UNL     1      -5.274  -9.042  -6.101  1.00  0.00     0.060 A 
ATOM      2  C   UNL     1      -4.577  -8.832  -7.266  1.00  0.00     0.066 A 
ATOM      3  C   UNL     1      -6.502 -10.800  -7.076  1.00  0.00     0.088 A 
ATOM      4  C   UNL     1      -6.020 -10.113  -5.929  1.00  0.00     0.035 A 
ATOM      5  N   UNL     1      -4.820  -8.102  -5.095  1.00  0.00    -0.360 N 
ATOM      6  N   UNL     1      -3.679  -7.803  -6.969  1.00  0.00    -0.360 N 
ATOM      7  C   UNL     1      -5.919 -10.515  -8.309  1.00  0.00     0.271 A 
ATOM      8  C   UNL     1      -3.560  -7.826  -5.556  1.00  0.00     0.205 C 
ATOM      9  C   UNL     1      -4.903  -9.513  -8.395  1.00  0.00     0.113 A 
ATOM     10  H   UNL     1      -5.309  -7.741  -4.264  1.00  0.00     0.163 HD
ATOM     11  H   UNL     1      -3.209  -7.168  -7.629  1.00  0.00     0.163 HD
ENDROOT
BRANCH   8  12
ATOM     12  C   UNL     1      -2.778  -6.629  -4.945  1.00  0.00    -0.003 A 
ATOM     13  C   UNL     1      -2.155  -5.395  -2.891  1.00  0.00     0.042 A 
ATOM     14  C   UNL     1      -2.310  -6.647  -3.612  1.00  0.00     0.028 A 
ATOM     15  C   UNL     1      -1.905  -4.191  -3.692  1.00  0.00     0.041 A 
ATOM     16  C   UNL     1      -2.051  -4.330  -5.137  1.00  0.00     0.042 A 
ATOM     17  C   UNL     1      -2.639  -5.454  -5.768  1.00  0.00     0.028 A 
ATOM     18  Cl  UNL     1      -1.930  -5.241  -1.356  1.00  0.00    -0.084 Cl
ATOM     19  Cl  UNL     1      -1.559  -2.992  -6.080  1.00  0.00    -0.084 Cl
ENDBRANCH   8  12
BRANCH   7  20
ATOM     20  N   UNL     1      -6.190 -11.219  -9.465  1.00  0.00     0.062 N 
ATOM     21  O   UNL     1      -5.429 -11.205 -10.360  1.00  0.00    -0.258 OA
ATOM     22  O   UNL     1      -7.150 -12.098  -9.558  1.00  0.00    -0.258 OA
ENDBRANCH   7  20
TORSDOF 2
ENDMDL
MODEL 2
REMARK VINA RESULT:    -4.095      0.990      2.649
REMARK INTER + INTRA:          -4.889
REMARK INTER:                  -4.573
REMARK INTRA:                  -0.316
REMARK UNBOUND:                -0.315
REMARK SMILES O=[N+]([O-])c1ccc2c(c1)N[C@@H](c1cc(Cl)cc(Cl)c1)N2
REMARK SMILES IDX 7 1 8 2 5 3 6 4 20 5 10 6 4 7 11 8 9 9 12 12 14 13 13 14
REMARK SMILES IDX 16 15 17 16 19 17 15 18 18 19 2 20 3 21 1 22
REMARK H PARENT 20 10 10 11
ROOT
ATOM      1  C   UNL     1      -4.416  -8.761  -7.361  1.00  0.00     0.060 A 
ATOM      2  C   UNL     1      -5.206  -9.102  -6.289  1.00  0.00     0.066 A 
ATOM      3  C   UNL     1      -5.506 -10.324  -8.746  1.00  0.00     0.088 A 
ATOM      4  C   UNL     1      -4.700  -9.165  -8.580  1.00  0.00     0.035 A 
ATOM      5  N   UNL     1      -3.489  -7.721  -6.960  1.00  0.00    -0.360 N 
ATOM      6  N   UNL     1      -4.795  -8.257  -5.255  1.00  0.00    -0.360 N 
ATOM      7  C   UNL     1      -6.218 -10.794  -7.644  1.00  0.00     0.271 A 
ATOM      8  C   UNL     1      -4.169  -7.165  -5.908  1.00  0.00     0.205 C 
ATOM      9  C   UNL     1      -6.078 -10.139  -6.381  1.00  0.00     0.113 A 
ATOM     10  H   UNL     1      -2.572  -7.469  -7.356  1.00  0.00     0.163 HD
ATOM     11  H   UNL     1      -4.920  -8.397  -4.242  1.00  0.00     0.163 HD
ENDROOT
BRANCH   8  12
ATOM     12  C   UNL     1      -3.426  -6.177  -4.966  1.00  0.00    -0.003 A 
ATOM     13  C   UNL     1      -1.857  -4.270  -4.788  1.00  0.00     0.042 A 
ATOM     14  C   UNL     1      -3.014  -4.898  -5.403  1.00  0.00     0.028 A 
ATOM     15  C   UNL     1      -1.540  -4.661  -3.410  1.00  0.00     0.041 A 
ATOM     16  C   UNL     1      -2.283  -5.795  -2.869  1.00  0.00     0.042 A 
ATOM     17  C   UNL     1      -3.084  -6.662  -3.653  1.00  0.00     0.028 A 
ATOM     18  Cl  UNL     1      -1.099  -3.017  -5.323  1.00  0.00    -0.084 Cl
ATOM     19  Cl  UNL     1      -2.066  -6.118  -1.204  1.00  0.00    -0.084 Cl
ENDBRANCH   8  12
BRANCH   7  20
ATOM     20  N   UNL     1      -7.148 -11.811  -7.712  1.00  0.00     0.062 N 
ATOM     21  O   UNL     1      -7.933 -11.955  -6.849  1.00  0.00    -0.258 OA
ATOM     22  O   UNL     1      -7.368 -12.509  -8.793  1.00  0.00    -0.258 OA
ENDBRANCH   7  20
TORSDOF 2
ENDMDL
MODEL 3
REMARK VINA RESULT:    -4.049      3.141      4.538
REMARK INTER + INTRA:          -4.838
REMARK INTER:                  -4.533
REMARK INTRA:                  -0.306
REMARK UNBOUND:                -0.315
REMARK SMILES O=[N+]([O-])c1ccc2c(c1)N[C@@H](c1cc(Cl)cc(Cl)c1)N2
REMARK SMILES IDX 7 1 8 2 5 3 6 4 20 5 10 6 4 7 11 8 9 9 12 12 14 13 13 14
REMARK SMILES IDX 16 15 17 16 19 17 15 18 18 19 2 20 3 21 1 22
REMARK H PARENT 20 10 10 11
ROOT
ATOM      1  C   UNL     1      -4.984 -10.271 -10.348  1.00  0.00     0.060 A 
ATOM      2  C   UNL     1      -3.614 -10.361 -10.298  1.00  0.00     0.066 A 
ATOM      3  C   UNL     1      -5.073 -11.672 -12.240  1.00  0.00     0.088 A 
ATOM      4  C   UNL     1      -5.698 -11.065 -11.117  1.00  0.00     0.035 A 
ATOM      5  N   UNL     1      -5.447  -9.426  -9.266  1.00  0.00    -0.360 N 
ATOM      6  N   UNL     1      -3.243  -9.614  -9.177  1.00  0.00    -0.360 N 
ATOM      7  C   UNL     1      -3.682 -11.663 -12.305  1.00  0.00     0.271 A 
ATOM      8  C   UNL     1      -4.413  -9.561  -8.377  1.00  0.00     0.205 C 
ATOM      9  C   UNL     1      -2.931 -11.006 -11.281  1.00  0.00     0.113 A 
ATOM     10  H   UNL     1      -6.315  -8.877  -9.185  1.00  0.00     0.163 HD
ATOM     11  H   UNL     1      -2.324  -9.195  -8.977  1.00  0.00     0.163 HD
ENDROOT
BRANCH   8  12
ATOM     12  C   UNL     1      -4.331  -8.596  -7.162  1.00  0.00    -0.003 A 
ATOM     13  C   UNL     1      -4.654  -6.287  -6.325  1.00  0.00     0.042 A 
ATOM     14  C   UNL     1      -5.133  -7.436  -7.076  1.00  0.00     0.028 A 
ATOM     15  C   UNL     1      -3.708  -6.551  -5.235  1.00  0.00     0.041 A 
ATOM     16  C   UNL     1      -3.177  -7.908  -5.150  1.00  0.00     0.042 A 
ATOM     17  C   UNL     1      -3.326  -8.881  -6.169  1.00  0.00     0.028 A 
ATOM     18  Cl  UNL     1      -5.258  -4.851  -6.358  1.00  0.00    -0.084 Cl
ATOM     19  Cl  UNL     1      -2.243  -8.270  -3.765  1.00  0.00    -0.084 Cl
ENDBRANCH   8  12
BRANCH   7  20
ATOM     20  N   UNL     1      -2.956 -12.347 -13.258  1.00  0.00     0.062 N 
ATOM     21  O   UNL     1      -2.962 -11.989 -14.378  1.00  0.00    -0.258 OA
ATOM     22  O   UNL     1      -2.065 -13.255 -12.965  1.00  0.00    -0.258 OA
ENDBRANCH   7  20
TORSDOF 2
ENDMDL
MODEL 4
REMARK VINA RESULT:    -3.949      5.130      7.594
REMARK INTER + INTRA:          -4.726
REMARK INTER:                  -4.426
REMARK INTRA:                  -0.300
REMARK UNBOUND:                -0.315
REMARK SMILES O=[N+]([O-])c1ccc2c(c1)N[C@@H](c1cc(Cl)cc(Cl)c1)N2
REMARK SMILES IDX 7 1 8 2 5 3 6 4 20 5 10 6 4 7 11 8 9 9 12 12 14 13 13 14
REMARK SMILES IDX 16 15 17 16 19 17 15 18 18 19 2 20 3 21 1 22
REMARK H PARENT 20 10 10 11
ROOT
ATOM      1  C   UNL     1      -2.838  -5.849  -5.595  1.00  0.00     0.060 A 
ATOM      2  C   UNL     1      -3.350  -6.258  -4.387  1.00  0.00     0.066 A 
ATOM      3  C   UNL     1      -1.399  -4.311  -4.540  1.00  0.00     0.088 A 
ATOM      4  C   UNL     1      -1.759  -5.099  -5.666  1.00  0.00     0.035 A 
ATOM      5  N   UNL     1      -3.479  -6.592  -6.662  1.00  0.00    -0.360 N 
ATOM      6  N   UNL     1      -4.265  -7.265  -4.704  1.00  0.00    -0.360 N 
ATOM      7  C   UNL     1      -2.001  -4.596  -3.316  1.00  0.00     0.271 A 
ATOM      8  C   UNL     1      -3.869  -7.720  -5.988  1.00  0.00     0.205 C 
ATOM      9  C   UNL     1      -2.991  -5.625  -3.239  1.00  0.00     0.113 A 
ATOM     10  H   UNL     1      -3.606  -6.343  -7.653  1.00  0.00     0.163 HD
ATOM     11  H   UNL     1      -5.052  -7.602  -4.133  1.00  0.00     0.163 HD
ENDROOT
BRANCH   8  12
ATOM     12  C   UNL     1      -4.862  -8.702  -6.669  1.00  0.00    -0.003 A 
ATOM     13  C   UNL     1      -6.527 -10.509  -6.361  1.00  0.00     0.042 A 
ATOM     14  C   UNL     1      -5.992  -9.210  -5.989  1.00  0.00     0.028 A 
ATOM     15  C   UNL     1      -6.295 -10.955  -7.740  1.00  0.00     0.041 A 
ATOM     16  C   UNL     1      -5.371 -10.155  -8.535  1.00  0.00     0.042 A 
ATOM     17  C   UNL     1      -4.526  -9.153  -7.996  1.00  0.00     0.028 A 
ATOM     18  Cl  UNL     1      -7.567 -11.340  -5.551  1.00  0.00    -0.084 Cl
ATOM     19  Cl  UNL     1      -5.261 -10.549 -10.195  1.00  0.00    -0.084 Cl
ENDBRANCH   8  12
BRANCH   7  20
ATOM     20  N   UNL     1      -1.628  -4.010  -2.125  1.00  0.00     0.062 N 
ATOM     21  O   UNL     1      -1.050  -2.986  -2.123  1.00  0.00    -0.258 OA
ATOM     22  O   UNL     1      -2.070  -4.406  -0.962  1.00  0.00    -0.258 OA
ENDBRANCH   7  20
TORSDOF 2
ENDMDL
MODEL 5
REMARK VINA RESULT:    -3.887      5.121      7.791
REMARK INTER + INTRA:          -4.657
REMARK INTER:                  -4.340
REMARK INTRA:                  -0.317
REMARK UNBOUND:                -0.315
REMARK SMILES O=[N+]([O-])c1ccc2c(c1)N[C@@H](c1cc(Cl)cc(Cl)c1)N2
REMARK SMILES IDX 7 1 8 2 5 3 6 4 20 5 10 6 4 7 11 8 9 9 12 12 14 13 13 14
REMARK SMILES IDX 16 15 17 16 19 17 15 18 18 19 2 20 3 21 1 22
REMARK H PARENT 20 10 10 11
ROOT
ATOM      1  C   UNL     1      -2.897  -5.850  -5.573  1.00  0.00     0.060 A 
ATOM      2  C   UNL     1      -3.114  -6.405  -4.335  1.00  0.00     0.066 A 
ATOM      3  C   UNL     1      -1.676  -4.069  -4.632  1.00  0.00     0.088 A 
ATOM      4  C   UNL     1      -2.029  -4.877  -5.747  1.00  0.00     0.035 A 
ATOM      5  N   UNL     1      -3.521  -6.679  -6.585  1.00  0.00    -0.360 N 
ATOM      6  N   UNL     1      -3.829  -7.579  -4.586  1.00  0.00    -0.360 N 
ATOM      7  C   UNL     1      -2.004  -4.525  -3.357  1.00  0.00     0.271 A 
ATOM      8  C   UNL     1      -3.550  -7.889  -5.942  1.00  0.00     0.205 C 
ATOM      9  C   UNL     1      -2.726  -5.750  -3.210  1.00  0.00     0.113 A 
ATOM     10  H   UNL     1      -3.852  -6.428  -7.528  1.00  0.00     0.163 HD
ATOM     11  H   UNL     1      -4.427  -8.104  -3.932  1.00  0.00     0.163 HD
ENDROOT
BRANCH   8  12
ATOM     12  C   UNL     1      -4.403  -9.042  -6.540  1.00  0.00    -0.003 A 
ATOM     13  C   UNL     1      -5.259 -10.136  -8.590  1.00  0.00     0.042 A 
ATOM     14  C   UNL     1      -4.162  -9.552  -7.835  1.00  0.00     0.028 A 
ATOM     15  C   UNL     1      -6.367 -10.711  -7.818  1.00  0.00     0.041 A 
ATOM     16  C   UNL     1      -6.363 -10.450  -6.383  1.00  0.00     0.042 A 
ATOM     17  C   UNL     1      -5.519  -9.502  -5.753  1.00  0.00     0.028 A 
ATOM     18  Cl  UNL     1      -5.247 -10.481 -10.110  1.00  0.00    -0.084 Cl
ATOM     19  Cl  UNL     1      -7.530 -11.289  -5.458  1.00  0.00    -0.084 Cl
ENDBRANCH   8  12
BRANCH   7  20
ATOM     20  N   UNL     1      -1.584  -3.913  -2.194  1.00  0.00     0.062 N 
ATOM     21  O   UNL     1      -0.944  -2.928  -2.240  1.00  0.00    -0.258 OA
ATOM     22  O   UNL     1      -2.041  -4.231  -1.013  1.00  0.00    -0.258 OA
ENDBRANCH   7  20
TORSDOF 2
ENDMDL
MODEL 6
REMARK VINA RESULT:    -3.794      1.085      2.288
REMARK INTER + INTRA:          -4.553
REMARK INTER:                  -4.262
REMARK INTRA:                  -0.291
REMARK UNBOUND:                -0.315
REMARK SMILES O=[N+]([O-])c1ccc2c(c1)N[C@@H](c1cc(Cl)cc(Cl)c1)N2
REMARK SMILES IDX 7 1 8 2 5 3 6 4 20 5 10 6 4 7 11 8 9 9 12 12 14 13 13 14
REMARK SMILES IDX 16 15 17 16 19 17 15 18 18 19 2 20 3 21 1 22
REMARK H PARENT 20 10 10 11
ROOT
ATOM      1  C   UNL     1      -5.190  -9.068  -6.998  1.00  0.00     0.060 A 
ATOM      2  C   UNL     1      -4.249  -8.663  -7.914  1.00  0.00     0.066 A 
ATOM      3  C   UNL     1      -6.027 -10.698  -8.479  1.00  0.00     0.088 A 
ATOM      4  C   UNL     1      -5.881 -10.176  -7.165  1.00  0.00     0.035 A 
ATOM      5  N   UNL     1      -5.055  -8.276  -5.791  1.00  0.00    -0.360 N 
ATOM      6  N   UNL     1      -3.521  -7.662  -7.265  1.00  0.00    -0.360 N 
ATOM      7  C   UNL     1      -5.186 -10.212  -9.478  1.00  0.00     0.271 A 
ATOM      8  C   UNL     1      -3.742  -7.894  -5.884  1.00  0.00     0.205 C 
ATOM      9  C   UNL     1      -4.249  -9.177  -9.172  1.00  0.00     0.113 A 
ATOM     10  H   UNL     1      -5.752  -8.060  -5.065  1.00  0.00     0.163 HD
ATOM     11  H   UNL     1      -2.950  -6.921  -7.695  1.00  0.00     0.163 HD
ENDROOT
BRANCH   8  12
ATOM     12  C   UNL     1      -3.212  -6.778  -4.940  1.00  0.00    -0.003 A 
ATOM     13  C   UNL     1      -2.021  -4.615  -4.756  1.00  0.00     0.042 A 
ATOM     14  C   UNL     1      -3.030  -5.450  -5.386  1.00  0.00     0.028 A 
ATOM     15  C   UNL     1      -1.669  -4.929  -3.366  1.00  0.00     0.041 A 
ATOM     16  C   UNL     1      -2.205  -6.174  -2.826  1.00  0.00     0.042 A 
ATOM     17  C   UNL     1      -2.817  -7.179  -3.614  1.00  0.00     0.028 A 
ATOM     18  Cl  UNL     1      -1.493  -3.250  -5.292  1.00  0.00    -0.084 Cl
ATOM     19  Cl  UNL     1      -1.971  -6.436  -1.153  1.00  0.00    -0.084 Cl
ENDBRANCH   8  12
BRANCH   7  20
ATOM     20  N   UNL     1      -5.124 -10.742 -10.751  1.00  0.00     0.062 N 
ATOM     21  O   UNL     1      -4.378 -11.618 -10.993  1.00  0.00    -0.258 OA
ATOM     22  O   UNL     1      -6.009 -10.487 -11.677  1.00  0.00    -0.258 OA
ENDBRANCH   7  20
TORSDOF 2
ENDMDL
MODEL 7
REMARK VINA RESULT:    -3.793      1.470      2.124
REMARK INTER + INTRA:          -4.552
REMARK INTER:                  -4.252
REMARK INTRA:                  -0.300
REMARK UNBOUND:                -0.315
REMARK SMILES O=[N+]([O-])c1ccc2c(c1)N[C@@H](c1cc(Cl)cc(Cl)c1)N2
REMARK SMILES IDX 7 1 8 2 5 3 6 4 20 5 10 6 4 7 11 8 9 9 12 12 14 13 13 14
REMARK SMILES IDX 16 15 17 16 19 17 15 18 18 19 2 20 3 21 1 22
REMARK H PARENT 20 10 10 11
ROOT
ATOM      1  C   UNL     1      -4.789  -9.207  -6.946  1.00  0.00     0.060 A 
ATOM      2  C   UNL     1      -5.458  -9.245  -5.746  1.00  0.00     0.066 A 
ATOM      3  C   UNL     1      -6.230 -10.822  -7.876  1.00  0.00     0.088 A 
ATOM      4  C   UNL     1      -5.282  -9.774  -8.026  1.00  0.00     0.035 A 
ATOM      5  N   UNL     1      -3.703  -8.252  -6.858  1.00  0.00    -0.360 N 
ATOM      6  N   UNL     1      -4.815  -8.298  -4.945  1.00  0.00    -0.360 N 
ATOM      7  C   UNL     1      -6.833 -10.991  -6.631  1.00  0.00     0.271 A 
ATOM      8  C   UNL     1      -4.164  -7.433  -5.860  1.00  0.00     0.205 C 
ATOM      9  C   UNL     1      -6.448 -10.152  -5.540  1.00  0.00     0.113 A 
ATOM     10  H   UNL     1      -2.826  -8.201  -7.396  1.00  0.00     0.163 HD
ATOM     11  H   UNL     1      -4.815  -8.241  -3.916  1.00  0.00     0.163 HD
ENDROOT
BRANCH   8  12
ATOM     12  C   UNL     1      -3.191  -6.408  -5.214  1.00  0.00    -0.003 A 
ATOM     13  C   UNL     1      -2.271  -5.465  -3.117  1.00  0.00     0.042 A 
ATOM     14  C   UNL     1      -2.640  -6.613  -3.928  1.00  0.00     0.028 A 
ATOM     15  C   UNL     1      -1.917  -4.231  -3.830  1.00  0.00     0.041 A 
ATOM     16  C   UNL     1      -2.177  -4.213  -5.265  1.00  0.00     0.042 A 
ATOM     17  C   UNL     1      -2.952  -5.188  -5.941  1.00  0.00     0.028 A 
ATOM     18  Cl  UNL     1      -1.924  -5.487  -1.598  1.00  0.00    -0.084 Cl
ATOM     19  Cl  UNL     1      -1.576  -2.864  -6.126  1.00  0.00    -0.084 Cl
ENDBRANCH   8  12
BRANCH   7  20
ATOM     20  N   UNL     1      -7.874 -11.867  -6.398  1.00  0.00     0.062 N 
ATOM     21  O   UNL     1      -8.514 -11.779  -5.416  1.00  0.00    -0.258 OA
ATOM     22  O   UNL     1      -8.353 -12.669  -7.311  1.00  0.00    -0.258 OA
ENDBRANCH   7  20
TORSDOF 2
ENDMDL
MODEL 8
REMARK VINA RESULT:    -3.776      4.035      5.852
REMARK INTER + INTRA:          -4.533
REMARK INTER:                  -4.242
REMARK INTRA:                  -0.291
REMARK UNBOUND:                -0.315
REMARK SMILES O=[N+]([O-])c1ccc2c(c1)N[C@@H](c1cc(Cl)cc(Cl)c1)N2
REMARK SMILES IDX 7 1 8 2 5 3 6 4 20 5 10 6 4 7 11 8 9 9 12 12 14 13 13 14
REMARK SMILES IDX 16 15 17 16 19 17 15 18 18 19 2 20 3 21 1 22
REMARK H PARENT 20 10 10 11
ROOT
ATOM      1  C   UNL     1      -5.037 -11.064 -11.452  1.00  0.00     0.060 A 
ATOM      2  C   UNL     1      -3.684 -10.992 -11.224  1.00  0.00     0.066 A 
ATOM      3  C   UNL     1      -4.704 -12.278 -13.443  1.00  0.00     0.088 A 
ATOM      4  C   UNL     1      -5.538 -11.862 -12.370  1.00  0.00     0.035 A 
ATOM      5  N   UNL     1      -5.740 -10.389 -10.378  1.00  0.00    -0.360 N 
ATOM      6  N   UNL     1      -3.558 -10.316 -10.007  1.00  0.00    -0.360 N 
ATOM      7  C   UNL     1      -3.329 -12.094 -13.318  1.00  0.00     0.271 A 
ATOM      8  C   UNL     1      -4.815 -10.482  -9.371  1.00  0.00     0.205 C 
ATOM      9  C   UNL     1      -2.805 -11.452 -12.153  1.00  0.00     0.113 A 
ATOM     10  H   UNL     1      -6.675  -9.959 -10.373  1.00  0.00     0.163 HD
ATOM     11  H   UNL     1      -2.735  -9.810  -9.652  1.00  0.00     0.163 HD
ENDROOT
BRANCH   8  12
ATOM     12  C   UNL     1      -5.013  -9.635  -8.083  1.00  0.00    -0.003 A 
ATOM     13  C   UNL     1      -4.043  -7.965  -6.534  1.00  0.00     0.042 A 
ATOM     14  C   UNL     1      -4.337  -8.410  -7.886  1.00  0.00     0.028 A 
ATOM     15  C   UNL     1      -4.933  -8.440  -5.468  1.00  0.00     0.041 A 
ATOM     16  C   UNL     1      -5.889  -9.478  -5.834  1.00  0.00     0.042 A 
ATOM     17  C   UNL     1      -5.842 -10.203  -7.051  1.00  0.00     0.028 A 
ATOM     18  Cl  UNL     1      -3.075  -6.810  -6.137  1.00  0.00    -0.084 Cl
ATOM     19  Cl  UNL     1      -7.059  -9.881  -4.655  1.00  0.00    -0.084 Cl
ENDBRANCH   8  12
BRANCH   7  20
ATOM     20  N   UNL     1      -2.406 -12.590 -14.215  1.00  0.00     0.062 N 
ATOM     21  O   UNL     1      -2.050 -11.934 -15.124  1.00  0.00    -0.258 OA
ATOM     22  O   UNL     1      -1.716 -13.678 -14.005  1.00  0.00    -0.258 OA
ENDBRANCH   7  20
TORSDOF 2
ENDMDL
MODEL 9
REMARK VINA RESULT:    -3.343      5.208      7.700
REMARK INTER + INTRA:          -4.049
REMARK INTER:                  -3.754
REMARK INTRA:                  -0.296
REMARK UNBOUND:                -0.315
REMARK SMILES O=[N+]([O-])c1ccc2c(c1)N[C@@H](c1cc(Cl)cc(Cl)c1)N2
REMARK SMILES IDX 7 1 8 2 5 3 6 4 20 5 10 6 4 7 11 8 9 9 12 12 14 13 13 14
REMARK SMILES IDX 16 15 17 16 19 17 15 18 18 19 2 20 3 21 1 22
REMARK H PARENT 20 10 10 11
ROOT
ATOM      1  C   UNL     1      -4.651  -7.618  -7.005  1.00  0.00     0.060 A 
ATOM      2  C   UNL     1      -3.894  -8.571  -6.365  1.00  0.00     0.066 A 
ATOM      3  C   UNL     1      -4.317  -6.082  -5.251  1.00  0.00     0.088 A 
ATOM      4  C   UNL     1      -4.668  -6.367  -6.598  1.00  0.00     0.035 A 
ATOM      5  N   UNL     1      -5.127  -8.152  -8.265  1.00  0.00    -0.360 N 
ATOM      6  N   UNL     1      -3.873  -9.661  -7.239  1.00  0.00    -0.360 N 
ATOM      7  C   UNL     1      -3.671  -7.072  -4.514  1.00  0.00     0.271 A 
ATOM      8  C   UNL     1      -4.178  -9.110  -8.510  1.00  0.00     0.205 C 
ATOM      9  C   UNL     1      -3.431  -8.351  -5.107  1.00  0.00     0.113 A 
ATOM     10  H   UNL     1      -5.950  -7.885  -8.824  1.00  0.00     0.163 HD
ATOM     11  H   UNL     1      -3.679 -10.646  -7.011  1.00  0.00     0.163 HD
ENDROOT
BRANCH   8  12
ATOM     12  C   UNL     1      -4.432 -10.155  -9.632  1.00  0.00    -0.003 A 
ATOM     13  C   UNL     1      -3.618 -11.170 -11.739  1.00  0.00     0.042 A 
ATOM     14  C   UNL     1      -3.373 -10.718 -10.380  1.00  0.00     0.028 A 
ATOM     15  C   UNL     1      -4.988 -11.582 -12.068  1.00  0.00     0.041 A 
ATOM     16  C   UNL     1      -6.011 -11.295 -11.068  1.00  0.00     0.042 A 
ATOM     17  C   UNL     1      -5.806 -10.451  -9.948  1.00  0.00     0.028 A 
ATOM     18  Cl  UNL     1      -2.532 -11.545 -12.792  1.00  0.00    -0.084 Cl
ATOM     19  Cl  UNL     1      -7.559 -11.957 -11.357  1.00  0.00    -0.084 Cl
ENDBRANCH   8  12
BRANCH   7  20
ATOM     20  N   UNL     1      -3.145  -6.869  -3.255  1.00  0.00     0.062 N 
ATOM     21  O   UNL     1      -2.180  -7.447  -2.914  1.00  0.00    -0.258 OA
ATOM     22  O   UNL     1      -3.522  -5.895  -2.470  1.00  0.00    -0.258 OA
ENDBRANCH   7  20
TORSDOF 2
ENDMDL
