MODEL 1
REMARK VINA RESULT:    -4.449      0.000      0.000
REMARK INTER + INTRA:          -5.266
REMARK INTER:                  -4.970
REMARK INTRA:                  -0.296
REMARK UNBOUND:                -0.296
REMARK SMILES O=[N+]([O-])c1ccc2c(c1)N[C@@H](c1cc(Cl)cc(Cl)c1)N2
REMARK SMILES IDX 7 1 8 2 5 3 6 4 20 5 10 6 4 7 11 8 9 9 12 12 14 13 13 14
REMARK SMILES IDX 16 15 17 16 19 17 15 18 18 19 2 20 3 21 1 22
REMARK H PARENT 20 10 10 11
ROOT
ATOM      1  C   UNL     1       0.386   2.089   1.393  1.00  0.00     0.060 A 
ATOM      2  C   UNL     1      -0.413   2.062   0.275  1.00  0.00     0.066 A 
ATOM      3  C   UNL     1       0.842   4.380   1.092  1.00  0.00     0.088 A 
ATOM      4  C   UNL     1       0.798   3.224   1.916  1.00  0.00     0.035 A 
ATOM      5  N   UNL     1       0.418   0.768   1.989  1.00  0.00    -0.360 N 
ATOM      6  N   UNL     1      -0.896   0.753   0.208  1.00  0.00    -0.360 N 
ATOM      7  C   UNL     1       0.161   4.350  -0.123  1.00  0.00     0.271 A 
ATOM      8  C   UNL     1      -0.764   0.252   1.528  1.00  0.00     0.205 C 
ATOM      9  C   UNL     1      -0.510   3.154  -0.527  1.00  0.00     0.113 A 
ATOM     10  H   UNL     1       1.132   0.337   2.593  1.00  0.00     0.163 HD
ATOM     11  H   UNL     1      -1.266   0.260  -0.617  1.00  0.00     0.163 HD
ENDROOT
BRANCH   8  12
ATOM     12  C   UNL     1      -1.033  -1.271   1.681  1.00  0.00    -0.003 A 
ATOM     13  C   UNL     1      -2.558  -3.163   1.202  1.00  0.00     0.042 A 
ATOM     14  C   UNL     1      -1.836  -1.982   0.760  1.00  0.00     0.028 A 
ATOM     15  C   UNL     1      -1.996  -3.902   2.338  1.00  0.00     0.041 A 
ATOM     16  C   UNL     1      -0.891  -3.263   3.046  1.00  0.00     0.042 A 
ATOM     17  C   UNL     1      -0.510  -1.911   2.861  1.00  0.00     0.028 A 
ATOM     18  Cl  UNL     1      -3.692  -3.892   0.420  1.00  0.00    -0.084 Cl
ATOM     19  Cl  UNL     1      -0.102  -4.210   4.230  1.00  0.00    -0.084 Cl
ENDBRANCH   8  12
BRANCH   7  20
ATOM     20  N   UNL     1       0.001   5.452  -0.938  1.00  0.00     0.062 N 
ATOM     21  O   UNL     1      -1.069   5.757  -1.320  1.00  0.00    -0.258 OA
ATOM     22  O   UNL     1       0.942   6.333  -1.144  1.00  0.00    -0.258 OA
ENDBRANCH   7  20
TORSDOF 2
ENDMDL
MODEL 2
REMARK VINA RESULT:    -4.448      1.029      2.689
REMARK INTER + INTRA:          -5.264
REMARK INTER:                  -4.968
REMARK INTRA:                  -0.296
REMARK UNBOUND:                -0.296
REMARK SMILES O=[N+]([O-])c1ccc2c(c1)N[C@@H](c1cc(Cl)cc(Cl)c1)N2
REMARK SMILES IDX 7 1 8 2 5 3 6 4 20 5 10 6 4 7 11 8 9 9 12 12 14 13 13 14
REMARK SMILES IDX 16 15 17 16 19 17 15 18 18 19 2 20 3 21 1 22
REMARK H PARENT 20 10 10 11
ROOT
ATOM      1  C   UNL     1      -0.655   2.075   0.244  1.00  0.00     0.060 A 
ATOM      2  C   UNL     1       0.163   2.148   1.346  1.00  0.00     0.066 A 
ATOM      3  C   UNL     1       0.123   4.151  -0.552  1.00  0.00     0.088 A 
ATOM      4  C   UNL     1      -0.516   2.901  -0.771  1.00  0.00     0.035 A 
ATOM      5  N   UNL     1      -1.412   0.840   0.291  1.00  0.00    -0.360 N 
ATOM      6  N   UNL     1      -0.059   0.956   2.040  1.00  0.00    -0.360 N 
ATOM      7  C   UNL     1       0.850   4.323   0.624  1.00  0.00     0.271 A 
ATOM      8  C   UNL     1      -0.590   0.068   1.070  1.00  0.00     0.205 C 
ATOM      9  C   UNL     1       0.889   3.270   1.590  1.00  0.00     0.113 A 
ATOM     10  H   UNL     1      -2.317   0.606  -0.142  1.00  0.00     0.163 HD
ATOM     11  H   UNL     1       0.122   0.764   3.036  1.00  0.00     0.163 HD
ENDROOT
BRANCH   8  12
ATOM     12  C   UNL     1      -1.131  -1.275   1.638  1.00  0.00    -0.003 A 
ATOM     13  C   UNL     1      -0.697  -3.233   3.089  1.00  0.00     0.042 A 
ATOM     14  C   UNL     1      -0.681  -1.796   2.872  1.00  0.00     0.028 A 
ATOM     15  C   UNL     1      -1.682  -4.012   2.331  1.00  0.00     0.041 A 
ATOM     16  C   UNL     1      -2.401  -3.301   1.279  1.00  0.00     0.042 A 
ATOM     17  C   UNL     1      -2.039  -2.018   0.801  1.00  0.00     0.028 A 
ATOM     18  Cl  UNL     1       0.012  -3.994   4.250  1.00  0.00    -0.084 Cl
ATOM     19  Cl  UNL     1      -3.691  -4.145   0.539  1.00  0.00    -0.084 Cl
ENDBRANCH   8  12
BRANCH   7  20
ATOM     20  N   UNL     1       1.637   5.426   0.883  1.00  0.00     0.062 N 
ATOM     21  O   UNL     1       2.750   5.291   1.237  1.00  0.00    -0.258 OA
ATOM     22  O   UNL     1       1.299   6.641   0.546  1.00  0.00    -0.258 OA
ENDBRANCH   7  20
TORSDOF 2
ENDMDL
MODEL 3
REMARK VINA RESULT:    -4.408     10.808     11.573
REMARK INTER + INTRA:          -5.219
REMARK INTER:                  -4.904
REMARK INTRA:                  -0.316
REMARK UNBOUND:                -0.296
REMARK SMILES O=[N+]([O-])c1ccc2c(c1)N[C@@H](c1cc(Cl)cc(Cl)c1)N2
REMARK SMILES IDX 7 1 8 2 5 3 6 4 20 5 10 6 4 7 11 8 9 9 12 12 14 13 13 14
REMARK SMILES IDX 16 15 17 16 19 17 15 18 18 19 2 20 3 21 1 22
REMARK H PARENT 20 10 10 11
ROOT
ATOM      1  C   UNL     1      -6.032   4.284  10.732  1.00  0.00     0.060 A 
ATOM      2  C   UNL     1      -4.961   5.094  11.024  1.00  0.00     0.066 A 
ATOM      3  C   UNL     1      -7.183   5.001  12.658  1.00  0.00     0.088 A 
ATOM      4  C   UNL     1      -7.177   4.403  11.369  1.00  0.00     0.035 A 
ATOM      5  N   UNL     1      -5.767   3.566   9.501  1.00  0.00    -0.360 N 
ATOM      6  N   UNL     1      -4.066   4.905   9.967  1.00  0.00    -0.360 N 
ATOM      7  C   UNL     1      -6.057   5.717  13.057  1.00  0.00     0.271 A 
ATOM      8  C   UNL     1      -4.864   4.407   8.905  1.00  0.00     0.205 C 
ATOM      9  C   UNL     1      -4.919   5.784  12.194  1.00  0.00     0.113 A 
ATOM     10  H   UNL     1      -6.151   2.671   9.166  1.00  0.00     0.163 HD
ATOM     11  H   UNL     1      -3.053   5.088   9.961  1.00  0.00     0.163 HD
ENDROOT
BRANCH   8  12
ATOM     12  C   UNL     1      -4.067   3.906   7.668  1.00  0.00    -0.003 A 
ATOM     13  C   UNL     1      -4.135   2.666   5.526  1.00  0.00     0.042 A 
ATOM     14  C   UNL     1      -4.697   3.657   6.428  1.00  0.00     0.028 A 
ATOM     15  C   UNL     1      -2.693   2.412   5.630  1.00  0.00     0.041 A 
ATOM     16  C   UNL     1      -2.007   3.017   6.766  1.00  0.00     0.042 A 
ATOM     17  C   UNL     1      -2.672   3.607   7.868  1.00  0.00     0.028 A 
ATOM     18  Cl  UNL     1      -4.835   2.064   4.270  1.00  0.00    -0.084 Cl
ATOM     19  Cl  UNL     1      -0.302   2.897   6.772  1.00  0.00    -0.084 Cl
ENDBRANCH   8  12
BRANCH   7  20
ATOM     20  N   UNL     1      -5.998   6.468  14.214  1.00  0.00     0.062 N 
ATOM     21  O   UNL     1      -5.208   7.333  14.320  1.00  0.00    -0.258 OA
ATOM     22  O   UNL     1      -6.920   6.434  15.137  1.00  0.00    -0.258 OA
ENDBRANCH   7  20
TORSDOF 2
ENDMDL
MODEL 4
REMARK VINA RESULT:    -4.392     10.895     11.762
REMARK INTER + INTRA:          -5.202
REMARK INTER:                  -4.886
REMARK INTRA:                  -0.315
REMARK UNBOUND:                -0.296
REMARK SMILES O=[N+]([O-])c1ccc2c(c1)N[C@@H](c1cc(Cl)cc(Cl)c1)N2
REMARK SMILES IDX 7 1 8 2 5 3 6 4 20 5 10 6 4 7 11 8 9 9 12 12 14 13 13 14
REMARK SMILES IDX 16 15 17 16 19 17 15 18 18 19 2 20 3 21 1 22
REMARK H PARENT 20 10 10 11
ROOT
ATOM      1  C   UNL     1      -4.853   5.099  11.076  1.00  0.00     0.060 A 
ATOM      2  C   UNL     1      -5.949   4.298  10.860  1.00  0.00     0.066 A 
ATOM      3  C   UNL     1      -5.789   5.955  13.061  1.00  0.00     0.088 A 
ATOM      4  C   UNL     1      -4.665   5.711  12.225  1.00  0.00     0.035 A 
ATOM      5  N   UNL     1      -3.896   4.900  10.006  1.00  0.00    -0.360 N 
ATOM      6  N   UNL     1      -5.652   3.588   9.693  1.00  0.00    -0.360 N 
ATOM      7  C   UNL     1      -6.971   5.269  12.793  1.00  0.00     0.271 A 
ATOM      8  C   UNL     1      -4.239   3.640   9.590  1.00  0.00     0.205 C 
ATOM      9  C   UNL     1      -7.038   4.391  11.666  1.00  0.00     0.113 A 
ATOM     10  H   UNL     1      -3.161   5.530   9.655  1.00  0.00     0.163 HD
ATOM     11  H   UNL     1      -6.314   3.129   9.051  1.00  0.00     0.163 HD
ENDROOT
BRANCH   8  12
ATOM     12  C   UNL     1      -3.661   3.104   8.250  1.00  0.00    -0.003 A 
ATOM     13  C   UNL     1      -1.672   2.894   6.790  1.00  0.00     0.042 A 
ATOM     14  C   UNL     1      -2.290   2.793   8.101  1.00  0.00     0.028 A 
ATOM     15  C   UNL     1      -2.547   2.721   5.625  1.00  0.00     0.041 A 
ATOM     16  C   UNL     1      -3.981   2.680   5.890  1.00  0.00     0.042 A 
ATOM     17  C   UNL     1      -4.566   3.033   7.131  1.00  0.00     0.028 A 
ATOM     18  Cl  UNL     1      -0.142   2.869   6.491  1.00  0.00    -0.084 Cl
ATOM     19  Cl  UNL     1      -4.985   2.271   4.568  1.00  0.00    -0.084 Cl
ENDBRANCH   8  12
BRANCH   7  20
ATOM     20  N   UNL     1      -8.078   5.302  13.615  1.00  0.00     0.062 N 
ATOM     21  O   UNL     1      -8.880   4.443  13.565  1.00  0.00    -0.258 OA
ATOM     22  O   UNL     1      -8.196   6.121  14.625  1.00  0.00    -0.258 OA
ENDBRANCH   7  20
TORSDOF 2
ENDMDL
MODEL 5
REMARK VINA RESULT:    -4.065      9.951     10.926
REMARK INTER + INTRA:          -4.837
REMARK INTER:                  -4.538
REMARK INTRA:                  -0.299
REMARK UNBOUND:                -0.296
REMARK SMILES O=[N+]([O-])c1ccc2c(c1)N[C@@H](c1cc(Cl)cc(Cl)c1)N2
REMARK SMILES IDX 7 1 8 2 5 3 6 4 20 5 10 6 4 7 11 8 9 9 12 12 14 13 13 14
REMARK SMILES IDX 16 15 17 16 19 17 15 18 18 19 2 20 3 21 1 22
REMARK H PARENT 20 10 10 11
ROOT
ATOM      1  C   UNL     1      -4.658   3.380   7.408  1.00  0.00     0.060 A 
ATOM      2  C   UNL     1      -3.426   3.870   7.770  1.00  0.00     0.066 A 
ATOM      3  C   UNL     1      -3.747   2.307   5.519  1.00  0.00     0.088 A 
ATOM      4  C   UNL     1      -4.784   2.455   6.480  1.00  0.00     0.035 A 
ATOM      5  N   UNL     1      -5.648   3.815   8.372  1.00  0.00    -0.360 N 
ATOM      6  N   UNL     1      -3.650   4.566   8.961  1.00  0.00    -0.360 N 
ATOM      7  C   UNL     1      -2.518   2.909   5.776  1.00  0.00     0.271 A 
ATOM      8  C   UNL     1      -4.858   4.025   9.472  1.00  0.00     0.205 C 
ATOM      9  C   UNL     1      -2.351   3.695   6.959  1.00  0.00     0.113 A 
ATOM     10  H   UNL     1      -6.665   3.934   8.262  1.00  0.00     0.163 HD
ATOM     11  H   UNL     1      -3.068   5.307   9.376  1.00  0.00     0.163 HD
ENDROOT
BRANCH   8  12
ATOM     12  C   UNL     1      -5.449   4.784  10.693  1.00  0.00    -0.003 A 
ATOM     13  C   UNL     1      -4.984   6.145  12.709  1.00  0.00     0.042 A 
ATOM     14  C   UNL     1      -4.770   5.865  11.299  1.00  0.00     0.028 A 
ATOM     15  C   UNL     1      -6.269   5.730  13.283  1.00  0.00     0.041 A 
ATOM     16  C   UNL     1      -7.116   4.890  12.443  1.00  0.00     0.042 A 
ATOM     17  C   UNL     1      -6.677   4.271  11.247  1.00  0.00     0.028 A 
ATOM     18  Cl  UNL     1      -4.125   7.095  13.597  1.00  0.00    -0.084 Cl
ATOM     19  Cl  UNL     1      -8.694   4.583  13.025  1.00  0.00    -0.084 Cl
ENDBRANCH   8  12
BRANCH   7  20
ATOM     20  N   UNL     1      -1.393   2.714   5.001  1.00  0.00     0.062 N 
ATOM     21  O   UNL     1      -1.495   2.337   3.892  1.00  0.00    -0.258 OA
ATOM     22  O   UNL     1      -0.206   3.135   5.344  1.00  0.00    -0.258 OA
ENDBRANCH   7  20
TORSDOF 2
ENDMDL
MODEL 6
REMARK VINA RESULT:    -4.045      9.839     10.683
REMARK INTER + INTRA:          -4.814
REMARK INTER:                  -4.496
REMARK INTRA:                  -0.318
REMARK UNBOUND:                -0.296
REMARK SMILES O=[N+]([O-])c1ccc2c(c1)N[C@@H](c1cc(Cl)cc(Cl)c1)N2
REMARK SMILES IDX 7 1 8 2 5 3 6 4 20 5 10 6 4 7 11 8 9 9 12 12 14 13 13 14
REMARK SMILES IDX 16 15 17 16 19 17 15 18 18 19 2 20 3 21 1 22
REMARK H PARENT 20 10 10 11
ROOT
ATOM      1  C   UNL     1      -4.541   3.221   7.454  1.00  0.00     0.060 A 
ATOM      2  C   UNL     1      -3.270   3.588   7.827  1.00  0.00     0.066 A 
ATOM      3  C   UNL     1      -3.759   2.348   5.410  1.00  0.00     0.088 A 
ATOM      4  C   UNL     1      -4.753   2.432   6.423  1.00  0.00     0.035 A 
ATOM      5  N   UNL     1      -5.471   3.586   8.504  1.00  0.00    -0.360 N 
ATOM      6  N   UNL     1      -3.413   4.137   9.104  1.00  0.00    -0.360 N 
ATOM      7  C   UNL     1      -2.487   2.840   5.694  1.00  0.00     0.271 A 
ATOM      8  C   UNL     1      -4.635   3.607   9.589  1.00  0.00     0.205 C 
ATOM      9  C   UNL     1      -2.234   3.457   6.958  1.00  0.00     0.113 A 
ATOM     10  H   UNL     1      -6.482   3.777   8.449  1.00  0.00     0.163 HD
ATOM     11  H   UNL     1      -2.772   4.783   9.586  1.00  0.00     0.163 HD
ENDROOT
BRANCH   8  12
ATOM     12  C   UNL     1      -5.140   4.236  10.918  1.00  0.00    -0.003 A 
ATOM     13  C   UNL     1      -7.090   4.758  12.353  1.00  0.00     0.042 A 
ATOM     14  C   UNL     1      -6.345   3.821  11.528  1.00  0.00     0.028 A 
ATOM     15  C   UNL     1      -6.325   5.830  12.999  1.00  0.00     0.041 A 
ATOM     16  C   UNL     1      -4.935   5.980  12.581  1.00  0.00     0.042 A 
ATOM     17  C   UNL     1      -4.375   5.334  11.452  1.00  0.00     0.028 A 
ATOM     18  Cl  UNL     1      -8.552   4.574  12.861  1.00  0.00    -0.084 Cl
ATOM     19  Cl  UNL     1      -3.989   7.086  13.479  1.00  0.00    -0.084 Cl
ENDBRANCH   8  12
BRANCH   7  20
ATOM     20  N   UNL     1      -1.401   2.680   4.857  1.00  0.00     0.062 N 
ATOM     21  O   UNL     1      -1.551   2.287   3.759  1.00  0.00    -0.258 OA
ATOM     22  O   UNL     1      -0.214   3.152   5.127  1.00  0.00    -0.258 OA
ENDBRANCH   7  20
TORSDOF 2
ENDMDL
MODEL 7
REMARK VINA RESULT:    -4.018     13.071     13.887
REMARK INTER + INTRA:          -4.784
REMARK INTER:                  -4.479
REMARK INTRA:                  -0.304
REMARK UNBOUND:                -0.296
REMARK SMILES O=[N+]([O-])c1ccc2c(c1)N[C@@H](c1cc(Cl)cc(Cl)c1)N2
REMARK SMILES IDX 7 1 8 2 5 3 6 4 20 5 10 6 4 7 11 8 9 9 12 12 14 13 13 14
REMARK SMILES IDX 16 15 17 16 19 17 15 18 18 19 2 20 3 21 1 22
REMARK H PARENT 20 10 10 11
ROOT
ATOM      1  C   UNL     1      -4.417   7.054  13.976  1.00  0.00     0.060 A 
ATOM      2  C   UNL     1      -4.056   7.989  13.036  1.00  0.00     0.066 A 
ATOM      3  C   UNL     1      -4.401   8.673  15.687  1.00  0.00     0.088 A 
ATOM      4  C   UNL     1      -4.804   7.407  15.183  1.00  0.00     0.035 A 
ATOM      5  N   UNL     1      -4.565   5.763  13.335  1.00  0.00    -0.360 N 
ATOM      6  N   UNL     1      -4.021   7.289  11.827  1.00  0.00    -0.360 N 
ATOM      7  C   UNL     1      -3.893   9.609  14.789  1.00  0.00     0.271 A 
ATOM      8  C   UNL     1      -4.833   6.147  12.047  1.00  0.00     0.205 C 
ATOM      9  C   UNL     1      -3.743   9.256  13.411  1.00  0.00     0.113 A 
ATOM     10  H   UNL     1      -4.490   4.817  13.735  1.00  0.00     0.163 HD
ATOM     11  H   UNL     1      -3.517   7.546  10.966  1.00  0.00     0.163 HD
ENDROOT
BRANCH   8  12
ATOM     12  C   UNL     1      -4.786   5.083  10.916  1.00  0.00    -0.003 A 
ATOM     13  C   UNL     1      -3.695   3.039  10.040  1.00  0.00     0.042 A 
ATOM     14  C   UNL     1      -4.290   3.778  11.141  1.00  0.00     0.028 A 
ATOM     15  C   UNL     1      -4.148   3.380   8.686  1.00  0.00     0.041 A 
ATOM     16  C   UNL     1      -4.987   4.567   8.561  1.00  0.00     0.042 A 
ATOM     17  C   UNL     1      -5.176   5.514   9.598  1.00  0.00     0.028 A 
ATOM     18  Cl  UNL     1      -2.855   1.732  10.159  1.00  0.00    -0.084 Cl
ATOM     19  Cl  UNL     1      -5.683   4.844   7.025  1.00  0.00    -0.084 Cl
ENDBRANCH   8  12
BRANCH   7  20
ATOM     20  N   UNL     1      -3.612  10.918  15.124  1.00  0.00     0.062 N 
ATOM     21  O   UNL     1      -4.432  11.751  15.003  1.00  0.00    -0.258 OA
ATOM     22  O   UNL     1      -2.546  11.272  15.789  1.00  0.00    -0.258 OA
ENDBRANCH   7  20
TORSDOF 2
ENDMDL
MODEL 8
REMARK VINA RESULT:    -3.990     14.480     15.294
REMARK INTER + INTRA:          -4.753
REMARK INTER:                  -4.440
REMARK INTRA:                  -0.312
REMARK UNBOUND:                -0.296
REMARK SMILES O=[N+]([O-])c1ccc2c(c1)N[C@@H](c1cc(Cl)cc(Cl)c1)N2
REMARK SMILES IDX 7 1 8 2 5 3 6 4 20 5 10 6 4 7 11 8 9 9 12 12 14 13 13 14
REMARK SMILES IDX 16 15 17 16 19 17 15 18 18 19 2 20 3 21 1 22
REMARK H PARENT 20 10 10 11
ROOT
ATOM      1  C   UNL     1      -4.180   8.783  13.794  1.00  0.00     0.060 A 
ATOM      2  C   UNL     1      -4.665   8.021  14.830  1.00  0.00     0.066 A 
ATOM      3  C   UNL     1      -3.591  10.526  15.265  1.00  0.00     0.088 A 
ATOM      4  C   UNL     1      -3.465   9.865  14.013  1.00  0.00     0.035 A 
ATOM      5  N   UNL     1      -4.336   8.054  12.551  1.00  0.00    -0.360 N 
ATOM      6  N   UNL     1      -5.078   6.825  14.237  1.00  0.00    -0.360 N 
ATOM      7  C   UNL     1      -4.207   9.843  16.312  1.00  0.00     0.271 A 
ATOM      8  C   UNL     1      -4.363   6.764  13.013  1.00  0.00     0.205 C 
ATOM      9  C   UNL     1      -4.737   8.534  16.086  1.00  0.00     0.113 A 
ATOM     10  H   UNL     1      -4.407   8.408  11.586  1.00  0.00     0.163 HD
ATOM     11  H   UNL     1      -5.753   6.140  14.606  1.00  0.00     0.163 HD
ENDROOT
BRANCH   8  12
ATOM     12  C   UNL     1      -4.807   5.627  12.052  1.00  0.00    -0.003 A 
ATOM     13  C   UNL     1      -4.497   4.539   9.849  1.00  0.00     0.042 A 
ATOM     14  C   UNL     1      -3.940   5.103  11.067  1.00  0.00     0.028 A 
ATOM     15  C   UNL     1      -5.857   3.994   9.929  1.00  0.00     0.041 A 
ATOM     16  C   UNL     1      -6.594   4.264  11.158  1.00  0.00     0.042 A 
ATOM     17  C   UNL     1      -6.179   5.197  12.140  1.00  0.00     0.028 A 
ATOM     18  Cl  UNL     1      -3.704   4.184   8.555  1.00  0.00    -0.084 Cl
ATOM     19  Cl  UNL     1      -8.091   3.457  11.337  1.00  0.00    -0.084 Cl
ENDBRANCH   8  12
BRANCH   7  20
ATOM     20  N   UNL     1      -4.254  10.312  17.609  1.00  0.00     0.062 N 
ATOM     21  O   UNL     1      -4.007  11.437  17.842  1.00  0.00    -0.258 OA
ATOM     22  O   UNL     1      -4.779   9.637  18.595  1.00  0.00    -0.258 OA
ENDBRANCH   7  20
TORSDOF 2
ENDMDL
MODEL 9
REMARK VINA RESULT:    -3.955     11.146     11.883
REMARK INTER + INTRA:          -4.713
REMARK INTER:                  -4.423
REMARK INTRA:                  -0.291
REMARK UNBOUND:                -0.296
REMARK SMILES O=[N+]([O-])c1ccc2c(c1)N[C@@H](c1cc(Cl)cc(Cl)c1)N2
REMARK SMILES IDX 7 1 8 2 5 3 6 4 20 5 10 6 4 7 11 8 9 9 12 12 14 13 13 14
REMARK SMILES IDX 16 15 17 16 19 17 15 18 18 19 2 20 3 21 1 22
REMARK H PARENT 20 10 10 11
ROOT
ATOM      1  C   UNL     1      -5.725   4.966  11.122  1.00  0.00     0.060 A 
ATOM      2  C   UNL     1      -6.637   4.042  10.672  1.00  0.00     0.066 A 
ATOM      3  C   UNL     1      -7.013   5.398  13.046  1.00  0.00     0.088 A 
ATOM      4  C   UNL     1      -5.776   5.443  12.347  1.00  0.00     0.035 A 
ATOM      5  N   UNL     1      -4.632   5.059  10.174  1.00  0.00    -0.360 N 
ATOM      6  N   UNL     1      -6.093   3.546   9.484  1.00  0.00    -0.360 N 
ATOM      7  C   UNL     1      -8.023   4.580  12.546  1.00  0.00     0.271 A 
ATOM      8  C   UNL     1      -4.707   3.828   9.578  1.00  0.00     0.205 C 
ATOM      9  C   UNL     1      -7.812   3.859  11.330  1.00  0.00     0.113 A 
ATOM     10  H   UNL     1      -3.979   5.836   9.998  1.00  0.00     0.163 HD
ATOM     11  H   UNL     1      -6.590   3.080   8.712  1.00  0.00     0.163 HD
ENDROOT
BRANCH   8  12
ATOM     12  C   UNL     1      -3.897   3.569   8.276  1.00  0.00    -0.003 A 
ATOM     13  C   UNL     1      -3.942   2.762   5.936  1.00  0.00     0.042 A 
ATOM     14  C   UNL     1      -4.513   3.565   7.004  1.00  0.00     0.028 A 
ATOM     15  C   UNL     1      -2.503   2.487   6.004  1.00  0.00     0.041 A 
ATOM     16  C   UNL     1      -1.828   2.861   7.243  1.00  0.00     0.042 A 
ATOM     17  C   UNL     1      -2.505   3.233   8.431  1.00  0.00     0.028 A 
ATOM     18  Cl  UNL     1      -4.630   2.415   4.580  1.00  0.00    -0.084 Cl
ATOM     19  Cl  UNL     1      -0.123   2.735   7.244  1.00  0.00    -0.084 Cl
ENDBRANCH   8  12
BRANCH   7  20
ATOM     20  N   UNL     1      -9.207   4.333  13.211  1.00  0.00     0.062 N 
ATOM     21  O   UNL     1      -9.286   3.437  13.968  1.00  0.00    -0.258 OA
ATOM     22  O   UNL     1     -10.207   5.173  13.230  1.00  0.00    -0.258 OA
ENDBRANCH   7  20
TORSDOF 2
ENDMDL
