MODEL 1
REMARK VINA RESULT:    -4.487      0.000      0.000
REMARK INTER + INTRA:          -5.327
REMARK INTER:                  -5.012
REMARK INTRA:                  -0.315
REMARK UNBOUND:                -0.315
REMARK SMILES O=[N+]([O-])c1ccc2c(c1)N[C@@H](c1cc(Cl)cc(Cl)c1)N2
REMARK SMILES IDX 7 1 8 2 5 3 6 4 20 5 10 6 4 7 11 8 9 9 12 12 14 13 13 14
REMARK SMILES IDX 16 15 17 16 19 17 15 18 18 19 2 20 3 21 1 22
REMARK H PARENT 20 10 10 11
ROOT
ATOM      1  C   UNL     1      -3.808   5.464  -7.419  1.00  0.00     0.060 A 
ATOM      2  C   UNL     1      -3.990   4.208  -7.945  1.00  0.00     0.066 A 
ATOM      3  C   UNL     1      -4.912   6.461  -9.245  1.00  0.00     0.088 A 
ATOM      4  C   UNL     1      -4.436   6.512  -7.907  1.00  0.00     0.035 A 
ATOM      5  N   UNL     1      -3.101   5.357  -6.158  1.00  0.00    -0.360 N 
ATOM      6  N   UNL     1      -3.437   3.338  -7.002  1.00  0.00    -0.360 N 
ATOM      7  C   UNL     1      -4.981   5.220  -9.874  1.00  0.00     0.271 A 
ATOM      8  C   UNL     1      -3.427   4.077  -5.792  1.00  0.00     0.205 C 
ATOM      9  C   UNL     1      -4.527   4.053  -9.184  1.00  0.00     0.113 A 
ATOM     10  H   UNL     1      -2.515   6.050  -5.671  1.00  0.00     0.163 HD
ATOM     11  H   UNL     1      -3.109   2.373  -7.153  1.00  0.00     0.163 HD
ENDROOT
BRANCH   8  12
ATOM     12  C   UNL     1      -2.654   3.406  -4.622  1.00  0.00    -0.003 A 
ATOM     13  C   UNL     1      -1.664   3.680  -2.369  1.00  0.00     0.042 A 
ATOM     14  C   UNL     1      -2.772   3.867  -3.291  1.00  0.00     0.028 A 
ATOM     15  C   UNL     1      -0.762   2.552  -2.630  1.00  0.00     0.041 A 
ATOM     16  C   UNL     1      -0.937   1.862  -3.903  1.00  0.00     0.042 A 
ATOM     17  C   UNL     1      -1.731   2.356  -4.968  1.00  0.00     0.028 A 
ATOM     18  Cl  UNL     1      -1.504   4.361  -0.976  1.00  0.00    -0.084 Cl
ATOM     19  Cl  UNL     1      -0.033   0.427  -4.117  1.00  0.00    -0.084 Cl
ENDBRANCH   8  12
BRANCH   7  20
ATOM     20  N   UNL     1      -5.564   5.018 -11.108  1.00  0.00     0.062 N 
ATOM     21  O   UNL     1      -5.945   3.950 -11.417  1.00  0.00    -0.258 OA
ATOM     22  O   UNL     1      -5.933   5.994 -11.893  1.00  0.00    -0.258 OA
ENDBRANCH   7  20
TORSDOF 2
ENDMDL
MODEL 2
REMARK VINA RESULT:    -4.486     10.826     11.557
REMARK INTER + INTRA:          -5.327
REMARK INTER:                  -5.033
REMARK INTRA:                  -0.294
REMARK UNBOUND:                -0.315
REMARK SMILES O=[N+]([O-])c1ccc2c(c1)N[C@@H](c1cc(Cl)cc(Cl)c1)N2
REMARK SMILES IDX 7 1 8 2 5 3 6 4 20 5 10 6 4 7 11 8 9 9 12 12 14 13 13 14
REMARK SMILES IDX 16 15 17 16 19 17 15 18 18 19 2 20 3 21 1 22
REMARK H PARENT 20 10 10 11
ROOT
ATOM      1  C   UNL     1       2.879   1.024   1.400  1.00  0.00     0.060 A 
ATOM      2  C   UNL     1       1.935   1.992   1.648  1.00  0.00     0.066 A 
ATOM      3  C   UNL     1       4.622   2.606   1.498  1.00  0.00     0.088 A 
ATOM      4  C   UNL     1       4.164   1.262   1.554  1.00  0.00     0.035 A 
ATOM      5  N   UNL     1       2.221  -0.259   1.253  1.00  0.00    -0.360 N 
ATOM      6  N   UNL     1       0.718   1.306   1.692  1.00  0.00    -0.360 N 
ATOM      7  C   UNL     1       3.680   3.628   1.604  1.00  0.00     0.271 A 
ATOM      8  C   UNL     1       1.072  -0.039   1.967  1.00  0.00     0.205 C 
ATOM      9  C   UNL     1       2.293   3.301   1.709  1.00  0.00     0.113 A 
ATOM     10  H   UNL     1       2.531  -1.103   0.751  1.00  0.00     0.163 HD
ATOM     11  H   UNL     1      -0.227   1.693   1.555  1.00  0.00     0.163 HD
ENDROOT
BRANCH   8  12
ATOM     12  C   UNL     1      -0.095  -1.059   1.853  1.00  0.00    -0.003 A 
ATOM     13  C   UNL     1      -2.429  -1.613   2.468  1.00  0.00     0.042 A 
ATOM     14  C   UNL     1      -1.446  -0.663   1.975  1.00  0.00     0.028 A 
ATOM     15  C   UNL     1      -2.146  -3.037   2.252  1.00  0.00     0.041 A 
ATOM     16  C   UNL     1      -0.813  -3.367   1.760  1.00  0.00     0.042 A 
ATOM     17  C   UNL     1       0.264  -2.448   1.717  1.00  0.00     0.028 A 
ATOM     18  Cl  UNL     1      -3.879  -1.277   2.931  1.00  0.00    -0.084 Cl
ATOM     19  Cl  UNL     1      -0.554  -4.996   1.311  1.00  0.00    -0.084 Cl
ENDBRANCH   8  12
BRANCH   7  20
ATOM     20  N   UNL     1       4.010   4.963   1.717  1.00  0.00     0.062 N 
ATOM     21  O   UNL     1       3.785   5.547   2.712  1.00  0.00    -0.258 OA
ATOM     22  O   UNL     1       4.770   5.588   0.859  1.00  0.00    -0.258 OA
ENDBRANCH   7  20
TORSDOF 2
ENDMDL
MODEL 3
REMARK VINA RESULT:    -4.480      1.075      2.703
REMARK INTER + INTRA:          -5.319
REMARK INTER:                  -5.003
REMARK INTRA:                  -0.316
REMARK UNBOUND:                -0.315
REMARK SMILES O=[N+]([O-])c1ccc2c(c1)N[C@@H](c1cc(Cl)cc(Cl)c1)N2
REMARK SMILES IDX 7 1 8 2 5 3 6 4 20 5 10 6 4 7 11 8 9 9 12 12 14 13 13 14
REMARK SMILES IDX 16 15 17 16 19 17 15 18 18 19 2 20 3 21 1 22
REMARK H PARENT 20 10 10 11
ROOT
ATOM      1  C   UNL     1      -3.912   4.047  -7.965  1.00  0.00     0.060 A 
ATOM      2  C   UNL     1      -3.751   5.337  -7.520  1.00  0.00     0.066 A 
ATOM      3  C   UNL     1      -5.027   4.785  -9.905  1.00  0.00     0.088 A 
ATOM      4  C   UNL     1      -4.307   3.787  -9.193  1.00  0.00     0.035 A 
ATOM      5  N   UNL     1      -3.322   3.133  -7.007  1.00  0.00    -0.360 N 
ATOM      6  N   UNL     1      -3.038   5.220  -6.324  1.00  0.00    -0.360 N 
ATOM      7  C   UNL     1      -5.010   6.088  -9.411  1.00  0.00     0.271 A 
ATOM      8  C   UNL     1      -2.404   3.954  -6.405  1.00  0.00     0.205 C 
ATOM      9  C   UNL     1      -4.324   6.371  -8.189  1.00  0.00     0.113 A 
ATOM     10  H   UNL     1      -3.532   2.141  -6.828  1.00  0.00     0.163 HD
ATOM     11  H   UNL     1      -2.984   5.902  -5.555  1.00  0.00     0.163 HD
ENDROOT
BRANCH   8  12
ATOM     12  C   UNL     1      -1.714   3.482  -5.094  1.00  0.00    -0.003 A 
ATOM     13  C   UNL     1      -0.704   1.595  -3.850  1.00  0.00     0.042 A 
ATOM     14  C   UNL     1      -0.840   2.372  -5.071  1.00  0.00     0.028 A 
ATOM     15  C   UNL     1      -0.971   2.288  -2.585  1.00  0.00     0.041 A 
ATOM     16  C   UNL     1      -1.553   3.622  -2.685  1.00  0.00     0.042 A 
ATOM     17  C   UNL     1      -2.085   4.165  -3.881  1.00  0.00     0.028 A 
ATOM     18  Cl  UNL     1      -0.022   0.199  -3.722  1.00  0.00    -0.084 Cl
ATOM     19  Cl  UNL     1      -1.669   4.509  -1.229  1.00  0.00    -0.084 Cl
ENDBRANCH   8  12
BRANCH   7  20
ATOM     20  N   UNL     1      -5.538   7.169 -10.087  1.00  0.00     0.062 N 
ATOM     21  O   UNL     1      -5.218   8.262  -9.798  1.00  0.00    -0.258 OA
ATOM     22  O   UNL     1      -6.218   7.057 -11.196  1.00  0.00    -0.258 OA
ENDBRANCH   7  20
TORSDOF 2
ENDMDL
MODEL 4
REMARK VINA RESULT:    -4.328      4.571      6.106
REMARK INTER + INTRA:          -5.150
REMARK INTER:                  -4.837
REMARK INTRA:                  -0.313
REMARK UNBOUND:                -0.315
REMARK SMILES O=[N+]([O-])c1ccc2c(c1)N[C@@H](c1cc(Cl)cc(Cl)c1)N2
REMARK SMILES IDX 7 1 8 2 5 3 6 4 20 5 10 6 4 7 11 8 9 9 12 12 14 13 13 14
REMARK SMILES IDX 16 15 17 16 19 17 15 18 18 19 2 20 3 21 1 22
REMARK H PARENT 20 10 10 11
ROOT
ATOM      1  C   UNL     1      -3.960   9.879  -9.546  1.00  0.00     0.060 A 
ATOM      2  C   UNL     1      -5.207   9.583 -10.041  1.00  0.00     0.066 A 
ATOM      3  C   UNL     1      -4.111  12.101 -10.313  1.00  0.00     0.088 A 
ATOM      4  C   UNL     1      -3.529  11.119  -9.466  1.00  0.00     0.035 A 
ATOM      5  N   UNL     1      -3.406   8.700  -8.911  1.00  0.00    -0.360 N 
ATOM      6  N   UNL     1      -5.432   8.251  -9.682  1.00  0.00    -0.360 N 
ATOM      7  C   UNL     1      -5.310  11.793 -10.953  1.00  0.00     0.271 A 
ATOM      8  C   UNL     1      -4.552   8.018  -8.595  1.00  0.00     0.205 C 
ATOM      9  C   UNL     1      -5.886  10.495 -10.785  1.00  0.00     0.113 A 
ATOM     10  H   UNL     1      -2.422   8.444  -8.743  1.00  0.00     0.163 HD
ATOM     11  H   UNL     1      -6.091   7.586 -10.111  1.00  0.00     0.163 HD
ENDROOT
BRANCH   8  12
ATOM     12  C   UNL     1      -4.447   6.535  -8.143  1.00  0.00    -0.003 A 
ATOM     13  C   UNL     1      -3.375   4.905  -6.618  1.00  0.00     0.042 A 
ATOM     14  C   UNL     1      -4.036   6.180  -6.839  1.00  0.00     0.028 A 
ATOM     15  C   UNL     1      -3.682   3.823  -7.561  1.00  0.00     0.041 A 
ATOM     16  C   UNL     1      -4.449   4.192  -8.746  1.00  0.00     0.042 A 
ATOM     17  C   UNL     1      -4.691   5.529  -9.146  1.00  0.00     0.028 A 
ATOM     18  Cl  UNL     1      -2.612   4.477  -5.328  1.00  0.00    -0.084 Cl
ATOM     19  Cl  UNL     1      -4.984   2.904  -9.734  1.00  0.00    -0.084 Cl
ENDBRANCH   8  12
BRANCH   7  20
ATOM     20  N   UNL     1      -6.049  12.707 -11.674  1.00  0.00     0.062 N 
ATOM     21  O   UNL     1      -7.209  12.564 -11.801  1.00  0.00    -0.258 OA
ATOM     22  O   UNL     1      -5.582  13.866 -12.053  1.00  0.00    -0.258 OA
ENDBRANCH   7  20
TORSDOF 2
ENDMDL
MODEL 5
REMARK VINA RESULT:    -4.259      4.017      5.884
REMARK INTER + INTRA:          -5.073
REMARK INTER:                  -4.760
REMARK INTRA:                  -0.313
REMARK UNBOUND:                -0.315
REMARK SMILES O=[N+]([O-])c1ccc2c(c1)N[C@@H](c1cc(Cl)cc(Cl)c1)N2
REMARK SMILES IDX 7 1 8 2 5 3 6 4 20 5 10 6 4 7 11 8 9 9 12 12 14 13 13 14
REMARK SMILES IDX 16 15 17 16 19 17 15 18 18 19 2 20 3 21 1 22
REMARK H PARENT 20 10 10 11
ROOT
ATOM      1  C   UNL     1      -6.917   2.271 -11.118  1.00  0.00     0.060 A 
ATOM      2  C   UNL     1      -6.448   3.166 -12.049  1.00  0.00     0.066 A 
ATOM      3  C   UNL     1      -8.155   1.115 -12.755  1.00  0.00     0.088 A 
ATOM      4  C   UNL     1      -7.538   1.167 -11.476  1.00  0.00     0.035 A 
ATOM      5  N   UNL     1      -6.371   2.604  -9.817  1.00  0.00    -0.360 N 
ATOM      6  N   UNL     1      -5.595   4.013 -11.338  1.00  0.00    -0.360 N 
ATOM      7  C   UNL     1      -7.816   2.090 -13.691  1.00  0.00     0.271 A 
ATOM      8  C   UNL     1      -5.233   3.274 -10.183  1.00  0.00     0.205 C 
ATOM      9  C   UNL     1      -6.910   3.134 -13.327  1.00  0.00     0.113 A 
ATOM     10  H   UNL     1      -6.736   2.395  -8.877  1.00  0.00     0.163 HD
ATOM     11  H   UNL     1      -5.295   4.965 -11.595  1.00  0.00     0.163 HD
ENDROOT
BRANCH   8  12
ATOM     12  C   UNL     1      -4.453   4.081  -9.108  1.00  0.00    -0.003 A 
ATOM     13  C   UNL     1      -3.377   4.056  -6.878  1.00  0.00     0.042 A 
ATOM     14  C   UNL     1      -3.594   3.449  -8.180  1.00  0.00     0.028 A 
ATOM     15  C   UNL     1      -3.538   5.512  -6.785  1.00  0.00     0.041 A 
ATOM     16  C   UNL     1      -4.108   6.177  -7.952  1.00  0.00     0.042 A 
ATOM     17  C   UNL     1      -4.721   5.494  -9.031  1.00  0.00     0.028 A 
ATOM     18  Cl  UNL     1      -2.706   3.374  -5.647  1.00  0.00    -0.084 Cl
ATOM     19  Cl  UNL     1      -4.102   7.886  -7.926  1.00  0.00    -0.084 Cl
ENDBRANCH   8  12
BRANCH   7  20
ATOM     20  N   UNL     1      -8.227   2.061 -15.008  1.00  0.00     0.062 N 
ATOM     21  O   UNL     1      -7.680   2.720 -15.814  1.00  0.00    -0.258 OA
ATOM     22  O   UNL     1      -9.057   1.171 -15.480  1.00  0.00    -0.258 OA
ENDBRANCH   7  20
TORSDOF 2
ENDMDL
MODEL 6
REMARK VINA RESULT:    -4.141      5.117      7.584
REMARK INTER + INTRA:          -4.941
REMARK INTER:                  -4.641
REMARK INTRA:                  -0.300
REMARK UNBOUND:                -0.315
REMARK SMILES O=[N+]([O-])c1ccc2c(c1)N[C@@H](c1cc(Cl)cc(Cl)c1)N2
REMARK SMILES IDX 7 1 8 2 5 3 6 4 20 5 10 6 4 7 11 8 9 9 12 12 14 13 13 14
REMARK SMILES IDX 16 15 17 16 19 17 15 18 18 19 2 20 3 21 1 22
REMARK H PARENT 20 10 10 11
ROOT
ATOM      1  C   UNL     1      -1.795   2.752  -5.198  1.00  0.00     0.060 A 
ATOM      2  C   UNL     1      -1.959   3.933  -4.514  1.00  0.00     0.066 A 
ATOM      3  C   UNL     1      -0.917   1.691  -3.287  1.00  0.00     0.088 A 
ATOM      4  C   UNL     1      -1.519   1.628  -4.572  1.00  0.00     0.035 A 
ATOM      5  N   UNL     1      -2.247   2.925  -6.564  1.00  0.00    -0.360 N 
ATOM      6  N   UNL     1      -2.540   4.807  -5.436  1.00  0.00    -0.360 N 
ATOM      7  C   UNL     1      -0.933   2.909  -2.610  1.00  0.00     0.271 A 
ATOM      8  C   UNL     1      -3.129   3.962  -6.412  1.00  0.00     0.205 C 
ATOM      9  C   UNL     1      -1.500   4.060  -3.241  1.00  0.00     0.113 A 
ATOM     10  H   UNL     1      -1.980   2.409  -7.415  1.00  0.00     0.163 HD
ATOM     11  H   UNL     1      -2.541   5.836  -5.413  1.00  0.00     0.163 HD
ENDROOT
BRANCH   8  12
ATOM     12  C   UNL     1      -3.660   4.694  -7.676  1.00  0.00    -0.003 A 
ATOM     13  C   UNL     1      -4.583   6.788  -8.622  1.00  0.00     0.042 A 
ATOM     14  C   UNL     1      -3.598   6.100  -7.804  1.00  0.00     0.028 A 
ATOM     15  C   UNL     1      -5.193   6.022  -9.716  1.00  0.00     0.041 A 
ATOM     16  C   UNL     1      -4.912   4.591  -9.743  1.00  0.00     0.042 A 
ATOM     17  C   UNL     1      -4.312   3.883  -8.673  1.00  0.00     0.028 A 
ATOM     18  Cl  UNL     1      -4.842   8.324  -8.651  1.00  0.00    -0.084 Cl
ATOM     19  Cl  UNL     1      -5.446   3.740 -11.126  1.00  0.00    -0.084 Cl
ENDBRANCH   8  12
BRANCH   7  20
ATOM     20  N   UNL     1      -0.521   3.063  -1.303  1.00  0.00     0.062 N 
ATOM     21  O   UNL     1       0.152   2.246  -0.792  1.00  0.00    -0.258 OA
ATOM     22  O   UNL     1      -0.643   4.182  -0.641  1.00  0.00    -0.258 OA
ENDBRANCH   7  20
TORSDOF 2
ENDMDL
MODEL 7
REMARK VINA RESULT:    -4.128      5.082      7.810
REMARK INTER + INTRA:          -4.926
REMARK INTER:                  -4.607
REMARK INTRA:                  -0.319
REMARK UNBOUND:                -0.315
REMARK SMILES O=[N+]([O-])c1ccc2c(c1)N[C@@H](c1cc(Cl)cc(Cl)c1)N2
REMARK SMILES IDX 7 1 8 2 5 3 6 4 20 5 10 6 4 7 11 8 9 9 12 12 14 13 13 14
REMARK SMILES IDX 16 15 17 16 19 17 15 18 18 19 2 20 3 21 1 22
REMARK H PARENT 20 10 10 11
ROOT
ATOM      1  C   UNL     1      -2.019   2.770  -5.130  1.00  0.00     0.060 A 
ATOM      2  C   UNL     1      -2.174   3.917  -4.389  1.00  0.00     0.066 A 
ATOM      3  C   UNL     1      -0.888   1.702  -3.362  1.00  0.00     0.088 A 
ATOM      4  C   UNL     1      -1.619   1.645  -4.580  1.00  0.00     0.035 A 
ATOM      5  N   UNL     1      -2.622   2.959  -6.435  1.00  0.00    -0.360 N 
ATOM      6  N   UNL     1      -2.896   4.785  -5.213  1.00  0.00    -0.360 N 
ATOM      7  C   UNL     1      -0.899   2.894  -2.642  1.00  0.00     0.271 A 
ATOM      8  C   UNL     1      -3.538   3.939  -6.153  1.00  0.00     0.205 C 
ATOM      9  C   UNL     1      -1.590   4.030  -3.167  1.00  0.00     0.113 A 
ATOM     10  H   UNL     1      -2.419   2.488  -7.328  1.00  0.00     0.163 HD
ATOM     11  H   UNL     1      -2.950   5.811  -5.151  1.00  0.00     0.163 HD
ENDROOT
BRANCH   8  12
ATOM     12  C   UNL     1      -4.239   4.678  -7.327  1.00  0.00    -0.003 A 
ATOM     13  C   UNL     1      -4.977   4.580  -9.689  1.00  0.00     0.042 A 
ATOM     14  C   UNL     1      -4.883   3.976  -8.370  1.00  0.00     0.028 A 
ATOM     15  C   UNL     1      -4.962   6.046  -9.752  1.00  0.00     0.041 A 
ATOM     16  C   UNL     1      -4.639   6.747  -8.514  1.00  0.00     0.042 A 
ATOM     17  C   UNL     1      -4.116   6.113  -7.360  1.00  0.00     0.028 A 
ATOM     18  Cl  UNL     1      -5.388   3.854 -11.005  1.00  0.00    -0.084 Cl
ATOM     19  Cl  UNL     1      -4.825   8.446  -8.535  1.00  0.00    -0.084 Cl
ENDBRANCH   8  12
BRANCH   7  20
ATOM     20  N   UNL     1      -0.359   3.031  -1.380  1.00  0.00     0.062 N 
ATOM     21  O   UNL     1      -0.564   4.002  -0.749  1.00  0.00    -0.258 OA
ATOM     22  O   UNL     1       0.196   2.045  -0.728  1.00  0.00    -0.258 OA
ENDBRANCH   7  20
TORSDOF 2
ENDMDL
MODEL 8
REMARK VINA RESULT:    -4.058      1.160      1.895
REMARK INTER + INTRA:          -4.848
REMARK INTER:                  -4.550
REMARK INTRA:                  -0.298
REMARK UNBOUND:                -0.315
REMARK SMILES O=[N+]([O-])c1ccc2c(c1)N[C@@H](c1cc(Cl)cc(Cl)c1)N2
REMARK SMILES IDX 7 1 8 2 5 3 6 4 20 5 10 6 4 7 11 8 9 9 12 12 14 13 13 14
REMARK SMILES IDX 16 15 17 16 19 17 15 18 18 19 2 20 3 21 1 22
REMARK H PARENT 20 10 10 11
ROOT
ATOM      1  C   UNL     1      -4.147   4.208  -7.923  1.00  0.00     0.060 A 
ATOM      2  C   UNL     1      -3.992   5.446  -7.346  1.00  0.00     0.066 A 
ATOM      3  C   UNL     1      -5.005   5.164  -9.898  1.00  0.00     0.088 A 
ATOM      4  C   UNL     1      -4.407   4.076  -9.206  1.00  0.00     0.035 A 
ATOM      5  N   UNL     1      -3.703   3.189  -6.993  1.00  0.00    -0.360 N 
ATOM      6  N   UNL     1      -3.425   5.192  -6.094  1.00  0.00    -0.360 N 
ATOM      7  C   UNL     1      -4.999   6.416  -9.287  1.00  0.00     0.271 A 
ATOM      8  C   UNL     1      -2.831   3.911  -6.220  1.00  0.00     0.205 C 
ATOM      9  C   UNL     1      -4.447   6.560  -7.976  1.00  0.00     0.113 A 
ATOM     10  H   UNL     1      -3.968   2.195  -6.931  1.00  0.00     0.163 HD
ATOM     11  H   UNL     1      -3.435   5.802  -5.264  1.00  0.00     0.163 HD
ENDROOT
BRANCH   8  12
ATOM     12  C   UNL     1      -2.314   3.295  -4.890  1.00  0.00    -0.003 A 
ATOM     13  C   UNL     1      -1.703   3.694  -2.524  1.00  0.00     0.042 A 
ATOM     14  C   UNL     1      -2.623   3.866  -3.635  1.00  0.00     0.028 A 
ATOM     15  C   UNL     1      -0.846   2.503  -2.546  1.00  0.00     0.041 A 
ATOM     16  C   UNL     1      -0.849   1.724  -3.779  1.00  0.00     0.042 A 
ATOM     17  C   UNL     1      -1.418   2.172  -4.997  1.00  0.00     0.028 A 
ATOM     18  Cl  UNL     1      -1.735   4.475  -1.175  1.00  0.00    -0.084 Cl
ATOM     19  Cl  UNL     1      -0.019   0.230  -3.733  1.00  0.00    -0.084 Cl
ENDBRANCH   8  12
BRANCH   7  20
ATOM     20  N   UNL     1      -5.407   7.575  -9.915  1.00  0.00     0.062 N 
ATOM     21  O   UNL     1      -4.857   8.591  -9.700  1.00  0.00    -0.258 OA
ATOM     22  O   UNL     1      -6.238   7.589 -10.922  1.00  0.00    -0.258 OA
ENDBRANCH   7  20
TORSDOF 2
ENDMDL
MODEL 9
REMARK VINA RESULT:    -4.046      3.854      4.957
REMARK INTER + INTRA:          -4.835
REMARK INTER:                  -4.530
REMARK INTRA:                  -0.305
REMARK UNBOUND:                -0.315
REMARK SMILES O=[N+]([O-])c1ccc2c(c1)N[C@@H](c1cc(Cl)cc(Cl)c1)N2
REMARK SMILES IDX 7 1 8 2 5 3 6 4 20 5 10 6 4 7 11 8 9 9 12 12 14 13 13 14
REMARK SMILES IDX 16 15 17 16 19 17 15 18 18 19 2 20 3 21 1 22
REMARK H PARENT 20 10 10 11
ROOT
ATOM      1  C   UNL     1      -5.078   8.414  -9.037  1.00  0.00     0.060 A 
ATOM      2  C   UNL     1      -3.817   8.858  -8.719  1.00  0.00     0.066 A 
ATOM      3  C   UNL     1      -5.486  10.321 -10.359  1.00  0.00     0.088 A 
ATOM      4  C   UNL     1      -5.786   8.982  -9.990  1.00  0.00     0.035 A 
ATOM      5  N   UNL     1      -5.314   7.138  -8.393  1.00  0.00    -0.360 N 
ATOM      6  N   UNL     1      -3.271   7.849  -7.921  1.00  0.00    -0.360 N 
ATOM      7  C   UNL     1      -4.276  10.866  -9.936  1.00  0.00     0.271 A 
ATOM      8  C   UNL     1      -4.027   6.691  -8.235  1.00  0.00     0.205 C 
ATOM      9  C   UNL     1      -3.403  10.091  -9.110  1.00  0.00     0.113 A 
ATOM     10  H   UNL     1      -6.202   6.689  -8.127  1.00  0.00     0.163 HD
ATOM     11  H   UNL     1      -2.491   7.929  -7.252  1.00  0.00     0.163 HD
ENDROOT
BRANCH   8  12
ATOM     12  C   UNL     1      -3.761   5.466  -7.316  1.00  0.00    -0.003 A 
ATOM     13  C   UNL     1      -4.356   4.276  -5.228  1.00  0.00     0.042 A 
ATOM     14  C   UNL     1      -4.753   4.955  -6.450  1.00  0.00     0.028 A 
ATOM     15  C   UNL     1      -3.038   3.630  -5.223  1.00  0.00     0.041 A 
ATOM     16  C   UNL     1      -2.171   3.914  -6.361  1.00  0.00     0.042 A 
ATOM     17  C   UNL     1      -2.422   4.934  -7.311  1.00  0.00     0.028 A 
ATOM     18  Cl  UNL     1      -5.290   3.907  -4.036  1.00  0.00    -0.084 Cl
ATOM     19  Cl  UNL     1      -0.728   3.003  -6.460  1.00  0.00    -0.084 Cl
ENDBRANCH   8  12
BRANCH   7  20
ATOM     20  N   UNL     1      -3.802  12.093 -10.352  1.00  0.00     0.062 N 
ATOM     21  O   UNL     1      -4.240  13.084  -9.895  1.00  0.00    -0.258 OA
ATOM     22  O   UNL     1      -2.724  12.237 -11.074  1.00  0.00    -0.258 OA
ENDBRANCH   7  20
TORSDOF 2
ENDMDL
