MODEL 1
REMARK VINA RESULT:    -4.058      0.000      0.000
REMARK INTER + INTRA:          -4.851
REMARK INTER:                  -4.533
REMARK INTRA:                  -0.318
REMARK UNBOUND:                -0.318
REMARK SMILES O=[N+]([O-])c1ccc2c(c1)N[C@@H](c1cc(Cl)cc(Cl)c1)N2
REMARK SMILES IDX 7 1 8 2 5 3 6 4 20 5 10 6 4 7 11 8 9 9 12 12 14 13 13 14
REMARK SMILES IDX 16 15 17 16 19 17 15 18 18 19 2 20 3 21 1 22
REMARK H PARENT 20 10 10 11
ROOT
ATOM      1  C   UNL     1       5.427  -1.373   9.929  1.00  0.00     0.060 A 
ATOM      2  C   UNL     1       4.201  -1.800  10.381  1.00  0.00     0.066 A 
ATOM      3  C   UNL     1       6.295  -1.338  12.119  1.00  0.00     0.088 A 
ATOM      4  C   UNL     1       6.485  -1.372  10.711  1.00  0.00     0.035 A 
ATOM      5  N   UNL     1       5.384  -1.238   8.487  1.00  0.00    -0.360 N 
ATOM      6  N   UNL     1       3.427  -1.961   9.229  1.00  0.00    -0.360 N 
ATOM      7  C   UNL     1       5.027  -1.626  12.620  1.00  0.00     0.271 A 
ATOM      8  C   UNL     1       4.370  -2.107   8.179  1.00  0.00     0.205 C 
ATOM      9  C   UNL     1       3.953  -1.891  11.714  1.00  0.00     0.113 A 
ATOM     10  H   UNL     1       5.957  -0.650   7.864  1.00  0.00     0.163 HD
ATOM     11  H   UNL     1       2.400  -1.972   9.157  1.00  0.00     0.163 HD
ENDROOT
BRANCH   8  12
ATOM     12  C   UNL     1       3.765  -2.085   6.748  1.00  0.00    -0.003 A 
ATOM     13  C   UNL     1       4.165  -1.688   4.337  1.00  0.00     0.042 A 
ATOM     14  C   UNL     1       4.562  -2.289   5.599  1.00  0.00     0.028 A 
ATOM     15  C   UNL     1       2.734  -1.425   4.144  1.00  0.00     0.041 A 
ATOM     16  C   UNL     1       1.879  -1.593   5.315  1.00  0.00     0.042 A 
ATOM     17  C   UNL     1       2.369  -1.747   6.635  1.00  0.00     0.028 A 
ATOM     18  Cl  UNL     1       5.049  -1.567   3.058  1.00  0.00    -0.084 Cl
ATOM     19  Cl  UNL     1       0.195  -1.492   5.043  1.00  0.00    -0.084 Cl
ENDBRANCH   8  12
BRANCH   7  20
ATOM     20  N   UNL     1       4.751  -1.774  13.963  1.00  0.00     0.062 N 
ATOM     21  O   UNL     1       3.748  -2.280  14.310  1.00  0.00    -0.258 OA
ATOM     22  O   UNL     1       5.640  -1.588  14.901  1.00  0.00    -0.258 OA
ENDBRANCH   7  20
TORSDOF 2
ENDMDL
MODEL 2
REMARK VINA RESULT:    -4.047      1.126      2.732
REMARK INTER + INTRA:          -4.838
REMARK INTER:                  -4.520
REMARK INTRA:                  -0.318
REMARK UNBOUND:                -0.318
REMARK SMILES O=[N+]([O-])c1ccc2c(c1)N[C@@H](c1cc(Cl)cc(Cl)c1)N2
REMARK SMILES IDX 7 1 8 2 5 3 6 4 20 5 10 6 4 7 11 8 9 9 12 12 14 13 13 14
REMARK SMILES IDX 16 15 17 16 19 17 15 18 18 19 2 20 3 21 1 22
REMARK H PARENT 20 10 10 11
ROOT
ATOM      1  C   UNL     1       4.024  -1.745  10.423  1.00  0.00     0.060 A 
ATOM      2  C   UNL     1       5.265  -1.318  10.012  1.00  0.00     0.066 A 
ATOM      3  C   UNL     1       4.712  -1.787  12.675  1.00  0.00     0.088 A 
ATOM      4  C   UNL     1       3.685  -1.749  11.694  1.00  0.00     0.035 A 
ATOM      5  N   UNL     1       3.158  -1.877   9.268  1.00  0.00    -0.360 N 
ATOM      6  N   UNL     1       5.150  -1.153   8.629  1.00  0.00    -0.360 N 
ATOM      7  C   UNL     1       6.016  -1.500  12.276  1.00  0.00     0.271 A 
ATOM      8  C   UNL     1       3.759  -1.005   8.398  1.00  0.00     0.205 C 
ATOM      9  C   UNL     1       6.290  -1.231  10.899  1.00  0.00     0.113 A 
ATOM     10  H   UNL     1       2.321  -2.462   9.138  1.00  0.00     0.163 HD
ATOM     11  H   UNL     1       5.908  -1.142   7.932  1.00  0.00     0.163 HD
ENDROOT
BRANCH   8  12
ATOM     12  C   UNL     1       3.338  -1.023   6.902  1.00  0.00    -0.003 A 
ATOM     13  C   UNL     1       1.519  -1.409   5.266  1.00  0.00     0.042 A 
ATOM     14  C   UNL     1       1.999  -0.812   6.502  1.00  0.00     0.028 A 
ATOM     15  C   UNL     1       2.516  -1.674   4.223  1.00  0.00     0.041 A 
ATOM     16  C   UNL     1       3.915  -1.514   4.604  1.00  0.00     0.042 A 
ATOM     17  C   UNL     1       4.357  -1.364   5.942  1.00  0.00     0.028 A 
ATOM     18  Cl  UNL     1       0.030  -1.523   4.819  1.00  0.00    -0.084 Cl
ATOM     19  Cl  UNL     1       5.062  -1.617   3.341  1.00  0.00    -0.084 Cl
ENDBRANCH   8  12
BRANCH   7  20
ATOM     20  N   UNL     1       7.070  -1.355  13.154  1.00  0.00     0.062 N 
ATOM     21  O   UNL     1       8.063  -0.830  12.807  1.00  0.00    -0.258 OA
ATOM     22  O   UNL     1       6.967  -1.565  14.438  1.00  0.00    -0.258 OA
ENDBRANCH   7  20
TORSDOF 2
ENDMDL
MODEL 3
REMARK VINA RESULT:    -3.880     10.735     11.387
REMARK INTER + INTRA:          -4.652
REMARK INTER:                  -4.355
REMARK INTRA:                  -0.297
REMARK UNBOUND:                -0.318
REMARK SMILES O=[N+]([O-])c1ccc2c(c1)N[C@@H](c1cc(Cl)cc(Cl)c1)N2
REMARK SMILES IDX 7 1 8 2 5 3 6 4 20 5 10 6 4 7 11 8 9 9 12 12 14 13 13 14
REMARK SMILES IDX 16 15 17 16 19 17 15 18 18 19 2 20 3 21 1 22
REMARK H PARENT 20 10 10 11
ROOT
ATOM      1  C   UNL     1      -0.204  -2.642  -0.069  1.00  0.00     0.060 A 
ATOM      2  C   UNL     1       0.834  -3.101  -0.844  1.00  0.00     0.066 A 
ATOM      3  C   UNL     1      -0.903  -4.840   0.411  1.00  0.00     0.088 A 
ATOM      4  C   UNL     1      -0.889  -3.451   0.711  1.00  0.00     0.035 A 
ATOM      5  N   UNL     1      -0.184  -1.193  -0.053  1.00  0.00    -0.360 N 
ATOM      6  N   UNL     1       1.505  -1.950  -1.267  1.00  0.00    -0.360 N 
ATOM      7  C   UNL     1       0.045  -5.331  -0.484  1.00  0.00     0.271 A 
ATOM      8  C   UNL     1       1.136  -0.953  -0.329  1.00  0.00     0.205 C 
ATOM      9  C   UNL     1       0.960  -4.428  -1.109  1.00  0.00     0.113 A 
ATOM     10  H   UNL     1      -0.951  -0.527   0.118  1.00  0.00     0.163 HD
ATOM     11  H   UNL     1       2.129  -1.849  -2.081  1.00  0.00     0.163 HD
ENDROOT
BRANCH   8  12
ATOM     12  C   UNL     1       1.580   0.490  -0.700  1.00  0.00    -0.003 A 
ATOM     13  C   UNL     1       3.424   1.959  -1.456  1.00  0.00     0.042 A 
ATOM     14  C   UNL     1       2.652   0.735  -1.587  1.00  0.00     0.028 A 
ATOM     15  C   UNL     1       2.744   3.116  -0.863  1.00  0.00     0.041 A 
ATOM     16  C   UNL     1       1.435   2.866  -0.268  1.00  0.00     0.042 A 
ATOM     17  C   UNL     1       0.914   1.572  -0.020  1.00  0.00     0.028 A 
ATOM     18  Cl  UNL     1       4.791   2.262  -2.143  1.00  0.00    -0.084 Cl
ATOM     19  Cl  UNL     1       0.555   4.242   0.233  1.00  0.00    -0.084 Cl
ENDBRANCH   8  12
BRANCH   7  20
ATOM     20  N   UNL     1       0.233  -6.674  -0.740  1.00  0.00     0.062 N 
ATOM     21  O   UNL     1       1.316  -7.131  -0.743  1.00  0.00    -0.258 OA
ATOM     22  O   UNL     1      -0.743  -7.541  -0.763  1.00  0.00    -0.258 OA
ENDBRANCH   7  20
TORSDOF 2
ENDMDL
MODEL 4
REMARK VINA RESULT:    -3.814      5.107      7.574
REMARK INTER + INTRA:          -4.578
REMARK INTER:                  -4.279
REMARK INTRA:                  -0.299
REMARK UNBOUND:                -0.318
REMARK SMILES O=[N+]([O-])c1ccc2c(c1)N[C@@H](c1cc(Cl)cc(Cl)c1)N2
REMARK SMILES IDX 7 1 8 2 5 3 6 4 20 5 10 6 4 7 11 8 9 9 12 12 14 13 13 14
REMARK SMILES IDX 16 15 17 16 19 17 15 18 18 19 2 20 3 21 1 22
REMARK H PARENT 20 10 10 11
ROOT
ATOM      1  C   UNL     1       2.600  -1.445   6.925  1.00  0.00     0.060 A 
ATOM      2  C   UNL     1       3.863  -1.193   6.446  1.00  0.00     0.066 A 
ATOM      3  C   UNL     1       1.753  -1.708   4.743  1.00  0.00     0.088 A 
ATOM      4  C   UNL     1       1.650  -1.914   6.145  1.00  0.00     0.035 A 
ATOM      5  N   UNL     1       2.618  -1.391   8.373  1.00  0.00    -0.360 N 
ATOM      6  N   UNL     1       4.654  -1.024   7.585  1.00  0.00    -0.360 N 
ATOM      7  C   UNL     1       2.984  -1.311   4.224  1.00  0.00     0.271 A 
ATOM      8  C   UNL     1       3.937  -1.673   8.622  1.00  0.00     0.205 C 
ATOM      9  C   UNL     1       4.080  -1.073   5.110  1.00  0.00     0.113 A 
ATOM     10  H   UNL     1       1.853  -1.196   9.034  1.00  0.00     0.163 HD
ATOM     11  H   UNL     1       5.559  -0.537   7.656  1.00  0.00     0.163 HD
ENDROOT
BRANCH   8  12
ATOM     12  C   UNL     1       4.501  -1.443  10.052  1.00  0.00    -0.003 A 
ATOM     13  C   UNL     1       6.519  -1.196  11.466  1.00  0.00     0.042 A 
ATOM     14  C   UNL     1       5.770  -0.859  10.267  1.00  0.00     0.028 A 
ATOM     15  C   UNL     1       5.744  -1.611  12.641  1.00  0.00     0.041 A 
ATOM     16  C   UNL     1       4.320  -1.852  12.429  1.00  0.00     0.042 A 
ATOM     17  C   UNL     1       3.716  -1.946  11.151  1.00  0.00     0.028 A 
ATOM     18  Cl  UNL     1       8.022  -0.881  11.729  1.00  0.00    -0.084 Cl
ATOM     19  Cl  UNL     1       3.382  -2.130  13.830  1.00  0.00    -0.084 Cl
ENDBRANCH   8  12
BRANCH   7  20
ATOM     20  N   UNL     1       3.253  -1.227   2.873  1.00  0.00     0.062 N 
ATOM     21  O   UNL     1       2.374  -1.169   2.095  1.00  0.00    -0.258 OA
ATOM     22  O   UNL     1       4.443  -0.980   2.395  1.00  0.00    -0.258 OA
ENDBRANCH   7  20
TORSDOF 2
ENDMDL
MODEL 5
REMARK VINA RESULT:    -3.659      4.995      7.663
REMARK INTER + INTRA:          -4.405
REMARK INTER:                  -4.105
REMARK INTRA:                  -0.300
REMARK UNBOUND:                -0.318
REMARK SMILES O=[N+]([O-])c1ccc2c(c1)N[C@@H](c1cc(Cl)cc(Cl)c1)N2
REMARK SMILES IDX 7 1 8 2 5 3 6 4 20 5 10 6 4 7 11 8 9 9 12 12 14 13 13 14
REMARK SMILES IDX 16 15 17 16 19 17 15 18 18 19 2 20 3 21 1 22
REMARK H PARENT 20 10 10 11
ROOT
ATOM      1  C   UNL     1       4.690  -2.053   6.216  1.00  0.00     0.060 A 
ATOM      2  C   UNL     1       3.355  -1.912   6.513  1.00  0.00     0.066 A 
ATOM      3  C   UNL     1       4.267  -1.839   3.909  1.00  0.00     0.088 A 
ATOM      4  C   UNL     1       5.158  -1.793   5.015  1.00  0.00     0.035 A 
ATOM      5  N   UNL     1       5.437  -2.228   7.446  1.00  0.00    -0.360 N 
ATOM      6  N   UNL     1       3.288  -1.959   7.908  1.00  0.00    -0.360 N 
ATOM      7  C   UNL     1       2.897  -1.841   4.166  1.00  0.00     0.271 A 
ATOM      8  C   UNL     1       4.596  -1.623   8.343  1.00  0.00     0.205 C 
ATOM      9  C   UNL     1       2.432  -1.851   5.518  1.00  0.00     0.113 A 
ATOM     10  H   UNL     1       6.349  -2.680   7.603  1.00  0.00     0.163 HD
ATOM     11  H   UNL     1       2.471  -2.188   8.491  1.00  0.00     0.163 HD
ENDROOT
BRANCH   8  12
ATOM     12  C   UNL     1       4.849  -1.816   9.864  1.00  0.00    -0.003 A 
ATOM     13  C   UNL     1       3.851  -1.989  12.124  1.00  0.00     0.042 A 
ATOM     14  C   UNL     1       3.866  -2.363  10.720  1.00  0.00     0.028 A 
ATOM     15  C   UNL     1       5.128  -1.577  12.718  1.00  0.00     0.041 A 
ATOM     16  C   UNL     1       6.240  -1.377  11.794  1.00  0.00     0.042 A 
ATOM     17  C   UNL     1       6.097  -1.319  10.386  1.00  0.00     0.028 A 
ATOM     18  Cl  UNL     1       2.696  -2.260  13.135  1.00  0.00    -0.084 Cl
ATOM     19  Cl  UNL     1       7.772  -1.104  12.501  1.00  0.00    -0.084 Cl
ENDBRANCH   8  12
BRANCH   7  20
ATOM     20  N   UNL     1       1.935  -1.730   3.184  1.00  0.00     0.062 N 
ATOM     21  O   UNL     1       0.815  -2.001   3.418  1.00  0.00    -0.258 OA
ATOM     22  O   UNL     1       2.139  -1.123   2.046  1.00  0.00    -0.258 OA
ENDBRANCH   7  20
TORSDOF 2
ENDMDL
MODEL 6
REMARK VINA RESULT:    -3.618      1.921      2.391
REMARK INTER + INTRA:          -4.359
REMARK INTER:                  -4.065
REMARK INTRA:                  -0.293
REMARK UNBOUND:                -0.318
REMARK SMILES O=[N+]([O-])c1ccc2c(c1)N[C@@H](c1cc(Cl)cc(Cl)c1)N2
REMARK SMILES IDX 7 1 8 2 5 3 6 4 20 5 10 6 4 7 11 8 9 9 12 12 14 13 13 14
REMARK SMILES IDX 16 15 17 16 19 17 15 18 18 19 2 20 3 21 1 22
REMARK H PARENT 20 10 10 11
ROOT
ATOM      1  C   UNL     1       5.051  -1.721  10.624  1.00  0.00     0.060 A 
ATOM      2  C   UNL     1       6.093  -1.164   9.923  1.00  0.00     0.066 A 
ATOM      3  C   UNL     1       6.202  -1.469  12.664  1.00  0.00     0.088 A 
ATOM      4  C   UNL     1       4.996  -1.661  11.937  1.00  0.00     0.035 A 
ATOM      5  N   UNL     1       3.989  -2.074   9.702  1.00  0.00    -0.360 N 
ATOM      6  N   UNL     1       5.662  -1.139   8.594  1.00  0.00    -0.360 N 
ATOM      7  C   UNL     1       7.329  -1.038  11.968  1.00  0.00     0.271 A 
ATOM      8  C   UNL     1       4.248  -1.207   8.672  1.00  0.00     0.205 C 
ATOM      9  C   UNL     1       7.258  -0.856  10.551  1.00  0.00     0.113 A 
ATOM     10  H   UNL     1       3.245  -2.780   9.795  1.00  0.00     0.163 HD
ATOM     11  H   UNL     1       6.243  -1.083   7.745  1.00  0.00     0.163 HD
ENDROOT
BRANCH   8  12
ATOM     12  C   UNL     1       3.526  -1.415   7.312  1.00  0.00    -0.003 A 
ATOM     13  C   UNL     1       3.745  -1.530   4.848  1.00  0.00     0.042 A 
ATOM     14  C   UNL     1       4.207  -1.904   6.174  1.00  0.00     0.028 A 
ATOM     15  C   UNL     1       2.324  -1.192   4.707  1.00  0.00     0.041 A 
ATOM     16  C   UNL     1       1.563  -1.057   5.945  1.00  0.00     0.042 A 
ATOM     17  C   UNL     1       2.151  -0.990   7.232  1.00  0.00     0.028 A 
ATOM     18  Cl  UNL     1       4.524  -1.734   3.513  1.00  0.00    -0.084 Cl
ATOM     19  Cl  UNL     1      -0.128  -0.872   5.777  1.00  0.00    -0.084 Cl
ENDBRANCH   8  12
BRANCH   7  20
ATOM     20  N   UNL     1       8.511  -0.671  12.578  1.00  0.00     0.062 N 
ATOM     21  O   UNL     1       8.883   0.443  12.527  1.00  0.00    -0.258 OA
ATOM     22  O   UNL     1       9.155  -1.440  13.413  1.00  0.00    -0.258 OA
ENDBRANCH   7  20
TORSDOF 2
ENDMDL
MODEL 7
REMARK VINA RESULT:    -3.604      0.743      2.129
REMARK INTER + INTRA:          -4.344
REMARK INTER:                  -4.045
REMARK INTRA:                  -0.298
REMARK UNBOUND:                -0.318
REMARK SMILES O=[N+]([O-])c1ccc2c(c1)N[C@@H](c1cc(Cl)cc(Cl)c1)N2
REMARK SMILES IDX 7 1 8 2 5 3 6 4 20 5 10 6 4 7 11 8 9 9 12 12 14 13 13 14
REMARK SMILES IDX 16 15 17 16 19 17 15 18 18 19 2 20 3 21 1 22
REMARK H PARENT 20 10 10 11
ROOT
ATOM      1  C   UNL     1       5.004  -1.280  10.483  1.00  0.00     0.060 A 
ATOM      2  C   UNL     1       3.751  -1.812  10.677  1.00  0.00     0.066 A 
ATOM      3  C   UNL     1       5.534  -1.526  12.765  1.00  0.00     0.088 A 
ATOM      4  C   UNL     1       5.933  -1.352  11.412  1.00  0.00     0.035 A 
ATOM      5  N   UNL     1       5.168  -0.941   9.083  1.00  0.00    -0.360 N 
ATOM      6  N   UNL     1       3.168  -1.834   9.407  1.00  0.00    -0.360 N 
ATOM      7  C   UNL     1       4.224  -1.929  13.019  1.00  0.00     0.271 A 
ATOM      8  C   UNL     1       4.263  -1.794   8.507  1.00  0.00     0.205 C 
ATOM      9  C   UNL     1       3.314  -2.102  11.930  1.00  0.00     0.113 A 
ATOM     10  H   UNL     1       5.791  -0.250   8.643  1.00  0.00     0.163 HD
ATOM     11  H   UNL     1       2.165  -1.872   9.177  1.00  0.00     0.163 HD
ENDROOT
BRANCH   8  12
ATOM     12  C   UNL     1       3.877  -1.589   7.015  1.00  0.00    -0.003 A 
ATOM     13  C   UNL     1       2.056  -1.523   5.339  1.00  0.00     0.042 A 
ATOM     14  C   UNL     1       2.593  -1.139   6.633  1.00  0.00     0.028 A 
ATOM     15  C   UNL     1       3.024  -1.822   4.278  1.00  0.00     0.041 A 
ATOM     16  C   UNL     1       4.423  -1.915   4.682  1.00  0.00     0.042 A 
ATOM     17  C   UNL     1       4.854  -1.976   6.030  1.00  0.00     0.028 A 
ATOM     18  Cl  UNL     1       0.576  -1.364   4.874  1.00  0.00    -0.084 Cl
ATOM     19  Cl  UNL     1       5.568  -2.055   3.421  1.00  0.00    -0.084 Cl
ENDBRANCH   8  12
BRANCH   7  20
ATOM     20  N   UNL     1       3.761  -2.279  14.271  1.00  0.00     0.062 N 
ATOM     21  O   UNL     1       2.958  -3.129  14.390  1.00  0.00    -0.258 OA
ATOM     22  O   UNL     1       4.321  -1.877  15.380  1.00  0.00    -0.258 OA
ENDBRANCH   7  20
TORSDOF 2
ENDMDL
MODEL 8
REMARK VINA RESULT:    -2.976      9.924     10.768
REMARK INTER + INTRA:          -3.643
REMARK INTER:                  -3.332
REMARK INTRA:                  -0.310
REMARK UNBOUND:                -0.318
REMARK SMILES O=[N+]([O-])c1ccc2c(c1)N[C@@H](c1cc(Cl)cc(Cl)c1)N2
REMARK SMILES IDX 7 1 8 2 5 3 6 4 20 5 10 6 4 7 11 8 9 9 12 12 14 13 13 14
REMARK SMILES IDX 16 15 17 16 19 17 15 18 18 19 2 20 3 21 1 22
REMARK H PARENT 20 10 10 11
ROOT
ATOM      1  C   UNL     1      10.164   2.437  14.532  1.00  0.00     0.060 A 
ATOM      2  C   UNL     1      10.396   2.555  15.882  1.00  0.00     0.066 A 
ATOM      3  C   UNL     1      10.343   4.767  14.232  1.00  0.00     0.088 A 
ATOM      4  C   UNL     1      10.363   3.445  13.710  1.00  0.00     0.035 A 
ATOM      5  N   UNL     1       9.977   1.039  14.199  1.00  0.00    -0.360 N 
ATOM      6  N   UNL     1      10.389   1.244  16.365  1.00  0.00    -0.360 N 
ATOM      7  C   UNL     1      10.432   4.932  15.612  1.00  0.00     0.271 A 
ATOM      8  C   UNL     1      10.656   0.439  15.228  1.00  0.00     0.205 C 
ATOM      9  C   UNL     1      10.487   3.781  16.459  1.00  0.00     0.113 A 
ATOM     10  H   UNL     1       9.473   0.613  13.408  1.00  0.00     0.163 HD
ATOM     11  H   UNL     1      10.227   0.931  17.332  1.00  0.00     0.163 HD
ENDROOT
BRANCH   8  12
ATOM     12  C   UNL     1      10.488  -1.089  15.453  1.00  0.00    -0.003 A 
ATOM     13  C   UNL     1      10.800  -3.365  14.528  1.00  0.00     0.042 A 
ATOM     14  C   UNL     1      11.314  -2.033  14.802  1.00  0.00     0.028 A 
ATOM     15  C   UNL     1       9.747  -3.869  15.418  1.00  0.00     0.041 A 
ATOM     16  C   UNL     1       9.170  -2.908  16.351  1.00  0.00     0.042 A 
ATOM     17  C   UNL     1       9.385  -1.509  16.280  1.00  0.00     0.028 A 
ATOM     18  Cl  UNL     1      11.449  -4.424  13.586  1.00  0.00    -0.084 Cl
ATOM     19  Cl  UNL     1       8.098  -3.540  17.523  1.00  0.00    -0.084 Cl
ENDBRANCH   8  12
BRANCH   7  20
ATOM     20  N   UNL     1      10.576   6.158  16.228  1.00  0.00     0.062 N 
ATOM     21  O   UNL     1      10.902   6.221  17.356  1.00  0.00    -0.258 OA
ATOM     22  O   UNL     1      10.589   7.289  15.577  1.00  0.00    -0.258 OA
ENDBRANCH   7  20
TORSDOF 2
ENDMDL
