MODEL 1
REMARK VINA RESULT:    -2.714      0.000      0.000
REMARK INTER + INTRA:          -3.350
REMARK INTER:                  -3.031
REMARK INTRA:                  -0.319
REMARK UNBOUND:                -0.319
REMARK SMILES O=[N+]([O-])c1ccc2c(c1)N[C@@H](c1cc(Cl)cc(Cl)c1)N2
REMARK SMILES IDX 7 1 8 2 5 3 6 4 20 5 10 6 4 7 11 8 9 9 12 12 14 13 13 14
REMARK SMILES IDX 16 15 17 16 19 17 15 18 18 19 2 20 3 21 1 22
REMARK H PARENT 20 10 10 11
ROOT
ATOM      1  C   UNL     1     -10.217   2.764  -2.474  1.00  0.00     0.060 A 
ATOM      2  C   UNL     1     -10.030   3.830  -1.627  1.00  0.00     0.066 A 
ATOM      3  C   UNL     1     -12.454   3.387  -2.871  1.00  0.00     0.088 A 
ATOM      4  C   UNL     1     -11.282   2.675  -3.243  1.00  0.00     0.035 A 
ATOM      5  N   UNL     1      -8.986   2.004  -2.565  1.00  0.00    -0.360 N 
ATOM      6  N   UNL     1      -8.692   3.749  -1.234  1.00  0.00    -0.360 N 
ATOM      7  C   UNL     1     -12.341   4.386  -1.907  1.00  0.00     0.271 A 
ATOM      8  C   UNL     1      -8.068   2.968  -2.239  1.00  0.00     0.205 C 
ATOM      9  C   UNL     1     -11.075   4.629  -1.287  1.00  0.00     0.113 A 
ATOM     10  H   UNL     1      -8.841   1.014  -2.807  1.00  0.00     0.163 HD
ATOM     11  H   UNL     1      -8.256   4.164  -0.398  1.00  0.00     0.163 HD
ENDROOT
BRANCH   8  12
ATOM     12  C   UNL     1      -6.606   2.542  -1.924  1.00  0.00    -0.003 A 
ATOM     13  C   UNL     1      -4.806   0.883  -2.299  1.00  0.00     0.042 A 
ATOM     14  C   UNL     1      -5.852   1.749  -2.818  1.00  0.00     0.028 A 
ATOM     15  C   UNL     1      -4.178   1.281  -1.034  1.00  0.00     0.041 A 
ATOM     16  C   UNL     1      -4.808   2.383  -0.314  1.00  0.00     0.042 A 
ATOM     17  C   UNL     1      -6.086   2.907  -0.631  1.00  0.00     0.028 A 
ATOM     18  Cl  UNL     1      -4.080  -0.252  -3.084  1.00  0.00    -0.084 Cl
ATOM     19  Cl  UNL     1      -3.961   2.982   1.044  1.00  0.00    -0.084 Cl
ENDBRANCH   8  12
BRANCH   7  20
ATOM     20  N   UNL     1     -13.366   5.247  -1.573  1.00  0.00     0.062 N 
ATOM     21  O   UNL     1     -13.149   6.206  -0.929  1.00  0.00    -0.258 OA
ATOM     22  O   UNL     1     -14.552   5.192  -2.116  1.00  0.00    -0.258 OA
ENDBRANCH   7  20
TORSDOF 2
ENDMDL
MODEL 2
REMARK VINA RESULT:    -2.714      1.329      2.842
REMARK INTER + INTRA:          -3.350
REMARK INTER:                  -3.031
REMARK INTRA:                  -0.319
REMARK UNBOUND:                -0.319
REMARK SMILES O=[N+]([O-])c1ccc2c(c1)N[C@@H](c1cc(Cl)cc(Cl)c1)N2
REMARK SMILES IDX 7 1 8 2 5 3 6 4 20 5 10 6 4 7 11 8 9 9 12 12 14 13 13 14
REMARK SMILES IDX 16 15 17 16 19 17 15 18 18 19 2 20 3 21 1 22
REMARK H PARENT 20 10 10 11
ROOT
ATOM      1  C   UNL     1     -10.106   3.641  -1.695  1.00  0.00     0.060 A 
ATOM      2  C   UNL     1     -10.241   2.559  -2.533  1.00  0.00     0.066 A 
ATOM      3  C   UNL     1     -12.325   4.317  -2.102  1.00  0.00     0.088 A 
ATOM      4  C   UNL     1     -11.148   4.344  -1.307  1.00  0.00     0.035 A 
ATOM      5  N   UNL     1      -8.766   3.651  -1.141  1.00  0.00    -0.360 N 
ATOM      6  N   UNL     1      -9.014   1.894  -2.464  1.00  0.00    -0.360 N 
ATOM      7  C   UNL     1     -12.446   3.319  -3.067  1.00  0.00     0.271 A 
ATOM      8  C   UNL     1      -8.438   2.325  -1.242  1.00  0.00     0.205 C 
ATOM      9  C   UNL     1     -11.373   2.395  -3.266  1.00  0.00     0.113 A 
ATOM     10  H   UNL     1      -8.213   4.438  -0.773  1.00  0.00     0.163 HD
ATOM     11  H   UNL     1      -8.616   1.236  -3.150  1.00  0.00     0.163 HD
ENDROOT
BRANCH   8  12
ATOM     12  C   UNL     1      -6.960   1.894  -1.027  1.00  0.00    -0.003 A 
ATOM     13  C   UNL     1      -4.796   2.396   0.066  1.00  0.00     0.042 A 
ATOM     14  C   UNL     1      -6.241   2.255   0.134  1.00  0.00     0.028 A 
ATOM     15  C   UNL     1      -4.098   1.613  -0.961  1.00  0.00     0.041 A 
ATOM     16  C   UNL     1      -4.937   0.941  -1.948  1.00  0.00     0.042 A 
ATOM     17  C   UNL     1      -6.321   1.194  -2.112  1.00  0.00     0.028 A 
ATOM     18  Cl  UNL     1      -3.884   3.051   1.147  1.00  0.00    -0.084 Cl
ATOM     19  Cl  UNL     1      -4.141  -0.134  -3.012  1.00  0.00    -0.084 Cl
ENDBRANCH   8  12
BRANCH   7  20
ATOM     20  N   UNL     1     -13.596   3.093  -3.794  1.00  0.00     0.062 N 
ATOM     21  O   UNL     1     -13.704   2.122  -4.449  1.00  0.00    -0.258 OA
ATOM     22  O   UNL     1     -14.691   3.786  -3.635  1.00  0.00    -0.258 OA
ENDBRANCH   7  20
TORSDOF 2
ENDMDL
MODEL 3
REMARK VINA RESULT:    -2.569      5.156      7.569
REMARK INTER + INTRA:          -3.188
REMARK INTER:                  -2.892
REMARK INTRA:                  -0.296
REMARK UNBOUND:                -0.319
REMARK SMILES O=[N+]([O-])c1ccc2c(c1)N[C@@H](c1cc(Cl)cc(Cl)c1)N2
REMARK SMILES IDX 7 1 8 2 5 3 6 4 20 5 10 6 4 7 11 8 9 9 12 12 14 13 13 14
REMARK SMILES IDX 16 15 17 16 19 17 15 18 18 19 2 20 3 21 1 22
REMARK H PARENT 20 10 10 11
ROOT
ATOM      1  C   UNL     1      -6.592   2.555  -0.072  1.00  0.00     0.060 A 
ATOM      2  C   UNL     1      -6.388   1.878  -1.250  1.00  0.00     0.066 A 
ATOM      3  C   UNL     1      -4.326   2.328   0.528  1.00  0.00     0.088 A 
ATOM      4  C   UNL     1      -5.585   2.973   0.665  1.00  0.00     0.035 A 
ATOM      5  N   UNL     1      -7.985   2.945   0.020  1.00  0.00    -0.360 N 
ATOM      6  N   UNL     1      -7.630   1.885  -1.891  1.00  0.00    -0.360 N 
ATOM      7  C   UNL     1      -4.119   1.513  -0.583  1.00  0.00     0.271 A 
ATOM      8  C   UNL     1      -8.331   2.970  -1.306  1.00  0.00     0.205 C 
ATOM      9  C   UNL     1      -5.184   1.306  -1.514  1.00  0.00     0.113 A 
ATOM     10  H   UNL     1      -8.558   3.148   0.852  1.00  0.00     0.163 HD
ATOM     11  H   UNL     1      -7.962   1.244  -2.625  1.00  0.00     0.163 HD
ENDROOT
BRANCH   8  12
ATOM     12  C   UNL     1      -9.833   3.063  -1.693  1.00  0.00    -0.003 A 
ATOM     13  C   UNL     1     -11.584   2.493  -3.349  1.00  0.00     0.042 A 
ATOM     14  C   UNL     1     -10.448   2.105  -2.530  1.00  0.00     0.028 A 
ATOM     15  C   UNL     1     -12.403   3.611  -2.865  1.00  0.00     0.041 A 
ATOM     16  C   UNL     1     -11.876   4.359  -1.729  1.00  0.00     0.042 A 
ATOM     17  C   UNL     1     -10.551   4.228  -1.242  1.00  0.00     0.028 A 
ATOM     18  Cl  UNL     1     -12.197   1.668  -4.521  1.00  0.00    -0.084 Cl
ATOM     19  Cl  UNL     1     -12.920   5.521  -1.037  1.00  0.00    -0.084 Cl
ENDBRANCH   8  12
BRANCH   7  20
ATOM     20  N   UNL     1      -2.899   0.958  -0.908  1.00  0.00     0.062 N 
ATOM     21  O   UNL     1      -1.901   1.496  -0.598  1.00  0.00    -0.258 OA
ATOM     22  O   UNL     1      -2.763  -0.261  -1.355  1.00  0.00    -0.258 OA
ENDBRANCH   7  20
TORSDOF 2
ENDMDL
MODEL 4
REMARK VINA RESULT:    -2.521      5.145      7.801
REMARK INTER + INTRA:          -3.135
REMARK INTER:                  -2.823
REMARK INTRA:                  -0.312
REMARK UNBOUND:                -0.319
REMARK SMILES O=[N+]([O-])c1ccc2c(c1)N[C@@H](c1cc(Cl)cc(Cl)c1)N2
REMARK SMILES IDX 7 1 8 2 5 3 6 4 20 5 10 6 4 7 11 8 9 9 12 12 14 13 13 14
REMARK SMILES IDX 16 15 17 16 19 17 15 18 18 19 2 20 3 21 1 22
REMARK H PARENT 20 10 10 11
ROOT
ATOM      1  C   UNL     1      -6.506   2.646  -0.229  1.00  0.00     0.060 A 
ATOM      2  C   UNL     1      -6.220   2.100  -1.457  1.00  0.00     0.066 A 
ATOM      3  C   UNL     1      -4.322   2.221   0.543  1.00  0.00     0.088 A 
ATOM      4  C   UNL     1      -5.558   2.915   0.642  1.00  0.00     0.035 A 
ATOM      5  N   UNL     1      -7.882   3.101  -0.217  1.00  0.00    -0.360 N 
ATOM      6  N   UNL     1      -7.391   2.253  -2.202  1.00  0.00    -0.360 N 
ATOM      7  C   UNL     1      -4.046   1.531  -0.635  1.00  0.00     0.271 A 
ATOM      8  C   UNL     1      -8.096   3.300  -1.556  1.00  0.00     0.205 C 
ATOM      9  C   UNL     1      -5.023   1.496  -1.678  1.00  0.00     0.113 A 
ATOM     10  H   UNL     1      -8.523   3.237   0.577  1.00  0.00     0.163 HD
ATOM     11  H   UNL     1      -7.680   1.722  -3.037  1.00  0.00     0.163 HD
ENDROOT
BRANCH   8  12
ATOM     12  C   UNL     1      -9.547   3.524  -2.064  1.00  0.00    -0.003 A 
ATOM     13  C   UNL     1     -11.769   4.521  -1.612  1.00  0.00     0.042 A 
ATOM     14  C   UNL     1     -10.320   4.632  -1.647  1.00  0.00     0.028 A 
ATOM     15  C   UNL     1     -12.386   3.557  -2.531  1.00  0.00     0.041 A 
ATOM     16  C   UNL     1     -11.479   2.655  -3.233  1.00  0.00     0.042 A 
ATOM     17  C   UNL     1     -10.110   2.497  -2.903  1.00  0.00     0.028 A 
ATOM     18  Cl  UNL     1     -12.750   5.517  -0.923  1.00  0.00    -0.084 Cl
ATOM     19  Cl  UNL     1     -12.174   1.680  -4.452  1.00  0.00    -0.084 Cl
ENDBRANCH   8  12
BRANCH   7  20
ATOM     20  N   UNL     1      -2.826   0.948  -0.913  1.00  0.00     0.062 N 
ATOM     21  O   UNL     1      -1.828   1.480  -0.592  1.00  0.00    -0.258 OA
ATOM     22  O   UNL     1      -2.699  -0.285  -1.323  1.00  0.00    -0.258 OA
ENDBRANCH   7  20
TORSDOF 2
ENDMDL
MODEL 5
REMARK VINA RESULT:    -2.487      5.014      7.438
REMARK INTER + INTRA:          -3.097
REMARK INTER:                  -2.780
REMARK INTRA:                  -0.316
REMARK UNBOUND:                -0.319
REMARK SMILES O=[N+]([O-])c1ccc2c(c1)N[C@@H](c1cc(Cl)cc(Cl)c1)N2
REMARK SMILES IDX 7 1 8 2 5 3 6 4 20 5 10 6 4 7 11 8 9 9 12 12 14 13 13 14
REMARK SMILES IDX 16 15 17 16 19 17 15 18 18 19 2 20 3 21 1 22
REMARK H PARENT 20 10 10 11
ROOT
ATOM      1  C   UNL     1      -6.430   1.519  -2.578  1.00  0.00     0.060 A 
ATOM      2  C   UNL     1      -6.265   2.095  -1.341  1.00  0.00     0.066 A 
ATOM      3  C   UNL     1      -4.235   0.665  -2.547  1.00  0.00     0.088 A 
ATOM      4  C   UNL     1      -5.563   0.653  -3.055  1.00  0.00     0.035 A 
ATOM      5  N   UNL     1      -7.769   1.796  -3.059  1.00  0.00    -0.360 N 
ATOM      6  N   UNL     1      -7.497   2.684  -1.049  1.00  0.00    -0.360 N 
ATOM      7  C   UNL     1      -3.988   1.359  -1.364  1.00  0.00     0.271 A 
ATOM      8  C   UNL     1      -8.427   2.002  -1.874  1.00  0.00     0.205 C 
ATOM      9  C   UNL     1      -5.051   2.074  -0.730  1.00  0.00     0.113 A 
ATOM     10  H   UNL     1      -8.128   1.829  -4.023  1.00  0.00     0.163 HD
ATOM     11  H   UNL     1      -7.688   3.445  -0.382  1.00  0.00     0.163 HD
ENDROOT
BRANCH   8  12
ATOM     12  C   UNL     1      -9.854   2.619  -1.901  1.00  0.00    -0.003 A 
ATOM     13  C   UNL     1     -11.970   2.888  -3.158  1.00  0.00     0.042 A 
ATOM     14  C   UNL     1     -10.901   2.042  -2.655  1.00  0.00     0.028 A 
ATOM     15  C   UNL     1     -12.258   4.116  -2.408  1.00  0.00     0.041 A 
ATOM     16  C   UNL     1     -11.307   4.475  -1.361  1.00  0.00     0.042 A 
ATOM     17  C   UNL     1     -10.039   3.864  -1.201  1.00  0.00     0.028 A 
ATOM     18  Cl  UNL     1     -13.032   2.488  -4.227  1.00  0.00    -0.084 Cl
ATOM     19  Cl  UNL     1     -11.750   5.783  -0.353  1.00  0.00    -0.084 Cl
ENDBRANCH   8  12
BRANCH   7  20
ATOM     20  N   UNL     1      -2.784   1.320  -0.692  1.00  0.00     0.062 N 
ATOM     21  O   UNL     1      -2.430   2.243  -0.055  1.00  0.00    -0.258 OA
ATOM     22  O   UNL     1      -2.091   0.226  -0.527  1.00  0.00    -0.258 OA
ENDBRANCH   7  20
TORSDOF 2
ENDMDL
MODEL 6
REMARK VINA RESULT:    -2.303      1.949      2.445
REMARK INTER + INTRA:          -2.891
REMARK INTER:                  -2.596
REMARK INTRA:                  -0.295
REMARK UNBOUND:                -0.319
REMARK SMILES O=[N+]([O-])c1ccc2c(c1)N[C@@H](c1cc(Cl)cc(Cl)c1)N2
REMARK SMILES IDX 7 1 8 2 5 3 6 4 20 5 10 6 4 7 11 8 9 9 12 12 14 13 13 14
REMARK SMILES IDX 16 15 17 16 19 17 15 18 18 19 2 20 3 21 1 22
REMARK H PARENT 20 10 10 11
ROOT
ATOM      1  C   UNL     1     -10.622   3.487  -2.320  1.00  0.00     0.060 A 
ATOM      2  C   UNL     1     -10.529   2.320  -3.041  1.00  0.00     0.066 A 
ATOM      3  C   UNL     1     -12.897   3.728  -2.881  1.00  0.00     0.088 A 
ATOM      4  C   UNL     1     -11.786   4.036  -2.050  1.00  0.00     0.035 A 
ATOM      5  N   UNL     1      -9.336   3.782  -1.721  1.00  0.00    -0.360 N 
ATOM      6  N   UNL     1      -9.214   1.885  -2.855  1.00  0.00    -0.360 N 
ATOM      7  C   UNL     1     -12.796   2.633  -3.737  1.00  0.00     0.271 A 
ATOM      8  C   UNL     1      -8.786   2.528  -1.665  1.00  0.00     0.205 C 
ATOM      9  C   UNL     1     -11.575   1.892  -3.794  1.00  0.00     0.113 A 
ATOM     10  H   UNL     1      -8.943   4.685  -1.419  1.00  0.00     0.163 HD
ATOM     11  H   UNL     1      -8.675   1.239  -3.449  1.00  0.00     0.163 HD
ENDROOT
BRANCH   8  12
ATOM     12  C   UNL     1      -7.271   2.380  -1.350  1.00  0.00    -0.003 A 
ATOM     13  C   UNL     1      -5.160   1.186  -1.846  1.00  0.00     0.042 A 
ATOM     14  C   UNL     1      -6.359   1.870  -2.301  1.00  0.00     0.028 A 
ATOM     15  C   UNL     1      -4.642   1.556  -0.524  1.00  0.00     0.041 A 
ATOM     16  C   UNL     1      -5.496   2.412   0.292  1.00  0.00     0.042 A 
ATOM     17  C   UNL     1      -6.852   2.693  -0.008  1.00  0.00     0.028 A 
ATOM     18  Cl  UNL     1      -4.204   0.325  -2.727  1.00  0.00    -0.084 Cl
ATOM     19  Cl  UNL     1      -4.807   3.012   1.737  1.00  0.00    -0.084 Cl
ENDBRANCH   8  12
BRANCH   7  20
ATOM     20  N   UNL     1     -13.851   2.142  -4.477  1.00  0.00     0.062 N 
ATOM     21  O   UNL     1     -14.195   1.025  -4.351  1.00  0.00    -0.258 OA
ATOM     22  O   UNL     1     -14.658   2.902  -5.167  1.00  0.00    -0.258 OA
ENDBRANCH   7  20
TORSDOF 2
ENDMDL
MODEL 7
REMARK VINA RESULT:    -2.248      0.619      2.080
REMARK INTER + INTRA:          -2.830
REMARK INTER:                  -2.531
REMARK INTRA:                  -0.299
REMARK UNBOUND:                -0.319
REMARK SMILES O=[N+]([O-])c1ccc2c(c1)N[C@@H](c1cc(Cl)cc(Cl)c1)N2
REMARK SMILES IDX 7 1 8 2 5 3 6 4 20 5 10 6 4 7 11 8 9 9 12 12 14 13 13 14
REMARK SMILES IDX 16 15 17 16 19 17 15 18 18 19 2 20 3 21 1 22
REMARK H PARENT 20 10 10 11
ROOT
ATOM      1  C   UNL     1     -10.639   2.995  -2.198  1.00  0.00     0.060 A 
ATOM      2  C   UNL     1     -10.270   4.008  -1.345  1.00  0.00     0.066 A 
ATOM      3  C   UNL     1     -12.759   3.965  -2.538  1.00  0.00     0.088 A 
ATOM      4  C   UNL     1     -11.720   3.083  -2.943  1.00  0.00     0.035 A 
ATOM      5  N   UNL     1      -9.545   2.053  -2.323  1.00  0.00    -0.360 N 
ATOM      6  N   UNL     1      -8.954   3.713  -0.982  1.00  0.00    -0.360 N 
ATOM      7  C   UNL     1     -12.470   4.922  -1.568  1.00  0.00     0.271 A 
ATOM      8  C   UNL     1      -8.480   2.857  -2.009  1.00  0.00     0.205 C 
ATOM      9  C   UNL     1     -11.170   4.956  -0.974  1.00  0.00     0.113 A 
ATOM     10  H   UNL     1      -9.562   1.055  -2.578  1.00  0.00     0.163 HD
ATOM     11  H   UNL     1      -8.441   4.044  -0.153  1.00  0.00     0.163 HD
ENDROOT
BRANCH   8  12
ATOM     12  C   UNL     1      -7.097   2.204  -1.731  1.00  0.00    -0.003 A 
ATOM     13  C   UNL     1      -5.000   2.277  -0.416  1.00  0.00     0.042 A 
ATOM     14  C   UNL     1      -6.451   2.332  -0.481  1.00  0.00     0.028 A 
ATOM     15  C   UNL     1      -4.315   1.521  -1.471  1.00  0.00     0.041 A 
ATOM     16  C   UNL     1      -5.135   1.084  -2.595  1.00  0.00     0.042 A 
ATOM     17  C   UNL     1      -6.454   1.543  -2.838  1.00  0.00     0.028 A 
ATOM     18  Cl  UNL     1      -4.118   2.677   0.805  1.00  0.00    -0.084 Cl
ATOM     19  Cl  UNL     1      -4.388   0.031  -3.715  1.00  0.00    -0.084 Cl
ENDBRANCH   8  12
BRANCH   7  20
ATOM     20  N   UNL     1     -13.341   5.928  -1.203  1.00  0.00     0.062 N 
ATOM     21  O   UNL     1     -12.930   6.986  -0.894  1.00  0.00    -0.258 OA
ATOM     22  O   UNL     1     -14.631   5.860  -1.388  1.00  0.00    -0.258 OA
ENDBRANCH   7  20
TORSDOF 2
ENDMDL
MODEL 8
REMARK VINA RESULT:    -1.666      3.032      4.350
REMARK INTER + INTRA:          -2.179
REMARK INTER:                  -1.870
REMARK INTRA:                  -0.310
REMARK UNBOUND:                -0.319
REMARK SMILES O=[N+]([O-])c1ccc2c(c1)N[C@@H](c1cc(Cl)cc(Cl)c1)N2
REMARK SMILES IDX 7 1 8 2 5 3 6 4 20 5 10 6 4 7 11 8 9 9 12 12 14 13 13 14
REMARK SMILES IDX 16 15 17 16 19 17 15 18 18 19 2 20 3 21 1 22
REMARK H PARENT 20 10 10 11
ROOT
ATOM      1  C   UNL     1     -12.500   5.965  -0.845  1.00  0.00     0.060 A 
ATOM      2  C   UNL     1     -11.543   6.841  -1.300  1.00  0.00     0.066 A 
ATOM      3  C   UNL     1     -14.128   7.667  -0.797  1.00  0.00     0.088 A 
ATOM      4  C   UNL     1     -13.775   6.291  -0.822  1.00  0.00     0.035 A 
ATOM      5  N   UNL     1     -11.914   4.647  -0.705  1.00  0.00    -0.360 N 
ATOM      6  N   UNL     1     -10.396   6.063  -1.475  1.00  0.00    -0.360 N 
ATOM      7  C   UNL     1     -13.149   8.605  -1.115  1.00  0.00     0.271 A 
ATOM      8  C   UNL     1     -10.876   4.734  -1.596  1.00  0.00     0.205 C 
ATOM      9  C   UNL     1     -11.818   8.167  -1.401  1.00  0.00     0.113 A 
ATOM     10  H   UNL     1     -12.199   3.861  -0.103  1.00  0.00     0.163 HD
ATOM     11  H   UNL     1      -9.418   6.383  -1.508  1.00  0.00     0.163 HD
ENDROOT
BRANCH   8  12
ATOM     12  C   UNL     1      -9.776   3.636  -1.583  1.00  0.00    -0.003 A 
ATOM     13  C   UNL     1      -8.427   2.073  -0.216  1.00  0.00     0.042 A 
ATOM     14  C   UNL     1      -9.711   2.659  -0.564  1.00  0.00     0.028 A 
ATOM     15  C   UNL     1      -7.402   2.043  -1.264  1.00  0.00     0.041 A 
ATOM     16  C   UNL     1      -7.694   2.795  -2.481  1.00  0.00     0.042 A 
ATOM     17  C   UNL     1      -8.761   3.718  -2.602  1.00  0.00     0.028 A 
ATOM     18  Cl  UNL     1      -8.124   1.211   1.047  1.00  0.00    -0.084 Cl
ATOM     19  Cl  UNL     1      -6.600   2.591  -3.778  1.00  0.00    -0.084 Cl
ENDBRANCH   8  12
BRANCH   7  20
ATOM     20  N   UNL     1     -13.402   9.952  -1.274  1.00  0.00     0.062 N 
ATOM     21  O   UNL     1     -13.009  10.521  -2.225  1.00  0.00    -0.258 OA
ATOM     22  O   UNL     1     -14.254  10.612  -0.537  1.00  0.00    -0.258 OA
ENDBRANCH   7  20
TORSDOF 2
ENDMDL
MODEL 9
REMARK VINA RESULT:    -1.425      5.133      7.550
REMARK INTER + INTRA:          -1.911
REMARK INTER:                  -1.602
REMARK INTRA:                  -0.308
REMARK UNBOUND:                -0.319
REMARK SMILES O=[N+]([O-])c1ccc2c(c1)N[C@@H](c1cc(Cl)cc(Cl)c1)N2
REMARK SMILES IDX 7 1 8 2 5 3 6 4 20 5 10 6 4 7 11 8 9 9 12 12 14 13 13 14
REMARK SMILES IDX 16 15 17 16 19 17 15 18 18 19 2 20 3 21 1 22
REMARK H PARENT 20 10 10 11
ROOT
ATOM      1  C   UNL     1      -9.226   2.972  -3.091  1.00  0.00     0.060 A 
ATOM      2  C   UNL     1      -9.662   2.442  -1.900  1.00  0.00     0.066 A 
ATOM      3  C   UNL     1      -7.086   3.388  -2.197  1.00  0.00     0.088 A 
ATOM      4  C   UNL     1      -7.950   3.209  -3.311  1.00  0.00     0.035 A 
ATOM      5  N   UNL     1     -10.304   2.926  -4.059  1.00  0.00    -0.360 N 
ATOM      6  N   UNL     1     -10.978   2.041  -2.145  1.00  0.00    -0.360 N 
ATOM      7  C   UNL     1      -7.542   2.995  -0.940  1.00  0.00     0.271 A 
ATOM      8  C   UNL     1     -11.056   1.897  -3.554  1.00  0.00     0.205 C 
ATOM      9  C   UNL     1      -8.868   2.480  -0.799  1.00  0.00     0.113 A 
ATOM     10  H   UNL     1     -10.462   3.505  -4.895  1.00  0.00     0.163 HD
ATOM     11  H   UNL     1     -11.726   1.884  -1.455  1.00  0.00     0.163 HD
ENDROOT
BRANCH   8  12
ATOM     12  C   UNL     1     -12.488   1.665  -4.110  1.00  0.00    -0.003 A 
ATOM     13  C   UNL     1     -14.656   2.684  -4.737  1.00  0.00     0.042 A 
ATOM     14  C   UNL     1     -13.203   2.686  -4.775  1.00  0.00     0.028 A 
ATOM     15  C   UNL     1     -15.316   1.385  -4.558  1.00  0.00     0.041 A 
ATOM     16  C   UNL     1     -14.452   0.258  -4.223  1.00  0.00     0.042 A 
ATOM     17  C   UNL     1     -13.097   0.390  -3.830  1.00  0.00     0.028 A 
ATOM     18  Cl  UNL     1     -15.589   3.860  -5.158  1.00  0.00    -0.084 Cl
ATOM     19  Cl  UNL     1     -15.187  -1.285  -4.221  1.00  0.00    -0.084 Cl
ENDBRANCH   8  12
BRANCH   7  20
ATOM     20  N   UNL     1      -6.749   2.973   0.189  1.00  0.00     0.062 N 
ATOM     21  O   UNL     1      -5.873   3.748   0.313  1.00  0.00    -0.258 OA
ATOM     22  O   UNL     1      -7.042   2.282   1.257  1.00  0.00    -0.258 OA
ENDBRANCH   7  20
TORSDOF 2
ENDMDL
