MODEL 1
REMARK VINA RESULT:    -3.078      0.000      0.000
REMARK INTER + INTRA:          -3.756
REMARK INTER:                  -3.438
REMARK INTRA:                  -0.318
REMARK UNBOUND:                -0.318
REMARK SMILES O=[N+]([O-])c1ccc2c(c1)N[C@@H](c1cc(Cl)cc(Cl)c1)N2
REMARK SMILES IDX 7 1 8 2 5 3 6 4 20 5 10 6 4 7 11 8 9 9 12 12 14 13 13 14
REMARK SMILES IDX 16 15 17 16 19 17 15 18 18 19 2 20 3 21 1 22
REMARK H PARENT 20 10 10 11
ROOT
ATOM      1  C   UNL     1     -11.394  -9.742  13.405  1.00  0.00     0.060 A 
ATOM      2  C   UNL     1     -10.626  -9.450  12.303  1.00  0.00     0.066 A 
ATOM      3  C   UNL     1     -12.751  -7.851  13.042  1.00  0.00     0.088 A 
ATOM      4  C   UNL     1     -12.535  -9.127  13.631  1.00  0.00     0.035 A 
ATOM      5  N   UNL     1     -10.895 -10.952  14.028  1.00  0.00    -0.360 N 
ATOM      6  N   UNL     1      -9.693 -10.487  12.228  1.00  0.00    -0.360 N 
ATOM      7  C   UNL     1     -11.905  -7.449  12.012  1.00  0.00     0.271 A 
ATOM      8  C   UNL     1     -10.277 -11.551  12.961  1.00  0.00     0.205 C 
ATOM      9  C   UNL     1     -10.822  -8.295  11.616  1.00  0.00     0.113 A 
ATOM     10  H   UNL     1     -10.982 -11.275  15.002  1.00  0.00     0.163 HD
ATOM     11  H   UNL     1      -8.783 -10.481  11.746  1.00  0.00     0.163 HD
ENDROOT
BRANCH   8  12
ATOM     12  C   UNL     1      -9.339 -12.764  13.216  1.00  0.00    -0.003 A 
ATOM     13  C   UNL     1      -8.841 -14.736  14.628  1.00  0.00     0.042 A 
ATOM     14  C   UNL     1      -9.789 -13.927  13.880  1.00  0.00     0.028 A 
ATOM     15  C   UNL     1      -7.438 -14.686  14.200  1.00  0.00     0.041 A 
ATOM     16  C   UNL     1      -7.097 -13.672  13.208  1.00  0.00     0.042 A 
ATOM     17  C   UNL     1      -7.958 -12.611  12.834  1.00  0.00     0.028 A 
ATOM     18  Cl  UNL     1      -9.196 -15.868  15.639  1.00  0.00    -0.084 Cl
ATOM     19  Cl  UNL     1      -5.519 -13.750  12.557  1.00  0.00    -0.084 Cl
ENDBRANCH   8  12
BRANCH   7  20
ATOM     20  N   UNL     1     -12.102  -6.308  11.261  1.00  0.00     0.062 N 
ATOM     21  O   UNL     1     -11.568  -6.183  10.221  1.00  0.00    -0.258 OA
ATOM     22  O   UNL     1     -13.033  -5.431  11.523  1.00  0.00    -0.258 OA
ENDBRANCH   7  20
TORSDOF 2
ENDMDL
MODEL 2
REMARK VINA RESULT:    -3.035      0.952      2.213
REMARK INTER + INTRA:          -3.708
REMARK INTER:                  -3.419
REMARK INTRA:                  -0.289
REMARK UNBOUND:                -0.318
REMARK SMILES O=[N+]([O-])c1ccc2c(c1)N[C@@H](c1cc(Cl)cc(Cl)c1)N2
REMARK SMILES IDX 7 1 8 2 5 3 6 4 20 5 10 6 4 7 11 8 9 9 12 12 14 13 13 14
REMARK SMILES IDX 16 15 17 16 19 17 15 18 18 19 2 20 3 21 1 22
REMARK H PARENT 20 10 10 11
ROOT
ATOM      1  C   UNL     1     -11.531 -10.518  12.353  1.00  0.00     0.060 A 
ATOM      2  C   UNL     1     -10.516  -9.591  12.335  1.00  0.00     0.066 A 
ATOM      3  C   UNL     1     -13.078  -8.937  11.544  1.00  0.00     0.088 A 
ATOM      4  C   UNL     1     -12.686 -10.284  11.768  1.00  0.00     0.035 A 
ATOM      5  N   UNL     1     -11.012 -11.786  12.827  1.00  0.00    -0.360 N 
ATOM      6  N   UNL     1      -9.381 -10.290  12.754  1.00  0.00    -0.360 N 
ATOM      7  C   UNL     1     -12.109  -7.941  11.654  1.00  0.00     0.271 A 
ATOM      8  C   UNL     1      -9.685 -11.653  12.508  1.00  0.00     0.205 C 
ATOM      9  C   UNL     1     -10.777  -8.292  12.037  1.00  0.00     0.113 A 
ATOM     10  H   UNL     1     -11.503 -12.570  13.278  1.00  0.00     0.163 HD
ATOM     11  H   UNL     1      -8.515  -9.902  13.153  1.00  0.00     0.163 HD
ENDROOT
BRANCH   8  12
ATOM     12  C   UNL     1      -8.663 -12.668  13.092  1.00  0.00    -0.003 A 
ATOM     13  C   UNL     1      -6.477 -13.798  12.813  1.00  0.00     0.042 A 
ATOM     14  C   UNL     1      -7.283 -12.588  12.798  1.00  0.00     0.028 A 
ATOM     15  C   UNL     1      -6.935 -14.893  13.675  1.00  0.00     0.041 A 
ATOM     16  C   UNL     1      -8.262 -14.746  14.264  1.00  0.00     0.042 A 
ATOM     17  C   UNL     1      -9.198 -13.759  13.867  1.00  0.00     0.028 A 
ATOM     18  Cl  UNL     1      -5.032 -13.945  12.248  1.00  0.00    -0.084 Cl
ATOM     19  Cl  UNL     1      -8.708 -15.915  15.428  1.00  0.00    -0.084 Cl
ENDBRANCH   8  12
BRANCH   7  20
ATOM     20  N   UNL     1     -12.326  -6.622  11.314  1.00  0.00     0.062 N 
ATOM     21  O   UNL     1     -12.119  -6.250  10.218  1.00  0.00    -0.258 OA
ATOM     22  O   UNL     1     -12.967  -5.781  12.080  1.00  0.00    -0.258 OA
ENDBRANCH   7  20
TORSDOF 2
ENDMDL
MODEL 3
REMARK VINA RESULT:    -2.793      4.773      7.136
REMARK INTER + INTRA:          -3.437
REMARK INTER:                  -3.127
REMARK INTRA:                  -0.310
REMARK UNBOUND:                -0.318
REMARK SMILES O=[N+]([O-])c1ccc2c(c1)N[C@@H](c1cc(Cl)cc(Cl)c1)N2
REMARK SMILES IDX 7 1 8 2 5 3 6 4 20 5 10 6 4 7 11 8 9 9 12 12 14 13 13 14
REMARK SMILES IDX 16 15 17 16 19 17 15 18 18 19 2 20 3 21 1 22
REMARK H PARENT 20 10 10 11
ROOT
ATOM      1  C   UNL     1      -8.424 -12.849  12.320  1.00  0.00     0.060 A 
ATOM      2  C   UNL     1      -9.074 -12.778  11.111  1.00  0.00     0.066 A 
ATOM      3  C   UNL     1      -6.927 -14.470  11.494  1.00  0.00     0.088 A 
ATOM      4  C   UNL     1      -7.271 -13.471  12.445  1.00  0.00     0.035 A 
ATOM      5  N   UNL     1      -9.047 -11.931  13.253  1.00  0.00    -0.360 N 
ATOM      6  N   UNL     1     -10.058 -11.801  11.288  1.00  0.00    -0.360 N 
ATOM      7  C   UNL     1      -7.655 -14.528  10.308  1.00  0.00     0.271 A 
ATOM      8  C   UNL     1      -9.605 -11.028  12.387  1.00  0.00     0.205 C 
ATOM      9  C   UNL     1      -8.749 -13.630  10.105  1.00  0.00     0.113 A 
ATOM     10  H   UNL     1      -9.065 -11.951  14.283  1.00  0.00     0.163 HD
ATOM     11  H   UNL     1     -10.921 -11.672  10.741  1.00  0.00     0.163 HD
ENDROOT
BRANCH   8  12
ATOM     12  C   UNL     1     -10.635  -9.998  12.930  1.00  0.00    -0.003 A 
ATOM     13  C   UNL     1     -12.549  -9.586  14.446  1.00  0.00     0.042 A 
ATOM     14  C   UNL     1     -11.226 -10.137  14.206  1.00  0.00     0.028 A 
ATOM     15  C   UNL     1     -12.954  -8.442  13.621  1.00  0.00     0.041 A 
ATOM     16  C   UNL     1     -12.081  -8.107  12.501  1.00  0.00     0.042 A 
ATOM     17  C   UNL     1     -11.038  -8.944  12.034  1.00  0.00     0.028 A 
ATOM     18  Cl  UNL     1     -13.460  -9.885  15.675  1.00  0.00    -0.084 Cl
ATOM     19  Cl  UNL     1     -12.436  -6.655  11.671  1.00  0.00    -0.084 Cl
ENDBRANCH   8  12
BRANCH   7  20
ATOM     20  N   UNL     1      -7.324 -15.346   9.247  1.00  0.00     0.062 N 
ATOM     21  O   UNL     1      -8.156 -15.724   8.507  1.00  0.00    -0.258 OA
ATOM     22  O   UNL     1      -6.094 -15.559   8.864  1.00  0.00    -0.258 OA
ENDBRANCH   7  20
TORSDOF 2
ENDMDL
MODEL 4
REMARK VINA RESULT:    -2.751      7.779      9.957
REMARK INTER + INTRA:          -3.391
REMARK INTER:                  -3.083
REMARK INTRA:                  -0.308
REMARK UNBOUND:                -0.318
REMARK SMILES O=[N+]([O-])c1ccc2c(c1)N[C@@H](c1cc(Cl)cc(Cl)c1)N2
REMARK SMILES IDX 7 1 8 2 5 3 6 4 20 5 10 6 4 7 11 8 9 9 12 12 14 13 13 14
REMARK SMILES IDX 16 15 17 16 19 17 15 18 18 19 2 20 3 21 1 22
REMARK H PARENT 20 10 10 11
ROOT
ATOM      1  C   UNL     1      -7.673 -11.147   7.503  1.00  0.00     0.060 A 
ATOM      2  C   UNL     1      -6.318 -11.154   7.731  1.00  0.00     0.066 A 
ATOM      3  C   UNL     1      -7.918 -13.263   8.509  1.00  0.00     0.088 A 
ATOM      4  C   UNL     1      -8.469 -12.030   8.068  1.00  0.00     0.035 A 
ATOM      5  N   UNL     1      -8.040  -9.914   6.837  1.00  0.00    -0.360 N 
ATOM      6  N   UNL     1      -5.865  -9.924   7.245  1.00  0.00    -0.360 N 
ATOM      7  C   UNL     1      -6.533 -13.364   8.620  1.00  0.00     0.271 A 
ATOM      8  C   UNL     1      -7.015  -9.095   7.233  1.00  0.00     0.205 C 
ATOM      9  C   UNL     1      -5.712 -12.257   8.241  1.00  0.00     0.113 A 
ATOM     10  H   UNL     1      -8.849  -9.708   6.232  1.00  0.00     0.163 HD
ATOM     11  H   UNL     1      -4.907  -9.675   6.960  1.00  0.00     0.163 HD
ENDROOT
BRANCH   8  12
ATOM     12  C   UNL     1      -6.827  -7.725   6.525  1.00  0.00    -0.003 A 
ATOM     13  C   UNL     1      -7.079  -6.422   4.434  1.00  0.00     0.042 A 
ATOM     14  C   UNL     1      -7.621  -7.341   5.421  1.00  0.00     0.028 A 
ATOM     15  C   UNL     1      -6.038  -5.493   4.889  1.00  0.00     0.041 A 
ATOM     16  C   UNL     1      -5.499  -5.725   6.225  1.00  0.00     0.042 A 
ATOM     17  C   UNL     1      -5.736  -6.900   6.980  1.00  0.00     0.028 A 
ATOM     18  Cl  UNL     1      -7.686  -6.117   3.031  1.00  0.00    -0.084 Cl
ATOM     19  Cl  UNL     1      -4.444  -4.527   6.834  1.00  0.00    -0.084 Cl
ENDBRANCH   8  12
BRANCH   7  20
ATOM     20  N   UNL     1      -5.887 -14.448   9.179  1.00  0.00     0.062 N 
ATOM     21  O   UNL     1      -5.851 -15.476   8.608  1.00  0.00    -0.258 OA
ATOM     22  O   UNL     1      -5.106 -14.357  10.220  1.00  0.00    -0.258 OA
ENDBRANCH   7  20
TORSDOF 2
ENDMDL
MODEL 5
REMARK VINA RESULT:    -2.712      1.811      2.530
REMARK INTER + INTRA:          -3.347
REMARK INTER:                  -3.046
REMARK INTRA:                  -0.302
REMARK UNBOUND:                -0.318
REMARK SMILES O=[N+]([O-])c1ccc2c(c1)N[C@@H](c1cc(Cl)cc(Cl)c1)N2
REMARK SMILES IDX 7 1 8 2 5 3 6 4 20 5 10 6 4 7 11 8 9 9 12 12 14 13 13 14
REMARK SMILES IDX 16 15 17 16 19 17 15 18 18 19 2 20 3 21 1 22
REMARK H PARENT 20 10 10 11
ROOT
ATOM      1  C   UNL     1     -11.019 -10.406  13.288  1.00  0.00     0.060 A 
ATOM      2  C   UNL     1     -10.552  -9.729  12.186  1.00  0.00     0.066 A 
ATOM      3  C   UNL     1     -12.577  -8.703  13.756  1.00  0.00     0.088 A 
ATOM      4  C   UNL     1     -12.125 -10.043  13.900  1.00  0.00     0.035 A 
ATOM      5  N   UNL     1     -10.291 -11.652  13.427  1.00  0.00    -0.360 N 
ATOM      6  N   UNL     1      -9.578 -10.565  11.635  1.00  0.00    -0.360 N 
ATOM      7  C   UNL     1     -12.027  -7.928  12.737  1.00  0.00     0.271 A 
ATOM      8  C   UNL     1      -9.886 -11.857  12.134  1.00  0.00     0.205 C 
ATOM      9  C   UNL     1     -10.998  -8.476  11.910  1.00  0.00     0.113 A 
ATOM     10  H   UNL     1     -10.124 -12.226  14.266  1.00  0.00     0.163 HD
ATOM     11  H   UNL     1      -8.806 -10.302  11.005  1.00  0.00     0.163 HD
ENDROOT
BRANCH   8  12
ATOM     12  C   UNL     1      -8.816 -12.944  11.840  1.00  0.00    -0.003 A 
ATOM     13  C   UNL     1      -6.431 -13.596  11.989  1.00  0.00     0.042 A 
ATOM     14  C   UNL     1      -7.629 -13.046  12.601  1.00  0.00     0.028 A 
ATOM     15  C   UNL     1      -6.622 -14.540  10.882  1.00  0.00     0.041 A 
ATOM     16  C   UNL     1      -7.980 -14.669  10.364  1.00  0.00     0.042 A 
ATOM     17  C   UNL     1      -9.038 -13.785  10.692  1.00  0.00     0.028 A 
ATOM     18  Cl  UNL     1      -4.986 -13.523  12.569  1.00  0.00    -0.084 Cl
ATOM     19  Cl  UNL     1      -8.241 -15.914   9.223  1.00  0.00    -0.084 Cl
ENDBRANCH   8  12
BRANCH   7  20
ATOM     20  N   UNL     1     -12.488  -6.672  12.398  1.00  0.00     0.062 N 
ATOM     21  O   UNL     1     -12.961  -5.973  13.216  1.00  0.00    -0.258 OA
ATOM     22  O   UNL     1     -12.232  -6.102  11.252  1.00  0.00    -0.258 OA
ENDBRANCH   7  20
TORSDOF 2
ENDMDL
MODEL 6
REMARK VINA RESULT:    -2.304      9.543     11.241
REMARK INTER + INTRA:          -2.892
REMARK INTER:                  -2.582
REMARK INTRA:                  -0.309
REMARK UNBOUND:                -0.318
REMARK SMILES O=[N+]([O-])c1ccc2c(c1)N[C@@H](c1cc(Cl)cc(Cl)c1)N2
REMARK SMILES IDX 7 1 8 2 5 3 6 4 20 5 10 6 4 7 11 8 9 9 12 12 14 13 13 14
REMARK SMILES IDX 16 15 17 16 19 17 15 18 18 19 2 20 3 21 1 22
REMARK H PARENT 20 10 10 11
ROOT
ATOM      1  C   UNL     1      -5.111  -5.675   3.603  1.00  0.00     0.060 A 
ATOM      2  C   UNL     1      -4.826  -4.636   4.457  1.00  0.00     0.066 A 
ATOM      3  C   UNL     1      -3.852  -4.687   1.875  1.00  0.00     0.088 A 
ATOM      4  C   UNL     1      -4.472  -5.822   2.463  1.00  0.00     0.035 A 
ATOM      5  N   UNL     1      -5.947  -6.641   4.288  1.00  0.00    -0.360 N 
ATOM      6  N   UNL     1      -5.446  -4.978   5.661  1.00  0.00    -0.360 N 
ATOM      7  C   UNL     1      -3.669  -3.553   2.664  1.00  0.00     0.271 A 
ATOM      8  C   UNL     1      -5.616  -6.384   5.593  1.00  0.00     0.205 C 
ATOM      9  C   UNL     1      -4.152  -3.544   4.010  1.00  0.00     0.113 A 
ATOM     10  H   UNL     1      -6.607  -7.330   3.902  1.00  0.00     0.163 HD
ATOM     11  H   UNL     1      -5.720  -4.348   6.429  1.00  0.00     0.163 HD
ENDROOT
BRANCH   8  12
ATOM     12  C   UNL     1      -6.486  -6.995   6.727  1.00  0.00    -0.003 A 
ATOM     13  C   UNL     1      -7.688  -8.989   7.568  1.00  0.00     0.042 A 
ATOM     14  C   UNL     1      -6.501  -8.383   6.988  1.00  0.00     0.028 A 
ATOM     15  C   UNL     1      -8.545  -8.125   8.387  1.00  0.00     0.041 A 
ATOM     16  C   UNL     1      -8.241  -6.698   8.364  1.00  0.00     0.042 A 
ATOM     17  C   UNL     1      -7.357  -6.093   7.437  1.00  0.00     0.028 A 
ATOM     18  Cl  UNL     1      -7.989 -10.516   7.659  1.00  0.00    -0.084 Cl
ATOM     19  Cl  UNL     1      -9.100  -5.722   9.474  1.00  0.00    -0.084 Cl
ENDBRANCH   8  12
BRANCH   7  20
ATOM     20  N   UNL     1      -2.948  -2.448   2.261  1.00  0.00     0.062 N 
ATOM     21  O   UNL     1      -1.909  -2.581   1.726  1.00  0.00    -0.258 OA
ATOM     22  O   UNL     1      -3.445  -1.242   2.230  1.00  0.00    -0.258 OA
ENDBRANCH   7  20
TORSDOF 2
ENDMDL
MODEL 7
REMARK VINA RESULT:    -2.288      8.729     10.941
REMARK INTER + INTRA:          -2.874
REMARK INTER:                  -2.567
REMARK INTRA:                  -0.307
REMARK UNBOUND:                -0.318
REMARK SMILES O=[N+]([O-])c1ccc2c(c1)N[C@@H](c1cc(Cl)cc(Cl)c1)N2
REMARK SMILES IDX 7 1 8 2 5 3 6 4 20 5 10 6 4 7 11 8 9 9 12 12 14 13 13 14
REMARK SMILES IDX 16 15 17 16 19 17 15 18 18 19 2 20 3 21 1 22
REMARK H PARENT 20 10 10 11
ROOT
ATOM      1  C   UNL     1      -7.304  -7.561   7.145  1.00  0.00     0.060 A 
ATOM      2  C   UNL     1      -6.489  -8.499   6.556  1.00  0.00     0.066 A 
ATOM      3  C   UNL     1      -8.514  -9.232   8.282  1.00  0.00     0.088 A 
ATOM      4  C   UNL     1      -8.111  -7.877   8.135  1.00  0.00     0.035 A 
ATOM      5  N   UNL     1      -6.903  -6.238   6.709  1.00  0.00    -0.360 N 
ATOM      6  N   UNL     1      -5.577  -7.759   5.799  1.00  0.00    -0.360 N 
ATOM      7  C   UNL     1      -7.805 -10.210   7.588  1.00  0.00     0.271 A 
ATOM      8  C   UNL     1      -5.593  -6.465   6.378  1.00  0.00     0.205 C 
ATOM      9  C   UNL     1      -6.738  -9.825   6.717  1.00  0.00     0.113 A 
ATOM     10  H   UNL     1      -7.452  -5.368   6.661  1.00  0.00     0.163 HD
ATOM     11  H   UNL     1      -5.017  -8.083   4.997  1.00  0.00     0.163 HD
ENDROOT
BRANCH   8  12
ATOM     12  C   UNL     1      -4.818  -5.381   5.579  1.00  0.00    -0.003 A 
ATOM     13  C   UNL     1      -4.243  -2.981   5.365  1.00  0.00     0.042 A 
ATOM     14  C   UNL     1      -4.390  -4.175   6.181  1.00  0.00     0.028 A 
ATOM     15  C   UNL     1      -3.957  -3.179   3.940  1.00  0.00     0.041 A 
ATOM     16  C   UNL     1      -4.060  -4.545   3.439  1.00  0.00     0.042 A 
ATOM     17  C   UNL     1      -4.641  -5.612   4.168  1.00  0.00     0.028 A 
ATOM     18  Cl  UNL     1      -4.063  -1.525   5.893  1.00  0.00    -0.084 Cl
ATOM     19  Cl  UNL     1      -3.526  -4.807   1.837  1.00  0.00    -0.084 Cl
ENDBRANCH   8  12
BRANCH   7  20
ATOM     20  N   UNL     1      -7.998 -11.565   7.764  1.00  0.00     0.062 N 
ATOM     21  O   UNL     1      -7.226 -12.198   8.385  1.00  0.00    -0.258 OA
ATOM     22  O   UNL     1      -9.115 -12.173   7.471  1.00  0.00    -0.258 OA
ENDBRANCH   7  20
TORSDOF 2
ENDMDL
MODEL 8
REMARK VINA RESULT:    -2.209      1.613      2.353
REMARK INTER + INTRA:          -2.786
REMARK INTER:                  -2.495
REMARK INTRA:                  -0.290
REMARK UNBOUND:                -0.318
REMARK SMILES O=[N+]([O-])c1ccc2c(c1)N[C@@H](c1cc(Cl)cc(Cl)c1)N2
REMARK SMILES IDX 7 1 8 2 5 3 6 4 20 5 10 6 4 7 11 8 9 9 12 12 14 13 13 14
REMARK SMILES IDX 16 15 17 16 19 17 15 18 18 19 2 20 3 21 1 22
REMARK H PARENT 20 10 10 11
ROOT
ATOM      1  C   UNL     1     -10.523  -9.496  12.558  1.00  0.00     0.060 A 
ATOM      2  C   UNL     1     -11.861  -9.709  12.327  1.00  0.00     0.066 A 
ATOM      3  C   UNL     1     -10.707  -7.235  11.920  1.00  0.00     0.088 A 
ATOM      4  C   UNL     1     -10.016  -8.282  12.589  1.00  0.00     0.035 A 
ATOM      5  N   UNL     1      -9.915 -10.728  13.018  1.00  0.00    -0.360 N 
ATOM      6  N   UNL     1     -12.079 -11.044  12.678  1.00  0.00    -0.360 N 
ATOM      7  C   UNL     1     -12.028  -7.457  11.538  1.00  0.00     0.271 A 
ATOM      8  C   UNL     1     -11.006 -11.369  13.545  1.00  0.00     0.205 C 
ATOM      9  C   UNL     1     -12.628  -8.732  11.777  1.00  0.00     0.113 A 
ATOM     10  H   UNL     1      -8.934 -11.037  12.965  1.00  0.00     0.163 HD
ATOM     11  H   UNL     1     -12.850 -11.656  12.374  1.00  0.00     0.163 HD
ENDROOT
BRANCH   8  12
ATOM     12  C   UNL     1     -10.892 -12.875  13.911  1.00  0.00    -0.003 A 
ATOM     13  C   UNL     1     -11.911 -14.804  15.084  1.00  0.00     0.042 A 
ATOM     14  C   UNL     1     -12.032 -13.661  14.194  1.00  0.00     0.028 A 
ATOM     15  C   UNL     1     -10.594 -15.445  15.169  1.00  0.00     0.041 A 
ATOM     16  C   UNL     1      -9.488 -14.748  14.522  1.00  0.00     0.042 A 
ATOM     17  C   UNL     1      -9.563 -13.414  14.049  1.00  0.00     0.028 A 
ATOM     18  Cl  UNL     1     -13.090 -15.598  15.724  1.00  0.00    -0.084 Cl
ATOM     19  Cl  UNL     1      -8.004 -15.592  14.440  1.00  0.00    -0.084 Cl
ENDBRANCH   8  12
BRANCH   7  20
ATOM     20  N   UNL     1     -12.850  -6.475  11.023  1.00  0.00     0.062 N 
ATOM     21  O   UNL     1     -13.199  -5.579  11.698  1.00  0.00    -0.258 OA
ATOM     22  O   UNL     1     -13.100  -6.348   9.748  1.00  0.00    -0.258 OA
ENDBRANCH   7  20
TORSDOF 2
ENDMDL
MODEL 9
REMARK VINA RESULT:    -1.910      1.612      2.925
REMARK INTER + INTRA:          -2.451
REMARK INTER:                  -2.140
REMARK INTRA:                  -0.311
REMARK UNBOUND:                -0.318
REMARK SMILES O=[N+]([O-])c1ccc2c(c1)N[C@@H](c1cc(Cl)cc(Cl)c1)N2
REMARK SMILES IDX 7 1 8 2 5 3 6 4 20 5 10 6 4 7 11 8 9 9 12 12 14 13 13 14
REMARK SMILES IDX 16 15 17 16 19 17 15 18 18 19 2 20 3 21 1 22
REMARK H PARENT 20 10 10 11
ROOT
ATOM      1  C   UNL     1     -10.641  -9.280  11.928  1.00  0.00     0.060 A 
ATOM      2  C   UNL     1     -11.884  -9.373  12.508  1.00  0.00     0.066 A 
ATOM      3  C   UNL     1     -10.943  -6.984  11.497  1.00  0.00     0.088 A 
ATOM      4  C   UNL     1     -10.096  -8.114  11.655  1.00  0.00     0.035 A 
ATOM      5  N   UNL     1      -9.998 -10.579  11.965  1.00  0.00    -0.360 N 
ATOM      6  N   UNL     1     -11.987 -10.702  12.930  1.00  0.00    -0.360 N 
ATOM      7  C   UNL     1     -12.259  -7.079  11.942  1.00  0.00     0.271 A 
ATOM      8  C   UNL     1     -10.646 -11.154  13.026  1.00  0.00     0.205 C 
ATOM      9  C   UNL     1     -12.732  -8.312  12.491  1.00  0.00     0.113 A 
ATOM     10  H   UNL     1      -9.258 -10.963  11.361  1.00  0.00     0.163 HD
ATOM     11  H   UNL     1     -12.846 -11.234  13.126  1.00  0.00     0.163 HD
ENDROOT
BRANCH   8  12
ATOM     12  C   UNL     1     -10.487 -12.681  13.271  1.00  0.00    -0.003 A 
ATOM     13  C   UNL     1      -9.027 -14.670  13.060  1.00  0.00     0.042 A 
ATOM     14  C   UNL     1      -9.218 -13.279  13.438  1.00  0.00     0.028 A 
ATOM     15  C   UNL     1     -10.208 -15.539  13.097  1.00  0.00     0.041 A 
ATOM     16  C   UNL     1     -11.494 -14.880  13.300  1.00  0.00     0.042 A 
ATOM     17  C   UNL     1     -11.686 -13.478  13.218  1.00  0.00     0.028 A 
ATOM     18  Cl  UNL     1      -7.658 -15.401  12.908  1.00  0.00    -0.084 Cl
ATOM     19  Cl  UNL     1     -12.839 -15.904  13.551  1.00  0.00    -0.084 Cl
ENDBRANCH   8  12
BRANCH   7  20
ATOM     20  N   UNL     1     -13.131  -6.011  11.985  1.00  0.00     0.062 N 
ATOM     21  O   UNL     1     -13.460  -5.554  13.017  1.00  0.00    -0.258 OA
ATOM     22  O   UNL     1     -13.458  -5.311  10.932  1.00  0.00    -0.258 OA
ENDBRANCH   7  20
TORSDOF 2
ENDMDL
