MODEL 1
REMARK VINA RESULT:    -5.812      0.000      0.000
REMARK INTER + INTRA:          -6.794
REMARK INTER:                  -6.491
REMARK INTRA:                  -0.303
REMARK UNBOUND:                -0.303
REMARK SMILES O=[N+]([O-])c1ccc2c(c1)N[C@@H](c1cc(Cl)cc(Cl)c1)N2
REMARK SMILES IDX 7 1 8 2 5 3 6 4 20 5 10 6 4 7 11 8 9 9 12 12 14 13 13 14
REMARK SMILES IDX 16 15 17 16 19 17 15 18 18 19 2 20 3 21 1 22
REMARK H PARENT 20 10 10 11
ROOT
ATOM      1  C   UNL     1      -6.936  -1.558   2.052  1.00  0.00     0.060 A 
ATOM      2  C   UNL     1      -7.224  -0.342   2.623  1.00  0.00     0.066 A 
ATOM      3  C   UNL     1      -4.659  -0.991   1.837  1.00  0.00     0.088 A 
ATOM      4  C   UNL     1      -5.695  -1.964   1.888  1.00  0.00     0.035 A 
ATOM      5  N   UNL     1      -8.149  -2.346   1.966  1.00  0.00    -0.360 N 
ATOM      6  N   UNL     1      -8.589  -0.397   2.919  1.00  0.00    -0.360 N 
ATOM      7  C   UNL     1      -4.946   0.300   2.275  1.00  0.00     0.271 A 
ATOM      8  C   UNL     1      -8.891  -1.782   2.970  1.00  0.00     0.205 C 
ATOM      9  C   UNL     1      -6.270   0.622   2.707  1.00  0.00     0.113 A 
ATOM     10  H   UNL     1      -8.388  -3.118   1.327  1.00  0.00     0.163 HD
ATOM     11  H   UNL     1      -9.232   0.393   3.067  1.00  0.00     0.163 HD
ENDROOT
BRANCH   8  12
ATOM     12  C   UNL     1     -10.405  -2.118   3.071  1.00  0.00    -0.003 A 
ATOM     13  C   UNL     1     -12.589  -2.203   1.907  1.00  0.00     0.042 A 
ATOM     14  C   UNL     1     -11.164  -2.485   1.937  1.00  0.00     0.028 A 
ATOM     15  C   UNL     1     -13.279  -2.120   3.199  1.00  0.00     0.041 A 
ATOM     16  C   UNL     1     -12.434  -2.114   4.388  1.00  0.00     0.042 A 
ATOM     17  C   UNL     1     -11.028  -1.940   4.358  1.00  0.00     0.028 A 
ATOM     18  Cl  UNL     1     -13.513  -2.273   0.653  1.00  0.00    -0.084 Cl
ATOM     19  Cl  UNL     1     -13.240  -2.229   5.891  1.00  0.00    -0.084 Cl
ENDBRANCH   8  12
BRANCH   7  20
ATOM     20  N   UNL     1      -3.994   1.288   2.419  1.00  0.00     0.062 N 
ATOM     21  O   UNL     1      -3.427   1.708   1.478  1.00  0.00    -0.258 OA
ATOM     22  O   UNL     1      -3.825   1.964   3.523  1.00  0.00    -0.258 OA
ENDBRANCH   7  20
TORSDOF 2
ENDMDL
MODEL 2
REMARK VINA RESULT:    -5.811      2.366      3.485
REMARK INTER + INTRA:          -6.793
REMARK INTER:                  -6.491
REMARK INTRA:                  -0.302
REMARK UNBOUND:                -0.303
REMARK SMILES O=[N+]([O-])c1ccc2c(c1)N[C@@H](c1cc(Cl)cc(Cl)c1)N2
REMARK SMILES IDX 7 1 8 2 5 3 6 4 20 5 10 6 4 7 11 8 9 9 12 12 14 13 13 14
REMARK SMILES IDX 16 15 17 16 19 17 15 18 18 19 2 20 3 21 1 22
REMARK H PARENT 20 10 10 11
ROOT
ATOM      1  C   UNL     1      -6.655  -0.943   3.559  1.00  0.00     0.060 A 
ATOM      2  C   UNL     1      -6.864  -2.228   3.117  1.00  0.00     0.066 A 
ATOM      3  C   UNL     1      -4.493  -0.903   2.624  1.00  0.00     0.088 A 
ATOM      4  C   UNL     1      -5.634  -0.228   3.137  1.00  0.00     0.035 A 
ATOM      5  N   UNL     1      -7.834  -0.483   4.265  1.00  0.00    -0.360 N 
ATOM      6  N   UNL     1      -8.168  -2.538   3.512  1.00  0.00    -0.360 N 
ATOM      7  C   UNL     1      -4.618  -2.251   2.293  1.00  0.00     0.271 A 
ATOM      8  C   UNL     1      -8.796  -1.280   3.702  1.00  0.00     0.205 C 
ATOM      9  C   UNL     1      -5.858  -2.923   2.525  1.00  0.00     0.113 A 
ATOM     10  H   UNL     1      -7.925   0.244   4.989  1.00  0.00     0.163 HD
ATOM     11  H   UNL     1      -8.582  -3.472   3.638  1.00  0.00     0.163 HD
ENDROOT
BRANCH   8  12
ATOM     12  C   UNL     1     -10.203  -1.344   4.358  1.00  0.00    -0.003 A 
ATOM     13  C   UNL     1     -11.509  -1.754   6.422  1.00  0.00     0.042 A 
ATOM     14  C   UNL     1     -10.391  -1.122   5.741  1.00  0.00     0.028 A 
ATOM     15  C   UNL     1     -12.688  -2.076   5.610  1.00  0.00     0.041 A 
ATOM     16  C   UNL     1     -12.543  -1.929   4.166  1.00  0.00     0.042 A 
ATOM     17  C   UNL     1     -11.300  -1.739   3.512  1.00  0.00     0.028 A 
ATOM     18  Cl  UNL     1     -11.706  -1.855   7.965  1.00  0.00    -0.084 Cl
ATOM     19  Cl  UNL     1     -13.969  -2.100   3.240  1.00  0.00    -0.084 Cl
ENDBRANCH   8  12
BRANCH   7  20
ATOM     20  N   UNL     1      -3.636  -2.974   1.648  1.00  0.00     0.062 N 
ATOM     21  O   UNL     1      -2.598  -3.159   2.167  1.00  0.00    -0.258 OA
ATOM     22  O   UNL     1      -3.855  -3.673   0.567  1.00  0.00    -0.258 OA
ENDBRANCH   7  20
TORSDOF 2
ENDMDL
MODEL 3
REMARK VINA RESULT:    -5.621      1.652      2.108
REMARK INTER + INTRA:          -6.581
REMARK INTER:                  -6.277
REMARK INTRA:                  -0.304
REMARK UNBOUND:                -0.303
REMARK SMILES O=[N+]([O-])c1ccc2c(c1)N[C@@H](c1cc(Cl)cc(Cl)c1)N2
REMARK SMILES IDX 7 1 8 2 5 3 6 4 20 5 10 6 4 7 11 8 9 9 12 12 14 13 13 14
REMARK SMILES IDX 16 15 17 16 19 17 15 18 18 19 2 20 3 21 1 22
REMARK H PARENT 20 10 10 11
ROOT
ATOM      1  C   UNL     1      -6.968  -0.535   2.566  1.00  0.00     0.060 A 
ATOM      2  C   UNL     1      -6.573  -1.808   2.899  1.00  0.00     0.066 A 
ATOM      3  C   UNL     1      -4.818  -0.007   1.762  1.00  0.00     0.088 A 
ATOM      4  C   UNL     1      -6.215   0.246   1.821  1.00  0.00     0.035 A 
ATOM      5  N   UNL     1      -8.367  -0.365   2.904  1.00  0.00    -0.360 N 
ATOM      6  N   UNL     1      -7.723  -2.424   3.400  1.00  0.00    -0.360 N 
ATOM      7  C   UNL     1      -4.350  -1.236   2.223  1.00  0.00     0.271 A 
ATOM      8  C   UNL     1      -8.798  -1.665   2.870  1.00  0.00     0.205 C 
ATOM      9  C   UNL     1      -5.270  -2.175   2.786  1.00  0.00     0.113 A 
ATOM     10  H   UNL     1      -8.893   0.496   3.112  1.00  0.00     0.163 HD
ATOM     11  H   UNL     1      -7.778  -3.246   4.017  1.00  0.00     0.163 HD
ENDROOT
BRANCH   8  12
ATOM     12  C   UNL     1     -10.195  -2.014   3.454  1.00  0.00    -0.003 A 
ATOM     13  C   UNL     1     -12.643  -2.056   3.080  1.00  0.00     0.042 A 
ATOM     14  C   UNL     1     -11.292  -2.332   2.621  1.00  0.00     0.028 A 
ATOM     15  C   UNL     1     -12.863  -2.036   4.531  1.00  0.00     0.041 A 
ATOM     16  C   UNL     1     -11.670  -2.082   5.370  1.00  0.00     0.042 A 
ATOM     17  C   UNL     1     -10.352  -1.899   4.881  1.00  0.00     0.028 A 
ATOM     18  Cl  UNL     1     -13.932  -2.073   2.204  1.00  0.00    -0.084 Cl
ATOM     19  Cl  UNL     1     -11.931  -2.270   7.048  1.00  0.00    -0.084 Cl
ENDBRANCH   8  12
BRANCH   7  20
ATOM     20  N   UNL     1      -3.045  -1.661   2.080  1.00  0.00     0.062 N 
ATOM     21  O   UNL     1      -2.792  -2.809   2.076  1.00  0.00    -0.258 OA
ATOM     22  O   UNL     1      -2.071  -0.871   1.720  1.00  0.00    -0.258 OA
ENDBRANCH   7  20
TORSDOF 2
ENDMDL
MODEL 4
REMARK VINA RESULT:    -5.593      5.094      7.627
REMARK INTER + INTRA:          -6.549
REMARK INTER:                  -6.255
REMARK INTRA:                  -0.295
REMARK UNBOUND:                -0.303
REMARK SMILES O=[N+]([O-])c1ccc2c(c1)N[C@@H](c1cc(Cl)cc(Cl)c1)N2
REMARK SMILES IDX 7 1 8 2 5 3 6 4 20 5 10 6 4 7 11 8 9 9 12 12 14 13 13 14
REMARK SMILES IDX 16 15 17 16 19 17 15 18 18 19 2 20 3 21 1 22
REMARK H PARENT 20 10 10 11
ROOT
ATOM      1  C   UNL     1     -10.755  -1.846   3.416  1.00  0.00     0.060 A 
ATOM      2  C   UNL     1     -10.481  -1.722   4.757  1.00  0.00     0.066 A 
ATOM      3  C   UNL     1     -13.063  -2.058   3.840  1.00  0.00     0.088 A 
ATOM      4  C   UNL     1     -11.986  -1.775   2.956  1.00  0.00     0.035 A 
ATOM      5  N   UNL     1      -9.518  -1.766   2.666  1.00  0.00    -0.360 N 
ATOM      6  N   UNL     1      -9.099  -1.529   4.826  1.00  0.00    -0.360 N 
ATOM      7  C   UNL     1     -12.803  -2.083   5.208  1.00  0.00     0.271 A 
ATOM      8  C   UNL     1      -8.736  -1.057   3.540  1.00  0.00     0.205 C 
ATOM      9  C   UNL     1     -11.468  -1.881   5.678  1.00  0.00     0.113 A 
ATOM     10  H   UNL     1      -9.289  -2.138   1.733  1.00  0.00     0.163 HD
ATOM     11  H   UNL     1      -8.481  -1.693   5.634  1.00  0.00     0.163 HD
ENDROOT
BRANCH   8  12
ATOM     12  C   UNL     1      -7.205  -0.970   3.283  1.00  0.00    -0.003 A 
ATOM     13  C   UNL     1      -5.235   0.503   2.993  1.00  0.00     0.042 A 
ATOM     14  C   UNL     1      -6.438   0.134   3.720  1.00  0.00     0.028 A 
ATOM     15  C   UNL     1      -4.548  -0.564   2.256  1.00  0.00     0.041 A 
ATOM     16  C   UNL     1      -5.253  -1.837   2.148  1.00  0.00     0.042 A 
ATOM     17  C   UNL     1      -6.617  -2.017   2.488  1.00  0.00     0.028 A 
ATOM     18  Cl  UNL     1      -4.437   1.832   3.152  1.00  0.00    -0.084 Cl
ATOM     19  Cl  UNL     1      -4.370  -3.137   1.476  1.00  0.00    -0.084 Cl
ENDBRANCH   8  12
BRANCH   7  20
ATOM     20  N   UNL     1     -13.785  -2.193   6.172  1.00  0.00     0.062 N 
ATOM     21  O   UNL     1     -14.707  -2.902   6.001  1.00  0.00    -0.258 OA
ATOM     22  O   UNL     1     -13.654  -1.725   7.383  1.00  0.00    -0.258 OA
ENDBRANCH   7  20
TORSDOF 2
ENDMDL
MODEL 5
REMARK VINA RESULT:    -5.581      1.095      2.337
REMARK INTER + INTRA:          -6.536
REMARK INTER:                  -6.233
REMARK INTRA:                  -0.303
REMARK UNBOUND:                -0.303
REMARK SMILES O=[N+]([O-])c1ccc2c(c1)N[C@@H](c1cc(Cl)cc(Cl)c1)N2
REMARK SMILES IDX 7 1 8 2 5 3 6 4 20 5 10 6 4 7 11 8 9 9 12 12 14 13 13 14
REMARK SMILES IDX 16 15 17 16 19 17 15 18 18 19 2 20 3 21 1 22
REMARK H PARENT 20 10 10 11
ROOT
ATOM      1  C   UNL     1      -6.676  -1.977   3.066  1.00  0.00     0.060 A 
ATOM      2  C   UNL     1      -6.805  -0.653   2.719  1.00  0.00     0.066 A 
ATOM      3  C   UNL     1      -4.340  -1.893   2.769  1.00  0.00     0.088 A 
ATOM      4  C   UNL     1      -5.499  -2.510   3.314  1.00  0.00     0.035 A 
ATOM      5  N   UNL     1      -7.984  -2.521   3.372  1.00  0.00    -0.360 N 
ATOM      6  N   UNL     1      -8.169  -0.378   2.848  1.00  0.00    -0.360 N 
ATOM      7  C   UNL     1      -4.455  -0.597   2.273  1.00  0.00     0.271 A 
ATOM      8  C   UNL     1      -8.658  -1.381   3.724  1.00  0.00     0.205 C 
ATOM      9  C   UNL     1      -5.731   0.050   2.275  1.00  0.00     0.113 A 
ATOM     10  H   UNL     1      -8.315  -3.495   3.336  1.00  0.00     0.163 HD
ATOM     11  H   UNL     1      -8.702   0.385   2.406  1.00  0.00     0.163 HD
ENDROOT
BRANCH   8  12
ATOM     12  C   UNL     1     -10.205  -1.431   3.862  1.00  0.00    -0.003 A 
ATOM     13  C   UNL     1     -12.137  -2.005   5.301  1.00  0.00     0.042 A 
ATOM     14  C   UNL     1     -10.842  -1.370   5.122  1.00  0.00     0.028 A 
ATOM     15  C   UNL     1     -12.981  -2.146   4.109  1.00  0.00     0.041 A 
ATOM     16  C   UNL     1     -12.355  -1.832   2.829  1.00  0.00     0.042 A 
ATOM     17  C   UNL     1     -10.961  -1.646   2.655  1.00  0.00     0.028 A 
ATOM     18  Cl  UNL     1     -12.844  -2.281   6.663  1.00  0.00    -0.084 Cl
ATOM     19  Cl  UNL     1     -13.390  -1.793   1.469  1.00  0.00    -0.084 Cl
ENDBRANCH   8  12
BRANCH   7  20
ATOM     20  N   UNL     1      -3.380   0.163   1.860  1.00  0.00     0.062 N 
ATOM     21  O   UNL     1      -2.374  -0.356   1.544  1.00  0.00    -0.258 OA
ATOM     22  O   UNL     1      -3.468   1.435   1.579  1.00  0.00    -0.258 OA
ENDBRANCH   7  20
TORSDOF 2
ENDMDL
MODEL 6
REMARK VINA RESULT:    -5.439      0.891      1.012
REMARK INTER + INTRA:          -6.378
REMARK INTER:                  -6.071
REMARK INTRA:                  -0.307
REMARK UNBOUND:                -0.303
REMARK SMILES O=[N+]([O-])c1ccc2c(c1)N[C@@H](c1cc(Cl)cc(Cl)c1)N2
REMARK SMILES IDX 7 1 8 2 5 3 6 4 20 5 10 6 4 7 11 8 9 9 12 12 14 13 13 14
REMARK SMILES IDX 16 15 17 16 19 17 15 18 18 19 2 20 3 21 1 22
REMARK H PARENT 20 10 10 11
ROOT
ATOM      1  C   UNL     1      -7.235  -1.369   2.224  1.00  0.00     0.060 A 
ATOM      2  C   UNL     1      -7.266  -0.356   3.152  1.00  0.00     0.066 A 
ATOM      3  C   UNL     1      -5.063  -0.767   1.541  1.00  0.00     0.088 A 
ATOM      4  C   UNL     1      -6.119  -1.715   1.620  1.00  0.00     0.035 A 
ATOM      5  N   UNL     1      -8.485  -2.101   2.275  1.00  0.00    -0.360 N 
ATOM      6  N   UNL     1      -8.502  -0.488   3.791  1.00  0.00    -0.360 N 
ATOM      7  C   UNL     1      -5.121   0.355   2.365  1.00  0.00     0.271 A 
ATOM      8  C   UNL     1      -8.886  -1.833   3.558  1.00  0.00     0.205 C 
ATOM      9  C   UNL     1      -6.253   0.547   3.217  1.00  0.00     0.113 A 
ATOM     10  H   UNL     1      -8.945  -2.668   1.548  1.00  0.00     0.163 HD
ATOM     11  H   UNL     1      -9.019   0.232   4.314  1.00  0.00     0.163 HD
ENDROOT
BRANCH   8  12
ATOM     12  C   UNL     1     -10.339  -2.182   3.984  1.00  0.00    -0.003 A 
ATOM     13  C   UNL     1     -12.748  -2.050   3.426  1.00  0.00     0.042 A 
ATOM     14  C   UNL     1     -11.377  -2.333   3.036  1.00  0.00     0.028 A 
ATOM     15  C   UNL     1     -13.084  -2.208   4.846  1.00  0.00     0.041 A 
ATOM     16  C   UNL     1     -11.965  -2.423   5.758  1.00  0.00     0.042 A 
ATOM     17  C   UNL     1     -10.606  -2.246   5.398  1.00  0.00     0.028 A 
ATOM     18  Cl  UNL     1     -13.962  -1.888   2.461  1.00  0.00    -0.084 Cl
ATOM     19  Cl  UNL     1     -12.369  -2.813   7.372  1.00  0.00    -0.084 Cl
ENDBRANCH   8  12
BRANCH   7  20
ATOM     20  N   UNL     1      -4.091   1.265   2.493  1.00  0.00     0.062 N 
ATOM     21  O   UNL     1      -3.472   1.595   1.551  1.00  0.00    -0.258 OA
ATOM     22  O   UNL     1      -3.889   1.970   3.573  1.00  0.00    -0.258 OA
ENDBRANCH   7  20
TORSDOF 2
ENDMDL
MODEL 7
REMARK VINA RESULT:    -5.434      5.047      7.447
REMARK INTER + INTRA:          -6.372
REMARK INTER:                  -6.075
REMARK INTRA:                  -0.297
REMARK UNBOUND:                -0.303
REMARK SMILES O=[N+]([O-])c1ccc2c(c1)N[C@@H](c1cc(Cl)cc(Cl)c1)N2
REMARK SMILES IDX 7 1 8 2 5 3 6 4 20 5 10 6 4 7 11 8 9 9 12 12 14 13 13 14
REMARK SMILES IDX 16 15 17 16 19 17 15 18 18 19 2 20 3 21 1 22
REMARK H PARENT 20 10 10 11
ROOT
ATOM      1  C   UNL     1     -10.836  -1.907   3.318  1.00  0.00     0.060 A 
ATOM      2  C   UNL     1     -10.268  -2.026   4.563  1.00  0.00     0.066 A 
ATOM      3  C   UNL     1     -13.005  -2.099   4.216  1.00  0.00     0.088 A 
ATOM      4  C   UNL     1     -12.129  -1.710   3.167  1.00  0.00     0.035 A 
ATOM      5  N   UNL     1      -9.789  -1.746   2.328  1.00  0.00    -0.360 N 
ATOM      6  N   UNL     1      -8.893  -1.902   4.346  1.00  0.00    -0.360 N 
ATOM      7  C   UNL     1     -12.456  -2.370   5.468  1.00  0.00     0.271 A 
ATOM      8  C   UNL     1      -8.784  -1.229   3.103  1.00  0.00     0.205 C 
ATOM      9  C   UNL     1     -11.039  -2.303   5.647  1.00  0.00     0.113 A 
ATOM     10  H   UNL     1      -9.798  -1.961   1.321  1.00  0.00     0.163 HD
ATOM     11  H   UNL     1      -8.129  -2.226   4.955  1.00  0.00     0.163 HD
ENDROOT
BRANCH   8  12
ATOM     12  C   UNL     1      -7.344  -1.158   2.522  1.00  0.00    -0.003 A 
ATOM     13  C   UNL     1      -5.340  -2.418   1.794  1.00  0.00     0.042 A 
ATOM     14  C   UNL     1      -6.781  -2.230   1.792  1.00  0.00     0.028 A 
ATOM     15  C   UNL     1      -4.513  -1.227   2.016  1.00  0.00     0.041 A 
ATOM     16  C   UNL     1      -5.214  -0.015   2.426  1.00  0.00     0.042 A 
ATOM     17  C   UNL     1      -6.567   0.011   2.846  1.00  0.00     0.028 A 
ATOM     18  Cl  UNL     1      -4.578  -3.683   1.294  1.00  0.00    -0.084 Cl
ATOM     19  Cl  UNL     1      -4.284   1.417   2.482  1.00  0.00    -0.084 Cl
ENDBRANCH   8  12
BRANCH   7  20
ATOM     20  N   UNL     1     -13.210  -2.607   6.599  1.00  0.00     0.062 N 
ATOM     21  O   UNL     1     -13.320  -3.698   7.021  1.00  0.00    -0.258 OA
ATOM     22  O   UNL     1     -13.643  -1.656   7.382  1.00  0.00    -0.258 OA
ENDBRANCH   7  20
TORSDOF 2
ENDMDL
MODEL 8
REMARK VINA RESULT:    -5.372      5.103      7.600
REMARK INTER + INTRA:          -6.303
REMARK INTER:                  -6.004
REMARK INTRA:                  -0.299
REMARK UNBOUND:                -0.303
REMARK SMILES O=[N+]([O-])c1ccc2c(c1)N[C@@H](c1cc(Cl)cc(Cl)c1)N2
REMARK SMILES IDX 7 1 8 2 5 3 6 4 20 5 10 6 4 7 11 8 9 9 12 12 14 13 13 14
REMARK SMILES IDX 16 15 17 16 19 17 15 18 18 19 2 20 3 21 1 22
REMARK H PARENT 20 10 10 11
ROOT
ATOM      1  C   UNL     1     -10.229  -1.405   4.713  1.00  0.00     0.060 A 
ATOM      2  C   UNL     1     -10.461  -1.428   3.359  1.00  0.00     0.066 A 
ATOM      3  C   UNL     1     -12.488  -1.885   5.176  1.00  0.00     0.088 A 
ATOM      4  C   UNL     1     -11.124  -1.844   5.572  1.00  0.00     0.035 A 
ATOM      5  N   UNL     1      -8.827  -1.122   4.953  1.00  0.00    -0.360 N 
ATOM      6  N   UNL     1      -9.213  -1.199   2.774  1.00  0.00    -0.360 N 
ATOM      7  C   UNL     1     -12.784  -1.769   3.820  1.00  0.00     0.271 A 
ATOM      8  C   UNL     1      -8.275  -1.556   3.776  1.00  0.00     0.205 C 
ATOM      9  C   UNL     1     -11.726  -1.559   2.881  1.00  0.00     0.113 A 
ATOM     10  H   UNL     1      -8.372  -0.708   5.779  1.00  0.00     0.163 HD
ATOM     11  H   UNL     1      -9.017  -0.850   1.825  1.00  0.00     0.163 HD
ENDROOT
BRANCH   8  12
ATOM     12  C   UNL     1      -6.800  -1.187   3.453  1.00  0.00    -0.003 A 
ATOM     13  C   UNL     1      -5.179   0.618   2.954  1.00  0.00     0.042 A 
ATOM     14  C   UNL     1      -6.267   0.086   3.758  1.00  0.00     0.028 A 
ATOM     15  C   UNL     1      -4.303  -0.356   2.292  1.00  0.00     0.041 A 
ATOM     16  C   UNL     1      -4.734  -1.749   2.328  1.00  0.00     0.042 A 
ATOM     17  C   UNL     1      -6.025  -2.166   2.735  1.00  0.00     0.028 A 
ATOM     18  Cl  UNL     1      -4.667   2.090   2.960  1.00  0.00    -0.084 Cl
ATOM     19  Cl  UNL     1      -3.617  -2.903   1.744  1.00  0.00    -0.084 Cl
ENDBRANCH   8  12
BRANCH   7  20
ATOM     20  N   UNL     1     -14.048  -1.945   3.295  1.00  0.00     0.062 N 
ATOM     21  O   UNL     1     -14.732  -2.822   3.676  1.00  0.00    -0.258 OA
ATOM     22  O   UNL     1     -14.641  -1.058   2.543  1.00  0.00    -0.258 OA
ENDBRANCH   7  20
TORSDOF 2
ENDMDL
MODEL 9
REMARK VINA RESULT:    -4.338      5.112      7.543
REMARK INTER + INTRA:          -5.148
REMARK INTER:                  -4.856
REMARK INTRA:                  -0.292
REMARK UNBOUND:                -0.303
REMARK SMILES O=[N+]([O-])c1ccc2c(c1)N[C@@H](c1cc(Cl)cc(Cl)c1)N2
REMARK SMILES IDX 7 1 8 2 5 3 6 4 20 5 10 6 4 7 11 8 9 9 12 12 14 13 13 14
REMARK SMILES IDX 16 15 17 16 19 17 15 18 18 19 2 20 3 21 1 22
REMARK H PARENT 20 10 10 11
ROOT
ATOM      1  C   UNL     1     -10.095  -1.416   4.474  1.00  0.00     0.060 A 
ATOM      2  C   UNL     1     -10.537  -1.656   3.195  1.00  0.00     0.066 A 
ATOM      3  C   UNL     1     -12.249  -1.775   5.356  1.00  0.00     0.088 A 
ATOM      4  C   UNL     1     -10.840  -1.693   5.522  1.00  0.00     0.035 A 
ATOM      5  N   UNL     1      -8.676  -1.121   4.442  1.00  0.00    -0.360 N 
ATOM      6  N   UNL     1      -9.397  -1.549   2.393  1.00  0.00    -0.360 N 
ATOM      7  C   UNL     1     -12.755  -1.877   4.062  1.00  0.00     0.271 A 
ATOM      8  C   UNL     1      -8.311  -1.752   3.281  1.00  0.00     0.205 C 
ATOM      9  C   UNL     1     -11.860  -1.843   2.948  1.00  0.00     0.113 A 
ATOM     10  H   UNL     1      -8.100  -0.586   5.107  1.00  0.00     0.163 HD
ATOM     11  H   UNL     1      -9.356  -1.363   1.381  1.00  0.00     0.163 HD
ENDROOT
BRANCH   8  12
ATOM     12  C   UNL     1      -6.908  -1.467   2.676  1.00  0.00    -0.003 A 
ATOM     13  C   UNL     1      -4.746  -2.412   1.924  1.00  0.00     0.042 A 
ATOM     14  C   UNL     1      -6.199  -2.446   1.944  1.00  0.00     0.028 A 
ATOM     15  C   UNL     1      -4.108  -1.106   2.124  1.00  0.00     0.041 A 
ATOM     16  C   UNL     1      -4.980  -0.012   2.537  1.00  0.00     0.042 A 
ATOM     17  C   UNL     1      -6.315  -0.189   2.979  1.00  0.00     0.028 A 
ATOM     18  Cl  UNL     1      -3.807  -3.549   1.420  1.00  0.00    -0.084 Cl
ATOM     19  Cl  UNL     1      -4.279   1.547   2.567  1.00  0.00    -0.084 Cl
ENDBRANCH   8  12
BRANCH   7  20
ATOM     20  N   UNL     1     -14.084  -2.115   3.777  1.00  0.00     0.062 N 
ATOM     21  O   UNL     1     -14.725  -2.813   4.474  1.00  0.00    -0.258 OA
ATOM     22  O   UNL     1     -14.760  -1.433   2.892  1.00  0.00    -0.258 OA
ENDBRANCH   7  20
TORSDOF 2
ENDMDL
