MODEL 1
REMARK VINA RESULT:    -4.007      0.000      0.000
REMARK INTER + INTRA:          -4.782
REMARK INTER:                  -4.475
REMARK INTRA:                  -0.307
REMARK UNBOUND:                -0.307
REMARK SMILES O=[N+]([O-])c1ccc2c(c1)N[C@@H](c1cc(Cl)cc(Cl)c1)N2
REMARK SMILES IDX 7 1 8 2 5 3 6 4 20 5 10 6 4 7 11 8 9 9 12 12 14 13 13 14
REMARK SMILES IDX 16 15 17 16 19 17 15 18 18 19 2 20 3 21 1 22
REMARK H PARENT 20 10 10 11
ROOT
ATOM      1  C   UNL     1       4.193  -5.140 -12.987  1.00  0.00     0.060 A 
ATOM      2  C   UNL     1       2.842  -4.887 -12.949  1.00  0.00     0.066 A 
ATOM      3  C   UNL     1       4.015  -6.128 -15.118  1.00  0.00     0.088 A 
ATOM      4  C   UNL     1       4.791  -5.516 -14.097  1.00  0.00     0.035 A 
ATOM      5  N   UNL     1       4.804  -4.657 -11.764  1.00  0.00    -0.360 N 
ATOM      6  N   UNL     1       2.633  -4.223 -11.738  1.00  0.00    -0.360 N 
ATOM      7  C   UNL     1       2.628  -6.020 -15.046  1.00  0.00     0.271 A 
ATOM      8  C   UNL     1       3.902  -3.694 -11.392  1.00  0.00     0.205 C 
ATOM      9  C   UNL     1       2.029  -5.351 -13.933  1.00  0.00     0.113 A 
ATOM     10  H   UNL     1       5.675  -4.955 -11.303  1.00  0.00     0.163 HD
ATOM     11  H   UNL     1       1.752  -4.138 -11.212  1.00  0.00     0.163 HD
ENDROOT
BRANCH   8  12
ATOM     12  C   UNL     1       3.992  -3.087  -9.964  1.00  0.00    -0.003 A 
ATOM     13  C   UNL     1       4.529  -3.478  -7.579  1.00  0.00     0.042 A 
ATOM     14  C   UNL     1       4.867  -3.612  -8.986  1.00  0.00     0.028 A 
ATOM     15  C   UNL     1       3.675  -2.346  -7.203  1.00  0.00     0.041 A 
ATOM     16  C   UNL     1       3.075  -1.593  -8.299  1.00  0.00     0.042 A 
ATOM     17  C   UNL     1       3.070  -2.027  -9.647  1.00  0.00     0.028 A 
ATOM     18  Cl  UNL     1       5.212  -4.228  -6.395  1.00  0.00    -0.084 Cl
ATOM     19  Cl  UNL     1       2.255  -0.155  -7.870  1.00  0.00    -0.084 Cl
ENDBRANCH   8  12
BRANCH   7  20
ATOM     20  N   UNL     1       1.775  -6.435 -16.048  1.00  0.00     0.062 N 
ATOM     21  O   UNL     1       1.527  -7.577 -16.180  1.00  0.00    -0.258 OA
ATOM     22  O   UNL     1       1.032  -5.616 -16.741  1.00  0.00    -0.258 OA
ENDBRANCH   7  20
TORSDOF 2
ENDMDL
MODEL 2
REMARK VINA RESULT:    -3.879      3.282      4.755
REMARK INTER + INTRA:          -4.639
REMARK INTER:                  -4.322
REMARK INTRA:                  -0.316
REMARK UNBOUND:                -0.307
REMARK SMILES O=[N+]([O-])c1ccc2c(c1)N[C@@H](c1cc(Cl)cc(Cl)c1)N2
REMARK SMILES IDX 7 1 8 2 5 3 6 4 20 5 10 6 4 7 11 8 9 9 12 12 14 13 13 14
REMARK SMILES IDX 16 15 17 16 19 17 15 18 18 19 2 20 3 21 1 22
REMARK H PARENT 20 10 10 11
ROOT
ATOM      1  C   UNL     1       4.800  -1.891  -9.623  1.00  0.00     0.060 A 
ATOM      2  C   UNL     1       3.952  -2.935  -9.905  1.00  0.00     0.066 A 
ATOM      3  C   UNL     1       5.863  -2.104 -11.715  1.00  0.00     0.088 A 
ATOM      4  C   UNL     1       5.550  -1.343 -10.556  1.00  0.00     0.035 A 
ATOM      5  N   UNL     1       4.498  -1.372  -8.304  1.00  0.00    -0.360 N 
ATOM      6  N   UNL     1       3.115  -3.031  -8.790  1.00  0.00    -0.360 N 
ATOM      7  C   UNL     1       5.120  -3.255 -11.968  1.00  0.00     0.271 A 
ATOM      8  C   UNL     1       3.189  -1.757  -8.172  1.00  0.00     0.205 C 
ATOM      9  C   UNL     1       4.113  -3.664 -11.040  1.00  0.00     0.113 A 
ATOM     10  H   UNL     1       5.100  -0.857  -7.646  1.00  0.00     0.163 HD
ATOM     11  H   UNL     1       2.566  -3.847  -8.484  1.00  0.00     0.163 HD
ENDROOT
BRANCH   8  12
ATOM     12  C   UNL     1       2.512  -1.666  -6.776  1.00  0.00    -0.003 A 
ATOM     13  C   UNL     1       2.254  -0.371  -4.681  1.00  0.00     0.042 A 
ATOM     14  C   UNL     1       2.297  -0.426  -6.133  1.00  0.00     0.028 A 
ATOM     15  C   UNL     1       1.841  -1.592  -3.980  1.00  0.00     0.041 A 
ATOM     16  C   UNL     1       1.722  -2.799  -4.791  1.00  0.00     0.042 A 
ATOM     17  C   UNL     1       2.204  -2.910  -6.119  1.00  0.00     0.028 A 
ATOM     18  Cl  UNL     1       2.312   0.919  -3.808  1.00  0.00    -0.084 Cl
ATOM     19  Cl  UNL     1       1.042  -4.166  -4.021  1.00  0.00    -0.084 Cl
ENDBRANCH   8  12
BRANCH   7  20
ATOM     20  N   UNL     1       5.223  -3.991 -13.130  1.00  0.00     0.062 N 
ATOM     21  O   UNL     1       4.353  -4.712 -13.455  1.00  0.00    -0.258 OA
ATOM     22  O   UNL     1       6.141  -3.779 -14.034  1.00  0.00    -0.258 OA
ENDBRANCH   7  20
TORSDOF 2
ENDMDL
MODEL 3
REMARK VINA RESULT:    -3.868      3.983      5.134
REMARK INTER + INTRA:          -4.627
REMARK INTER:                  -4.311
REMARK INTRA:                  -0.316
REMARK UNBOUND:                -0.307
REMARK SMILES O=[N+]([O-])c1ccc2c(c1)N[C@@H](c1cc(Cl)cc(Cl)c1)N2
REMARK SMILES IDX 7 1 8 2 5 3 6 4 20 5 10 6 4 7 11 8 9 9 12 12 14 13 13 14
REMARK SMILES IDX 16 15 17 16 19 17 15 18 18 19 2 20 3 21 1 22
REMARK H PARENT 20 10 10 11
ROOT
ATOM      1  C   UNL     1       4.020  -2.979  -9.860  1.00  0.00     0.060 A 
ATOM      2  C   UNL     1       4.876  -1.930  -9.620  1.00  0.00     0.066 A 
ATOM      3  C   UNL     1       4.958  -3.341 -11.991  1.00  0.00     0.088 A 
ATOM      4  C   UNL     1       4.201  -3.795 -10.876  1.00  0.00     0.035 A 
ATOM      5  N   UNL     1       3.157  -3.164  -8.711  1.00  0.00    -0.360 N 
ATOM      6  N   UNL     1       4.568  -1.502  -8.326  1.00  0.00    -0.360 N 
ATOM      7  C   UNL     1       5.734  -2.195 -11.838  1.00  0.00     0.271 A 
ATOM      8  C   UNL     1       3.929  -2.614  -7.721  1.00  0.00     0.205 C 
ATOM      9  C   UNL     1       5.708  -1.484 -10.597  1.00  0.00     0.113 A 
ATOM     10  H   UNL     1       2.221  -3.591  -8.653  1.00  0.00     0.163 HD
ATOM     11  H   UNL     1       4.762  -0.583  -7.905  1.00  0.00     0.163 HD
ENDROOT
BRANCH   8  12
ATOM     12  C   UNL     1       3.287  -2.326  -6.335  1.00  0.00    -0.003 A 
ATOM     13  C   UNL     1       1.727  -3.101  -4.574  1.00  0.00     0.042 A 
ATOM     14  C   UNL     1       2.814  -3.366  -5.503  1.00  0.00     0.028 A 
ATOM     15  C   UNL     1       1.574  -1.719  -4.105  1.00  0.00     0.041 A 
ATOM     16  C   UNL     1       2.386  -0.710  -4.777  1.00  0.00     0.042 A 
ATOM     17  C   UNL     1       3.102  -0.943  -5.977  1.00  0.00     0.028 A 
ATOM     18  Cl  UNL     1       0.900  -4.171  -3.800  1.00  0.00    -0.084 Cl
ATOM     19  Cl  UNL     1       2.364   0.857  -4.095  1.00  0.00    -0.084 Cl
ENDBRANCH   8  12
BRANCH   7  20
ATOM     20  N   UNL     1       6.625  -1.742 -12.789  1.00  0.00     0.062 N 
ATOM     21  O   UNL     1       7.492  -1.006 -12.487  1.00  0.00    -0.258 OA
ATOM     22  O   UNL     1       6.714  -2.252 -13.987  1.00  0.00    -0.258 OA
ENDBRANCH   7  20
TORSDOF 2
ENDMDL
MODEL 4
REMARK VINA RESULT:    -3.558      1.951      2.550
REMARK INTER + INTRA:          -4.280
REMARK INTER:                  -3.969
REMARK INTRA:                  -0.312
REMARK UNBOUND:                -0.307
REMARK SMILES O=[N+]([O-])c1ccc2c(c1)N[C@@H](c1cc(Cl)cc(Cl)c1)N2
REMARK SMILES IDX 7 1 8 2 5 3 6 4 20 5 10 6 4 7 11 8 9 9 12 12 14 13 13 14
REMARK SMILES IDX 16 15 17 16 19 17 15 18 18 19 2 20 3 21 1 22
REMARK H PARENT 20 10 10 11
ROOT
ATOM      1  C   UNL     1       2.821  -5.053 -13.681  1.00  0.00     0.060 A 
ATOM      2  C   UNL     1       4.156  -5.278 -13.917  1.00  0.00     0.066 A 
ATOM      3  C   UNL     1       2.203  -6.400 -15.513  1.00  0.00     0.088 A 
ATOM      4  C   UNL     1       1.888  -5.759 -14.284  1.00  0.00     0.035 A 
ATOM      5  N   UNL     1       2.678  -4.190 -12.526  1.00  0.00    -0.360 N 
ATOM      6  N   UNL     1       4.822  -4.593 -12.897  1.00  0.00    -0.360 N 
ATOM      7  C   UNL     1       3.545  -6.525 -15.865  1.00  0.00     0.271 A 
ATOM      8  C   UNL     1       3.855  -4.443 -11.871  1.00  0.00     0.205 C 
ATOM      9  C   UNL     1       4.553  -5.965 -15.019  1.00  0.00     0.113 A 
ATOM     10  H   UNL     1       1.905  -3.560 -12.267  1.00  0.00     0.163 HD
ATOM     11  H   UNL     1       5.800  -4.270 -12.892  1.00  0.00     0.163 HD
ENDROOT
BRANCH   8  12
ATOM     12  C   UNL     1       4.282  -3.515 -10.700  1.00  0.00    -0.003 A 
ATOM     13  C   UNL     1       3.661  -2.508  -8.524  1.00  0.00     0.042 A 
ATOM     14  C   UNL     1       3.750  -3.665  -9.399  1.00  0.00     0.028 A 
ATOM     15  C   UNL     1       4.622  -1.423  -8.754  1.00  0.00     0.041 A 
ATOM     16  C   UNL     1       5.429  -1.516  -9.967  1.00  0.00     0.042 A 
ATOM     17  C   UNL     1       5.171  -2.428 -11.020  1.00  0.00     0.028 A 
ATOM     18  Cl  UNL     1       2.857  -2.423  -7.192  1.00  0.00    -0.084 Cl
ATOM     19  Cl  UNL     1       6.688  -0.371 -10.128  1.00  0.00    -0.084 Cl
ENDBRANCH   8  12
BRANCH   7  20
ATOM     20  N   UNL     1       3.987  -7.257 -16.948  1.00  0.00     0.062 N 
ATOM     21  O   UNL     1       3.221  -7.660 -17.744  1.00  0.00    -0.258 OA
ATOM     22  O   UNL     1       5.245  -7.352 -17.283  1.00  0.00    -0.258 OA
ENDBRANCH   7  20
TORSDOF 2
ENDMDL
MODEL 5
REMARK VINA RESULT:    -3.546      2.842      4.005
REMARK INTER + INTRA:          -4.267
REMARK INTER:                  -3.968
REMARK INTRA:                  -0.299
REMARK UNBOUND:                -0.307
REMARK SMILES O=[N+]([O-])c1ccc2c(c1)N[C@@H](c1cc(Cl)cc(Cl)c1)N2
REMARK SMILES IDX 7 1 8 2 5 3 6 4 20 5 10 6 4 7 11 8 9 9 12 12 14 13 13 14
REMARK SMILES IDX 16 15 17 16 19 17 15 18 18 19 2 20 3 21 1 22
REMARK H PARENT 20 10 10 11
ROOT
ATOM      1  C   UNL     1       4.802  -2.430  -9.914  1.00  0.00     0.060 A 
ATOM      2  C   UNL     1       3.845  -3.415  -9.980  1.00  0.00     0.066 A 
ATOM      3  C   UNL     1       5.492  -2.861 -12.125  1.00  0.00     0.088 A 
ATOM      4  C   UNL     1       5.428  -2.006 -10.991  1.00  0.00     0.035 A 
ATOM      5  N   UNL     1       4.758  -1.808  -8.605  1.00  0.00    -0.360 N 
ATOM      6  N   UNL     1       3.197  -3.371  -8.743  1.00  0.00    -0.360 N 
ATOM      7  C   UNL     1       4.636  -3.959 -12.172  1.00  0.00     0.271 A 
ATOM      8  C   UNL     1       3.463  -2.072  -8.241  1.00  0.00     0.205 C 
ATOM      9  C   UNL     1       3.766  -4.224 -11.069  1.00  0.00     0.113 A 
ATOM     10  H   UNL     1       5.495  -1.306  -8.091  1.00  0.00     0.163 HD
ATOM     11  H   UNL     1       2.646  -4.118  -8.295  1.00  0.00     0.163 HD
ENDROOT
BRANCH   8  12
ATOM     12  C   UNL     1       3.031  -1.839  -6.767  1.00  0.00    -0.003 A 
ATOM     13  C   UNL     1       1.833  -2.735  -4.794  1.00  0.00     0.042 A 
ATOM     14  C   UNL     1       2.774  -2.914  -5.887  1.00  0.00     0.028 A 
ATOM     15  C   UNL     1       1.655  -1.370  -4.284  1.00  0.00     0.041 A 
ATOM     16  C   UNL     1       2.274  -0.301  -5.060  1.00  0.00     0.042 A 
ATOM     17  C   UNL     1       2.805  -0.474  -6.362  1.00  0.00     0.028 A 
ATOM     18  Cl  UNL     1       1.220  -3.866  -3.915  1.00  0.00    -0.084 Cl
ATOM     19  Cl  UNL     1       2.246   1.258  -4.359  1.00  0.00    -0.084 Cl
ENDBRANCH   8  12
BRANCH   7  20
ATOM     20  N   UNL     1       4.494  -4.771 -13.278  1.00  0.00     0.062 N 
ATOM     21  O   UNL     1       3.535  -5.440 -13.404  1.00  0.00    -0.258 OA
ATOM     22  O   UNL     1       5.262  -4.688 -14.330  1.00  0.00    -0.258 OA
ENDBRANCH   7  20
TORSDOF 2
ENDMDL
MODEL 6
REMARK VINA RESULT:    -3.525      5.800      8.277
REMARK INTER + INTRA:          -4.244
REMARK INTER:                  -3.944
REMARK INTRA:                  -0.300
REMARK UNBOUND:                -0.307
REMARK SMILES O=[N+]([O-])c1ccc2c(c1)N[C@@H](c1cc(Cl)cc(Cl)c1)N2
REMARK SMILES IDX 7 1 8 2 5 3 6 4 20 5 10 6 4 7 11 8 9 9 12 12 14 13 13 14
REMARK SMILES IDX 16 15 17 16 19 17 15 18 18 19 2 20 3 21 1 22
REMARK H PARENT 20 10 10 11
ROOT
ATOM      1  C   UNL     1       3.067  -1.068  -6.491  1.00  0.00     0.060 A 
ATOM      2  C   UNL     1       2.400  -2.263  -6.612  1.00  0.00     0.066 A 
ATOM      3  C   UNL     1       2.312  -0.795  -4.277  1.00  0.00     0.088 A 
ATOM      4  C   UNL     1       3.221  -0.481  -5.324  1.00  0.00     0.035 A 
ATOM      5  N   UNL     1       3.760  -0.780  -7.732  1.00  0.00    -0.360 N 
ATOM      6  N   UNL     1       2.710  -2.722  -7.895  1.00  0.00    -0.360 N 
ATOM      7  C   UNL     1       1.509  -1.924  -4.418  1.00  0.00     0.271 A 
ATOM      8  C   UNL     1       3.906  -2.044  -8.241  1.00  0.00     0.205 C 
ATOM      9  C   UNL     1       1.579  -2.695  -5.619  1.00  0.00     0.113 A 
ATOM     10  H   UNL     1       4.060   0.125  -8.123  1.00  0.00     0.163 HD
ATOM     11  H   UNL     1       2.185  -3.402  -8.463  1.00  0.00     0.163 HD
ENDROOT
BRANCH   8  12
ATOM     12  C   UNL     1       4.350  -2.214  -9.721  1.00  0.00    -0.003 A 
ATOM     13  C   UNL     1       4.452  -3.709 -11.693  1.00  0.00     0.042 A 
ATOM     14  C   UNL     1       3.707  -3.122 -10.592  1.00  0.00     0.028 A 
ATOM     15  C   UNL     1       5.585  -2.937 -12.217  1.00  0.00     0.041 A 
ATOM     16  C   UNL     1       5.983  -1.763 -11.447  1.00  0.00     0.042 A 
ATOM     17  C   UNL     1       5.516  -1.479 -10.140  1.00  0.00     0.028 A 
ATOM     18  Cl  UNL     1       4.002  -4.920 -12.565  1.00  0.00    -0.084 Cl
ATOM     19  Cl  UNL     1       7.159  -0.750 -12.164  1.00  0.00    -0.084 Cl
ENDBRANCH   8  12
BRANCH   7  20
ATOM     20  N   UNL     1       0.702  -2.418  -3.414  1.00  0.00     0.062 N 
ATOM     21  O   UNL     1       0.354  -3.541  -3.431  1.00  0.00    -0.258 OA
ATOM     22  O   UNL     1       0.467  -1.776  -2.302  1.00  0.00    -0.258 OA
ENDBRANCH   7  20
TORSDOF 2
ENDMDL
MODEL 7
REMARK VINA RESULT:    -3.525      6.122      8.590
REMARK INTER + INTRA:          -4.243
REMARK INTER:                  -3.944
REMARK INTRA:                  -0.299
REMARK UNBOUND:                -0.307
REMARK SMILES O=[N+]([O-])c1ccc2c(c1)N[C@@H](c1cc(Cl)cc(Cl)c1)N2
REMARK SMILES IDX 7 1 8 2 5 3 6 4 20 5 10 6 4 7 11 8 9 9 12 12 14 13 13 14
REMARK SMILES IDX 16 15 17 16 19 17 15 18 18 19 2 20 3 21 1 22
REMARK H PARENT 20 10 10 11
ROOT
ATOM      1  C   UNL     1       2.609  -2.848  -6.459  1.00  0.00     0.060 A 
ATOM      2  C   UNL     1       3.298  -1.680  -6.237  1.00  0.00     0.066 A 
ATOM      3  C   UNL     1       1.355  -2.560  -4.486  1.00  0.00     0.088 A 
ATOM      4  C   UNL     1       1.535  -3.155  -5.764  1.00  0.00     0.035 A 
ATOM      5  N   UNL     1       3.076  -3.451  -7.691  1.00  0.00    -0.360 N 
ATOM      6  N   UNL     1       4.150  -1.548  -7.337  1.00  0.00    -0.360 N 
ATOM      7  C   UNL     1       2.136  -1.454  -4.158  1.00  0.00     0.271 A 
ATOM      8  C   UNL     1       3.560  -2.350  -8.347  1.00  0.00     0.205 C 
ATOM      9  C   UNL     1       3.122  -0.987  -5.081  1.00  0.00     0.113 A 
ATOM     10  H   UNL     1       3.051  -4.436  -7.992  1.00  0.00     0.163 HD
ATOM     11  H   UNL     1       5.014  -0.992  -7.400  1.00  0.00     0.163 HD
ENDROOT
BRANCH   8  12
ATOM     12  C   UNL     1       4.434  -2.550  -9.617  1.00  0.00    -0.003 A 
ATOM     13  C   UNL     1       6.025  -1.532 -11.217  1.00  0.00     0.042 A 
ATOM     14  C   UNL     1       5.595  -1.780  -9.851  1.00  0.00     0.028 A 
ATOM     15  C   UNL     1       5.642  -2.524 -12.227  1.00  0.00     0.041 A 
ATOM     16  C   UNL     1       4.689  -3.545 -11.807  1.00  0.00     0.042 A 
ATOM     17  C   UNL     1       3.952  -3.489 -10.598  1.00  0.00     0.028 A 
ATOM     18  Cl  UNL     1       7.093  -0.489 -11.668  1.00  0.00    -0.084 Cl
ATOM     19  Cl  UNL     1       4.404  -4.817 -12.912  1.00  0.00    -0.084 Cl
ENDBRANCH   8  12
BRANCH   7  20
ATOM     20  N   UNL     1       1.952  -0.698  -3.018  1.00  0.00     0.062 N 
ATOM     21  O   UNL     1       2.306   0.422  -2.986  1.00  0.00    -0.258 OA
ATOM     22  O   UNL     1       1.198  -1.077  -2.022  1.00  0.00    -0.258 OA
ENDBRANCH   7  20
TORSDOF 2
ENDMDL
MODEL 8
REMARK VINA RESULT:    -3.515      4.380      5.713
REMARK INTER + INTRA:          -4.233
REMARK INTER:                  -3.934
REMARK INTRA:                  -0.299
REMARK UNBOUND:                -0.307
REMARK SMILES O=[N+]([O-])c1ccc2c(c1)N[C@@H](c1cc(Cl)cc(Cl)c1)N2
REMARK SMILES IDX 7 1 8 2 5 3 6 4 20 5 10 6 4 7 11 8 9 9 12 12 14 13 13 14
REMARK SMILES IDX 16 15 17 16 19 17 15 18 18 19 2 20 3 21 1 22
REMARK H PARENT 20 10 10 11
ROOT
ATOM      1  C   UNL     1       4.298  -2.510 -10.130  1.00  0.00     0.060 A 
ATOM      2  C   UNL     1       5.052  -1.465  -9.655  1.00  0.00     0.066 A 
ATOM      3  C   UNL     1       5.589  -2.633 -12.097  1.00  0.00     0.088 A 
ATOM      4  C   UNL     1       4.682  -3.217 -11.172  1.00  0.00     0.035 A 
ATOM      5  N   UNL     1       3.267  -2.835  -9.164  1.00  0.00    -0.360 N 
ATOM      6  N   UNL     1       4.516  -1.176  -8.397  1.00  0.00    -0.360 N 
ATOM      7  C   UNL     1       6.275  -1.483 -11.711  1.00  0.00     0.271 A 
ATOM      8  C   UNL     1       3.839  -2.361  -8.013  1.00  0.00     0.205 C 
ATOM      9  C   UNL     1       6.012  -0.899 -10.433  1.00  0.00     0.113 A 
ATOM     10  H   UNL     1       2.356  -3.294  -9.304  1.00  0.00     0.163 HD
ATOM     11  H   UNL     1       4.596  -0.297  -7.866  1.00  0.00     0.163 HD
ENDROOT
BRANCH   8  12
ATOM     12  C   UNL     1       2.966  -2.231  -6.734  1.00  0.00    -0.003 A 
ATOM     13  C   UNL     1       2.320  -0.823  -4.802  1.00  0.00     0.042 A 
ATOM     14  C   UNL     1       2.573  -0.972  -6.225  1.00  0.00     0.028 A 
ATOM     15  C   UNL     1       1.900  -2.023  -4.070  1.00  0.00     0.041 A 
ATOM     16  C   UNL     1       1.984  -3.288  -4.792  1.00  0.00     0.042 A 
ATOM     17  C   UNL     1       2.657  -3.449  -6.029  1.00  0.00     0.028 A 
ATOM     18  Cl  UNL     1       2.161   0.524  -4.034  1.00  0.00    -0.084 Cl
ATOM     19  Cl  UNL     1       1.301  -4.649  -4.017  1.00  0.00    -0.084 Cl
ENDBRANCH   8  12
BRANCH   7  20
ATOM     20  N   UNL     1       7.288  -0.912 -12.453  1.00  0.00     0.062 N 
ATOM     21  O   UNL     1       8.070  -0.199 -11.940  1.00  0.00    -0.258 OA
ATOM     22  O   UNL     1       7.583  -1.284 -13.669  1.00  0.00    -0.258 OA
ENDBRANCH   7  20
TORSDOF 2
ENDMDL
MODEL 9
REMARK VINA RESULT:    -3.253      7.234      8.882
REMARK INTER + INTRA:          -3.940
REMARK INTER:                  -3.637
REMARK INTRA:                  -0.303
REMARK UNBOUND:                -0.307
REMARK SMILES O=[N+]([O-])c1ccc2c(c1)N[C@@H](c1cc(Cl)cc(Cl)c1)N2
REMARK SMILES IDX 7 1 8 2 5 3 6 4 20 5 10 6 4 7 11 8 9 9 12 12 14 13 13 14
REMARK SMILES IDX 16 15 17 16 19 17 15 18 18 19 2 20 3 21 1 22
REMARK H PARENT 20 10 10 11
ROOT
ATOM      1  C   UNL     1       7.677  -1.720 -16.940  1.00  0.00     0.060 A 
ATOM      2  C   UNL     1       7.654  -1.743 -15.566  1.00  0.00     0.066 A 
ATOM      3  C   UNL     1       8.834   0.332 -16.951  1.00  0.00     0.088 A 
ATOM      4  C   UNL     1       8.429  -0.865 -17.600  1.00  0.00     0.035 A 
ATOM      5  N   UNL     1       7.017  -2.905 -17.450  1.00  0.00    -0.360 N 
ATOM      6  N   UNL     1       7.023  -2.946 -15.237  1.00  0.00    -0.360 N 
ATOM      7  C   UNL     1       8.697   0.410 -15.566  1.00  0.00     0.271 A 
ATOM      8  C   UNL     1       7.171  -3.759 -16.389  1.00  0.00     0.205 C 
ATOM      9  C   UNL     1       8.109  -0.681 -14.853  1.00  0.00     0.113 A 
ATOM     10  H   UNL     1       6.560  -3.063 -18.359  1.00  0.00     0.163 HD
ATOM     11  H   UNL     1       6.553  -3.188 -14.353  1.00  0.00     0.163 HD
ENDROOT
BRANCH   8  12
ATOM     12  C   UNL     1       6.361  -5.085 -16.363  1.00  0.00    -0.003 A 
ATOM     13  C   UNL     1       4.167  -6.178 -16.714  1.00  0.00     0.042 A 
ATOM     14  C   UNL     1       5.210  -5.270 -17.162  1.00  0.00     0.028 A 
ATOM     15  C   UNL     1       4.573  -7.274 -15.827  1.00  0.00     0.041 A 
ATOM     16  C   UNL     1       5.936  -7.220 -15.309  1.00  0.00     0.042 A 
ATOM     17  C   UNL     1       6.777  -6.084 -15.412  1.00  0.00     0.028 A 
ATOM     18  Cl  UNL     1       2.730  -6.290 -17.307  1.00  0.00    -0.084 Cl
ATOM     19  Cl  UNL     1       6.475  -8.596 -14.450  1.00  0.00    -0.084 Cl
ENDBRANCH   8  12
BRANCH   7  20
ATOM     20  N   UNL     1       9.191   1.450 -14.806  1.00  0.00     0.062 N 
ATOM     21  O   UNL     1       8.606   2.467 -14.741  1.00  0.00    -0.258 OA
ATOM     22  O   UNL     1      10.172   1.311 -13.955  1.00  0.00    -0.258 OA
ENDBRANCH   7  20
TORSDOF 2
ENDMDL
