MODEL 1
REMARK VINA RESULT:    -4.263      0.000      0.000
REMARK INTER + INTRA:          -5.077
REMARK INTER:                  -4.762
REMARK INTRA:                  -0.316
REMARK UNBOUND:                -0.316
REMARK SMILES O=[N+]([O-])c1ccc2c(c1)N[C@@H](c1cc(Cl)cc(Cl)c1)N2
REMARK SMILES IDX 7 1 8 2 5 3 6 4 20 5 10 6 4 7 11 8 9 9 12 12 14 13 13 14
REMARK SMILES IDX 16 15 17 16 19 17 15 18 18 19 2 20 3 21 1 22
REMARK H PARENT 20 10 10 11
ROOT
ATOM      1  C   UNL     1       1.480   1.813 -11.673  1.00  0.00     0.060 A 
ATOM      2  C   UNL     1       2.515   0.922 -11.516  1.00  0.00     0.066 A 
ATOM      3  C   UNL     1       1.897   1.990 -13.985  1.00  0.00     0.088 A 
ATOM      4  C   UNL     1       1.035   2.147 -12.866  1.00  0.00     0.035 A 
ATOM      5  N   UNL     1       0.847   2.042 -10.390  1.00  0.00    -0.360 N 
ATOM      6  N   UNL     1       2.493   0.579 -10.162  1.00  0.00    -0.360 N 
ATOM      7  C   UNL     1       3.040   1.208 -13.833  1.00  0.00     0.271 A 
ATOM      8  C   UNL     1       1.176   0.885  -9.734  1.00  0.00     0.205 C 
ATOM      9  C   UNL     1       3.339   0.635 -12.557  1.00  0.00     0.113 A 
ATOM     10  H   UNL     1       0.301   2.850 -10.061  1.00  0.00     0.163 HD
ATOM     11  H   UNL     1       3.263   0.190  -9.599  1.00  0.00     0.163 HD
ENDROOT
BRANCH   8  12
ATOM     12  C   UNL     1       0.950   0.796  -8.198  1.00  0.00    -0.003 A 
ATOM     13  C   UNL     1      -0.550   1.304  -6.294  1.00  0.00     0.042 A 
ATOM     14  C   UNL     1      -0.347   0.784  -7.636  1.00  0.00     0.028 A 
ATOM     15  C   UNL     1       0.597   1.256  -5.380  1.00  0.00     0.041 A 
ATOM     16  C   UNL     1       1.882   0.894  -5.969  1.00  0.00     0.042 A 
ATOM     17  C   UNL     1       2.123   0.830  -7.363  1.00  0.00     0.028 A 
ATOM     18  Cl  UNL     1      -1.924   1.629  -5.633  1.00  0.00    -0.084 Cl
ATOM     19  Cl  UNL     1       3.170   0.635  -4.875  1.00  0.00    -0.084 Cl
ENDBRANCH   8  12
BRANCH   7  20
ATOM     20  N   UNL     1       3.871   0.856 -14.877  1.00  0.00     0.062 N 
ATOM     21  O   UNL     1       4.587  -0.071 -14.778  1.00  0.00    -0.258 OA
ATOM     22  O   UNL     1       3.762   1.355 -16.078  1.00  0.00    -0.258 OA
ENDBRANCH   7  20
TORSDOF 2
ENDMDL
MODEL 2
REMARK VINA RESULT:    -4.262      1.056      2.695
REMARK INTER + INTRA:          -5.076
REMARK INTER:                  -4.760
REMARK INTRA:                  -0.316
REMARK UNBOUND:                -0.316
REMARK SMILES O=[N+]([O-])c1ccc2c(c1)N[C@@H](c1cc(Cl)cc(Cl)c1)N2
REMARK SMILES IDX 7 1 8 2 5 3 6 4 20 5 10 6 4 7 11 8 9 9 12 12 14 13 13 14
REMARK SMILES IDX 16 15 17 16 19 17 15 18 18 19 2 20 3 21 1 22
REMARK H PARENT 20 10 10 11
ROOT
ATOM      1  C   UNL     1       2.614   0.879 -11.448  1.00  0.00     0.060 A 
ATOM      2  C   UNL     1       1.604   1.776 -11.704  1.00  0.00     0.066 A 
ATOM      3  C   UNL     1       3.291   0.898 -13.704  1.00  0.00     0.088 A 
ATOM      4  C   UNL     1       3.556   0.634 -12.333  1.00  0.00     0.035 A 
ATOM      5  N   UNL     1       2.602   0.535 -10.041  1.00  0.00    -0.360 N 
ATOM      6  N   UNL     1       1.005   2.008 -10.463  1.00  0.00    -0.360 N 
ATOM      7  C   UNL     1       2.190   1.690 -14.022  1.00  0.00     0.271 A 
ATOM      8  C   UNL     1       1.991   1.642  -9.512  1.00  0.00     0.205 C 
ATOM      9  C   UNL     1       1.336   2.164 -12.978  1.00  0.00     0.113 A 
ATOM     10  H   UNL     1       2.955  -0.309  -9.567  1.00  0.00     0.163 HD
ATOM     11  H   UNL     1       0.057   2.367 -10.280  1.00  0.00     0.163 HD
ENDROOT
BRANCH   8  12
ATOM     12  C   UNL     1       1.497   1.601  -8.039  1.00  0.00    -0.003 A 
ATOM     13  C   UNL     1       1.982   0.910  -5.711  1.00  0.00     0.042 A 
ATOM     14  C   UNL     1       2.398   1.541  -6.953  1.00  0.00     0.028 A 
ATOM     15  C   UNL     1       0.545   0.908  -5.415  1.00  0.00     0.041 A 
ATOM     16  C   UNL     1      -0.341   1.343  -6.489  1.00  0.00     0.042 A 
ATOM     17  C   UNL     1       0.073   1.525  -7.831  1.00  0.00     0.028 A 
ATOM     18  Cl  UNL     1       2.913   0.504  -4.529  1.00  0.00    -0.084 Cl
ATOM     19  Cl  UNL     1      -1.989   1.540  -6.079  1.00  0.00    -0.084 Cl
ENDBRANCH   8  12
BRANCH   7  20
ATOM     20  N   UNL     1       1.915   2.142 -15.297  1.00  0.00     0.062 N 
ATOM     21  O   UNL     1       1.217   3.074 -15.457  1.00  0.00    -0.258 OA
ATOM     22  O   UNL     1       2.562   1.737 -16.355  1.00  0.00    -0.258 OA
ENDBRANCH   7  20
TORSDOF 2
ENDMDL
MODEL 3
REMARK VINA RESULT:    -4.072      3.106      4.477
REMARK INTER + INTRA:          -4.864
REMARK INTER:                  -4.557
REMARK INTRA:                  -0.306
REMARK UNBOUND:                -0.316
REMARK SMILES O=[N+]([O-])c1ccc2c(c1)N[C@@H](c1cc(Cl)cc(Cl)c1)N2
REMARK SMILES IDX 7 1 8 2 5 3 6 4 20 5 10 6 4 7 11 8 9 9 12 12 14 13 13 14
REMARK SMILES IDX 16 15 17 16 19 17 15 18 18 19 2 20 3 21 1 22
REMARK H PARENT 20 10 10 11
ROOT
ATOM      1  C   UNL     1       4.756  -0.108 -13.825  1.00  0.00     0.060 A 
ATOM      2  C   UNL     1       4.493  -1.336 -13.266  1.00  0.00     0.066 A 
ATOM      3  C   UNL     1       5.908  -1.101 -15.624  1.00  0.00     0.088 A 
ATOM      4  C   UNL     1       5.222   0.004 -15.050  1.00  0.00     0.035 A 
ATOM      5  N   UNL     1       4.182   0.929 -12.991  1.00  0.00    -0.360 N 
ATOM      6  N   UNL     1       3.735  -1.059 -12.126  1.00  0.00    -0.360 N 
ATOM      7  C   UNL     1       5.786  -2.345 -15.009  1.00  0.00     0.271 A 
ATOM      8  C   UNL     1       3.188   0.228 -12.360  1.00  0.00     0.205 C 
ATOM      9  C   UNL     1       5.028  -2.464 -13.802  1.00  0.00     0.113 A 
ATOM     10  H   UNL     1       4.448   1.920 -12.898  1.00  0.00     0.163 HD
ATOM     11  H   UNL     1       3.603  -1.657 -11.297  1.00  0.00     0.163 HD
ENDROOT
BRANCH   8  12
ATOM     12  C   UNL     1       2.471   0.868 -11.138  1.00  0.00    -0.003 A 
ATOM     13  C   UNL     1       2.692   2.271  -9.110  1.00  0.00     0.042 A 
ATOM     14  C   UNL     1       2.958   2.042 -10.520  1.00  0.00     0.028 A 
ATOM     15  C   UNL     1       1.490   1.644  -8.548  1.00  0.00     0.041 A 
ATOM     16  C   UNL     1       0.800   0.682  -9.400  1.00  0.00     0.042 A 
ATOM     17  C   UNL     1       1.343   0.154 -10.597  1.00  0.00     0.028 A 
ATOM     18  Cl  UNL     1       3.376   3.343  -8.209  1.00  0.00    -0.084 Cl
ATOM     19  Cl  UNL     1      -0.708   0.112  -8.831  1.00  0.00    -0.084 Cl
ENDBRANCH   8  12
BRANCH   7  20
ATOM     20  N   UNL     1       6.273  -3.517 -15.549  1.00  0.00     0.062 N 
ATOM     21  O   UNL     1       7.430  -3.730 -15.558  1.00  0.00    -0.258 OA
ATOM     22  O   UNL     1       5.514  -4.531 -15.862  1.00  0.00    -0.258 OA
ENDBRANCH   7  20
TORSDOF 2
ENDMDL
MODEL 4
REMARK VINA RESULT:    -4.060      3.780      4.855
REMARK INTER + INTRA:          -4.850
REMARK INTER:                  -4.544
REMARK INTRA:                  -0.305
REMARK UNBOUND:                -0.316
REMARK SMILES O=[N+]([O-])c1ccc2c(c1)N[C@@H](c1cc(Cl)cc(Cl)c1)N2
REMARK SMILES IDX 7 1 8 2 5 3 6 4 20 5 10 6 4 7 11 8 9 9 12 12 14 13 13 14
REMARK SMILES IDX 16 15 17 16 19 17 15 18 18 19 2 20 3 21 1 22
REMARK H PARENT 20 10 10 11
ROOT
ATOM      1  C   UNL     1       0.616   3.063 -14.806  1.00  0.00     0.060 A 
ATOM      2  C   UNL     1       0.561   4.232 -14.085  1.00  0.00     0.066 A 
ATOM      3  C   UNL     1       0.393   4.232 -16.840  1.00  0.00     0.088 A 
ATOM      4  C   UNL     1       0.768   3.069 -16.113  1.00  0.00     0.035 A 
ATOM      5  N   UNL     1       0.770   1.946 -13.896  1.00  0.00    -0.360 N 
ATOM      6  N   UNL     1       0.718   3.841 -12.752  1.00  0.00    -0.360 N 
ATOM      7  C   UNL     1       0.186   5.413 -16.131  1.00  0.00     0.271 A 
ATOM      8  C   UNL     1       1.346   2.571 -12.821  1.00  0.00     0.205 C 
ATOM      9  C   UNL     1       0.302   5.412 -14.706  1.00  0.00     0.113 A 
ATOM     10  H   UNL     1       0.518   0.956 -14.022  1.00  0.00     0.163 HD
ATOM     11  H   UNL     1       0.439   4.360 -11.908  1.00  0.00     0.163 HD
ENDROOT
BRANCH   8  12
ATOM     12  C   UNL     1       1.438   1.813 -11.467  1.00  0.00    -0.003 A 
ATOM     13  C   UNL     1       0.346   0.242  -9.895  1.00  0.00     0.042 A 
ATOM     14  C   UNL     1       0.750   0.599 -11.245  1.00  0.00     0.028 A 
ATOM     15  C   UNL     1       1.143   0.794  -8.793  1.00  0.00     0.041 A 
ATOM     16  C   UNL     1       2.124   1.813  -9.148  1.00  0.00     0.042 A 
ATOM     17  C   UNL     1       2.177   2.455 -10.410  1.00  0.00     0.028 A 
ATOM     18  Cl  UNL     1      -0.650  -0.892  -9.504  1.00  0.00    -0.084 Cl
ATOM     19  Cl  UNL     1       3.191   2.302  -7.905  1.00  0.00    -0.084 Cl
ENDBRANCH   8  12
BRANCH   7  20
ATOM     20  N   UNL     1      -0.030   6.637 -16.731  1.00  0.00     0.062 N 
ATOM     21  O   UNL     1      -1.110   6.943 -17.083  1.00  0.00    -0.258 OA
ATOM     22  O   UNL     1       0.855   7.596 -16.741  1.00  0.00    -0.258 OA
ENDBRANCH   7  20
TORSDOF 2
ENDMDL
MODEL 5
REMARK VINA RESULT:    -3.928      5.111      7.576
REMARK INTER + INTRA:          -4.703
REMARK INTER:                  -4.403
REMARK INTRA:                  -0.300
REMARK UNBOUND:                -0.316
REMARK SMILES O=[N+]([O-])c1ccc2c(c1)N[C@@H](c1cc(Cl)cc(Cl)c1)N2
REMARK SMILES IDX 7 1 8 2 5 3 6 4 20 5 10 6 4 7 11 8 9 9 12 12 14 13 13 14
REMARK SMILES IDX 16 15 17 16 19 17 15 18 18 19 2 20 3 21 1 22
REMARK H PARENT 20 10 10 11
ROOT
ATOM      1  C   UNL     1       2.043   1.099  -7.822  1.00  0.00     0.060 A 
ATOM      2  C   UNL     1       0.805   1.652  -8.048  1.00  0.00     0.066 A 
ATOM      3  C   UNL     1       1.526   0.702  -5.559  1.00  0.00     0.088 A 
ATOM      4  C   UNL     1       2.311   0.442  -6.714  1.00  0.00     0.035 A 
ATOM      5  N   UNL     1       2.806   1.119  -9.054  1.00  0.00    -0.360 N 
ATOM      6  N   UNL     1       0.794   1.971  -9.408  1.00  0.00    -0.360 N 
ATOM      7  C   UNL     1       0.324   1.388  -5.719  1.00  0.00     0.271 A 
ATOM      8  C   UNL     1       1.796   1.147  -9.980  1.00  0.00     0.205 C 
ATOM      9  C   UNL     1      -0.056   1.853  -7.016  1.00  0.00     0.113 A 
ATOM     10  H   UNL     1       3.827   1.113  -9.195  1.00  0.00     0.163 HD
ATOM     11  H   UNL     1       0.192   2.654  -9.889  1.00  0.00     0.163 HD
ENDROOT
BRANCH   8  12
ATOM     12  C   UNL     1       2.139   1.465 -11.462  1.00  0.00    -0.003 A 
ATOM     13  C   UNL     1       1.326   2.331 -13.635  1.00  0.00     0.042 A 
ATOM     14  C   UNL     1       1.442   2.455 -12.191  1.00  0.00     0.028 A 
ATOM     15  C   UNL     1       2.381   1.580 -14.326  1.00  0.00     0.041 A 
ATOM     16  C   UNL     1       3.321   0.852 -13.481  1.00  0.00     0.042 A 
ATOM     17  C   UNL     1       3.133   0.635 -12.094  1.00  0.00     0.028 A 
ATOM     18  Cl  UNL     1       0.373   3.153 -14.554  1.00  0.00    -0.084 Cl
ATOM     19  Cl  UNL     1       4.666   0.153 -14.272  1.00  0.00    -0.084 Cl
ENDBRANCH   8  12
BRANCH   7  20
ATOM     20  N   UNL     1      -0.595   1.568  -4.706  1.00  0.00     0.062 N 
ATOM     21  O   UNL     1      -0.270   1.452  -3.582  1.00  0.00    -0.258 OA
ATOM     22  O   UNL     1      -1.779   2.085  -4.897  1.00  0.00    -0.258 OA
ENDBRANCH   7  20
TORSDOF 2
ENDMDL
MODEL 6
REMARK VINA RESULT:    -3.924      4.970      7.633
REMARK INTER + INTRA:          -4.698
REMARK INTER:                  -4.399
REMARK INTRA:                  -0.299
REMARK UNBOUND:                -0.316
REMARK SMILES O=[N+]([O-])c1ccc2c(c1)N[C@@H](c1cc(Cl)cc(Cl)c1)N2
REMARK SMILES IDX 7 1 8 2 5 3 6 4 20 5 10 6 4 7 11 8 9 9 12 12 14 13 13 14
REMARK SMILES IDX 16 15 17 16 19 17 15 18 18 19 2 20 3 21 1 22
REMARK H PARENT 20 10 10 11
ROOT
ATOM      1  C   UNL     1       0.347   1.392  -8.250  1.00  0.00     0.060 A 
ATOM      2  C   UNL     1       1.530   0.766  -7.936  1.00  0.00     0.066 A 
ATOM      3  C   UNL     1      -0.217   1.610  -5.973  1.00  0.00     0.088 A 
ATOM      4  C   UNL     1      -0.374   1.998  -7.332  1.00  0.00     0.035 A 
ATOM      5  N   UNL     1       0.233   1.503  -9.690  1.00  0.00    -0.360 N 
ATOM      6  N   UNL     1       2.151   0.531  -9.166  1.00  0.00    -0.360 N 
ATOM      7  C   UNL     1       0.899   0.850  -5.630  1.00  0.00     0.271 A 
ATOM      8  C   UNL     1       1.553   1.460 -10.055  1.00  0.00     0.205 C 
ATOM      9  C   UNL     1       1.814   0.439  -6.648  1.00  0.00     0.113 A 
ATOM     10  H   UNL     1      -0.608   1.591 -10.278  1.00  0.00     0.163 HD
ATOM     11  H   UNL     1       2.882  -0.163  -9.378  1.00  0.00     0.163 HD
ENDROOT
BRANCH   8  12
ATOM     12  C   UNL     1       1.917   1.259 -11.553  1.00  0.00    -0.003 A 
ATOM     13  C   UNL     1       3.628   0.531 -13.189  1.00  0.00     0.042 A 
ATOM     14  C   UNL     1       2.876   0.306 -11.965  1.00  0.00     0.028 A 
ATOM     15  C   UNL     1       2.990   1.358 -14.220  1.00  0.00     0.041 A 
ATOM     16  C   UNL     1       1.764   2.047 -13.834  1.00  0.00     0.042 A 
ATOM     17  C   UNL     1       1.306   2.158 -12.498  1.00  0.00     0.028 A 
ATOM     18  Cl  UNL     1       4.900  -0.247 -13.641  1.00  0.00    -0.084 Cl
ATOM     19  Cl  UNL     1       0.912   2.837 -15.088  1.00  0.00    -0.084 Cl
ENDBRANCH   8  12
BRANCH   7  20
ATOM     20  N   UNL     1       1.244   0.542  -4.330  1.00  0.00     0.062 N 
ATOM     21  O   UNL     1       0.429   0.545  -3.483  1.00  0.00    -0.258 OA
ATOM     22  O   UNL     1       2.395   0.022  -3.999  1.00  0.00    -0.258 OA
ENDBRANCH   7  20
TORSDOF 2
ENDMDL
MODEL 7
REMARK VINA RESULT:    -3.914      1.542      2.172
REMARK INTER + INTRA:          -4.687
REMARK INTER:                  -4.387
REMARK INTRA:                  -0.300
REMARK UNBOUND:                -0.316
REMARK SMILES O=[N+]([O-])c1ccc2c(c1)N[C@@H](c1cc(Cl)cc(Cl)c1)N2
REMARK SMILES IDX 7 1 8 2 5 3 6 4 20 5 10 6 4 7 11 8 9 9 12 12 14 13 13 14
REMARK SMILES IDX 16 15 17 16 19 17 15 18 18 19 2 20 3 21 1 22
REMARK H PARENT 20 10 10 11
ROOT
ATOM      1  C   UNL     1       2.073   1.109 -11.892  1.00  0.00     0.060 A 
ATOM      2  C   UNL     1       1.061   2.038 -11.854  1.00  0.00     0.066 A 
ATOM      3  C   UNL     1       2.483   1.551 -14.169  1.00  0.00     0.088 A 
ATOM      4  C   UNL     1       2.900   1.034 -12.912  1.00  0.00     0.035 A 
ATOM      5  N   UNL     1       2.217   0.506 -10.582  1.00  0.00    -0.360 N 
ATOM      6  N   UNL     1       0.615   2.033 -10.530  1.00  0.00    -0.360 N 
ATOM      7  C   UNL     1       1.371   2.388 -14.201  1.00  0.00     0.271 A 
ATOM      8  C   UNL     1       1.697   1.494  -9.788  1.00  0.00     0.205 C 
ATOM      9  C   UNL     1       0.655   2.658 -12.993  1.00  0.00     0.113 A 
ATOM     10  H   UNL     1       2.604  -0.412 -10.319  1.00  0.00     0.163 HD
ATOM     11  H   UNL     1      -0.297   2.351 -10.172  1.00  0.00     0.163 HD
ENDROOT
BRANCH   8  12
ATOM     12  C   UNL     1       1.376   1.178  -8.300  1.00  0.00    -0.003 A 
ATOM     13  C   UNL     1      -0.296   1.276  -6.476  1.00  0.00     0.042 A 
ATOM     14  C   UNL     1       0.053   0.965  -7.852  1.00  0.00     0.028 A 
ATOM     15  C   UNL     1       0.785   1.216  -5.485  1.00  0.00     0.041 A 
ATOM     16  C   UNL     1       2.138   1.061  -6.007  1.00  0.00     0.042 A 
ATOM     17  C   UNL     1       2.480   1.210  -7.374  1.00  0.00     0.028 A 
ATOM     18  Cl  UNL     1      -1.738   1.376  -5.894  1.00  0.00    -0.084 Cl
ATOM     19  Cl  UNL     1       3.368   0.781  -4.854  1.00  0.00    -0.084 Cl
ENDBRANCH   8  12
BRANCH   7  20
ATOM     20  N   UNL     1       0.960   3.072 -15.327  1.00  0.00     0.062 N 
ATOM     21  O   UNL     1       0.257   4.009 -15.228  1.00  0.00    -0.258 OA
ATOM     22  O   UNL     1       1.481   2.884 -16.509  1.00  0.00    -0.258 OA
ENDBRANCH   7  20
TORSDOF 2
ENDMDL
MODEL 8
REMARK VINA RESULT:    -3.904      0.751      2.148
REMARK INTER + INTRA:          -4.676
REMARK INTER:                  -4.376
REMARK INTRA:                  -0.299
REMARK UNBOUND:                -0.316
REMARK SMILES O=[N+]([O-])c1ccc2c(c1)N[C@@H](c1cc(Cl)cc(Cl)c1)N2
REMARK SMILES IDX 7 1 8 2 5 3 6 4 20 5 10 6 4 7 11 8 9 9 12 12 14 13 13 14
REMARK SMILES IDX 16 15 17 16 19 17 15 18 18 19 2 20 3 21 1 22
REMARK H PARENT 20 10 10 11
ROOT
ATOM      1  C   UNL     1       2.146   1.604 -11.845  1.00  0.00     0.060 A 
ATOM      2  C   UNL     1       3.060   0.666 -11.427  1.00  0.00     0.066 A 
ATOM      3  C   UNL     1       2.823   1.358 -14.088  1.00  0.00     0.088 A 
ATOM      4  C   UNL     1       1.868   1.771 -13.120  1.00  0.00     0.035 A 
ATOM      5  N   UNL     1       1.408   2.096 -10.699  1.00  0.00    -0.360 N 
ATOM      6  N   UNL     1       2.858   0.555 -10.049  1.00  0.00    -0.360 N 
ATOM      7  C   UNL     1       3.855   0.516 -13.679  1.00  0.00     0.271 A 
ATOM      8  C   UNL     1       1.542   1.040  -9.837  1.00  0.00     0.205 C 
ATOM      9  C   UNL     1       3.955   0.140 -12.303  1.00  0.00     0.113 A 
ATOM     10  H   UNL     1       0.916   2.992 -10.569  1.00  0.00     0.163 HD
ATOM     11  H   UNL     1       3.519   0.201  -9.343  1.00  0.00     0.163 HD
ENDROOT
BRANCH   8  12
ATOM     12  C   UNL     1       1.146   1.227  -8.345  1.00  0.00    -0.003 A 
ATOM     13  C   UNL     1       1.804   0.935  -5.976  1.00  0.00     0.042 A 
ATOM     14  C   UNL     1       2.118   1.365  -7.328  1.00  0.00     0.028 A 
ATOM     15  C   UNL     1       0.390   0.949  -5.584  1.00  0.00     0.041 A 
ATOM     16  C   UNL     1      -0.578   1.184  -6.650  1.00  0.00     0.042 A 
ATOM     17  C   UNL     1      -0.257   1.154  -8.030  1.00  0.00     0.028 A 
ATOM     18  Cl  UNL     1       2.823   0.747  -4.812  1.00  0.00    -0.084 Cl
ATOM     19  Cl  UNL     1      -2.201   1.408  -6.163  1.00  0.00    -0.084 Cl
ENDBRANCH   8  12
BRANCH   7  20
ATOM     20  N   UNL     1       4.750  -0.074 -14.546  1.00  0.00     0.062 N 
ATOM     21  O   UNL     1       5.383  -1.004 -14.204  1.00  0.00    -0.258 OA
ATOM     22  O   UNL     1       4.792   0.193 -15.824  1.00  0.00    -0.258 OA
ENDBRANCH   7  20
TORSDOF 2
ENDMDL
MODEL 9
REMARK VINA RESULT:    -3.864      3.878      5.679
REMARK INTER + INTRA:          -4.631
REMARK INTER:                  -4.324
REMARK INTRA:                  -0.307
REMARK UNBOUND:                -0.316
REMARK SMILES O=[N+]([O-])c1ccc2c(c1)N[C@@H](c1cc(Cl)cc(Cl)c1)N2
REMARK SMILES IDX 7 1 8 2 5 3 6 4 20 5 10 6 4 7 11 8 9 9 12 12 14 13 13 14
REMARK SMILES IDX 16 15 17 16 19 17 15 18 18 19 2 20 3 21 1 22
REMARK H PARENT 20 10 10 11
ROOT
ATOM      1  C   UNL     1       4.913  -1.877 -14.166  1.00  0.00     0.060 A 
ATOM      2  C   UNL     1       5.299  -0.757 -14.862  1.00  0.00     0.066 A 
ATOM      3  C   UNL     1       6.390  -3.234 -15.401  1.00  0.00     0.088 A 
ATOM      4  C   UNL     1       5.583  -3.006 -14.253  1.00  0.00     0.035 A 
ATOM      5  N   UNL     1       3.912  -1.509 -13.184  1.00  0.00    -0.360 N 
ATOM      6  N   UNL     1       4.574   0.291 -14.290  1.00  0.00    -0.360 N 
ATOM      7  C   UNL     1       6.692  -2.149 -16.221  1.00  0.00     0.271 A 
ATOM      8  C   UNL     1       4.208  -0.183 -13.004  1.00  0.00     0.205 C 
ATOM      9  C   UNL     1       6.145  -0.863 -15.919  1.00  0.00     0.113 A 
ATOM     10  H   UNL     1       3.181  -2.084 -12.742  1.00  0.00     0.163 HD
ATOM     11  H   UNL     1       4.354   1.206 -14.709  1.00  0.00     0.163 HD
ENDROOT
BRANCH   8  12
ATOM     12  C   UNL     1       3.201   0.718 -12.236  1.00  0.00    -0.003 A 
ATOM     13  C   UNL     1       1.886   1.054 -10.165  1.00  0.00     0.042 A 
ATOM     14  C   UNL     1       3.140   0.732 -10.824  1.00  0.00     0.028 A 
ATOM     15  C   UNL     1       0.945   1.905 -10.903  1.00  0.00     0.041 A 
ATOM     16  C   UNL     1       1.263   2.164 -12.302  1.00  0.00     0.042 A 
ATOM     17  C   UNL     1       2.260   1.467 -13.029  1.00  0.00     0.028 A 
ATOM     18  Cl  UNL     1       1.561   0.844  -8.655  1.00  0.00    -0.084 Cl
ATOM     19  Cl  UNL     1       0.286   3.318 -13.100  1.00  0.00    -0.084 Cl
ENDBRANCH   8  12
BRANCH   7  20
ATOM     20  N   UNL     1       7.584  -2.209 -17.272  1.00  0.00     0.062 N 
ATOM     21  O   UNL     1       7.269  -1.832 -18.340  1.00  0.00    -0.258 OA
ATOM     22  O   UNL     1       8.856  -2.456 -17.117  1.00  0.00    -0.258 OA
ENDBRANCH   7  20
TORSDOF 2
ENDMDL
