MODEL 1
REMARK VINA RESULT:    -4.804      0.000      0.000
REMARK INTER + INTRA:          -5.680
REMARK INTER:                  -5.365
REMARK INTRA:                  -0.315
REMARK UNBOUND:                -0.315
REMARK SMILES O=[N+]([O-])c1ccc2c(c1)N[C@@H](c1cc(Cl)cc(Cl)c1)N2
REMARK SMILES IDX 7 1 8 2 5 3 6 4 20 5 10 6 4 7 11 8 9 9 12 12 14 13 13 14
REMARK SMILES IDX 16 15 17 16 19 17 15 18 18 19 2 20 3 21 1 22
REMARK H PARENT 20 10 10 11
ROOT
ATOM      1  C   UNL     1       7.933   6.002   6.039  1.00  0.00     0.060 A 
ATOM      2  C   UNL     1       8.484   4.820   6.472  1.00  0.00     0.066 A 
ATOM      3  C   UNL     1       9.289   7.248   7.509  1.00  0.00     0.088 A 
ATOM      4  C   UNL     1       8.465   7.164   6.354  1.00  0.00     0.035 A 
ATOM      5  N   UNL     1       6.941   5.723   5.020  1.00  0.00    -0.360 N 
ATOM      6  N   UNL     1       7.867   3.831   5.702  1.00  0.00    -0.360 N 
ATOM      7  C   UNL     1       9.758   6.062   8.071  1.00  0.00     0.271 A 
ATOM      8  C   UNL     1       7.388   4.513   4.555  1.00  0.00     0.205 C 
ATOM      9  C   UNL     1       9.359   4.809   7.512  1.00  0.00     0.113 A 
ATOM     10  H   UNL     1       6.126   6.279   4.725  1.00  0.00     0.163 HD
ATOM     11  H   UNL     1       7.779   2.828   5.919  1.00  0.00     0.163 HD
ENDROOT
BRANCH   8  12
ATOM     12  C   UNL     1       6.464   3.672   3.631  1.00  0.00    -0.003 A 
ATOM     13  C   UNL     1       4.931   3.667   1.685  1.00  0.00     0.042 A 
ATOM     14  C   UNL     1       6.188   4.060   2.300  1.00  0.00     0.028 A 
ATOM     15  C   UNL     1       4.296   2.445   2.192  1.00  0.00     0.041 A 
ATOM     16  C   UNL     1       4.871   1.866   3.401  1.00  0.00     0.042 A 
ATOM     17  C   UNL     1       5.817   2.528   4.222  1.00  0.00     0.028 A 
ATOM     18  Cl  UNL     1       4.342   4.232   0.358  1.00  0.00    -0.084 Cl
ATOM     19  Cl  UNL     1       4.268   0.337   3.870  1.00  0.00    -0.084 Cl
ENDBRANCH   8  12
BRANCH   7  20
ATOM     20  N   UNL     1      10.683   6.014   9.094  1.00  0.00     0.062 N 
ATOM     21  O   UNL     1      11.323   5.044   9.269  1.00  0.00    -0.258 OA
ATOM     22  O   UNL     1      11.068   7.068   9.761  1.00  0.00    -0.258 OA
ENDBRANCH   7  20
TORSDOF 2
ENDMDL
MODEL 2
REMARK VINA RESULT:    -4.793      1.122      2.729
REMARK INTER + INTRA:          -5.668
REMARK INTER:                  -5.353
REMARK INTRA:                  -0.315
REMARK UNBOUND:                -0.315
REMARK SMILES O=[N+]([O-])c1ccc2c(c1)N[C@@H](c1cc(Cl)cc(Cl)c1)N2
REMARK SMILES IDX 7 1 8 2 5 3 6 4 20 5 10 6 4 7 11 8 9 9 12 12 14 13 13 14
REMARK SMILES IDX 16 15 17 16 19 17 15 18 18 19 2 20 3 21 1 22
REMARK H PARENT 20 10 10 11
ROOT
ATOM      1  C   UNL     1       8.461   4.660   6.599  1.00  0.00     0.060 A 
ATOM      2  C   UNL     1       7.937   5.874   6.224  1.00  0.00     0.066 A 
ATOM      3  C   UNL     1       9.937   5.691   8.117  1.00  0.00     0.088 A 
ATOM      4  C   UNL     1       9.240   4.543   7.652  1.00  0.00     0.035 A 
ATOM      5  N   UNL     1       7.796   3.604   5.860  1.00  0.00    -0.360 N 
ATOM      6  N   UNL     1       6.939   5.566   5.296  1.00  0.00    -0.360 N 
ATOM      7  C   UNL     1       9.533   6.940   7.652  1.00  0.00     0.271 A 
ATOM      8  C   UNL     1       6.605   4.213   5.561  1.00  0.00     0.205 C 
ATOM      9  C   UNL     1       8.477   7.029   6.692  1.00  0.00     0.113 A 
ATOM     10  H   UNL     1       8.127   2.657   5.625  1.00  0.00     0.163 HD
ATOM     11  H   UNL     1       6.534   6.184   4.579  1.00  0.00     0.163 HD
ENDROOT
BRANCH   8  12
ATOM     12  C   UNL     1       5.662   3.554   4.516  1.00  0.00    -0.003 A 
ATOM     13  C   UNL     1       4.587   1.470   3.721  1.00  0.00     0.042 A 
ATOM     14  C   UNL     1       4.942   2.373   4.804  1.00  0.00     0.028 A 
ATOM     15  C   UNL     1       4.442   2.057   2.384  1.00  0.00     0.041 A 
ATOM     16  C   UNL     1       4.876   3.442   2.232  1.00  0.00     0.042 A 
ATOM     17  C   UNL     1       5.630   4.145   3.203  1.00  0.00     0.028 A 
ATOM     18  Cl  UNL     1       4.057   0.012   3.877  1.00  0.00    -0.084 Cl
ATOM     19  Cl  UNL     1       4.515   4.188   0.737  1.00  0.00    -0.084 Cl
ENDBRANCH   8  12
BRANCH   7  20
ATOM     20  N   UNL     1      10.024   8.134   8.140  1.00  0.00     0.062 N 
ATOM     21  O   UNL     1       9.407   9.126   8.011  1.00  0.00    -0.258 OA
ATOM     22  O   UNL     1      11.047   8.210   8.948  1.00  0.00    -0.258 OA
ENDBRANCH   7  20
TORSDOF 2
ENDMDL
MODEL 3
REMARK VINA RESULT:    -4.422      1.496      2.143
REMARK INTER + INTRA:          -5.254
REMARK INTER:                  -4.954
REMARK INTRA:                  -0.300
REMARK UNBOUND:                -0.315
REMARK SMILES O=[N+]([O-])c1ccc2c(c1)N[C@@H](c1cc(Cl)cc(Cl)c1)N2
REMARK SMILES IDX 7 1 8 2 5 3 6 4 20 5 10 6 4 7 11 8 9 9 12 12 14 13 13 14
REMARK SMILES IDX 16 15 17 16 19 17 15 18 18 19 2 20 3 21 1 22
REMARK H PARENT 20 10 10 11
ROOT
ATOM      1  C   UNL     1       8.551   5.280   6.358  1.00  0.00     0.060 A 
ATOM      2  C   UNL     1       7.878   6.360   5.837  1.00  0.00     0.066 A 
ATOM      3  C   UNL     1       9.708   6.654   7.882  1.00  0.00     0.088 A 
ATOM      4  C   UNL     1       9.244   5.375   7.472  1.00  0.00     0.035 A 
ATOM      5  N   UNL     1       8.129   4.077   5.670  1.00  0.00    -0.360 N 
ATOM      6  N   UNL     1       7.026   5.821   4.869  1.00  0.00    -0.360 N 
ATOM      7  C   UNL     1       9.154   7.780   7.278  1.00  0.00     0.271 A 
ATOM      8  C   UNL     1       6.888   4.457   5.229  1.00  0.00     0.205 C 
ATOM      9  C   UNL     1       8.187   7.621   6.238  1.00  0.00     0.113 A 
ATOM     10  H   UNL     1       8.624   3.182   5.546  1.00  0.00     0.163 HD
ATOM     11  H   UNL     1       6.594   6.308   4.071  1.00  0.00     0.163 HD
ENDROOT
BRANCH   8  12
ATOM     12  C   UNL     1       6.156   3.574   4.181  1.00  0.00    -0.003 A 
ATOM     13  C   UNL     1       4.937   3.499   2.026  1.00  0.00     0.042 A 
ATOM     14  C   UNL     1       6.066   3.951   2.822  1.00  0.00     0.028 A 
ATOM     15  C   UNL     1       4.291   2.247   2.438  1.00  0.00     0.041 A 
ATOM     16  C   UNL     1       4.704   1.694   3.723  1.00  0.00     0.042 A 
ATOM     17  C   UNL     1       5.482   2.400   4.674  1.00  0.00     0.028 A 
ATOM     18  Cl  UNL     1       4.529   4.037   0.621  1.00  0.00    -0.084 Cl
ATOM     19  Cl  UNL     1       4.109   0.137   4.104  1.00  0.00    -0.084 Cl
ENDBRANCH   8  12
BRANCH   7  20
ATOM     20  N   UNL     1       9.407   9.072   7.692  1.00  0.00     0.062 N 
ATOM     21  O   UNL     1       8.714   9.954   7.340  1.00  0.00    -0.258 OA
ATOM     22  O   UNL     1      10.249   9.367   8.645  1.00  0.00    -0.258 OA
ENDBRANCH   7  20
TORSDOF 2
ENDMDL
MODEL 4
REMARK VINA RESULT:    -4.410      5.119      7.586
REMARK INTER + INTRA:          -5.240
REMARK INTER:                  -4.941
REMARK INTRA:                  -0.299
REMARK UNBOUND:                -0.315
REMARK SMILES O=[N+]([O-])c1ccc2c(c1)N[C@@H](c1cc(Cl)cc(Cl)c1)N2
REMARK SMILES IDX 7 1 8 2 5 3 6 4 20 5 10 6 4 7 11 8 9 9 12 12 14 13 13 14
REMARK SMILES IDX 16 15 17 16 19 17 15 18 18 19 2 20 3 21 1 22
REMARK H PARENT 20 10 10 11
ROOT
ATOM      1  C   UNL     1       5.912   2.827   4.485  1.00  0.00     0.060 A 
ATOM      2  C   UNL     1       5.668   3.977   3.775  1.00  0.00     0.066 A 
ATOM      3  C   UNL     1       4.757   1.523   2.899  1.00  0.00     0.088 A 
ATOM      4  C   UNL     1       5.686   1.638   3.968  1.00  0.00     0.035 A 
ATOM      5  N   UNL     1       6.679   3.151   5.672  1.00  0.00    -0.360 N 
ATOM      6  N   UNL     1       6.309   4.989   4.494  1.00  0.00    -0.360 N 
ATOM      7  C   UNL     1       4.368   2.685   2.237  1.00  0.00     0.271 A 
ATOM      8  C   UNL     1       7.283   4.315   5.274  1.00  0.00     0.205 C 
ATOM      9  C   UNL     1       4.865   3.951   2.679  1.00  0.00     0.113 A 
ATOM     10  H   UNL     1       6.750   2.647   6.567  1.00  0.00     0.163 HD
ATOM     11  H   UNL     1       6.116   6.000   4.465  1.00  0.00     0.163 HD
ENDROOT
BRANCH   8  12
ATOM     12  C   UNL     1       7.995   5.198   6.337  1.00  0.00    -0.003 A 
ATOM     13  C   UNL     1       8.747   7.469   6.975  1.00  0.00     0.042 A 
ATOM     14  C   UNL     1       7.718   6.578   6.466  1.00  0.00     0.028 A 
ATOM     15  C   UNL     1       9.757   6.883   7.864  1.00  0.00     0.041 A 
ATOM     16  C   UNL     1       9.757   5.429   7.979  1.00  0.00     0.042 A 
ATOM     17  C   UNL     1       9.027   4.568   7.121  1.00  0.00     0.028 A 
ATOM     18  Cl  UNL     1       8.723   9.027   6.918  1.00  0.00    -0.084 Cl
ATOM     19  Cl  UNL     1      10.788   4.762   9.168  1.00  0.00    -0.084 Cl
ENDBRANCH   8  12
BRANCH   7  20
ATOM     20  N   UNL     1       3.595   2.692   1.093  1.00  0.00     0.062 N 
ATOM     21  O   UNL     1       2.981   1.738   0.787  1.00  0.00    -0.258 OA
ATOM     22  O   UNL     1       3.315   3.778   0.425  1.00  0.00    -0.258 OA
ENDBRANCH   7  20
TORSDOF 2
ENDMDL
MODEL 5
REMARK VINA RESULT:    -4.368      0.621      2.192
REMARK INTER + INTRA:          -5.193
REMARK INTER:                  -4.894
REMARK INTRA:                  -0.299
REMARK UNBOUND:                -0.315
REMARK SMILES O=[N+]([O-])c1ccc2c(c1)N[C@@H](c1cc(Cl)cc(Cl)c1)N2
REMARK SMILES IDX 7 1 8 2 5 3 6 4 20 5 10 6 4 7 11 8 9 9 12 12 14 13 13 14
REMARK SMILES IDX 16 15 17 16 19 17 15 18 18 19 2 20 3 21 1 22
REMARK H PARENT 20 10 10 11
ROOT
ATOM      1  C   UNL     1       8.030   5.718   6.435  1.00  0.00     0.060 A 
ATOM      2  C   UNL     1       8.440   4.436   6.715  1.00  0.00     0.066 A 
ATOM      3  C   UNL     1       9.652   6.623   7.885  1.00  0.00     0.088 A 
ATOM      4  C   UNL     1       8.741   6.763   6.803  1.00  0.00     0.035 A 
ATOM      5  N   UNL     1       6.937   5.674   5.485  1.00  0.00    -0.360 N 
ATOM      6  N   UNL     1       7.635   3.618   5.918  1.00  0.00    -0.360 N 
ATOM      7  C   UNL     1       9.990   5.336   8.300  1.00  0.00     0.271 A 
ATOM      8  C   UNL     1       7.174   4.467   4.880  1.00  0.00     0.205 C 
ATOM      9  C   UNL     1       9.378   4.208   7.670  1.00  0.00     0.113 A 
ATOM     10  H   UNL     1       6.189   6.360   5.311  1.00  0.00     0.163 HD
ATOM     11  H   UNL     1       7.424   2.619   6.054  1.00  0.00     0.163 HD
ENDROOT
BRANCH   8  12
ATOM     12  C   UNL     1       6.076   3.851   3.969  1.00  0.00    -0.003 A 
ATOM     13  C   UNL     1       4.771   1.831   3.376  1.00  0.00     0.042 A 
ATOM     14  C   UNL     1       5.308   2.737   4.378  1.00  0.00     0.028 A 
ATOM     15  C   UNL     1       4.523   2.386   2.040  1.00  0.00     0.041 A 
ATOM     16  C   UNL     1       5.036   3.728   1.788  1.00  0.00     0.042 A 
ATOM     17  C   UNL     1       5.943   4.402   2.644  1.00  0.00     0.028 A 
ATOM     18  Cl  UNL     1       4.158   0.424   3.644  1.00  0.00    -0.084 Cl
ATOM     19  Cl  UNL     1       4.568   4.454   0.313  1.00  0.00    -0.084 Cl
ENDBRANCH   8  12
BRANCH   7  20
ATOM     20  N   UNL     1      10.972   5.066   9.231  1.00  0.00     0.062 N 
ATOM     21  O   UNL     1      11.484   5.942   9.824  1.00  0.00    -0.258 OA
ATOM     22  O   UNL     1      11.228   3.865   9.672  1.00  0.00    -0.258 OA
ENDBRANCH   7  20
TORSDOF 2
ENDMDL
MODEL 6
REMARK VINA RESULT:    -4.352      5.113      7.779
REMARK INTER + INTRA:          -5.175
REMARK INTER:                  -4.859
REMARK INTRA:                  -0.316
REMARK UNBOUND:                -0.315
REMARK SMILES O=[N+]([O-])c1ccc2c(c1)N[C@@H](c1cc(Cl)cc(Cl)c1)N2
REMARK SMILES IDX 7 1 8 2 5 3 6 4 20 5 10 6 4 7 11 8 9 9 12 12 14 13 13 14
REMARK SMILES IDX 16 15 17 16 19 17 15 18 18 19 2 20 3 21 1 22
REMARK H PARENT 20 10 10 11
ROOT
ATOM      1  C   UNL     1       5.920   2.931   4.464  1.00  0.00     0.060 A 
ATOM      2  C   UNL     1       5.867   3.968   3.563  1.00  0.00     0.066 A 
ATOM      3  C   UNL     1       4.523   1.600   3.113  1.00  0.00     0.088 A 
ATOM      4  C   UNL     1       5.479   1.730   4.156  1.00  0.00     0.035 A 
ATOM      5  N   UNL     1       6.755   3.314   5.585  1.00  0.00    -0.360 N 
ATOM      6  N   UNL     1       6.689   4.960   4.105  1.00  0.00    -0.360 N 
ATOM      7  C   UNL     1       4.330   2.681   2.257  1.00  0.00     0.271 A 
ATOM      8  C   UNL     1       7.545   4.269   4.999  1.00  0.00     0.205 C 
ATOM      9  C   UNL     1       5.050   3.896   2.480  1.00  0.00     0.113 A 
ATOM     10  H   UNL     1       6.755   2.966   6.554  1.00  0.00     0.163 HD
ATOM     11  H   UNL     1       6.675   5.969   3.900  1.00  0.00     0.163 HD
ENDROOT
BRANCH   8  12
ATOM     12  C   UNL     1       8.422   5.181   5.902  1.00  0.00    -0.003 A 
ATOM     13  C   UNL     1       9.817   5.350   7.942  1.00  0.00     0.042 A 
ATOM     14  C   UNL     1       9.448   4.655   6.719  1.00  0.00     0.028 A 
ATOM     15  C   UNL     1       9.576   6.797   7.984  1.00  0.00     0.041 A 
ATOM     16  C   UNL     1       8.797   7.359   6.886  1.00  0.00     0.042 A 
ATOM     17  C   UNL     1       8.076   6.579   5.948  1.00  0.00     0.028 A 
ATOM     18  Cl  UNL     1      10.705   4.781   9.089  1.00  0.00    -0.084 Cl
ATOM     19  Cl  UNL     1       8.695   9.064   6.824  1.00  0.00    -0.084 Cl
ENDBRANCH   8  12
BRANCH   7  20
ATOM     20  N   UNL     1       3.548   2.628   1.121  1.00  0.00     0.062 N 
ATOM     21  O   UNL     1       2.984   1.637   0.835  1.00  0.00    -0.258 OA
ATOM     22  O   UNL     1       3.203   3.686   0.439  1.00  0.00    -0.258 OA
ENDBRANCH   7  20
TORSDOF 2
ENDMDL
MODEL 7
REMARK VINA RESULT:    -4.232      4.467      5.999
REMARK INTER + INTRA:          -5.042
REMARK INTER:                  -4.735
REMARK INTRA:                  -0.306
REMARK UNBOUND:                -0.315
REMARK SMILES O=[N+]([O-])c1ccc2c(c1)N[C@@H](c1cc(Cl)cc(Cl)c1)N2
REMARK SMILES IDX 7 1 8 2 5 3 6 4 20 5 10 6 4 7 11 8 9 9 12 12 14 13 13 14
REMARK SMILES IDX 16 15 17 16 19 17 15 18 18 19 2 20 3 21 1 22
REMARK H PARENT 20 10 10 11
ROOT
ATOM      1  C   UNL     1       7.947  10.408   8.010  1.00  0.00     0.060 A 
ATOM      2  C   UNL     1       9.309  10.305   8.159  1.00  0.00     0.066 A 
ATOM      3  C   UNL     1       7.974  12.657   8.712  1.00  0.00     0.088 A 
ATOM      4  C   UNL     1       7.337  11.573   8.048  1.00  0.00     0.035 A 
ATOM      5  N   UNL     1       7.420   9.141   7.543  1.00  0.00    -0.360 N 
ATOM      6  N   UNL     1       9.620   9.005   7.752  1.00  0.00    -0.360 N 
ATOM      7  C   UNL     1       9.329  12.540   9.013  1.00  0.00     0.271 A 
ATOM      8  C   UNL     1       8.529   8.613   6.935  1.00  0.00     0.205 C 
ATOM      9  C   UNL     1      10.021  11.329   8.698  1.00  0.00     0.113 A 
ATOM     10  H   UNL     1       6.474   8.746   7.641  1.00  0.00     0.163 HD
ATOM     11  H   UNL     1      10.456   8.454   7.992  1.00  0.00     0.163 HD
ENDROOT
BRANCH   8  12
ATOM     12  C   UNL     1       8.523   7.113   6.526  1.00  0.00    -0.003 A 
ATOM     13  C   UNL     1       7.315   5.287   5.369  1.00  0.00     0.042 A 
ATOM     14  C   UNL     1       7.813   6.652   5.395  1.00  0.00     0.028 A 
ATOM     15  C   UNL     1       8.038   4.299   6.178  1.00  0.00     0.041 A 
ATOM     16  C   UNL     1       9.049   4.821   7.092  1.00  0.00     0.042 A 
ATOM     17  C   UNL     1       9.192   6.194   7.411  1.00  0.00     0.028 A 
ATOM     18  Cl  UNL     1       6.287   4.703   4.353  1.00  0.00    -0.084 Cl
ATOM     19  Cl  UNL     1      10.031   3.663   7.876  1.00  0.00    -0.084 Cl
ENDBRANCH   8  12
BRANCH   7  20
ATOM     20  N   UNL     1      10.093  13.574   9.514  1.00  0.00     0.062 N 
ATOM     21  O   UNL     1      10.097  13.803  10.667  1.00  0.00    -0.258 OA
ATOM     22  O   UNL     1      11.004  14.195   8.815  1.00  0.00    -0.258 OA
ENDBRANCH   7  20
TORSDOF 2
ENDMDL
MODEL 8
REMARK VINA RESULT:    -4.054      3.731      4.768
REMARK INTER + INTRA:          -4.842
REMARK INTER:                  -4.539
REMARK INTRA:                  -0.303
REMARK UNBOUND:                -0.315
REMARK SMILES O=[N+]([O-])c1ccc2c(c1)N[C@@H](c1cc(Cl)cc(Cl)c1)N2
REMARK SMILES IDX 7 1 8 2 5 3 6 4 20 5 10 6 4 7 11 8 9 9 12 12 14 13 13 14
REMARK SMILES IDX 16 15 17 16 19 17 15 18 18 19 2 20 3 21 1 22
REMARK H PARENT 20 10 10 11
ROOT
ATOM      1  C   UNL     1       9.005   8.990   7.188  1.00  0.00     0.060 A 
ATOM      2  C   UNL     1       7.653   9.243   7.187  1.00  0.00     0.066 A 
ATOM      3  C   UNL     1       9.444  10.989   8.355  1.00  0.00     0.088 A 
ATOM      4  C   UNL     1       9.834   9.689   7.933  1.00  0.00     0.035 A 
ATOM      5  N   UNL     1       9.256   7.732   6.513  1.00  0.00    -0.360 N 
ATOM      6  N   UNL     1       7.080   8.136   6.556  1.00  0.00    -0.360 N 
ATOM      7  C   UNL     1       8.101  11.344   8.241  1.00  0.00     0.271 A 
ATOM      8  C   UNL     1       8.048   7.107   6.681  1.00  0.00     0.205 C 
ATOM      9  C   UNL     1       7.174  10.423   7.660  1.00  0.00     0.113 A 
ATOM     10  H   UNL     1      10.108   7.399   6.039  1.00  0.00     0.163 HD
ATOM     11  H   UNL     1       6.158   8.080   6.100  1.00  0.00     0.163 HD
ENDROOT
BRANCH   8  12
ATOM     12  C   UNL     1       7.745   5.820   5.865  1.00  0.00    -0.003 A 
ATOM     13  C   UNL     1       7.918   4.663   3.682  1.00  0.00     0.042 A 
ATOM     14  C   UNL     1       8.524   5.446   4.746  1.00  0.00     0.028 A 
ATOM     15  C   UNL     1       6.782   3.809   4.047  1.00  0.00     0.041 A 
ATOM     16  C   UNL     1       6.237   3.990   5.388  1.00  0.00     0.042 A 
ATOM     17  C   UNL     1       6.569   5.074   6.237  1.00  0.00     0.028 A 
ATOM     18  Cl  UNL     1       8.526   4.408   2.270  1.00  0.00    -0.084 Cl
ATOM     19  Cl  UNL     1       5.057   2.857   5.885  1.00  0.00    -0.084 Cl
ENDBRANCH   8  12
BRANCH   7  20
ATOM     20  N   UNL     1       7.572  12.511   8.753  1.00  0.00     0.062 N 
ATOM     21  O   UNL     1       7.079  12.520   9.820  1.00  0.00    -0.258 OA
ATOM     22  O   UNL     1       7.777  13.684   8.219  1.00  0.00    -0.258 OA
ENDBRANCH   7  20
TORSDOF 2
ENDMDL
MODEL 9
REMARK VINA RESULT:    -3.826      9.028     10.931
REMARK INTER + INTRA:          -4.588
REMARK INTER:                  -4.275
REMARK INTRA:                  -0.313
REMARK UNBOUND:                -0.315
REMARK SMILES O=[N+]([O-])c1ccc2c(c1)N[C@@H](c1cc(Cl)cc(Cl)c1)N2
REMARK SMILES IDX 7 1 8 2 5 3 6 4 20 5 10 6 4 7 11 8 9 9 12 12 14 13 13 14
REMARK SMILES IDX 16 15 17 16 19 17 15 18 18 19 2 20 3 21 1 22
REMARK H PARENT 20 10 10 11
ROOT
ATOM      1  C   UNL     1      13.176   7.193  12.758  1.00  0.00     0.060 A 
ATOM      2  C   UNL     1      12.504   7.011  11.574  1.00  0.00     0.066 A 
ATOM      3  C   UNL     1      14.075   5.018  12.658  1.00  0.00     0.088 A 
ATOM      4  C   UNL     1      14.099   6.346  13.162  1.00  0.00     0.035 A 
ATOM      5  N   UNL     1      12.909   8.526  13.260  1.00  0.00    -0.360 N 
ATOM      6  N   UNL     1      11.864   8.229  11.331  1.00  0.00    -0.360 N 
ATOM      7  C   UNL     1      13.292   4.752  11.537  1.00  0.00     0.271 A 
ATOM      8  C   UNL     1      12.591   9.177  12.096  1.00  0.00     0.205 C 
ATOM      9  C   UNL     1      12.502   5.797  10.964  1.00  0.00     0.113 A 
ATOM     10  H   UNL     1      12.949   8.887  14.224  1.00  0.00     0.163 HD
ATOM     11  H   UNL     1      11.046   8.401  10.729  1.00  0.00     0.163 HD
ENDROOT
BRANCH   8  12
ATOM     12  C   UNL     1      11.946  10.589  12.173  1.00  0.00    -0.003 A 
ATOM     13  C   UNL     1      10.412  12.101  13.394  1.00  0.00     0.042 A 
ATOM     14  C   UNL     1      11.502  11.139  13.396  1.00  0.00     0.028 A 
ATOM     15  C   UNL     1      10.225  12.894  12.174  1.00  0.00     0.041 A 
ATOM     16  C   UNL     1      11.009  12.492  11.011  1.00  0.00     0.042 A 
ATOM     17  C   UNL     1      11.727  11.274  10.924  1.00  0.00     0.028 A 
ATOM     18  Cl  UNL     1       9.614  12.587  14.642  1.00  0.00    -0.084 Cl
ATOM     19  Cl  UNL     1      10.950  13.537   9.660  1.00  0.00    -0.084 Cl
ENDBRANCH   8  12
BRANCH   7  20
ATOM     20  N   UNL     1      13.303   3.547  10.864  1.00  0.00     0.062 N 
ATOM     21  O   UNL     1      13.799   2.600  11.352  1.00  0.00    -0.258 OA
ATOM     22  O   UNL     1      12.593   3.320   9.793  1.00  0.00    -0.258 OA
ENDBRANCH   7  20
TORSDOF 2
ENDMDL
