MODEL 1
REMARK VINA RESULT:    -4.536      0.000      0.000
REMARK INTER + INTRA:          -5.382
REMARK INTER:                  -5.066
REMARK INTRA:                  -0.315
REMARK UNBOUND:                -0.315
REMARK SMILES O=[N+]([O-])c1ccc2c(c1)N[C@@H](c1cc(Cl)cc(Cl)c1)N2
REMARK SMILES IDX 7 1 8 2 5 3 6 4 20 5 10 6 4 7 11 8 9 9 12 12 14 13 13 14
REMARK SMILES IDX 16 15 17 16 19 17 15 18 18 19 2 20 3 21 1 22
REMARK H PARENT 20 10 10 11
ROOT
ATOM      1  C   UNL     1      11.766   1.895   5.928  1.00  0.00     0.060 A 
ATOM      2  C   UNL     1      11.627   3.089   5.263  1.00  0.00     0.066 A 
ATOM      3  C   UNL     1      13.867   2.536   6.777  1.00  0.00     0.088 A 
ATOM      4  C   UNL     1      12.709   1.714   6.827  1.00  0.00     0.035 A 
ATOM      5  N   UNL     1      10.595   1.075   5.687  1.00  0.00    -0.360 N 
ATOM      6  N   UNL     1      10.371   3.020   4.654  1.00  0.00    -0.360 N 
ATOM      7  C   UNL     1      13.823   3.691   5.998  1.00  0.00     0.271 A 
ATOM      8  C   UNL     1       9.665   2.038   5.395  1.00  0.00     0.205 C 
ATOM      9  C   UNL     1      12.648   3.985   5.238  1.00  0.00     0.113 A 
ATOM     10  H   UNL     1      10.490   0.051   5.726  1.00  0.00     0.163 HD
ATOM     11  H   UNL     1      10.033   3.561   3.846  1.00  0.00     0.163 HD
ENDROOT
BRANCH   8  12
ATOM     12  C   UNL     1       8.302   1.610   4.782  1.00  0.00    -0.003 A 
ATOM     13  C   UNL     1       6.425  -0.004   4.832  1.00  0.00     0.042 A 
ATOM     14  C   UNL     1       7.348   0.879   5.525  1.00  0.00     0.028 A 
ATOM     15  C   UNL     1       6.106   0.326   3.439  1.00  0.00     0.041 A 
ATOM     16  C   UNL     1       6.907   1.377   2.820  1.00  0.00     0.042 A 
ATOM     17  C   UNL     1       8.093   1.905   3.387  1.00  0.00     0.028 A 
ATOM     18  Cl  UNL     1       5.515  -1.083   5.494  1.00  0.00    -0.084 Cl
ATOM     19  Cl  UNL     1       6.401   1.905   1.275  1.00  0.00    -0.084 Cl
ENDBRANCH   8  12
BRANCH   7  20
ATOM     20  N   UNL     1      14.819   4.645   5.987  1.00  0.00     0.062 N 
ATOM     21  O   UNL     1      14.591   5.737   5.617  1.00  0.00    -0.258 OA
ATOM     22  O   UNL     1      15.973   4.483   6.577  1.00  0.00    -0.258 OA
ENDBRANCH   7  20
TORSDOF 2
ENDMDL
MODEL 2
REMARK VINA RESULT:    -4.531      1.033      2.681
REMARK INTER + INTRA:          -5.376
REMARK INTER:                  -5.060
REMARK INTRA:                  -0.316
REMARK UNBOUND:                -0.315
REMARK SMILES O=[N+]([O-])c1ccc2c(c1)N[C@@H](c1cc(Cl)cc(Cl)c1)N2
REMARK SMILES IDX 7 1 8 2 5 3 6 4 20 5 10 6 4 7 11 8 9 9 12 12 14 13 13 14
REMARK SMILES IDX 16 15 17 16 19 17 15 18 18 19 2 20 3 21 1 22
REMARK H PARENT 20 10 10 11
ROOT
ATOM      1  C   UNL     1      11.547   3.174   5.095  1.00  0.00     0.060 A 
ATOM      2  C   UNL     1      11.788   2.023   5.807  1.00  0.00     0.066 A 
ATOM      3  C   UNL     1      13.628   4.079   5.724  1.00  0.00     0.088 A 
ATOM      4  C   UNL     1      12.499   4.051   4.861  1.00  0.00     0.035 A 
ATOM      5  N   UNL     1      10.248   3.078   4.458  1.00  0.00    -0.360 N 
ATOM      6  N   UNL     1      10.670   1.217   5.579  1.00  0.00    -0.360 N 
ATOM      7  C   UNL     1      13.837   2.993   6.571  1.00  0.00     0.271 A 
ATOM      8  C   UNL     1      10.102   1.718   4.381  1.00  0.00     0.205 C 
ATOM      9  C   UNL     1      12.894   1.919   6.589  1.00  0.00     0.113 A 
ATOM     10  H   UNL     1       9.611   3.826   4.149  1.00  0.00     0.163 HD
ATOM     11  H   UNL     1      10.333   0.432   6.155  1.00  0.00     0.163 HD
ENDROOT
BRANCH   8  12
ATOM     12  C   UNL     1       8.710   1.128   4.019  1.00  0.00    -0.003 A 
ATOM     13  C   UNL     1       6.688   1.311   2.602  1.00  0.00     0.042 A 
ATOM     14  C   UNL     1       8.135   1.306   2.741  1.00  0.00     0.028 A 
ATOM     15  C   UNL     1       5.919   0.566   3.605  1.00  0.00     0.041 A 
ATOM     16  C   UNL     1       6.662   0.075   4.760  1.00  0.00     0.042 A 
ATOM     17  C   UNL     1       7.984   0.475   5.079  1.00  0.00     0.028 A 
ATOM     18  Cl  UNL     1       5.888   1.770   1.345  1.00  0.00    -0.084 Cl
ATOM     19  Cl  UNL     1       5.816  -0.966   5.819  1.00  0.00    -0.084 Cl
ENDBRANCH   8  12
BRANCH   7  20
ATOM     20  N   UNL     1      14.971   2.830   7.341  1.00  0.00     0.062 N 
ATOM     21  O   UNL     1      15.268   1.765   7.742  1.00  0.00    -0.258 OA
ATOM     22  O   UNL     1      15.881   3.756   7.480  1.00  0.00    -0.258 OA
ENDBRANCH   7  20
TORSDOF 2
ENDMDL
MODEL 3
REMARK VINA RESULT:    -4.162      0.730      2.137
REMARK INTER + INTRA:          -4.963
REMARK INTER:                  -4.664
REMARK INTRA:                  -0.300
REMARK UNBOUND:                -0.315
REMARK SMILES O=[N+]([O-])c1ccc2c(c1)N[C@@H](c1cc(Cl)cc(Cl)c1)N2
REMARK SMILES IDX 7 1 8 2 5 3 6 4 20 5 10 6 4 7 11 8 9 9 12 12 14 13 13 14
REMARK SMILES IDX 16 15 17 16 19 17 15 18 18 19 2 20 3 21 1 22
REMARK H PARENT 20 10 10 11
ROOT
ATOM      1  C   UNL     1      12.025   2.353   5.562  1.00  0.00     0.060 A 
ATOM      2  C   UNL     1      11.625   3.448   4.834  1.00  0.00     0.066 A 
ATOM      3  C   UNL     1      13.988   3.453   6.260  1.00  0.00     0.088 A 
ATOM      4  C   UNL     1      13.020   2.425   6.420  1.00  0.00     0.035 A 
ATOM      5  N   UNL     1      11.033   1.304   5.433  1.00  0.00    -0.360 N 
ATOM      6  N   UNL     1      10.385   3.090   4.297  1.00  0.00    -0.360 N 
ATOM      7  C   UNL     1      13.683   4.519   5.416  1.00  0.00     0.271 A 
ATOM      8  C   UNL     1       9.919   2.043   5.132  1.00  0.00     0.205 C 
ATOM      9  C   UNL     1      12.445   4.523   4.702  1.00  0.00     0.113 A 
ATOM     10  H   UNL     1      11.137   0.285   5.539  1.00  0.00     0.163 HD
ATOM     11  H   UNL     1       9.915   3.497   3.476  1.00  0.00     0.163 HD
ENDROOT
BRANCH   8  12
ATOM     12  C   UNL     1       8.646   1.314   4.618  1.00  0.00    -0.003 A 
ATOM     13  C   UNL     1       6.817   1.269   2.950  1.00  0.00     0.042 A 
ATOM     14  C   UNL     1       8.228   1.405   3.272  1.00  0.00     0.028 A 
ATOM     15  C   UNL     1       5.996   0.479   3.874  1.00  0.00     0.041 A 
ATOM     16  C   UNL     1       6.624   0.089   5.132  1.00  0.00     0.042 A 
ATOM     17  C   UNL     1       7.851   0.621   5.600  1.00  0.00     0.028 A 
ATOM     18  Cl  UNL     1       6.149   1.618   1.586  1.00  0.00    -0.084 Cl
ATOM     19  Cl  UNL     1       5.746  -1.001   6.112  1.00  0.00    -0.084 Cl
ENDBRANCH   8  12
BRANCH   7  20
ATOM     20  N   UNL     1      14.468   5.648   5.295  1.00  0.00     0.062 N 
ATOM     21  O   UNL     1      14.045   6.610   4.769  1.00  0.00    -0.258 OA
ATOM     22  O   UNL     1      15.598   5.805   5.930  1.00  0.00    -0.258 OA
ENDBRANCH   7  20
TORSDOF 2
ENDMDL
MODEL 4
REMARK VINA RESULT:    -4.136      1.426      2.092
REMARK INTER + INTRA:          -4.934
REMARK INTER:                  -4.635
REMARK INTRA:                  -0.299
REMARK UNBOUND:                -0.315
REMARK SMILES O=[N+]([O-])c1ccc2c(c1)N[C@@H](c1cc(Cl)cc(Cl)c1)N2
REMARK SMILES IDX 7 1 8 2 5 3 6 4 20 5 10 6 4 7 11 8 9 9 12 12 14 13 13 14
REMARK SMILES IDX 16 15 17 16 19 17 15 18 18 19 2 20 3 21 1 22
REMARK H PARENT 20 10 10 11
ROOT
ATOM      1  C   UNL     1      11.744   2.899   5.582  1.00  0.00     0.060 A 
ATOM      2  C   UNL     1      11.740   1.671   6.198  1.00  0.00     0.066 A 
ATOM      3  C   UNL     1      13.937   3.337   6.324  1.00  0.00     0.088 A 
ATOM      4  C   UNL     1      12.853   3.594   5.441  1.00  0.00     0.035 A 
ATOM      5  N   UNL     1      10.473   3.105   4.916  1.00  0.00    -0.360 N 
ATOM      6  N   UNL     1      10.498   1.113   5.883  1.00  0.00    -0.360 N 
ATOM      7  C   UNL     1      13.909   2.167   7.079  1.00  0.00     0.271 A 
ATOM      8  C   UNL     1      10.076   1.808   4.721  1.00  0.00     0.205 C 
ATOM      9  C   UNL     1      12.780   1.295   6.988  1.00  0.00     0.113 A 
ATOM     10  H   UNL     1       9.999   3.982   4.660  1.00  0.00     0.163 HD
ATOM     11  H   UNL     1      10.000   0.363   6.384  1.00  0.00     0.163 HD
ENDROOT
BRANCH   8  12
ATOM     12  C   UNL     1       8.611   1.525   4.286  1.00  0.00    -0.003 A 
ATOM     13  C   UNL     1       6.587   0.134   4.609  1.00  0.00     0.042 A 
ATOM     14  C   UNL     1       7.678   0.921   5.159  1.00  0.00     0.028 A 
ATOM     15  C   UNL     1       6.142   0.470   3.251  1.00  0.00     0.041 A 
ATOM     16  C   UNL     1       6.974   1.411   2.509  1.00  0.00     0.042 A 
ATOM     17  C   UNL     1       8.271   1.812   2.916  1.00  0.00     0.028 A 
ATOM     18  Cl  UNL     1       5.649  -0.821   5.407  1.00  0.00    -0.084 Cl
ATOM     19  Cl  UNL     1       6.349   1.961   1.016  1.00  0.00    -0.084 Cl
ENDBRANCH   8  12
BRANCH   7  20
ATOM     20  N   UNL     1      14.964   1.730   7.853  1.00  0.00     0.062 N 
ATOM     21  O   UNL     1      15.055   0.595   8.147  1.00  0.00    -0.258 OA
ATOM     22  O   UNL     1      16.016   2.461   8.108  1.00  0.00    -0.258 OA
ENDBRANCH   7  20
TORSDOF 2
ENDMDL
MODEL 5
REMARK VINA RESULT:    -4.107      5.110      7.579
REMARK INTER + INTRA:          -4.903
REMARK INTER:                  -4.604
REMARK INTRA:                  -0.299
REMARK UNBOUND:                -0.315
REMARK SMILES O=[N+]([O-])c1ccc2c(c1)N[C@@H](c1cc(Cl)cc(Cl)c1)N2
REMARK SMILES IDX 7 1 8 2 5 3 6 4 20 5 10 6 4 7 11 8 9 9 12 12 14 13 13 14
REMARK SMILES IDX 16 15 17 16 19 17 15 18 18 19 2 20 3 21 1 22
REMARK H PARENT 20 10 10 11
ROOT
ATOM      1  C   UNL     1       8.525   1.772   3.522  1.00  0.00     0.060 A 
ATOM      2  C   UNL     1       8.471   0.823   4.515  1.00  0.00     0.066 A 
ATOM      3  C   UNL     1       6.328   1.272   2.834  1.00  0.00     0.088 A 
ATOM      4  C   UNL     1       7.444   2.151   2.873  1.00  0.00     0.035 A 
ATOM      5  N   UNL     1       9.820   2.422   3.552  1.00  0.00    -0.360 N 
ATOM      6  N   UNL     1       9.702   0.915   5.169  1.00  0.00    -0.360 N 
ATOM      7  C   UNL     1       6.296   0.206   3.730  1.00  0.00     0.271 A 
ATOM      8  C   UNL     1      10.180   2.213   4.858  1.00  0.00     0.205 C 
ATOM      9  C   UNL     1       7.398  -0.004   4.617  1.00  0.00     0.113 A 
ATOM     10  H   UNL     1      10.330   2.907   2.800  1.00  0.00     0.163 HD
ATOM     11  H   UNL     1      10.160   0.199   5.750  1.00  0.00     0.163 HD
ENDROOT
BRANCH   8  12
ATOM     12  C   UNL     1      11.646   2.492   5.291  1.00  0.00    -0.003 A 
ATOM     13  C   UNL     1      13.480   1.946   6.862  1.00  0.00     0.042 A 
ATOM     14  C   UNL     1      12.422   1.520   5.961  1.00  0.00     0.028 A 
ATOM     15  C   UNL     1      14.090   3.256   6.602  1.00  0.00     0.041 A 
ATOM     16  C   UNL     1      13.434   4.091   5.602  1.00  0.00     0.042 A 
ATOM     17  C   UNL     1      12.149   3.824   5.069  1.00  0.00     0.028 A 
ATOM     18  Cl  UNL     1      14.234   1.044   7.885  1.00  0.00    -0.084 Cl
ATOM     19  Cl  UNL     1      14.258   5.519   5.150  1.00  0.00    -0.084 Cl
ENDBRANCH   8  12
BRANCH   7  20
ATOM     20  N   UNL     1       5.205  -0.623   3.895  1.00  0.00     0.062 N 
ATOM     21  O   UNL     1       4.353  -0.650   3.086  1.00  0.00    -0.258 OA
ATOM     22  O   UNL     1       5.152  -1.564   4.798  1.00  0.00    -0.258 OA
ENDBRANCH   7  20
TORSDOF 2
ENDMDL
MODEL 6
REMARK VINA RESULT:    -4.093      5.031      7.441
REMARK INTER + INTRA:          -4.886
REMARK INTER:                  -4.569
REMARK INTRA:                  -0.317
REMARK UNBOUND:                -0.315
REMARK SMILES O=[N+]([O-])c1ccc2c(c1)N[C@@H](c1cc(Cl)cc(Cl)c1)N2
REMARK SMILES IDX 7 1 8 2 5 3 6 4 20 5 10 6 4 7 11 8 9 9 12 12 14 13 13 14
REMARK SMILES IDX 16 15 17 16 19 17 15 18 18 19 2 20 3 21 1 22
REMARK H PARENT 20 10 10 11
ROOT
ATOM      1  C   UNL     1       8.226   0.765   5.271  1.00  0.00     0.060 A 
ATOM      2  C   UNL     1       8.137   1.461   4.089  1.00  0.00     0.066 A 
ATOM      3  C   UNL     1       6.146  -0.274   4.891  1.00  0.00     0.088 A 
ATOM      4  C   UNL     1       7.405  -0.225   5.549  1.00  0.00     0.035 A 
ATOM      5  N   UNL     1       9.470   1.104   5.933  1.00  0.00    -0.360 N 
ATOM      6  N   UNL     1       9.328   2.188   4.008  1.00  0.00    -0.360 N 
ATOM      7  C   UNL     1       5.959   0.526   3.766  1.00  0.00     0.271 A 
ATOM      8  C   UNL     1      10.228   1.503   4.863  1.00  0.00     0.205 C 
ATOM      9  C   UNL     1       7.005   1.402   3.340  1.00  0.00     0.113 A 
ATOM     10  H   UNL     1       9.717   1.057   6.932  1.00  0.00     0.163 HD
ATOM     11  H   UNL     1       9.510   3.035   3.451  1.00  0.00     0.163 HD
ENDROOT
BRANCH   8  12
ATOM     12  C   UNL     1      11.573   2.238   5.122  1.00  0.00    -0.003 A 
ATOM     13  C   UNL     1      13.567   2.455   6.574  1.00  0.00     0.042 A 
ATOM     14  C   UNL     1      12.630   1.627   5.833  1.00  0.00     0.028 A 
ATOM     15  C   UNL     1      13.760   3.830   6.100  1.00  0.00     0.041 A 
ATOM     16  C   UNL     1      12.839   4.298   5.070  1.00  0.00     0.042 A 
ATOM     17  C   UNL     1      11.659   3.610   4.693  1.00  0.00     0.028 A 
ATOM     18  Cl  UNL     1      14.602   1.955   7.627  1.00  0.00    -0.084 Cl
ATOM     19  Cl  UNL     1      13.192   5.817   4.371  1.00  0.00    -0.084 Cl
ENDBRANCH   8  12
BRANCH   7  20
ATOM     20  N   UNL     1       4.845   0.456   2.955  1.00  0.00     0.062 N 
ATOM     21  O   UNL     1       4.641   1.292   2.154  1.00  0.00    -0.258 OA
ATOM     22  O   UNL     1       4.095  -0.608   2.858  1.00  0.00    -0.258 OA
ENDBRANCH   7  20
TORSDOF 2
ENDMDL
MODEL 7
REMARK VINA RESULT:    -4.073      3.363      4.836
REMARK INTER + INTRA:          -4.864
REMARK INTER:                  -4.559
REMARK INTRA:                  -0.305
REMARK UNBOUND:                -0.315
REMARK SMILES O=[N+]([O-])c1ccc2c(c1)N[C@@H](c1cc(Cl)cc(Cl)c1)N2
REMARK SMILES IDX 7 1 8 2 5 3 6 4 20 5 10 6 4 7 11 8 9 9 12 12 14 13 13 14
REMARK SMILES IDX 16 15 17 16 19 17 15 18 18 19 2 20 3 21 1 22
REMARK H PARENT 20 10 10 11
ROOT
ATOM      1  C   UNL     1      14.195   5.906   4.848  1.00  0.00     0.060 A 
ATOM      2  C   UNL     1      13.080   6.661   5.127  1.00  0.00     0.066 A 
ATOM      3  C   UNL     1      15.604   7.778   5.090  1.00  0.00     0.088 A 
ATOM      4  C   UNL     1      15.409   6.371   5.053  1.00  0.00     0.035 A 
ATOM      5  N   UNL     1      13.795   4.534   4.607  1.00  0.00    -0.360 N 
ATOM      6  N   UNL     1      12.015   5.758   5.095  1.00  0.00    -0.360 N 
ATOM      7  C   UNL     1      14.485   8.596   5.229  1.00  0.00     0.271 A 
ATOM      8  C   UNL     1      12.613   4.488   5.300  1.00  0.00     0.205 C 
ATOM      9  C   UNL     1      13.182   8.008   5.275  1.00  0.00     0.113 A 
ATOM     10  H   UNL     1      14.267   3.797   4.066  1.00  0.00     0.163 HD
ATOM     11  H   UNL     1      11.017   5.967   4.954  1.00  0.00     0.163 HD
ENDROOT
BRANCH   8  12
ATOM     12  C   UNL     1      11.663   3.276   5.092  1.00  0.00    -0.003 A 
ATOM     13  C   UNL     1      10.724   1.631   3.496  1.00  0.00     0.042 A 
ATOM     14  C   UNL     1      11.864   2.342   4.050  1.00  0.00     0.028 A 
ATOM     15  C   UNL     1       9.564   1.443   4.375  1.00  0.00     0.041 A 
ATOM     16  C   UNL     1       9.583   2.170   5.640  1.00  0.00     0.042 A 
ATOM     17  C   UNL     1      10.505   3.201   5.946  1.00  0.00     0.028 A 
ATOM     18  Cl  UNL     1      10.714   0.795   2.180  1.00  0.00    -0.084 Cl
ATOM     19  Cl  UNL     1       8.340   1.790   6.750  1.00  0.00    -0.084 Cl
ENDBRANCH   8  12
BRANCH   7  20
ATOM     20  N   UNL     1      14.553   9.959   5.431  1.00  0.00     0.062 N 
ATOM     21  O   UNL     1      14.530  10.696   4.515  1.00  0.00    -0.258 OA
ATOM     22  O   UNL     1      14.418  10.517   6.603  1.00  0.00    -0.258 OA
ENDBRANCH   7  20
TORSDOF 2
ENDMDL
MODEL 8
REMARK VINA RESULT:    -4.044      4.973      7.644
REMARK INTER + INTRA:          -4.832
REMARK INTER:                  -4.533
REMARK INTRA:                  -0.299
REMARK UNBOUND:                -0.315
REMARK SMILES O=[N+]([O-])c1ccc2c(c1)N[C@@H](c1cc(Cl)cc(Cl)c1)N2
REMARK SMILES IDX 7 1 8 2 5 3 6 4 20 5 10 6 4 7 11 8 9 9 12 12 14 13 13 14
REMARK SMILES IDX 16 15 17 16 19 17 15 18 18 19 2 20 3 21 1 22
REMARK H PARENT 20 10 10 11
ROOT
ATOM      1  C   UNL     1       8.152   0.873   5.342  1.00  0.00     0.060 A 
ATOM      2  C   UNL     1       8.190   1.727   4.266  1.00  0.00     0.066 A 
ATOM      3  C   UNL     1       6.160  -0.119   4.569  1.00  0.00     0.088 A 
ATOM      4  C   UNL     1       7.329  -0.153   5.377  1.00  0.00     0.035 A 
ATOM      5  N   UNL     1       9.298   1.125   6.193  1.00  0.00    -0.360 N 
ATOM      6  N   UNL     1       9.363   2.468   4.434  1.00  0.00    -0.360 N 
ATOM      7  C   UNL     1       6.091   0.829   3.550  1.00  0.00     0.271 A 
ATOM      8  C   UNL     1      10.169   1.676   5.291  1.00  0.00     0.205 C 
ATOM      9  C   UNL     1       7.159   1.765   3.382  1.00  0.00     0.113 A 
ATOM     10  H   UNL     1       9.423   0.942   7.199  1.00  0.00     0.163 HD
ATOM     11  H   UNL     1       9.590   3.386   4.026  1.00  0.00     0.163 HD
ENDROOT
BRANCH   8  12
ATOM     12  C   UNL     1      11.454   2.378   5.813  1.00  0.00    -0.003 A 
ATOM     13  C   UNL     1      13.107   4.191   5.474  1.00  0.00     0.042 A 
ATOM     14  C   UNL     1      11.728   3.736   5.532  1.00  0.00     0.028 A 
ATOM     15  C   UNL     1      14.090   3.439   6.261  1.00  0.00     0.041 A 
ATOM     16  C   UNL     1      13.630   2.186   6.851  1.00  0.00     0.042 A 
ATOM     17  C   UNL     1      12.407   1.556   6.514  1.00  0.00     0.028 A 
ATOM     18  Cl  UNL     1      13.601   5.557   4.907  1.00  0.00    -0.084 Cl
ATOM     19  Cl  UNL     1      14.706   1.420   7.936  1.00  0.00    -0.084 Cl
ENDBRANCH   8  12
BRANCH   7  20
ATOM     20  N   UNL     1       5.085   0.865   2.606  1.00  0.00     0.062 N 
ATOM     21  O   UNL     1       4.124   0.201   2.737  1.00  0.00    -0.258 OA
ATOM     22  O   UNL     1       5.020   1.767   1.664  1.00  0.00    -0.258 OA
ENDBRANCH   7  20
TORSDOF 2
ENDMDL
MODEL 9
REMARK VINA RESULT:    -4.035      5.116      7.790
REMARK INTER + INTRA:          -4.822
REMARK INTER:                  -4.505
REMARK INTRA:                  -0.317
REMARK UNBOUND:                -0.315
REMARK SMILES O=[N+]([O-])c1ccc2c(c1)N[C@@H](c1cc(Cl)cc(Cl)c1)N2
REMARK SMILES IDX 7 1 8 2 5 3 6 4 20 5 10 6 4 7 11 8 9 9 12 12 14 13 13 14
REMARK SMILES IDX 16 15 17 16 19 17 15 18 18 19 2 20 3 21 1 22
REMARK H PARENT 20 10 10 11
ROOT
ATOM      1  C   UNL     1       8.449   1.749   3.634  1.00  0.00     0.060 A 
ATOM      2  C   UNL     1       8.233   0.930   4.716  1.00  0.00     0.066 A 
ATOM      3  C   UNL     1       6.382   1.141   2.680  1.00  0.00     0.088 A 
ATOM      4  C   UNL     1       7.485   2.031   2.783  1.00  0.00     0.035 A 
ATOM      5  N   UNL     1       9.729   2.412   3.783  1.00  0.00    -0.360 N 
ATOM      6  N   UNL     1       9.348   1.117   5.538  1.00  0.00    -0.360 N 
ATOM      7  C   UNL     1       6.203   0.194   3.687  1.00  0.00     0.271 A 
ATOM      8  C   UNL     1       9.879   2.372   5.145  1.00  0.00     0.205 C 
ATOM      9  C   UNL     1       7.151   0.109   4.753  1.00  0.00     0.113 A 
ATOM     10  H   UNL     1      10.353   2.806   3.065  1.00  0.00     0.163 HD
ATOM     11  H   UNL     1       9.705   0.484   6.267  1.00  0.00     0.163 HD
ENDROOT
BRANCH   8  12
ATOM     12  C   UNL     1      11.262   2.720   5.762  1.00  0.00    -0.003 A 
ATOM     13  C   UNL     1      13.308   4.106   5.608  1.00  0.00     0.042 A 
ATOM     14  C   UNL     1      11.860   3.988   5.582  1.00  0.00     0.028 A 
ATOM     15  C   UNL     1      14.046   3.101   6.382  1.00  0.00     0.041 A 
ATOM     16  C   UNL     1      13.275   1.962   6.869  1.00  0.00     0.042 A 
ATOM     17  C   UNL     1      11.958   1.658   6.443  1.00  0.00     0.028 A 
ATOM     18  Cl  UNL     1      14.137   5.346   5.153  1.00  0.00    -0.084 Cl
ATOM     19  Cl  UNL     1      14.082   0.904   7.941  1.00  0.00    -0.084 Cl
ENDBRANCH   8  12
BRANCH   7  20
ATOM     20  N   UNL     1       5.093  -0.620   3.782  1.00  0.00     0.062 N 
ATOM     21  O   UNL     1       4.224  -0.533   2.996  1.00  0.00    -0.258 OA
ATOM     22  O   UNL     1       5.033  -1.658   4.572  1.00  0.00    -0.258 OA
ENDBRANCH   7  20
TORSDOF 2
ENDMDL
