MODEL 1
REMARK VINA RESULT:    -4.879      0.000      0.000
REMARK INTER + INTRA:          -5.764
REMARK INTER:                  -5.450
REMARK INTRA:                  -0.314
REMARK UNBOUND:                -0.314
REMARK SMILES O=[N+]([O-])c1ccc2c(c1)N[C@@H](c1cc(Cl)cc(Cl)c1)N2
REMARK SMILES IDX 7 1 8 2 5 3 6 4 20 5 10 6 4 7 11 8 9 9 12 12 14 13 13 14
REMARK SMILES IDX 16 15 17 16 19 17 15 18 18 19 2 20 3 21 1 22
REMARK H PARENT 20 10 10 11
ROOT
ATOM      1  C   UNL     1      -3.862 -11.194   0.178  1.00  0.00     0.060 A 
ATOM      2  C   UNL     1      -2.517 -11.384  -0.029  1.00  0.00     0.066 A 
ATOM      3  C   UNL     1      -4.319 -13.459  -0.278  1.00  0.00     0.088 A 
ATOM      4  C   UNL     1      -4.691 -12.209   0.288  1.00  0.00     0.035 A 
ATOM      5  N   UNL     1      -4.101  -9.806   0.524  1.00  0.00    -0.360 N 
ATOM      6  N   UNL     1      -1.933 -10.140   0.224  1.00  0.00    -0.360 N 
ATOM      7  C   UNL     1      -2.987 -13.650  -0.637  1.00  0.00     0.271 A 
ATOM      8  C   UNL     1      -2.878  -9.456   1.032  1.00  0.00     0.205 C 
ATOM      9  C   UNL     1      -2.053 -12.579  -0.479  1.00  0.00     0.113 A 
ATOM     10  H   UNL     1      -4.955  -9.240   0.418  1.00  0.00     0.163 HD
ATOM     11  H   UNL     1      -1.019  -9.795  -0.103  1.00  0.00     0.163 HD
ENDROOT
BRANCH   8  12
ATOM     12  C   UNL     1      -2.564  -7.954   1.276  1.00  0.00    -0.003 A 
ATOM     13  C   UNL     1      -3.346  -5.802   2.220  1.00  0.00     0.042 A 
ATOM     14  C   UNL     1      -3.145  -7.236   2.346  1.00  0.00     0.028 A 
ATOM     15  C   UNL     1      -2.445  -5.080   1.316  1.00  0.00     0.041 A 
ATOM     16  C   UNL     1      -1.579  -5.896   0.471  1.00  0.00     0.042 A 
ATOM     17  C   UNL     1      -1.730  -7.295   0.303  1.00  0.00     0.028 A 
ATOM     18  Cl  UNL     1      -4.215  -4.911   3.159  1.00  0.00    -0.084 Cl
ATOM     19  Cl  UNL     1      -0.388  -5.060  -0.425  1.00  0.00    -0.084 Cl
ENDBRANCH   8  12
BRANCH   7  20
ATOM     20  N   UNL     1      -2.472 -14.861  -1.051  1.00  0.00     0.062 N 
ATOM     21  O   UNL     1      -1.311 -15.045  -1.045  1.00  0.00    -0.258 OA
ATOM     22  O   UNL     1      -3.207 -15.922  -1.246  1.00  0.00    -0.258 OA
ENDBRANCH   7  20
TORSDOF 2
ENDMDL
MODEL 2
REMARK VINA RESULT:    -4.824      1.206      2.775
REMARK INTER + INTRA:          -5.703
REMARK INTER:                  -5.390
REMARK INTRA:                  -0.313
REMARK UNBOUND:                -0.314
REMARK SMILES O=[N+]([O-])c1ccc2c(c1)N[C@@H](c1cc(Cl)cc(Cl)c1)N2
REMARK SMILES IDX 7 1 8 2 5 3 6 4 20 5 10 6 4 7 11 8 9 9 12 12 14 13 13 14
REMARK SMILES IDX 16 15 17 16 19 17 15 18 18 19 2 20 3 21 1 22
REMARK H PARENT 20 10 10 11
ROOT
ATOM      1  C   UNL     1      -2.188 -11.371  -0.330  1.00  0.00     0.060 A 
ATOM      2  C   UNL     1      -3.540 -11.239  -0.119  1.00  0.00     0.066 A 
ATOM      3  C   UNL     1      -2.404 -13.690  -0.687  1.00  0.00     0.088 A 
ATOM      4  C   UNL     1      -1.674 -12.478  -0.823  1.00  0.00     0.035 A 
ATOM      5  N   UNL     1      -1.556 -10.073  -0.205  1.00  0.00    -0.360 N 
ATOM      6  N   UNL     1      -3.740  -9.873   0.095  1.00  0.00    -0.360 N 
ATOM      7  C   UNL     1      -3.749 -13.613  -0.334  1.00  0.00     0.271 A 
ATOM      8  C   UNL     1      -2.611  -9.247  -0.492  1.00  0.00     0.205 C 
ATOM      9  C   UNL     1      -4.338 -12.337  -0.067  1.00  0.00     0.113 A 
ATOM     10  H   UNL     1      -0.582  -9.836   0.033  1.00  0.00     0.163 HD
ATOM     11  H   UNL     1      -4.532  -9.420   0.572  1.00  0.00     0.163 HD
ENDROOT
BRANCH   8  12
ATOM     12  C   UNL     1      -2.480  -7.726  -0.201  1.00  0.00    -0.003 A 
ATOM     13  C   UNL     1      -1.088  -5.689  -0.413  1.00  0.00     0.042 A 
ATOM     14  C   UNL     1      -1.678  -6.881  -1.000  1.00  0.00     0.028 A 
ATOM     15  C   UNL     1      -1.786  -5.095   0.732  1.00  0.00     0.041 A 
ATOM     16  C   UNL     1      -2.879  -5.874   1.303  1.00  0.00     0.042 A 
ATOM     17  C   UNL     1      -3.133  -7.231   0.984  1.00  0.00     0.028 A 
ATOM     18  Cl  UNL     1       0.033  -4.811  -1.048  1.00  0.00    -0.084 Cl
ATOM     19  Cl  UNL     1      -3.822  -5.094   2.496  1.00  0.00    -0.084 Cl
ENDBRANCH   8  12
BRANCH   7  20
ATOM     20  N   UNL     1      -4.600 -14.699  -0.319  1.00  0.00     0.062 N 
ATOM     21  O   UNL     1      -5.736 -14.566  -0.588  1.00  0.00    -0.258 OA
ATOM     22  O   UNL     1      -4.183 -15.934  -0.240  1.00  0.00    -0.258 OA
ENDBRANCH   7  20
TORSDOF 2
ENDMDL
MODEL 3
REMARK VINA RESULT:    -4.594      5.111      7.577
REMARK INTER + INTRA:          -5.445
REMARK INTER:                  -5.146
REMARK INTRA:                  -0.299
REMARK UNBOUND:                -0.314
REMARK SMILES O=[N+]([O-])c1ccc2c(c1)N[C@@H](c1cc(Cl)cc(Cl)c1)N2
REMARK SMILES IDX 7 1 8 2 5 3 6 4 20 5 10 6 4 7 11 8 9 9 12 12 14 13 13 14
REMARK SMILES IDX 16 15 17 16 19 17 15 18 18 19 2 20 3 21 1 22
REMARK H PARENT 20 10 10 11
ROOT
ATOM      1  C   UNL     1      -1.832  -7.710   0.021  1.00  0.00     0.060 A 
ATOM      2  C   UNL     1      -3.053  -7.582   0.639  1.00  0.00     0.066 A 
ATOM      3  C   UNL     1      -1.224  -5.515   0.621  1.00  0.00     0.088 A 
ATOM      4  C   UNL     1      -0.874  -6.827   0.202  1.00  0.00     0.035 A 
ATOM      5  N   UNL     1      -1.724  -9.035  -0.556  1.00  0.00    -0.360 N 
ATOM      6  N   UNL     1      -3.671  -8.825   0.476  1.00  0.00    -0.360 N 
ATOM      7  C   UNL     1      -2.506  -5.304   1.125  1.00  0.00     0.271 A 
ATOM      8  C   UNL     1      -2.606  -9.728   0.231  1.00  0.00     0.205 C 
ATOM      9  C   UNL     1      -3.439  -6.387   1.157  1.00  0.00     0.113 A 
ATOM     10  H   UNL     1      -1.145  -9.366  -1.341  1.00  0.00     0.163 HD
ATOM     11  H   UNL     1      -4.678  -9.037   0.524  1.00  0.00     0.163 HD
ENDROOT
BRANCH   8  12
ATOM     12  C   UNL     1      -3.045 -11.155  -0.202  1.00  0.00    -0.003 A 
ATOM     13  C   UNL     1      -4.785 -12.913  -0.078  1.00  0.00     0.042 A 
ATOM     14  C   UNL     1      -4.407 -11.524  -0.279  1.00  0.00     0.028 A 
ATOM     15  C   UNL     1      -3.777 -13.931  -0.396  1.00  0.00     0.041 A 
ATOM     16  C   UNL     1      -2.429 -13.446  -0.676  1.00  0.00     0.042 A 
ATOM     17  C   UNL     1      -1.998 -12.120  -0.424  1.00  0.00     0.028 A 
ATOM     18  Cl  UNL     1      -6.231 -13.448   0.153  1.00  0.00    -0.084 Cl
ATOM     19  Cl  UNL     1      -1.311 -14.604  -1.248  1.00  0.00    -0.084 Cl
ENDBRANCH   8  12
BRANCH   7  20
ATOM     20  N   UNL     1      -2.916  -4.120   1.703  1.00  0.00     0.062 N 
ATOM     21  O   UNL     1      -2.319  -3.127   1.507  1.00  0.00    -0.258 OA
ATOM     22  O   UNL     1      -4.073  -3.973   2.289  1.00  0.00    -0.258 OA
ENDBRANCH   7  20
TORSDOF 2
ENDMDL
MODEL 4
REMARK VINA RESULT:    -4.563      5.007      7.650
REMARK INTER + INTRA:          -5.411
REMARK INTER:                  -5.111
REMARK INTRA:                  -0.299
REMARK UNBOUND:                -0.314
REMARK SMILES O=[N+]([O-])c1ccc2c(c1)N[C@@H](c1cc(Cl)cc(Cl)c1)N2
REMARK SMILES IDX 7 1 8 2 5 3 6 4 20 5 10 6 4 7 11 8 9 9 12 12 14 13 13 14
REMARK SMILES IDX 16 15 17 16 19 17 15 18 18 19 2 20 3 21 1 22
REMARK H PARENT 20 10 10 11
ROOT
ATOM      1  C   UNL     1      -3.199  -7.681   1.114  1.00  0.00     0.060 A 
ATOM      2  C   UNL     1      -1.933  -7.659   0.579  1.00  0.00     0.066 A 
ATOM      3  C   UNL     1      -3.207  -5.338   1.358  1.00  0.00     0.088 A 
ATOM      4  C   UNL     1      -3.897  -6.577   1.272  1.00  0.00     0.035 A 
ATOM      5  N   UNL     1      -3.671  -9.050   1.170  1.00  0.00    -0.360 N 
ATOM      6  N   UNL     1      -1.647  -8.992   0.274  1.00  0.00    -0.360 N 
ATOM      7  C   UNL     1      -1.873  -5.297   0.958  1.00  0.00     0.271 A 
ATOM      8  C   UNL     1      -2.915  -9.620   0.179  1.00  0.00     0.205 C 
ATOM      9  C   UNL     1      -1.227  -6.499   0.529  1.00  0.00     0.113 A 
ATOM     10  H   UNL     1      -4.379  -9.477   1.784  1.00  0.00     0.163 HD
ATOM     11  H   UNL     1      -0.720  -9.423   0.147  1.00  0.00     0.163 HD
ENDROOT
BRANCH   8  12
ATOM     12  C   UNL     1      -2.870 -11.169   0.061  1.00  0.00    -0.003 A 
ATOM     13  C   UNL     1      -1.630 -13.149  -0.762  1.00  0.00     0.042 A 
ATOM     14  C   UNL     1      -1.651 -11.872  -0.067  1.00  0.00     0.028 A 
ATOM     15  C   UNL     1      -2.876 -13.924  -0.769  1.00  0.00     0.041 A 
ATOM     16  C   UNL     1      -4.066 -13.246  -0.267  1.00  0.00     0.042 A 
ATOM     17  C   UNL     1      -4.136 -11.854  -0.014  1.00  0.00     0.028 A 
ATOM     18  Cl  UNL     1      -0.359 -13.913  -1.242  1.00  0.00    -0.084 Cl
ATOM     19  Cl  UNL     1      -5.465 -14.211  -0.079  1.00  0.00    -0.084 Cl
ENDBRANCH   8  12
BRANCH   7  20
ATOM     20  N   UNL     1      -1.142  -4.132   0.849  1.00  0.00     0.062 N 
ATOM     21  O   UNL     1      -1.496  -3.156   1.400  1.00  0.00    -0.258 OA
ATOM     22  O   UNL     1       0.062  -4.087   0.345  1.00  0.00    -0.258 OA
ENDBRANCH   7  20
TORSDOF 2
ENDMDL
MODEL 5
REMARK VINA RESULT:    -4.488      1.352      2.005
REMARK INTER + INTRA:          -5.327
REMARK INTER:                  -5.029
REMARK INTRA:                  -0.299
REMARK UNBOUND:                -0.314
REMARK SMILES O=[N+]([O-])c1ccc2c(c1)N[C@@H](c1cc(Cl)cc(Cl)c1)N2
REMARK SMILES IDX 7 1 8 2 5 3 6 4 20 5 10 6 4 7 11 8 9 9 12 12 14 13 13 14
REMARK SMILES IDX 16 15 17 16 19 17 15 18 18 19 2 20 3 21 1 22
REMARK H PARENT 20 10 10 11
ROOT
ATOM      1  C   UNL     1      -2.539 -11.457  -0.017  1.00  0.00     0.060 A 
ATOM      2  C   UNL     1      -3.850 -11.147   0.255  1.00  0.00     0.066 A 
ATOM      3  C   UNL     1      -3.109 -13.674  -0.572  1.00  0.00     0.088 A 
ATOM      4  C   UNL     1      -2.209 -12.576  -0.626  1.00  0.00     0.035 A 
ATOM      5  N   UNL     1      -1.716 -10.284   0.199  1.00  0.00    -0.360 N 
ATOM      6  N   UNL     1      -3.837  -9.792   0.596  1.00  0.00    -0.360 N 
ATOM      7  C   UNL     1      -4.419 -13.433  -0.163  1.00  0.00     0.271 A 
ATOM      8  C   UNL     1      -2.641  -9.288   0.026  1.00  0.00     0.205 C 
ATOM      9  C   UNL     1      -4.803 -12.115   0.238  1.00  0.00     0.113 A 
ATOM     10  H   UNL     1      -0.712 -10.216   0.422  1.00  0.00     0.163 HD
ATOM     11  H   UNL     1      -4.541  -9.274   1.142  1.00  0.00     0.163 HD
ENDROOT
BRANCH   8  12
ATOM     12  C   UNL     1      -2.276  -7.837   0.447  1.00  0.00    -0.003 A 
ATOM     13  C   UNL     1      -2.985  -5.787   1.643  1.00  0.00     0.042 A 
ATOM     14  C   UNL     1      -2.834  -7.232   1.597  1.00  0.00     0.028 A 
ATOM     15  C   UNL     1      -2.059  -4.993   0.828  1.00  0.00     0.041 A 
ATOM     16  C   UNL     1      -1.221  -5.733  -0.110  1.00  0.00     0.042 A 
ATOM     17  C   UNL     1      -1.420  -7.095  -0.443  1.00  0.00     0.028 A 
ATOM     18  Cl  UNL     1      -3.823  -4.985   2.684  1.00  0.00    -0.084 Cl
ATOM     19  Cl  UNL     1      -0.001  -4.837  -0.904  1.00  0.00    -0.084 Cl
ENDBRANCH   8  12
BRANCH   7  20
ATOM     20  N   UNL     1      -5.423 -14.378  -0.214  1.00  0.00     0.062 N 
ATOM     21  O   UNL     1      -5.200 -15.458  -0.622  1.00  0.00    -0.258 OA
ATOM     22  O   UNL     1      -6.578 -14.228   0.375  1.00  0.00    -0.258 OA
ENDBRANCH   7  20
TORSDOF 2
ENDMDL
MODEL 6
REMARK VINA RESULT:    -4.462      0.847      2.203
REMARK INTER + INTRA:          -5.298
REMARK INTER:                  -4.998
REMARK INTRA:                  -0.299
REMARK UNBOUND:                -0.314
REMARK SMILES O=[N+]([O-])c1ccc2c(c1)N[C@@H](c1cc(Cl)cc(Cl)c1)N2
REMARK SMILES IDX 7 1 8 2 5 3 6 4 20 5 10 6 4 7 11 8 9 9 12 12 14 13 13 14
REMARK SMILES IDX 16 15 17 16 19 17 15 18 18 19 2 20 3 21 1 22
REMARK H PARENT 20 10 10 11
ROOT
ATOM      1  C   UNL     1      -3.182 -11.477  -0.322  1.00  0.00     0.060 A 
ATOM      2  C   UNL     1      -1.816 -11.395  -0.444  1.00  0.00     0.066 A 
ATOM      3  C   UNL     1      -3.136 -13.812  -0.631  1.00  0.00     0.088 A 
ATOM      4  C   UNL     1      -3.792 -12.634  -0.180  1.00  0.00     0.035 A 
ATOM      5  N   UNL     1      -3.722 -10.151  -0.093  1.00  0.00    -0.360 N 
ATOM      6  N   UNL     1      -1.516 -10.044  -0.254  1.00  0.00    -0.360 N 
ATOM      7  C   UNL     1      -1.772 -13.742  -0.906  1.00  0.00     0.271 A 
ATOM      8  C   UNL     1      -2.632  -9.523   0.450  1.00  0.00     0.205 C 
ATOM      9  C   UNL     1      -1.089 -12.493  -0.780  1.00  0.00     0.113 A 
ATOM     10  H   UNL     1      -4.664  -9.783  -0.285  1.00  0.00     0.163 HD
ATOM     11  H   UNL     1      -0.673  -9.538  -0.559  1.00  0.00     0.163 HD
ENDROOT
BRANCH   8  12
ATOM     12  C   UNL     1      -2.648  -7.976   0.599  1.00  0.00    -0.003 A 
ATOM     13  C   UNL     1      -1.489  -5.839   0.130  1.00  0.00     0.042 A 
ATOM     14  C   UNL     1      -1.978  -7.133  -0.316  1.00  0.00     0.028 A 
ATOM     15  C   UNL     1      -2.192  -5.213   1.256  1.00  0.00     0.041 A 
ATOM     16  C   UNL     1      -3.169  -6.041   1.954  1.00  0.00     0.042 A 
ATOM     17  C   UNL     1      -3.294  -7.441   1.770  1.00  0.00     0.028 A 
ATOM     18  Cl  UNL     1      -0.498  -4.916  -0.642  1.00  0.00    -0.084 Cl
ATOM     19  Cl  UNL     1      -4.133  -5.252   3.124  1.00  0.00    -0.084 Cl
ENDBRANCH   8  12
BRANCH   7  20
ATOM     20  N   UNL     1      -0.994 -14.843  -1.201  1.00  0.00     0.062 N 
ATOM     21  O   UNL     1       0.177 -14.746  -1.253  1.00  0.00    -0.258 OA
ATOM     22  O   UNL     1      -1.456 -16.064  -1.213  1.00  0.00    -0.258 OA
ENDBRANCH   7  20
TORSDOF 2
ENDMDL
MODEL 7
REMARK VINA RESULT:    -4.037      3.382      4.314
REMARK INTER + INTRA:          -4.824
REMARK INTER:                  -4.520
REMARK INTRA:                  -0.303
REMARK UNBOUND:                -0.314
REMARK SMILES O=[N+]([O-])c1ccc2c(c1)N[C@@H](c1cc(Cl)cc(Cl)c1)N2
REMARK SMILES IDX 7 1 8 2 5 3 6 4 20 5 10 6 4 7 11 8 9 9 12 12 14 13 13 14
REMARK SMILES IDX 16 15 17 16 19 17 15 18 18 19 2 20 3 21 1 22
REMARK H PARENT 20 10 10 11
ROOT
ATOM      1  C   UNL     1      -5.558 -13.443   0.096  1.00  0.00     0.060 A 
ATOM      2  C   UNL     1      -6.402 -12.544  -0.510  1.00  0.00     0.066 A 
ATOM      3  C   UNL     1      -7.019 -15.231  -0.371  1.00  0.00     0.088 A 
ATOM      4  C   UNL     1      -5.728 -14.742  -0.033  1.00  0.00     0.035 A 
ATOM      5  N   UNL     1      -4.390 -12.742   0.592  1.00  0.00    -0.360 N 
ATOM      6  N   UNL     1      -5.744 -11.315  -0.423  1.00  0.00    -0.360 N 
ATOM      7  C   UNL     1      -7.960 -14.327  -0.859  1.00  0.00     0.271 A 
ATOM      8  C   UNL     1      -4.379 -11.649  -0.235  1.00  0.00     0.205 C 
ATOM      9  C   UNL     1      -7.624 -12.941  -0.954  1.00  0.00     0.113 A 
ATOM     10  H   UNL     1      -3.746 -12.995   1.354  1.00  0.00     0.163 HD
ATOM     11  H   UNL     1      -6.159 -10.374  -0.481  1.00  0.00     0.163 HD
ENDROOT
BRANCH   8  12
ATOM     12  C   UNL     1      -3.453 -10.450   0.112  1.00  0.00    -0.003 A 
ATOM     13  C   UNL     1      -2.642  -8.899   1.864  1.00  0.00     0.042 A 
ATOM     14  C   UNL     1      -2.955 -10.247   1.419  1.00  0.00     0.028 A 
ATOM     15  C   UNL     1      -2.281  -7.923   0.830  1.00  0.00     0.041 A 
ATOM     16  C   UNL     1      -2.479  -8.339  -0.554  1.00  0.00     0.042 A 
ATOM     17  C   UNL     1      -3.205  -9.494  -0.937  1.00  0.00     0.028 A 
ATOM     18  Cl  UNL     1      -2.361  -8.459   3.333  1.00  0.00    -0.084 Cl
ATOM     19  Cl  UNL     1      -1.866  -7.289  -1.756  1.00  0.00    -0.084 Cl
ENDBRANCH   8  12
BRANCH   7  20
ATOM     20  N   UNL     1      -9.189 -14.700  -1.363  1.00  0.00     0.062 N 
ATOM     21  O   UNL     1      -9.420 -14.583  -2.509  1.00  0.00    -0.258 OA
ATOM     22  O   UNL     1     -10.061 -15.393  -0.682  1.00  0.00    -0.258 OA
ENDBRANCH   7  20
TORSDOF 2
ENDMDL
MODEL 8
REMARK VINA RESULT:    -3.892     11.063     11.682
REMARK INTER + INTRA:          -4.661
REMARK INTER:                  -4.353
REMARK INTRA:                  -0.309
REMARK UNBOUND:                -0.314
REMARK SMILES O=[N+]([O-])c1ccc2c(c1)N[C@@H](c1cc(Cl)cc(Cl)c1)N2
REMARK SMILES IDX 7 1 8 2 5 3 6 4 20 5 10 6 4 7 11 8 9 9 12 12 14 13 13 14
REMARK SMILES IDX 16 15 17 16 19 17 15 18 18 19 2 20 3 21 1 22
REMARK H PARENT 20 10 10 11
ROOT
ATOM      1  C   UNL     1      -0.364  -0.446   3.507  1.00  0.00     0.060 A 
ATOM      2  C   UNL     1       0.466   0.059   2.535  1.00  0.00     0.066 A 
ATOM      3  C   UNL     1       1.468  -0.952   4.900  1.00  0.00     0.088 A 
ATOM      4  C   UNL     1       0.079  -0.714   4.717  1.00  0.00     0.035 A 
ATOM      5  N   UNL     1      -1.740  -0.337   3.065  1.00  0.00    -0.360 N 
ATOM      6  N   UNL     1      -0.390   0.506   1.525  1.00  0.00    -0.360 N 
ATOM      7  C   UNL     1       2.339  -0.586   3.877  1.00  0.00     0.271 A 
ATOM      8  C   UNL     1      -1.639   0.696   2.170  1.00  0.00     0.205 C 
ATOM      9  C   UNL     1       1.815  -0.038   2.665  1.00  0.00     0.113 A 
ATOM     10  H   UNL     1      -2.566  -0.885   3.345  1.00  0.00     0.163 HD
ATOM     11  H   UNL     1      -0.165   0.663   0.533  1.00  0.00     0.163 HD
ENDROOT
BRANCH   8  12
ATOM     12  C   UNL     1      -2.830   0.988   1.216  1.00  0.00    -0.003 A 
ATOM     13  C   UNL     1      -5.282   1.252   0.986  1.00  0.00     0.042 A 
ATOM     14  C   UNL     1      -4.042   1.544   1.686  1.00  0.00     0.028 A 
ATOM     15  C   UNL     1      -5.181   0.928  -0.441  1.00  0.00     0.041 A 
ATOM     16  C   UNL     1      -3.836   0.719  -0.967  1.00  0.00     0.042 A 
ATOM     17  C   UNL     1      -2.684   0.573  -0.156  1.00  0.00     0.028 A 
ATOM     18  Cl  UNL     1      -6.722   1.535   1.512  1.00  0.00    -0.084 Cl
ATOM     19  Cl  UNL     1      -3.704   0.550  -2.663  1.00  0.00    -0.084 Cl
ENDBRANCH   8  12
BRANCH   7  20
ATOM     20  N   UNL     1       3.714  -0.624   3.992  1.00  0.00     0.062 N 
ATOM     21  O   UNL     1       4.275  -1.655   4.060  1.00  0.00    -0.258 OA
ATOM     22  O   UNL     1       4.477   0.419   3.808  1.00  0.00    -0.258 OA
ENDBRANCH   7  20
TORSDOF 2
ENDMDL
MODEL 9
REMARK VINA RESULT:    -3.694      5.074      7.404
REMARK INTER + INTRA:          -4.440
REMARK INTER:                  -4.146
REMARK INTRA:                  -0.295
REMARK UNBOUND:                -0.314
REMARK SMILES O=[N+]([O-])c1ccc2c(c1)N[C@@H](c1cc(Cl)cc(Cl)c1)N2
REMARK SMILES IDX 7 1 8 2 5 3 6 4 20 5 10 6 4 7 11 8 9 9 12 12 14 13 13 14
REMARK SMILES IDX 16 15 17 16 19 17 15 18 18 19 2 20 3 21 1 22
REMARK H PARENT 20 10 10 11
ROOT
ATOM      1  C   UNL     1      -3.230 -10.218   1.037  1.00  0.00     0.060 A 
ATOM      2  C   UNL     1      -3.138  -9.956  -0.309  1.00  0.00     0.066 A 
ATOM      3  C   UNL     1      -2.003  -8.279   1.567  1.00  0.00     0.088 A 
ATOM      4  C   UNL     1      -2.898  -9.318   1.938  1.00  0.00     0.035 A 
ATOM      5  N   UNL     1      -3.981 -11.442   1.235  1.00  0.00    -0.360 N 
ATOM      6  N   UNL     1      -3.856 -10.983  -0.927  1.00  0.00    -0.360 N 
ATOM      7  C   UNL     1      -1.766  -8.065   0.211  1.00  0.00     0.271 A 
ATOM      8  C   UNL     1      -4.722 -11.476   0.082  1.00  0.00     0.205 C 
ATOM      9  C   UNL     1      -2.380  -8.921  -0.756  1.00  0.00     0.113 A 
ATOM     10  H   UNL     1      -3.964 -12.104   2.024  1.00  0.00     0.163 HD
ATOM     11  H   UNL     1      -3.774 -11.309  -1.900  1.00  0.00     0.163 HD
ENDROOT
BRANCH   8  12
ATOM     12  C   UNL     1      -5.483 -12.779  -0.288  1.00  0.00    -0.003 A 
ATOM     13  C   UNL     1      -7.673 -13.834  -0.759  1.00  0.00     0.042 A 
ATOM     14  C   UNL     1      -6.727 -12.750  -0.959  1.00  0.00     0.028 A 
ATOM     15  C   UNL     1      -7.120 -15.143  -0.391  1.00  0.00     0.041 A 
ATOM     16  C   UNL     1      -5.701 -15.176  -0.053  1.00  0.00     0.042 A 
ATOM     17  C   UNL     1      -4.915 -14.020   0.173  1.00  0.00     0.028 A 
ATOM     18  Cl  UNL     1      -9.174 -13.833  -1.180  1.00  0.00    -0.084 Cl
ATOM     19  Cl  UNL     1      -5.013 -16.725   0.171  1.00  0.00    -0.084 Cl
ENDBRANCH   8  12
BRANCH   7  20
ATOM     20  N   UNL     1      -1.043  -6.998  -0.281  1.00  0.00     0.062 N 
ATOM     21  O   UNL     1      -0.096  -6.607   0.296  1.00  0.00    -0.258 OA
ATOM     22  O   UNL     1      -1.207  -6.516  -1.483  1.00  0.00    -0.258 OA
ENDBRANCH   7  20
TORSDOF 2
ENDMDL
