MODEL 1
REMARK VINA RESULT:    -4.604      0.000      0.000
REMARK INTER + INTRA:          -5.457
REMARK INTER:                  -5.142
REMARK INTRA:                  -0.315
REMARK UNBOUND:                -0.315
REMARK SMILES O=[N+]([O-])c1ccc2c(c1)N[C@@H](c1cc(Cl)cc(Cl)c1)N2
REMARK SMILES IDX 7 1 8 2 5 3 6 4 20 5 10 6 4 7 11 8 9 9 12 12 14 13 13 14
REMARK SMILES IDX 16 15 17 16 19 17 15 18 18 19 2 20 3 21 1 22
REMARK H PARENT 20 10 10 11
ROOT
ATOM      1  C   UNL     1      -2.131   8.652  -5.510  1.00  0.00     0.060 A 
ATOM      2  C   UNL     1      -1.756   7.954  -6.633  1.00  0.00     0.066 A 
ATOM      3  C   UNL     1      -3.063  10.378  -6.813  1.00  0.00     0.088 A 
ATOM      4  C   UNL     1      -2.948   9.681  -5.580  1.00  0.00     0.035 A 
ATOM      5  N   UNL     1      -1.734   7.908  -4.330  1.00  0.00    -0.360 N 
ATOM      6  N   UNL     1      -1.172   6.780  -6.150  1.00  0.00    -0.360 N 
ATOM      7  C   UNL     1      -2.566   9.769  -7.964  1.00  0.00     0.271 A 
ATOM      8  C   UNL     1      -1.685   6.635  -4.836  1.00  0.00     0.205 C 
ATOM      9  C   UNL     1      -1.915   8.500  -7.866  1.00  0.00     0.113 A 
ATOM     10  H   UNL     1      -1.542   8.243  -3.376  1.00  0.00     0.163 HD
ATOM     11  H   UNL     1      -0.514   6.157  -6.640  1.00  0.00     0.163 HD
ENDROOT
BRANCH   8  12
ATOM     12  C   UNL     1      -1.018   5.513  -3.993  1.00  0.00    -0.003 A 
ATOM     13  C   UNL     1      -0.749   4.488  -1.755  1.00  0.00     0.042 A 
ATOM     14  C   UNL     1      -1.601   5.033  -2.798  1.00  0.00     0.028 A 
ATOM     15  C   UNL     1       0.534   3.912  -2.175  1.00  0.00     0.041 A 
ATOM     16  C   UNL     1       0.923   4.135  -3.563  1.00  0.00     0.042 A 
ATOM     17  C   UNL     1       0.275   5.052  -4.428  1.00  0.00     0.028 A 
ATOM     18  Cl  UNL     1      -1.175   4.182  -0.287  1.00  0.00    -0.084 Cl
ATOM     19  Cl  UNL     1       2.307   3.292  -4.107  1.00  0.00    -0.084 Cl
ENDBRANCH   8  12
BRANCH   7  20
ATOM     20  N   UNL     1      -2.752  10.271  -9.236  1.00  0.00     0.062 N 
ATOM     21  O   UNL     1      -2.653   9.566 -10.172  1.00  0.00    -0.258 OA
ATOM     22  O   UNL     1      -3.257  11.451  -9.473  1.00  0.00    -0.258 OA
ENDBRANCH   7  20
TORSDOF 2
ENDMDL
MODEL 2
REMARK VINA RESULT:    -4.574      1.041      2.686
REMARK INTER + INTRA:          -5.424
REMARK INTER:                  -5.109
REMARK INTRA:                  -0.315
REMARK UNBOUND:                -0.315
REMARK SMILES O=[N+]([O-])c1ccc2c(c1)N[C@@H](c1cc(Cl)cc(Cl)c1)N2
REMARK SMILES IDX 7 1 8 2 5 3 6 4 20 5 10 6 4 7 11 8 9 9 12 12 14 13 13 14
REMARK SMILES IDX 16 15 17 16 19 17 15 18 18 19 2 20 3 21 1 22
REMARK H PARENT 20 10 10 11
ROOT
ATOM      1  C   UNL     1      -1.649   7.838  -6.724  1.00  0.00     0.060 A 
ATOM      2  C   UNL     1      -2.035   8.632  -5.670  1.00  0.00     0.066 A 
ATOM      3  C   UNL     1      -2.451   9.410  -8.285  1.00  0.00     0.088 A 
ATOM      4  C   UNL     1      -1.632   8.295  -7.958  1.00  0.00     0.035 A 
ATOM      5  N   UNL     1      -1.035   6.629  -6.213  1.00  0.00    -0.360 N 
ATOM      6  N   UNL     1      -1.628   7.937  -4.528  1.00  0.00    -0.360 N 
ATOM      7  C   UNL     1      -2.984  10.165  -7.243  1.00  0.00     0.271 A 
ATOM      8  C   UNL     1      -0.611   7.059  -4.983  1.00  0.00     0.205 C 
ATOM      9  C   UNL     1      -2.741   9.771  -5.890  1.00  0.00     0.113 A 
ATOM     10  H   UNL     1      -0.942   5.702  -6.652  1.00  0.00     0.163 HD
ATOM     11  H   UNL     1      -1.988   8.039  -3.568  1.00  0.00     0.163 HD
ENDROOT
BRANCH   8  12
ATOM     12  C   UNL     1      -0.137   6.010  -3.938  1.00  0.00    -0.003 A 
ATOM     13  C   UNL     1       1.185   3.959  -3.518  1.00  0.00     0.042 A 
ATOM     14  C   UNL     1       1.063   5.282  -4.106  1.00  0.00     0.028 A 
ATOM     15  C   UNL     1       0.371   3.680  -2.329  1.00  0.00     0.041 A 
ATOM     16  C   UNL     1      -0.637   4.677  -1.983  1.00  0.00     0.042 A 
ATOM     17  C   UNL     1      -1.026   5.737  -2.838  1.00  0.00     0.028 A 
ATOM     18  Cl  UNL     1       2.298   2.913  -3.832  1.00  0.00    -0.084 Cl
ATOM     19  Cl  UNL     1      -1.438   4.457  -0.489  1.00  0.00    -0.084 Cl
ENDBRANCH   8  12
BRANCH   7  20
ATOM     20  N   UNL     1      -3.663  11.351  -7.427  1.00  0.00     0.062 N 
ATOM     21  O   UNL     1      -3.764  12.120  -6.543  1.00  0.00    -0.258 OA
ATOM     22  O   UNL     1      -4.024  11.795  -8.601  1.00  0.00    -0.258 OA
ENDBRANCH   7  20
TORSDOF 2
ENDMDL
MODEL 3
REMARK VINA RESULT:    -4.288      5.119      7.585
REMARK INTER + INTRA:          -5.105
REMARK INTER:                  -4.805
REMARK INTRA:                  -0.299
REMARK UNBOUND:                -0.315
REMARK SMILES O=[N+]([O-])c1ccc2c(c1)N[C@@H](c1cc(Cl)cc(Cl)c1)N2
REMARK SMILES IDX 7 1 8 2 5 3 6 4 20 5 10 6 4 7 11 8 9 9 12 12 14 13 13 14
REMARK SMILES IDX 16 15 17 16 19 17 15 18 18 19 2 20 3 21 1 22
REMARK H PARENT 20 10 10 11
ROOT
ATOM      1  C   UNL     1       0.038   5.438  -4.410  1.00  0.00     0.060 A 
ATOM      2  C   UNL     1      -0.667   5.951  -3.348  1.00  0.00     0.066 A 
ATOM      3  C   UNL     1       0.731   3.580  -3.139  1.00  0.00     0.088 A 
ATOM      4  C   UNL     1       0.511   4.210  -4.393  1.00  0.00     0.035 A 
ATOM      5  N   UNL     1      -0.104   6.323  -5.550  1.00  0.00    -0.360 N 
ATOM      6  N   UNL     1      -1.264   7.115  -3.839  1.00  0.00    -0.360 N 
ATOM      7  C   UNL     1       0.152   4.147  -2.006  1.00  0.00     0.271 A 
ATOM      8  C   UNL     1      -1.289   6.941  -5.246  1.00  0.00     0.205 C 
ATOM      9  C   UNL     1      -0.594   5.361  -2.126  1.00  0.00     0.113 A 
ATOM     10  H   UNL     1       0.514   6.451  -6.363  1.00  0.00     0.163 HD
ATOM     11  H   UNL     1      -1.611   7.920  -3.298  1.00  0.00     0.163 HD
ENDROOT
BRANCH   8  12
ATOM     12  C   UNL     1      -1.712   8.200  -6.053  1.00  0.00    -0.003 A 
ATOM     13  C   UNL     1      -3.037  10.292  -6.083  1.00  0.00     0.042 A 
ATOM     14  C   UNL     1      -2.108   9.397  -5.414  1.00  0.00     0.028 A 
ATOM     15  C   UNL     1      -3.059  10.255  -7.550  1.00  0.00     0.041 A 
ATOM     16  C   UNL     1      -2.306   9.178  -8.184  1.00  0.00     0.042 A 
ATOM     17  C   UNL     1      -1.780   8.063  -7.486  1.00  0.00     0.028 A 
ATOM     18  Cl  UNL     1      -3.793  11.488  -5.429  1.00  0.00    -0.084 Cl
ATOM     19  Cl  UNL     1      -2.159   9.257  -9.885  1.00  0.00    -0.084 Cl
ENDBRANCH   8  12
BRANCH   7  20
ATOM     20  N   UNL     1       0.164   3.552  -0.761  1.00  0.00     0.062 N 
ATOM     21  O   UNL     1       0.943   2.707  -0.515  1.00  0.00    -0.258 OA
ATOM     22  O   UNL     1      -0.499   4.019   0.262  1.00  0.00    -0.258 OA
ENDBRANCH   7  20
TORSDOF 2
ENDMDL
MODEL 4
REMARK VINA RESULT:    -4.279      4.999      7.655
REMARK INTER + INTRA:          -5.094
REMARK INTER:                  -4.794
REMARK INTRA:                  -0.300
REMARK UNBOUND:                -0.315
REMARK SMILES O=[N+]([O-])c1ccc2c(c1)N[C@@H](c1cc(Cl)cc(Cl)c1)N2
REMARK SMILES IDX 7 1 8 2 5 3 6 4 20 5 10 6 4 7 11 8 9 9 12 12 14 13 13 14
REMARK SMILES IDX 16 15 17 16 19 17 15 18 18 19 2 20 3 21 1 22
REMARK H PARENT 20 10 10 11
ROOT
ATOM      1  C   UNL     1      -1.355   5.764  -3.182  1.00  0.00     0.060 A 
ATOM      2  C   UNL     1      -0.562   5.210  -4.158  1.00  0.00     0.066 A 
ATOM      3  C   UNL     1      -0.448   4.336  -1.542  1.00  0.00     0.088 A 
ATOM      4  C   UNL     1      -1.147   5.519  -1.906  1.00  0.00     0.035 A 
ATOM      5  N   UNL     1      -2.177   6.805  -3.767  1.00  0.00    -0.360 N 
ATOM      6  N   UNL     1      -0.865   5.927  -5.319  1.00  0.00    -0.360 N 
ATOM      7  C   UNL     1       0.258   3.657  -2.533  1.00  0.00     0.271 A 
ATOM      8  C   UNL     1      -1.418   7.147  -4.855  1.00  0.00     0.205 C 
ATOM      9  C   UNL     1       0.217   4.132  -3.881  1.00  0.00     0.113 A 
ATOM     10  H   UNL     1      -3.082   7.183  -3.452  1.00  0.00     0.163 HD
ATOM     11  H   UNL     1      -0.719   5.633  -6.295  1.00  0.00     0.163 HD
ENDROOT
BRANCH   8  12
ATOM     12  C   UNL     1      -2.043   8.044  -5.960  1.00  0.00    -0.003 A 
ATOM     13  C   UNL     1      -2.039   8.691  -8.350  1.00  0.00     0.042 A 
ATOM     14  C   UNL     1      -2.034   7.665  -7.321  1.00  0.00     0.028 A 
ATOM     15  C   UNL     1      -2.639   9.984  -8.000  1.00  0.00     0.041 A 
ATOM     16  C   UNL     1      -2.975  10.184  -6.594  1.00  0.00     0.042 A 
ATOM     17  C   UNL     1      -2.544   9.331  -5.548  1.00  0.00     0.028 A 
ATOM     18  Cl  UNL     1      -1.748   8.473  -9.866  1.00  0.00    -0.084 Cl
ATOM     19  Cl  UNL     1      -3.861  11.598  -6.222  1.00  0.00    -0.084 Cl
ENDBRANCH   8  12
BRANCH   7  20
ATOM     20  N   UNL     1       1.096   2.590  -2.281  1.00  0.00     0.062 N 
ATOM     21  O   UNL     1       1.039   2.021  -1.254  1.00  0.00    -0.258 OA
ATOM     22  O   UNL     1       1.815   2.011  -3.204  1.00  0.00    -0.258 OA
ENDBRANCH   7  20
TORSDOF 2
ENDMDL
MODEL 5
REMARK VINA RESULT:    -4.233      0.781      2.161
REMARK INTER + INTRA:          -5.043
REMARK INTER:                  -4.744
REMARK INTRA:                  -0.300
REMARK UNBOUND:                -0.315
REMARK SMILES O=[N+]([O-])c1ccc2c(c1)N[C@@H](c1cc(Cl)cc(Cl)c1)N2
REMARK SMILES IDX 7 1 8 2 5 3 6 4 20 5 10 6 4 7 11 8 9 9 12 12 14 13 13 14
REMARK SMILES IDX 16 15 17 16 19 17 15 18 18 19 2 20 3 21 1 22
REMARK H PARENT 20 10 10 11
ROOT
ATOM      1  C   UNL     1      -1.904   8.635  -6.137  1.00  0.00     0.060 A 
ATOM      2  C   UNL     1      -1.483   7.697  -7.048  1.00  0.00     0.066 A 
ATOM      3  C   UNL     1      -2.747  10.016  -7.848  1.00  0.00     0.088 A 
ATOM      4  C   UNL     1      -2.702   9.621  -6.484  1.00  0.00     0.035 A 
ATOM      5  N   UNL     1      -1.575   8.183  -4.799  1.00  0.00    -0.360 N 
ATOM      6  N   UNL     1      -0.938   6.665  -6.279  1.00  0.00    -0.360 N 
ATOM      7  C   UNL     1      -2.202   9.158  -8.801  1.00  0.00     0.271 A 
ATOM      8  C   UNL     1      -1.518   6.828  -4.995  1.00  0.00     0.205 C 
ATOM      9  C   UNL     1      -1.573   7.945  -8.381  1.00  0.00     0.113 A 
ATOM     10  H   UNL     1      -1.426   8.729  -3.939  1.00  0.00     0.163 HD
ATOM     11  H   UNL     1      -0.265   5.945  -6.579  1.00  0.00     0.163 HD
ENDROOT
BRANCH   8  12
ATOM     12  C   UNL     1      -0.908   5.929  -3.883  1.00  0.00    -0.003 A 
ATOM     13  C   UNL     1       0.686   4.118  -3.327  1.00  0.00     0.042 A 
ATOM     14  C   UNL     1       0.383   5.368  -4.004  1.00  0.00     0.028 A 
ATOM     15  C   UNL     1      -0.090   3.808  -2.121  1.00  0.00     0.041 A 
ATOM     16  C   UNL     1      -1.230   4.674  -1.841  1.00  0.00     0.042 A 
ATOM     17  C   UNL     1      -1.758   5.609  -2.765  1.00  0.00     0.028 A 
ATOM     18  Cl  UNL     1       1.937   3.220  -3.572  1.00  0.00    -0.084 Cl
ATOM     19  Cl  UNL     1      -2.003   4.445  -0.334  1.00  0.00    -0.084 Cl
ENDBRANCH   8  12
BRANCH   7  20
ATOM     20  N   UNL     1      -2.318   9.353 -10.162  1.00  0.00     0.062 N 
ATOM     21  O   UNL     1      -2.097   8.472 -10.909  1.00  0.00    -0.258 OA
ATOM     22  O   UNL     1      -2.882  10.406 -10.689  1.00  0.00    -0.258 OA
ENDBRANCH   7  20
TORSDOF 2
ENDMDL
MODEL 6
REMARK VINA RESULT:    -4.176      1.603      2.137
REMARK INTER + INTRA:          -4.979
REMARK INTER:                  -4.686
REMARK INTRA:                  -0.293
REMARK UNBOUND:                -0.315
REMARK SMILES O=[N+]([O-])c1ccc2c(c1)N[C@@H](c1cc(Cl)cc(Cl)c1)N2
REMARK SMILES IDX 7 1 8 2 5 3 6 4 20 5 10 6 4 7 11 8 9 9 12 12 14 13 13 14
REMARK SMILES IDX 16 15 17 16 19 17 15 18 18 19 2 20 3 21 1 22
REMARK H PARENT 20 10 10 11
ROOT
ATOM      1  C   UNL     1      -2.162   8.298  -6.421  1.00  0.00     0.060 A 
ATOM      2  C   UNL     1      -2.403   8.902  -5.210  1.00  0.00     0.066 A 
ATOM      3  C   UNL     1      -2.947  10.184  -7.593  1.00  0.00     0.088 A 
ATOM      4  C   UNL     1      -2.199   8.977  -7.548  1.00  0.00     0.035 A 
ATOM      5  N   UNL     1      -1.611   6.976  -6.194  1.00  0.00    -0.360 N 
ATOM      6  N   UNL     1      -1.971   7.980  -4.254  1.00  0.00    -0.360 N 
ATOM      7  C   UNL     1      -3.339  10.763  -6.388  1.00  0.00     0.271 A 
ATOM      8  C   UNL     1      -1.065   7.139  -4.948  1.00  0.00     0.205 C 
ATOM      9  C   UNL     1      -3.030  10.106  -5.156  1.00  0.00     0.113 A 
ATOM     10  H   UNL     1      -1.626   6.145  -6.802  1.00  0.00     0.163 HD
ATOM     11  H   UNL     1      -2.249   7.923  -3.264  1.00  0.00     0.163 HD
ENDROOT
BRANCH   8  12
ATOM     12  C   UNL     1      -0.600   5.883  -4.158  1.00  0.00    -0.003 A 
ATOM     13  C   UNL     1      -0.677   4.637  -2.019  1.00  0.00     0.042 A 
ATOM     14  C   UNL     1      -1.355   5.358  -3.085  1.00  0.00     0.028 A 
ATOM     15  C   UNL     1       0.587   3.976  -2.361  1.00  0.00     0.041 A 
ATOM     16  C   UNL     1       1.148   4.284  -3.673  1.00  0.00     0.042 A 
ATOM     17  C   UNL     1       0.687   5.335  -4.502  1.00  0.00     0.028 A 
ATOM     18  Cl  UNL     1      -1.292   4.244  -0.642  1.00  0.00    -0.084 Cl
ATOM     19  Cl  UNL     1       2.502   3.359  -4.153  1.00  0.00    -0.084 Cl
ENDBRANCH   8  12
BRANCH   7  20
ATOM     20  N   UNL     1      -3.933  12.005  -6.293  1.00  0.00     0.062 N 
ATOM     21  O   UNL     1      -3.364  12.895  -5.777  1.00  0.00    -0.258 OA
ATOM     22  O   UNL     1      -5.017  12.332  -6.942  1.00  0.00    -0.258 OA
ENDBRANCH   7  20
TORSDOF 2
ENDMDL
MODEL 7
REMARK VINA RESULT:    -4.168      3.094      4.457
REMARK INTER + INTRA:          -4.971
REMARK INTER:                  -4.664
REMARK INTRA:                  -0.307
REMARK UNBOUND:                -0.315
REMARK SMILES O=[N+]([O-])c1ccc2c(c1)N[C@@H](c1cc(Cl)cc(Cl)c1)N2
REMARK SMILES IDX 7 1 8 2 5 3 6 4 20 5 10 6 4 7 11 8 9 9 12 12 14 13 13 14
REMARK SMILES IDX 16 15 17 16 19 17 15 18 18 19 2 20 3 21 1 22
REMARK H PARENT 20 10 10 11
ROOT
ATOM      1  C   UNL     1      -1.962   8.787  -9.830  1.00  0.00     0.060 A 
ATOM      2  C   UNL     1      -2.420   7.500  -9.984  1.00  0.00     0.066 A 
ATOM      3  C   UNL     1      -2.598   9.345 -12.029  1.00  0.00     0.088 A 
ATOM      4  C   UNL     1      -2.248   9.727 -10.705  1.00  0.00     0.035 A 
ATOM      5  N   UNL     1      -1.425   8.946  -8.494  1.00  0.00    -0.360 N 
ATOM      6  N   UNL     1      -2.202   6.889  -8.747  1.00  0.00    -0.360 N 
ATOM      7  C   UNL     1      -2.933   8.014 -12.264  1.00  0.00     0.271 A 
ATOM      8  C   UNL     1      -2.107   7.963  -7.826  1.00  0.00     0.205 C 
ATOM      9  C   UNL     1      -2.865   7.069 -11.193  1.00  0.00     0.113 A 
ATOM     10  H   UNL     1      -0.725   9.614  -8.142  1.00  0.00     0.163 HD
ATOM     11  H   UNL     1      -2.126   5.881  -8.548  1.00  0.00     0.163 HD
ENDROOT
BRANCH   8  12
ATOM     12  C   UNL     1      -1.646   7.561  -6.397  1.00  0.00    -0.003 A 
ATOM     13  C   UNL     1       0.264   7.190  -4.866  1.00  0.00     0.042 A 
ATOM     14  C   UNL     1      -0.416   8.003  -5.860  1.00  0.00     0.028 A 
ATOM     15  C   UNL     1      -0.571   6.308  -4.041  1.00  0.00     0.041 A 
ATOM     16  C   UNL     1      -1.967   6.174  -4.441  1.00  0.00     0.042 A 
ATOM     17  C   UNL     1      -2.483   6.634  -5.679  1.00  0.00     0.028 A 
ATOM     18  Cl  UNL     1       1.735   7.369  -4.382  1.00  0.00    -0.084 Cl
ATOM     19  Cl  UNL     1      -2.985   5.319  -3.367  1.00  0.00    -0.084 Cl
ENDBRANCH   8  12
BRANCH   7  20
ATOM     20  N   UNL     1      -3.435   7.551 -13.463  1.00  0.00     0.062 N 
ATOM     21  O   UNL     1      -2.763   7.555 -14.428  1.00  0.00    -0.258 OA
ATOM     22  O   UNL     1      -4.556   6.890 -13.563  1.00  0.00    -0.258 OA
ENDBRANCH   7  20
TORSDOF 2
ENDMDL
MODEL 8
REMARK VINA RESULT:    -3.986      4.269      5.716
REMARK INTER + INTRA:          -4.767
REMARK INTER:                  -4.458
REMARK INTRA:                  -0.308
REMARK UNBOUND:                -0.315
REMARK SMILES O=[N+]([O-])c1ccc2c(c1)N[C@@H](c1cc(Cl)cc(Cl)c1)N2
REMARK SMILES IDX 7 1 8 2 5 3 6 4 20 5 10 6 4 7 11 8 9 9 12 12 14 13 13 14
REMARK SMILES IDX 16 15 17 16 19 17 15 18 18 19 2 20 3 21 1 22
REMARK H PARENT 20 10 10 11
ROOT
ATOM      1  C   UNL     1      -3.059  12.977  -4.986  1.00  0.00     0.060 A 
ATOM      2  C   UNL     1      -4.043  12.818  -5.932  1.00  0.00     0.066 A 
ATOM      3  C   UNL     1      -3.803  15.155  -4.482  1.00  0.00     0.088 A 
ATOM      4  C   UNL     1      -3.076  13.983  -4.138  1.00  0.00     0.035 A 
ATOM      5  N   UNL     1      -2.259  11.770  -4.920  1.00  0.00    -0.360 N 
ATOM      6  N   UNL     1      -3.874  11.517  -6.413  1.00  0.00    -0.360 N 
ATOM      7  C   UNL     1      -4.714  15.080  -5.533  1.00  0.00     0.271 A 
ATOM      8  C   UNL     1      -3.154  10.846  -5.393  1.00  0.00     0.205 C 
ATOM      9  C   UNL     1      -4.853  13.858  -6.262  1.00  0.00     0.113 A 
ATOM     10  H   UNL     1      -1.287  11.641  -4.605  1.00  0.00     0.163 HD
ATOM     11  H   UNL     1      -4.201  11.132  -7.310  1.00  0.00     0.163 HD
ENDROOT
BRANCH   8  12
ATOM     12  C   UNL     1      -2.644   9.428  -5.775  1.00  0.00    -0.003 A 
ATOM     13  C   UNL     1      -1.374   7.424  -5.068  1.00  0.00     0.042 A 
ATOM     14  C   UNL     1      -2.372   8.445  -4.797  1.00  0.00     0.028 A 
ATOM     15  C   UNL     1      -1.137   7.080  -6.474  1.00  0.00     0.041 A 
ATOM     16  C   UNL     1      -1.766   7.942  -7.469  1.00  0.00     0.042 A 
ATOM     17  C   UNL     1      -2.364   9.191  -7.168  1.00  0.00     0.028 A 
ATOM     18  Cl  UNL     1      -0.748   6.452  -4.022  1.00  0.00    -0.084 Cl
ATOM     19  Cl  UNL     1      -1.664   7.422  -9.094  1.00  0.00    -0.084 Cl
ENDBRANCH   8  12
BRANCH   7  20
ATOM     20  N   UNL     1      -5.586  16.097  -5.865  1.00  0.00     0.062 N 
ATOM     21  O   UNL     1      -5.701  16.438  -6.984  1.00  0.00    -0.258 OA
ATOM     22  O   UNL     1      -6.476  16.575  -5.038  1.00  0.00    -0.258 OA
ENDBRANCH   7  20
TORSDOF 2
ENDMDL
MODEL 9
REMARK VINA RESULT:    -3.644      5.119      7.524
REMARK INTER + INTRA:          -4.386
REMARK INTER:                  -4.090
REMARK INTRA:                  -0.296
REMARK UNBOUND:                -0.315
REMARK SMILES O=[N+]([O-])c1ccc2c(c1)N[C@@H](c1cc(Cl)cc(Cl)c1)N2
REMARK SMILES IDX 7 1 8 2 5 3 6 4 20 5 10 6 4 7 11 8 9 9 12 12 14 13 13 14
REMARK SMILES IDX 16 15 17 16 19 17 15 18 18 19 2 20 3 21 1 22
REMARK H PARENT 20 10 10 11
ROOT
ATOM      1  C   UNL     1      -2.532   7.476  -5.111  1.00  0.00     0.060 A 
ATOM      2  C   UNL     1      -1.234   7.900  -5.268  1.00  0.00     0.066 A 
ATOM      3  C   UNL     1      -1.822   5.306  -4.533  1.00  0.00     0.088 A 
ATOM      4  C   UNL     1      -2.814   6.323  -4.545  1.00  0.00     0.035 A 
ATOM      5  N   UNL     1      -3.432   8.579  -5.384  1.00  0.00    -0.360 N 
ATOM      6  N   UNL     1      -1.334   9.255  -5.595  1.00  0.00    -0.360 N 
ATOM      7  C   UNL     1      -0.508   5.664  -4.827  1.00  0.00     0.271 A 
ATOM      8  C   UNL     1      -2.613   9.647  -5.123  1.00  0.00     0.205 C 
ATOM      9  C   UNL     1      -0.206   7.016  -5.180  1.00  0.00     0.113 A 
ATOM     10  H   UNL     1      -4.415   8.565  -5.690  1.00  0.00     0.163 HD
ATOM     11  H   UNL     1      -0.634   9.840  -6.073  1.00  0.00     0.163 HD
ENDROOT
BRANCH   8  12
ATOM     12  C   UNL     1      -3.064  11.069  -5.558  1.00  0.00    -0.003 A 
ATOM     13  C   UNL     1      -3.506  13.404  -4.863  1.00  0.00     0.042 A 
ATOM     14  C   UNL     1      -2.654  12.227  -4.859  1.00  0.00     0.028 A 
ATOM     15  C   UNL     1      -4.403  13.574  -6.012  1.00  0.00     0.041 A 
ATOM     16  C   UNL     1      -4.508  12.444  -6.928  1.00  0.00     0.042 A 
ATOM     17  C   UNL     1      -4.004  11.150  -6.647  1.00  0.00     0.028 A 
ATOM     18  Cl  UNL     1      -3.360  14.647  -3.933  1.00  0.00    -0.084 Cl
ATOM     19  Cl  UNL     1      -5.384  12.716  -8.370  1.00  0.00    -0.084 Cl
ENDBRANCH   8  12
BRANCH   7  20
ATOM     20  N   UNL     1       0.566   4.806  -4.702  1.00  0.00     0.062 N 
ATOM     21  O   UNL     1       1.641   5.229  -4.489  1.00  0.00    -0.258 OA
ATOM     22  O   UNL     1       0.437   3.512  -4.581  1.00  0.00    -0.258 OA
ENDBRANCH   7  20
TORSDOF 2
ENDMDL
