MODEL 1
REMARK VINA RESULT:    -4.108      0.000      0.000
REMARK INTER + INTRA:          -4.903
REMARK INTER:                  -4.588
REMARK INTRA:                  -0.315
REMARK UNBOUND:                -0.315
REMARK SMILES O=[N+]([O-])c1ccc2c(c1)N[C@@H](c1cc(Cl)cc(Cl)c1)N2
REMARK SMILES IDX 7 1 8 2 5 3 6 4 20 5 10 6 4 7 11 8 9 9 12 12 14 13 13 14
REMARK SMILES IDX 16 15 17 16 19 17 15 18 18 19 2 20 3 21 1 22
REMARK H PARENT 20 10 10 11
ROOT
ATOM      1  C   UNL     1     -11.977   2.978   1.103  1.00  0.00     0.060 A 
ATOM      2  C   UNL     1     -11.765   3.348   2.410  1.00  0.00     0.066 A 
ATOM      3  C   UNL     1     -14.312   3.139   1.366  1.00  0.00     0.088 A 
ATOM      4  C   UNL     1     -13.158   3.098   0.537  1.00  0.00     0.035 A 
ATOM      5  N   UNL     1     -10.699   2.750   0.458  1.00  0.00    -0.360 N 
ATOM      6  N   UNL     1     -10.376   3.384   2.555  1.00  0.00    -0.360 N 
ATOM      7  C   UNL     1     -14.136   3.371   2.729  1.00  0.00     0.271 A 
ATOM      8  C   UNL     1      -9.879   3.527   1.234  1.00  0.00     0.205 C 
ATOM      9  C   UNL     1     -12.815   3.506   3.258  1.00  0.00     0.113 A 
ATOM     10  H   UNL     1     -10.469   2.165  -0.358  1.00  0.00     0.163 HD
ATOM     11  H   UNL     1      -9.833   3.320   3.427  1.00  0.00     0.163 HD
ENDROOT
BRANCH   8  12
ATOM     12  C   UNL     1      -8.339   3.375   1.094  1.00  0.00    -0.003 A 
ATOM     13  C   UNL     1      -6.413   3.141  -0.445  1.00  0.00     0.042 A 
ATOM     14  C   UNL     1      -7.651   3.801  -0.064  1.00  0.00     0.028 A 
ATOM     15  C   UNL     1      -5.632   2.517   0.629  1.00  0.00     0.041 A 
ATOM     16  C   UNL     1      -6.276   2.433   1.936  1.00  0.00     0.042 A 
ATOM     17  C   UNL     1      -7.653   2.685   2.156  1.00  0.00     0.028 A 
ATOM     18  Cl  UNL     1      -5.682   3.280  -1.815  1.00  0.00    -0.084 Cl
ATOM     19  Cl  UNL     1      -5.296   1.900   3.230  1.00  0.00    -0.084 Cl
ENDBRANCH   8  12
BRANCH   7  20
ATOM     20  N   UNL     1     -15.177   3.585   3.609  1.00  0.00     0.062 N 
ATOM     21  O   UNL     1     -14.985   4.127   4.634  1.00  0.00    -0.258 OA
ATOM     22  O   UNL     1     -16.432   3.422   3.287  1.00  0.00    -0.258 OA
ENDBRANCH   7  20
TORSDOF 2
ENDMDL
MODEL 2
REMARK VINA RESULT:    -4.100      0.984      2.648
REMARK INTER + INTRA:          -4.894
REMARK INTER:                  -4.579
REMARK INTRA:                  -0.315
REMARK UNBOUND:                -0.315
REMARK SMILES O=[N+]([O-])c1ccc2c(c1)N[C@@H](c1cc(Cl)cc(Cl)c1)N2
REMARK SMILES IDX 7 1 8 2 5 3 6 4 20 5 10 6 4 7 11 8 9 9 12 12 14 13 13 14
REMARK SMILES IDX 16 15 17 16 19 17 15 18 18 19 2 20 3 21 1 22
REMARK H PARENT 20 10 10 11
ROOT
ATOM      1  C   UNL     1     -11.609   3.424   2.574  1.00  0.00     0.060 A 
ATOM      2  C   UNL     1     -11.992   3.050   1.308  1.00  0.00     0.066 A 
ATOM      3  C   UNL     1     -13.852   3.563   3.282  1.00  0.00     0.088 A 
ATOM      4  C   UNL     1     -12.465   3.446   3.573  1.00  0.00     0.035 A 
ATOM      5  N   UNL     1     -10.162   3.479   2.639  1.00  0.00    -0.360 N 
ATOM      6  N   UNL     1     -10.796   2.841   0.616  1.00  0.00    -0.360 N 
ATOM      7  C   UNL     1     -14.273   3.332   1.974  1.00  0.00     0.271 A 
ATOM      8  C   UNL     1      -9.829   2.616   1.628  1.00  0.00     0.205 C 
ATOM      9  C   UNL     1     -13.306   3.039   0.963  1.00  0.00     0.113 A 
ATOM     10  H   UNL     1      -9.553   4.018   3.270  1.00  0.00     0.163 HD
ATOM     11  H   UNL     1     -10.650   2.849  -0.404  1.00  0.00     0.163 HD
ENDROOT
BRANCH   8  12
ATOM     12  C   UNL     1      -8.358   2.571   1.128  1.00  0.00    -0.003 A 
ATOM     13  C   UNL     1      -5.961   2.528   1.749  1.00  0.00     0.042 A 
ATOM     14  C   UNL     1      -7.318   2.037   1.922  1.00  0.00     0.028 A 
ATOM     15  C   UNL     1      -5.612   3.071   0.431  1.00  0.00     0.041 A 
ATOM     16  C   UNL     1      -6.714   3.263  -0.505  1.00  0.00     0.042 A 
ATOM     17  C   UNL     1      -8.081   3.191  -0.143  1.00  0.00     0.028 A 
ATOM     18  Cl  UNL     1      -4.761   2.271   2.710  1.00  0.00    -0.084 Cl
ATOM     19  Cl  UNL     1      -6.284   3.695  -2.102  1.00  0.00    -0.084 Cl
ENDBRANCH   8  12
BRANCH   7  20
ATOM     20  N   UNL     1     -15.599   3.265   1.598  1.00  0.00     0.062 N 
ATOM     21  O   UNL     1     -15.900   2.775   0.573  1.00  0.00    -0.258 OA
ATOM     22  O   UNL     1     -16.587   3.513   2.413  1.00  0.00    -0.258 OA
ENDBRANCH   7  20
TORSDOF 2
ENDMDL
MODEL 3
REMARK VINA RESULT:    -3.976      3.056      4.418
REMARK INTER + INTRA:          -4.755
REMARK INTER:                  -4.450
REMARK INTRA:                  -0.305
REMARK UNBOUND:                -0.315
REMARK SMILES O=[N+]([O-])c1ccc2c(c1)N[C@@H](c1cc(Cl)cc(Cl)c1)N2
REMARK SMILES IDX 7 1 8 2 5 3 6 4 20 5 10 6 4 7 11 8 9 9 12 12 14 13 13 14
REMARK SMILES IDX 16 15 17 16 19 17 15 18 18 19 2 20 3 21 1 22
REMARK H PARENT 20 10 10 11
ROOT
ATOM      1  C   UNL     1     -13.916   3.896   4.801  1.00  0.00     0.060 A 
ATOM      2  C   UNL     1     -13.119   4.987   5.055  1.00  0.00     0.066 A 
ATOM      3  C   UNL     1     -15.598   4.708   6.236  1.00  0.00     0.088 A 
ATOM      4  C   UNL     1     -15.178   3.866   5.171  1.00  0.00     0.035 A 
ATOM      5  N   UNL     1     -13.239   3.017   3.868  1.00  0.00    -0.360 N 
ATOM      6  N   UNL     1     -11.985   4.799   4.260  1.00  0.00    -0.360 N 
ATOM      7  C   UNL     1     -14.755   5.747   6.626  1.00  0.00     0.271 A 
ATOM      8  C   UNL     1     -12.403   3.904   3.242  1.00  0.00     0.205 C 
ATOM      9  C   UNL     1     -13.484   5.901   5.991  1.00  0.00     0.113 A 
ATOM     10  H   UNL     1     -13.354   2.005   3.717  1.00  0.00     0.163 HD
ATOM     11  H   UNL     1     -11.052   5.218   4.386  1.00  0.00     0.163 HD
ENDROOT
BRANCH   8  12
ATOM     12  C   UNL     1     -11.260   3.358   2.341  1.00  0.00    -0.003 A 
ATOM     13  C   UNL     1      -9.513   1.631   2.033  1.00  0.00     0.042 A 
ATOM     14  C   UNL     1     -10.880   1.997   2.364  1.00  0.00     0.028 A 
ATOM     15  C   UNL     1      -8.776   2.537   1.144  1.00  0.00     0.041 A 
ATOM     16  C   UNL     1      -9.409   3.819   0.854  1.00  0.00     0.042 A 
ATOM     17  C   UNL     1     -10.534   4.321   1.553  1.00  0.00     0.028 A 
ATOM     18  Cl  UNL     1      -8.850   0.241   2.277  1.00  0.00    -0.084 Cl
ATOM     19  Cl  UNL     1      -8.655   4.783  -0.339  1.00  0.00    -0.084 Cl
ENDBRANCH   8  12
BRANCH   7  20
ATOM     20  N   UNL     1     -15.112   6.720   7.537  1.00  0.00     0.062 N 
ATOM     21  O   UNL     1     -15.153   6.472   8.685  1.00  0.00    -0.258 OA
ATOM     22  O   UNL     1     -15.199   7.987   7.233  1.00  0.00    -0.258 OA
ENDBRANCH   7  20
TORSDOF 2
ENDMDL
MODEL 4
REMARK VINA RESULT:    -3.939      4.998      7.648
REMARK INTER + INTRA:          -4.714
REMARK INTER:                  -4.415
REMARK INTRA:                  -0.299
REMARK UNBOUND:                -0.315
REMARK SMILES O=[N+]([O-])c1ccc2c(c1)N[C@@H](c1cc(Cl)cc(Cl)c1)N2
REMARK SMILES IDX 7 1 8 2 5 3 6 4 20 5 10 6 4 7 11 8 9 9 12 12 14 13 13 14
REMARK SMILES IDX 16 15 17 16 19 17 15 18 18 19 2 20 3 21 1 22
REMARK H PARENT 20 10 10 11
ROOT
ATOM      1  C   UNL     1      -8.362   3.139   0.189  1.00  0.00     0.060 A 
ATOM      2  C   UNL     1      -8.025   3.201   1.520  1.00  0.00     0.066 A 
ATOM      3  C   UNL     1      -6.127   2.712  -0.423  1.00  0.00     0.088 A 
ATOM      4  C   UNL     1      -7.518   2.683  -0.713  1.00  0.00     0.035 A 
ATOM      5  N   UNL     1      -9.787   3.360   0.045  1.00  0.00    -0.360 N 
ATOM      6  N   UNL     1      -9.233   3.419   2.187  1.00  0.00    -0.360 N 
ATOM      7  C   UNL     1      -5.733   2.915   0.897  1.00  0.00     0.271 A 
ATOM      8  C   UNL     1     -10.231   2.974   1.283  1.00  0.00     0.205 C 
ATOM      9  C   UNL     1      -6.723   3.141   1.903  1.00  0.00     0.113 A 
ATOM     10  H   UNL     1     -10.320   3.710  -0.764  1.00  0.00     0.163 HD
ATOM     11  H   UNL     1      -9.369   3.815   3.129  1.00  0.00     0.163 HD
ENDROOT
BRANCH   8  12
ATOM     12  C   UNL     1     -11.690   3.309   1.700  1.00  0.00    -0.003 A 
ATOM     13  C   UNL     1     -13.282   3.658   3.564  1.00  0.00     0.042 A 
ATOM     14  C   UNL     1     -11.990   3.905   2.946  1.00  0.00     0.028 A 
ATOM     15  C   UNL     1     -14.398   3.335   2.669  1.00  0.00     0.041 A 
ATOM     16  C   UNL     1     -14.060   3.082   1.273  1.00  0.00     0.042 A 
ATOM     17  C   UNL     1     -12.737   2.893   0.802  1.00  0.00     0.028 A 
ATOM     18  Cl  UNL     1     -13.673   3.989   5.036  1.00  0.00    -0.084 Cl
ATOM     19  Cl  UNL     1     -15.374   2.912   0.193  1.00  0.00    -0.084 Cl
ENDBRANCH   8  12
BRANCH   7  20
ATOM     20  N   UNL     1      -4.427   2.813   1.330  1.00  0.00     0.062 N 
ATOM     21  O   UNL     1      -3.539   2.929   0.569  1.00  0.00    -0.258 OA
ATOM     22  O   UNL     1      -4.088   2.814   2.591  1.00  0.00    -0.258 OA
ENDBRANCH   7  20
TORSDOF 2
ENDMDL
MODEL 5
REMARK VINA RESULT:    -3.923      5.128      7.592
REMARK INTER + INTRA:          -4.697
REMARK INTER:                  -4.398
REMARK INTRA:                  -0.299
REMARK UNBOUND:                -0.315
REMARK SMILES O=[N+]([O-])c1ccc2c(c1)N[C@@H](c1cc(Cl)cc(Cl)c1)N2
REMARK SMILES IDX 7 1 8 2 5 3 6 4 20 5 10 6 4 7 11 8 9 9 12 12 14 13 13 14
REMARK SMILES IDX 16 15 17 16 19 17 15 18 18 19 2 20 3 21 1 22
REMARK H PARENT 20 10 10 11
ROOT
ATOM      1  C   UNL     1      -8.036   2.857   1.876  1.00  0.00     0.060 A 
ATOM      2  C   UNL     1      -8.260   2.726   0.526  1.00  0.00     0.066 A 
ATOM      3  C   UNL     1      -5.710   3.015   1.541  1.00  0.00     0.088 A 
ATOM      4  C   UNL     1      -6.863   3.222   2.346  1.00  0.00     0.035 A 
ATOM      5  N   UNL     1      -9.304   2.818   2.577  1.00  0.00    -0.360 N 
ATOM      6  N   UNL     1      -9.649   2.647   0.397  1.00  0.00    -0.360 N 
ATOM      7  C   UNL     1      -5.892   2.737   0.188  1.00  0.00     0.271 A 
ATOM      8  C   UNL     1     -10.156   3.230   1.586  1.00  0.00     0.205 C 
ATOM      9  C   UNL     1      -7.216   2.616  -0.336  1.00  0.00     0.113 A 
ATOM     10  H   UNL     1      -9.509   2.553   3.551  1.00  0.00     0.163 HD
ATOM     11  H   UNL     1     -10.186   2.252  -0.388  1.00  0.00     0.163 HD
ENDROOT
BRANCH   8  12
ATOM     12  C   UNL     1     -11.688   3.070   1.792  1.00  0.00    -0.003 A 
ATOM     13  C   UNL     1     -13.919   2.947   0.724  1.00  0.00     0.042 A 
ATOM     14  C   UNL     1     -12.525   2.543   0.782  1.00  0.00     0.028 A 
ATOM     15  C   UNL     1     -14.543   3.371   1.983  1.00  0.00     0.041 A 
ATOM     16  C   UNL     1     -13.650   3.551   3.123  1.00  0.00     0.042 A 
ATOM     17  C   UNL     1     -12.237   3.578   3.023  1.00  0.00     0.028 A 
ATOM     18  Cl  UNL     1     -14.899   2.698  -0.462  1.00  0.00    -0.084 Cl
ATOM     19  Cl  UNL     1     -14.397   3.839   4.633  1.00  0.00    -0.084 Cl
ENDBRANCH   8  12
BRANCH   7  20
ATOM     20  N   UNL     1      -4.859   2.668  -0.724  1.00  0.00     0.062 N 
ATOM     21  O   UNL     1      -3.767   2.416  -0.366  1.00  0.00    -0.258 OA
ATOM     22  O   UNL     1      -5.045   2.645  -2.016  1.00  0.00    -0.258 OA
ENDBRANCH   7  20
TORSDOF 2
ENDMDL
MODEL 6
REMARK VINA RESULT:    -3.870      5.133      7.802
REMARK INTER + INTRA:          -4.638
REMARK INTER:                  -4.320
REMARK INTRA:                  -0.318
REMARK UNBOUND:                -0.315
REMARK SMILES O=[N+]([O-])c1ccc2c(c1)N[C@@H](c1cc(Cl)cc(Cl)c1)N2
REMARK SMILES IDX 7 1 8 2 5 3 6 4 20 5 10 6 4 7 11 8 9 9 12 12 14 13 13 14
REMARK SMILES IDX 16 15 17 16 19 17 15 18 18 19 2 20 3 21 1 22
REMARK H PARENT 20 10 10 11
ROOT
ATOM      1  C   UNL     1      -7.933   2.862   1.820  1.00  0.00     0.060 A 
ATOM      2  C   UNL     1      -8.099   2.966   0.460  1.00  0.00     0.066 A 
ATOM      3  C   UNL     1      -5.593   2.712   1.589  1.00  0.00     0.088 A 
ATOM      4  C   UNL     1      -6.746   2.972   2.378  1.00  0.00     0.035 A 
ATOM      5  N   UNL     1      -9.230   2.914   2.466  1.00  0.00    -0.360 N 
ATOM      6  N   UNL     1      -9.476   3.119   0.275  1.00  0.00    -0.360 N 
ATOM      7  C   UNL     1      -5.739   2.666   0.204  1.00  0.00     0.271 A 
ATOM      8  C   UNL     1      -9.956   3.593   1.522  1.00  0.00     0.205 C 
ATOM      9  C   UNL     1      -7.037   2.826  -0.375  1.00  0.00     0.113 A 
ATOM     10  H   UNL     1      -9.524   2.545   3.381  1.00  0.00     0.163 HD
ATOM     11  H   UNL     1     -10.021   2.930  -0.578  1.00  0.00     0.163 HD
ENDROOT
BRANCH   8  12
ATOM     12  C   UNL     1     -11.505   3.639   1.652  1.00  0.00    -0.003 A 
ATOM     13  C   UNL     1     -13.456   3.619   3.177  1.00  0.00     0.042 A 
ATOM     14  C   UNL     1     -12.140   4.122   2.819  1.00  0.00     0.028 A 
ATOM     15  C   UNL     1     -14.304   3.132   2.082  1.00  0.00     0.041 A 
ATOM     16  C   UNL     1     -13.666   2.998   0.777  1.00  0.00     0.042 A 
ATOM     17  C   UNL     1     -12.267   3.073   0.568  1.00  0.00     0.028 A 
ATOM     18  Cl  UNL     1     -14.173   3.816   4.547  1.00  0.00    -0.084 Cl
ATOM     19  Cl  UNL     1     -14.699   2.633  -0.536  1.00  0.00    -0.084 Cl
ENDBRANCH   8  12
BRANCH   7  20
ATOM     20  N   UNL     1      -4.679   2.575  -0.675  1.00  0.00     0.062 N 
ATOM     21  O   UNL     1      -3.594   2.363  -0.275  1.00  0.00    -0.258 OA
ATOM     22  O   UNL     1      -4.827   2.487  -1.969  1.00  0.00    -0.258 OA
ENDBRANCH   7  20
TORSDOF 2
ENDMDL
MODEL 7
REMARK VINA RESULT:    -3.842      0.765      2.155
REMARK INTER + INTRA:          -4.606
REMARK INTER:                  -4.307
REMARK INTRA:                  -0.300
REMARK UNBOUND:                -0.315
REMARK SMILES O=[N+]([O-])c1ccc2c(c1)N[C@@H](c1cc(Cl)cc(Cl)c1)N2
REMARK SMILES IDX 7 1 8 2 5 3 6 4 20 5 10 6 4 7 11 8 9 9 12 12 14 13 13 14
REMARK SMILES IDX 16 15 17 16 19 17 15 18 18 19 2 20 3 21 1 22
REMARK H PARENT 20 10 10 11
ROOT
ATOM      1  C   UNL     1     -12.112   2.963   1.727  1.00  0.00     0.060 A 
ATOM      2  C   UNL     1     -11.601   3.414   2.921  1.00  0.00     0.066 A 
ATOM      3  C   UNL     1     -14.320   3.344   2.454  1.00  0.00     0.088 A 
ATOM      4  C   UNL     1     -13.377   3.140   1.411  1.00  0.00     0.035 A 
ATOM      5  N   UNL     1     -11.021   2.576   0.855  1.00  0.00    -0.360 N 
ATOM      6  N   UNL     1     -10.214   3.341   2.770  1.00  0.00    -0.360 N 
ATOM      7  C   UNL     1     -13.841   3.665   3.722  1.00  0.00     0.271 A 
ATOM      8  C   UNL     1     -10.003   3.339   1.368  1.00  0.00     0.205 C 
ATOM      9  C   UNL     1     -12.431   3.726   3.950  1.00  0.00     0.113 A 
ATOM     10  H   UNL     1     -11.012   1.913   0.068  1.00  0.00     0.163 HD
ATOM     11  H   UNL     1      -9.502   3.298   3.513  1.00  0.00     0.163 HD
ENDROOT
BRANCH   8  12
ATOM     12  C   UNL     1      -8.543   3.043   0.925  1.00  0.00    -0.003 A 
ATOM     13  C   UNL     1      -6.211   2.609   1.638  1.00  0.00     0.042 A 
ATOM     14  C   UNL     1      -7.636   2.353   1.761  1.00  0.00     0.028 A 
ATOM     15  C   UNL     1      -5.728   3.072   0.332  1.00  0.00     0.041 A 
ATOM     16  C   UNL     1      -6.747   3.434  -0.647  1.00  0.00     0.042 A 
ATOM     17  C   UNL     1      -8.120   3.594  -0.337  1.00  0.00     0.028 A 
ATOM     18  Cl  UNL     1      -5.108   2.166   2.646  1.00  0.00    -0.084 Cl
ATOM     19  Cl  UNL     1      -6.192   3.770  -2.228  1.00  0.00    -0.084 Cl
ENDBRANCH   8  12
BRANCH   7  20
ATOM     20  N   UNL     1     -14.653   4.035   4.775  1.00  0.00     0.062 N 
ATOM     21  O   UNL     1     -14.188   4.519   5.740  1.00  0.00    -0.258 OA
ATOM     22  O   UNL     1     -15.954   4.090   4.691  1.00  0.00    -0.258 OA
ENDBRANCH   7  20
TORSDOF 2
ENDMDL
MODEL 8
REMARK VINA RESULT:    -3.780      1.623      2.145
REMARK INTER + INTRA:          -4.537
REMARK INTER:                  -4.244
REMARK INTRA:                  -0.293
REMARK UNBOUND:                -0.315
REMARK SMILES O=[N+]([O-])c1ccc2c(c1)N[C@@H](c1cc(Cl)cc(Cl)c1)N2
REMARK SMILES IDX 7 1 8 2 5 3 6 4 20 5 10 6 4 7 11 8 9 9 12 12 14 13 13 14
REMARK SMILES IDX 16 15 17 16 19 17 15 18 18 19 2 20 3 21 1 22
REMARK H PARENT 20 10 10 11
ROOT
ATOM      1  C   UNL     1     -12.087   3.432   1.912  1.00  0.00     0.060 A 
ATOM      2  C   UNL     1     -12.130   2.964   0.621  1.00  0.00     0.066 A 
ATOM      3  C   UNL     1     -14.434   3.332   2.096  1.00  0.00     0.088 A 
ATOM      4  C   UNL     1     -13.146   3.393   2.694  1.00  0.00     0.035 A 
ATOM      5  N   UNL     1     -10.708   3.663   2.292  1.00  0.00    -0.360 N 
ATOM      6  N   UNL     1     -10.793   2.872   0.226  1.00  0.00    -0.360 N 
ATOM      7  C   UNL     1     -14.519   2.998   0.746  1.00  0.00     0.271 A 
ATOM      8  C   UNL     1     -10.063   2.805   1.439  1.00  0.00     0.205 C 
ATOM      9  C   UNL     1     -13.322   2.782  -0.005  1.00  0.00     0.113 A 
ATOM     10  H   UNL     1     -10.319   4.296   3.005  1.00  0.00     0.163 HD
ATOM     11  H   UNL     1     -10.421   2.855  -0.734  1.00  0.00     0.163 HD
ENDROOT
BRANCH   8  12
ATOM     12  C   UNL     1      -8.520   2.916   1.282  1.00  0.00    -0.003 A 
ATOM     13  C   UNL     1      -6.608   3.116  -0.278  1.00  0.00     0.042 A 
ATOM     14  C   UNL     1      -7.929   3.536   0.158  1.00  0.00     0.028 A 
ATOM     15  C   UNL     1      -5.719   2.547   0.741  1.00  0.00     0.041 A 
ATOM     16  C   UNL     1      -6.319   2.260   2.039  1.00  0.00     0.042 A 
ATOM     17  C   UNL     1      -7.714   2.267   2.285  1.00  0.00     0.028 A 
ATOM     18  Cl  UNL     1      -5.931   3.476  -1.636  1.00  0.00    -0.084 Cl
ATOM     19  Cl  UNL     1      -5.244   1.796   3.285  1.00  0.00    -0.084 Cl
ENDBRANCH   8  12
BRANCH   7  20
ATOM     20  N   UNL     1     -15.710   2.758   0.092  1.00  0.00     0.062 N 
ATOM     21  O   UNL     1     -15.982   1.672  -0.265  1.00  0.00    -0.258 OA
ATOM     22  O   UNL     1     -16.681   3.628   0.030  1.00  0.00    -0.258 OA
ENDBRANCH   7  20
TORSDOF 2
ENDMDL
MODEL 9
REMARK VINA RESULT:    -3.625      4.006      5.808
REMARK INTER + INTRA:          -4.363
REMARK INTER:                  -4.072
REMARK INTRA:                  -0.292
REMARK UNBOUND:                -0.315
REMARK SMILES O=[N+]([O-])c1ccc2c(c1)N[C@@H](c1cc(Cl)cc(Cl)c1)N2
REMARK SMILES IDX 7 1 8 2 5 3 6 4 20 5 10 6 4 7 11 8 9 9 12 12 14 13 13 14
REMARK SMILES IDX 16 15 17 16 19 17 15 18 18 19 2 20 3 21 1 22
REMARK H PARENT 20 10 10 11
ROOT
ATOM      1  C   UNL     1     -15.022   4.430   5.649  1.00  0.00     0.060 A 
ATOM      2  C   UNL     1     -13.994   5.321   5.842  1.00  0.00     0.066 A 
ATOM      3  C   UNL     1     -16.325   5.474   7.311  1.00  0.00     0.088 A 
ATOM      4  C   UNL     1     -16.213   4.630   6.173  1.00  0.00     0.035 A 
ATOM      5  N   UNL     1     -14.652   3.491   4.609  1.00  0.00    -0.360 N 
ATOM      6  N   UNL     1     -13.022   4.959   4.906  1.00  0.00    -0.360 N 
ATOM      7  C   UNL     1     -15.248   6.296   7.631  1.00  0.00     0.271 A 
ATOM      8  C   UNL     1     -13.729   4.229   3.916  1.00  0.00     0.205 C 
ATOM      9  C   UNL     1     -14.053   6.232   6.849  1.00  0.00     0.113 A 
ATOM     10  H   UNL     1     -14.991   2.534   4.436  1.00  0.00     0.163 HD
ATOM     11  H   UNL     1     -12.015   5.174   4.929  1.00  0.00     0.163 HD
ENDROOT
BRANCH   8  12
ATOM     12  C   UNL     1     -12.834   3.521   2.861  1.00  0.00    -0.003 A 
ATOM     13  C   UNL     1     -10.540   3.151   2.005  1.00  0.00     0.042 A 
ATOM     14  C   UNL     1     -11.476   3.225   3.114  1.00  0.00     0.028 A 
ATOM     15  C   UNL     1     -11.090   2.793   0.692  1.00  0.00     0.041 A 
ATOM     16  C   UNL     1     -12.544   2.756   0.585  1.00  0.00     0.042 A 
ATOM     17  C   UNL     1     -13.423   3.269   1.570  1.00  0.00     0.028 A 
ATOM     18  Cl  UNL     1      -8.985   3.121   2.115  1.00  0.00    -0.084 Cl
ATOM     19  Cl  UNL     1     -13.180   2.138  -0.877  1.00  0.00    -0.084 Cl
ENDBRANCH   8  12
BRANCH   7  20
ATOM     20  N   UNL     1     -15.289   7.265   8.613  1.00  0.00     0.062 N 
ATOM     21  O   UNL     1     -14.854   7.044   9.683  1.00  0.00    -0.258 OA
ATOM     22  O   UNL     1     -15.586   8.513   8.375  1.00  0.00    -0.258 OA
ENDBRANCH   7  20
TORSDOF 2
ENDMDL
