MODEL 1
REMARK VINA RESULT:    -4.456      0.000      0.000
REMARK INTER + INTRA:          -5.292
REMARK INTER:                  -4.977
REMARK INTRA:                  -0.315
REMARK UNBOUND:                -0.315
REMARK SMILES O=[N+]([O-])c1ccc2c(c1)N[C@@H](c1cc(Cl)cc(Cl)c1)N2
REMARK SMILES IDX 7 1 8 2 5 3 6 4 20 5 10 6 4 7 11 8 9 9 12 12 14 13 13 14
REMARK SMILES IDX 16 15 17 16 19 17 15 18 18 19 2 20 3 21 1 22
REMARK H PARENT 20 10 10 11
ROOT
ATOM      1  C   UNL     1       6.481  -5.146   6.611  1.00  0.00     0.060 A 
ATOM      2  C   UNL     1       7.101  -5.896   5.641  1.00  0.00     0.066 A 
ATOM      3  C   UNL     1       7.866  -6.049   8.289  1.00  0.00     0.088 A 
ATOM      4  C   UNL     1       6.982  -5.038   7.822  1.00  0.00     0.035 A 
ATOM      5  N   UNL     1       5.445  -4.336   5.999  1.00  0.00    -0.360 N 
ATOM      6  N   UNL     1       6.482  -5.524   4.445  1.00  0.00    -0.360 N 
ATOM      7  C   UNL     1       8.412  -6.928   7.356  1.00  0.00     0.271 A 
ATOM      8  C   UNL     1       5.913  -4.253   4.714  1.00  0.00     0.205 C 
ATOM      9  C   UNL     1       8.033  -6.825   5.982  1.00  0.00     0.113 A 
ATOM     10  H   UNL     1       4.594  -3.934   6.416  1.00  0.00     0.163 HD
ATOM     11  H   UNL     1       6.446  -6.055   3.563  1.00  0.00     0.163 HD
ENDROOT
BRANCH   8  12
ATOM     12  C   UNL     1       4.973  -3.709   3.602  1.00  0.00    -0.003 A 
ATOM     13  C   UNL     1       3.290  -2.008   2.964  1.00  0.00     0.042 A 
ATOM     14  C   UNL     1       4.565  -2.356   3.569  1.00  0.00     0.028 A 
ATOM     15  C   UNL     1       2.778  -2.907   1.924  1.00  0.00     0.041 A 
ATOM     16  C   UNL     1       3.488  -4.170   1.750  1.00  0.00     0.042 A 
ATOM     17  C   UNL     1       4.452  -4.667   2.661  1.00  0.00     0.028 A 
ATOM     18  Cl  UNL     1       2.558  -0.637   3.088  1.00  0.00    -0.084 Cl
ATOM     19  Cl  UNL     1       3.025  -5.121   0.407  1.00  0.00    -0.084 Cl
ENDBRANCH   8  12
BRANCH   7  20
ATOM     20  N   UNL     1       9.395  -7.849   7.657  1.00  0.00     0.062 N 
ATOM     21  O   UNL     1      10.072  -8.294   6.805  1.00  0.00    -0.258 OA
ATOM     22  O   UNL     1       9.785  -8.107   8.876  1.00  0.00    -0.258 OA
ENDBRANCH   7  20
TORSDOF 2
ENDMDL
MODEL 2
REMARK VINA RESULT:    -4.445      1.043      2.688
REMARK INTER + INTRA:          -5.281
REMARK INTER:                  -4.965
REMARK INTRA:                  -0.316
REMARK UNBOUND:                -0.315
REMARK SMILES O=[N+]([O-])c1ccc2c(c1)N[C@@H](c1cc(Cl)cc(Cl)c1)N2
REMARK SMILES IDX 7 1 8 2 5 3 6 4 20 5 10 6 4 7 11 8 9 9 12 12 14 13 13 14
REMARK SMILES IDX 16 15 17 16 19 17 15 18 18 19 2 20 3 21 1 22
REMARK H PARENT 20 10 10 11
ROOT
ATOM      1  C   UNL     1       7.102  -5.931   5.541  1.00  0.00     0.060 A 
ATOM      2  C   UNL     1       6.550  -5.231   6.588  1.00  0.00     0.066 A 
ATOM      3  C   UNL     1       8.570  -7.068   6.991  1.00  0.00     0.088 A 
ATOM      4  C   UNL     1       7.893  -6.962   5.746  1.00  0.00     0.035 A 
ATOM      5  N   UNL     1       6.453  -5.536   4.307  1.00  0.00    -0.360 N 
ATOM      6  N   UNL     1       5.550  -4.446   6.008  1.00  0.00    -0.360 N 
ATOM      7  C   UNL     1       8.135  -6.270   8.047  1.00  0.00     0.271 A 
ATOM      8  C   UNL     1       5.247  -5.093   4.783  1.00  0.00     0.205 C 
ATOM      9  C   UNL     1       7.070  -5.341   7.838  1.00  0.00     0.113 A 
ATOM     10  H   UNL     1       6.802  -5.578   3.339  1.00  0.00     0.163 HD
ATOM     11  H   UNL     1       5.126  -3.587   6.388  1.00  0.00     0.163 HD
ENDROOT
BRANCH   8  12
ATOM     12  C   UNL     1       4.309  -4.294   3.836  1.00  0.00    -0.003 A 
ATOM     13  C   UNL     1       3.339  -4.097   1.566  1.00  0.00     0.042 A 
ATOM     14  C   UNL     1       3.677  -4.902   2.727  1.00  0.00     0.028 A 
ATOM     15  C   UNL     1       3.106  -2.666   1.791  1.00  0.00     0.041 A 
ATOM     16  C   UNL     1       3.445  -2.153   3.115  1.00  0.00     0.042 A 
ATOM     17  C   UNL     1       4.189  -2.879   4.077  1.00  0.00     0.028 A 
ATOM     18  Cl  UNL     1       2.910  -4.636   0.167  1.00  0.00    -0.084 Cl
ATOM     19  Cl  UNL     1       2.980  -0.542   3.444  1.00  0.00    -0.084 Cl
ENDBRANCH   8  12
BRANCH   7  20
ATOM     20  N   UNL     1       8.605  -6.388   9.339  1.00  0.00     0.062 N 
ATOM     21  O   UNL     1       7.973  -5.976  10.240  1.00  0.00    -0.258 OA
ATOM     22  O   UNL     1       9.624  -7.137   9.664  1.00  0.00    -0.258 OA
ENDBRANCH   7  20
TORSDOF 2
ENDMDL
MODEL 3
REMARK VINA RESULT:    -4.157      5.126      7.591
REMARK INTER + INTRA:          -4.959
REMARK INTER:                  -4.659
REMARK INTRA:                  -0.300
REMARK UNBOUND:                -0.315
REMARK SMILES O=[N+]([O-])c1ccc2c(c1)N[C@@H](c1cc(Cl)cc(Cl)c1)N2
REMARK SMILES IDX 7 1 8 2 5 3 6 4 20 5 10 6 4 7 11 8 9 9 12 12 14 13 13 14
REMARK SMILES IDX 16 15 17 16 19 17 15 18 18 19 2 20 3 21 1 22
REMARK H PARENT 20 10 10 11
ROOT
ATOM      1  C   UNL     1       4.322  -4.832   3.099  1.00  0.00     0.060 A 
ATOM      2  C   UNL     1       4.136  -3.744   3.918  1.00  0.00     0.066 A 
ATOM      3  C   UNL     1       3.088  -3.820   1.366  1.00  0.00     0.088 A 
ATOM      4  C   UNL     1       4.029  -4.785   1.817  1.00  0.00     0.035 A 
ATOM      5  N   UNL     1       5.112  -5.826   3.797  1.00  0.00    -0.360 N 
ATOM      6  N   UNL     1       4.835  -4.049   5.089  1.00  0.00    -0.360 N 
ATOM      7  C   UNL     1       2.758  -2.771   2.221  1.00  0.00     0.271 A 
ATOM      8  C   UNL     1       5.776  -5.036   4.699  1.00  0.00     0.205 C 
ATOM      9  C   UNL     1       3.327  -2.723   3.532  1.00  0.00     0.113 A 
ATOM     10  H   UNL     1       5.162  -6.845   3.655  1.00  0.00     0.163 HD
ATOM     11  H   UNL     1       4.697  -3.647   6.027  1.00  0.00     0.163 HD
ENDROOT
BRANCH   8  12
ATOM     12  C   UNL     1       6.542  -5.710   5.872  1.00  0.00    -0.003 A 
ATOM     13  C   UNL     1       7.261  -5.552   8.237  1.00  0.00     0.042 A 
ATOM     14  C   UNL     1       6.227  -5.435   7.222  1.00  0.00     0.028 A 
ATOM     15  C   UNL     1       8.362  -6.483   7.962  1.00  0.00     0.041 A 
ATOM     16  C   UNL     1       8.424  -7.036   6.613  1.00  0.00     0.042 A 
ATOM     17  C   UNL     1       7.658  -6.552   5.524  1.00  0.00     0.028 A 
ATOM     18  Cl  UNL     1       7.176  -5.025   9.701  1.00  0.00    -0.084 Cl
ATOM     19  Cl  UNL     1       9.575  -8.273   6.354  1.00  0.00    -0.084 Cl
ENDBRANCH   8  12
BRANCH   7  20
ATOM     20  N   UNL     1       1.980  -1.695   1.847  1.00  0.00     0.062 N 
ATOM     21  O   UNL     1       1.406  -1.706   0.821  1.00  0.00    -0.258 OA
ATOM     22  O   UNL     1       1.649  -0.732   2.665  1.00  0.00    -0.258 OA
ENDBRANCH   7  20
TORSDOF 2
ENDMDL
MODEL 4
REMARK VINA RESULT:    -4.140      4.991      7.647
REMARK INTER + INTRA:          -4.940
REMARK INTER:                  -4.641
REMARK INTRA:                  -0.298
REMARK UNBOUND:                -0.315
REMARK SMILES O=[N+]([O-])c1ccc2c(c1)N[C@@H](c1cc(Cl)cc(Cl)c1)N2
REMARK SMILES IDX 7 1 8 2 5 3 6 4 20 5 10 6 4 7 11 8 9 9 12 12 14 13 13 14
REMARK SMILES IDX 16 15 17 16 19 17 15 18 18 19 2 20 3 21 1 22
REMARK H PARENT 20 10 10 11
ROOT
ATOM      1  C   UNL     1       4.322  -3.373   4.182  1.00  0.00     0.060 A 
ATOM      2  C   UNL     1       4.793  -4.150   3.150  1.00  0.00     0.066 A 
ATOM      3  C   UNL     1       2.630  -2.469   2.815  1.00  0.00     0.088 A 
ATOM      4  C   UNL     1       3.166  -2.750   4.101  1.00  0.00     0.035 A 
ATOM      5  N   UNL     1       5.126  -3.610   5.364  1.00  0.00    -0.360 N 
ATOM      6  N   UNL     1       5.847  -4.883   3.702  1.00  0.00    -0.360 N 
ATOM      7  C   UNL     1       3.173  -3.129   1.716  1.00  0.00     0.271 A 
ATOM      8  C   UNL     1       5.605  -4.867   5.099  1.00  0.00     0.205 C 
ATOM      9  C   UNL     1       4.276  -4.020   1.901  1.00  0.00     0.113 A 
ATOM     10  H   UNL     1       5.292  -3.003   6.179  1.00  0.00     0.163 HD
ATOM     11  H   UNL     1       6.628  -5.334   3.205  1.00  0.00     0.163 HD
ENDROOT
BRANCH   8  12
ATOM     12  C   UNL     1       6.760  -5.434   5.971  1.00  0.00    -0.003 A 
ATOM     13  C   UNL     1       8.484  -7.192   6.234  1.00  0.00     0.042 A 
ATOM     14  C   UNL     1       7.805  -6.204   5.413  1.00  0.00     0.028 A 
ATOM     15  C   UNL     1       8.499  -6.958   7.682  1.00  0.00     0.041 A 
ATOM     16  C   UNL     1       7.653  -5.876   8.175  1.00  0.00     0.042 A 
ATOM     17  C   UNL     1       6.666  -5.226   7.393  1.00  0.00     0.028 A 
ATOM     18  Cl  UNL     1       9.444  -8.309   5.723  1.00  0.00    -0.084 Cl
ATOM     19  Cl  UNL     1       7.829  -5.468   9.825  1.00  0.00    -0.084 Cl
ENDBRANCH   8  12
BRANCH   7  20
ATOM     20  N   UNL     1       2.645  -3.059   0.443  1.00  0.00     0.062 N 
ATOM     21  O   UNL     1       2.086  -2.088   0.086  1.00  0.00    -0.258 OA
ATOM     22  O   UNL     1       2.915  -3.927  -0.493  1.00  0.00    -0.258 OA
ENDBRANCH   7  20
TORSDOF 2
ENDMDL
MODEL 5
REMARK VINA RESULT:    -4.064      1.486      2.132
REMARK INTER + INTRA:          -4.854
REMARK INTER:                  -4.555
REMARK INTRA:                  -0.299
REMARK UNBOUND:                -0.315
REMARK SMILES O=[N+]([O-])c1ccc2c(c1)N[C@@H](c1cc(Cl)cc(Cl)c1)N2
REMARK SMILES IDX 7 1 8 2 5 3 6 4 20 5 10 6 4 7 11 8 9 9 12 12 14 13 13 14
REMARK SMILES IDX 16 15 17 16 19 17 15 18 18 19 2 20 3 21 1 22
REMARK H PARENT 20 10 10 11
ROOT
ATOM      1  C   UNL     1       7.209  -5.646   6.102  1.00  0.00     0.060 A 
ATOM      2  C   UNL     1       6.456  -4.876   6.956  1.00  0.00     0.066 A 
ATOM      3  C   UNL     1       8.388  -6.606   7.901  1.00  0.00     0.088 A 
ATOM      4  C   UNL     1       7.961  -6.630   6.546  1.00  0.00     0.035 A 
ATOM      5  N   UNL     1       6.805  -5.380   4.736  1.00  0.00    -0.360 N 
ATOM      6  N   UNL     1       5.575  -4.176   6.128  1.00  0.00    -0.360 N 
ATOM      7  C   UNL     1       7.746  -5.735   8.779  1.00  0.00     0.271 A 
ATOM      8  C   UNL     1       5.523  -4.935   4.932  1.00  0.00     0.205 C 
ATOM      9  C   UNL     1       6.727  -4.861   8.287  1.00  0.00     0.113 A 
ATOM     10  H   UNL     1       7.334  -5.493   3.859  1.00  0.00     0.163 HD
ATOM     11  H   UNL     1       5.074  -3.301   6.340  1.00  0.00     0.163 HD
ENDROOT
BRANCH   8  12
ATOM     12  C   UNL     1       4.773  -4.252   3.754  1.00  0.00    -0.003 A 
ATOM     13  C   UNL     1       3.426  -2.314   3.004  1.00  0.00     0.042 A 
ATOM     14  C   UNL     1       4.579  -2.853   3.707  1.00  0.00     0.028 A 
ATOM     15  C   UNL     1       2.873  -3.123   1.912  1.00  0.00     0.041 A 
ATOM     16  C   UNL     1       3.395  -4.479   1.780  1.00  0.00     0.042 A 
ATOM     17  C   UNL     1       4.194  -5.118   2.760  1.00  0.00     0.028 A 
ATOM     18  Cl  UNL     1       2.903  -0.848   3.087  1.00  0.00    -0.084 Cl
ATOM     19  Cl  UNL     1       2.907  -5.346   0.389  1.00  0.00    -0.084 Cl
ENDBRANCH   8  12
BRANCH   7  20
ATOM     20  N   UNL     1       7.961  -5.726  10.142  1.00  0.00     0.062 N 
ATOM     21  O   UNL     1       7.184  -5.215  10.861  1.00  0.00    -0.258 OA
ATOM     22  O   UNL     1       8.875  -6.451  10.727  1.00  0.00    -0.258 OA
ENDBRANCH   7  20
TORSDOF 2
ENDMDL
MODEL 6
REMARK VINA RESULT:    -4.059      3.772      4.844
REMARK INTER + INTRA:          -4.849
REMARK INTER:                  -4.544
REMARK INTRA:                  -0.305
REMARK UNBOUND:                -0.315
REMARK SMILES O=[N+]([O-])c1ccc2c(c1)N[C@@H](c1cc(Cl)cc(Cl)c1)N2
REMARK SMILES IDX 7 1 8 2 5 3 6 4 20 5 10 6 4 7 11 8 9 9 12 12 14 13 13 14
REMARK SMILES IDX 16 15 17 16 19 17 15 18 18 19 2 20 3 21 1 22
REMARK H PARENT 20 10 10 11
ROOT
ATOM      1  C   UNL     1       7.510  -5.280   9.913  1.00  0.00     0.060 A 
ATOM      2  C   UNL     1       6.151  -5.333  10.108  1.00  0.00     0.066 A 
ATOM      3  C   UNL     1       7.920  -5.757  12.183  1.00  0.00     0.088 A 
ATOM      4  C   UNL     1       8.353  -5.703  10.831  1.00  0.00     0.035 A 
ATOM      5  N   UNL     1       7.783  -4.986   8.520  1.00  0.00    -0.360 N 
ATOM      6  N   UNL     1       5.596  -5.114   8.844  1.00  0.00    -0.360 N 
ATOM      7  C   UNL     1       6.554  -5.672  12.442  1.00  0.00     0.271 A 
ATOM      8  C   UNL     1       6.632  -5.444   7.934  1.00  0.00     0.205 C 
ATOM      9  C   UNL     1       5.641  -5.479  11.359  1.00  0.00     0.113 A 
ATOM     10  H   UNL     1       8.612  -4.553   8.089  1.00  0.00     0.163 HD
ATOM     11  H   UNL     1       4.646  -4.784   8.623  1.00  0.00     0.163 HD
ENDROOT
BRANCH   8  12
ATOM     12  C   UNL     1       6.342  -5.077   6.451  1.00  0.00    -0.003 A 
ATOM     13  C   UNL     1       6.501  -3.360   4.674  1.00  0.00     0.042 A 
ATOM     14  C   UNL     1       7.108  -4.112   5.760  1.00  0.00     0.028 A 
ATOM     15  C   UNL     1       5.391  -4.000   3.959  1.00  0.00     0.041 A 
ATOM     16  C   UNL     1       4.867  -5.231   4.541  1.00  0.00     0.042 A 
ATOM     17  C   UNL     1       5.191  -5.692   5.841  1.00  0.00     0.028 A 
ATOM     18  Cl  UNL     1       7.088  -2.083   4.001  1.00  0.00    -0.084 Cl
ATOM     19  Cl  UNL     1       3.722  -6.085   3.602  1.00  0.00    -0.084 Cl
ENDBRANCH   8  12
BRANCH   7  20
ATOM     20  N   UNL     1       5.998  -5.864  13.690  1.00  0.00     0.062 N 
ATOM     21  O   UNL     1       5.961  -4.981  14.465  1.00  0.00    -0.258 OA
ATOM     22  O   UNL     1       5.295  -6.918  14.006  1.00  0.00    -0.258 OA
ENDBRANCH   7  20
TORSDOF 2
ENDMDL
MODEL 7
REMARK VINA RESULT:    -4.034      0.698      2.118
REMARK INTER + INTRA:          -4.822
REMARK INTER:                  -4.522
REMARK INTRA:                  -0.300
REMARK UNBOUND:                -0.315
REMARK SMILES O=[N+]([O-])c1ccc2c(c1)N[C@@H](c1cc(Cl)cc(Cl)c1)N2
REMARK SMILES IDX 7 1 8 2 5 3 6 4 20 5 10 6 4 7 11 8 9 9 12 12 14 13 13 14
REMARK SMILES IDX 16 15 17 16 19 17 15 18 18 19 2 20 3 21 1 22
REMARK H PARENT 20 10 10 11
ROOT
ATOM      1  C   UNL     1       6.713  -5.653   6.448  1.00  0.00     0.060 A 
ATOM      2  C   UNL     1       7.185  -6.258   5.308  1.00  0.00     0.066 A 
ATOM      3  C   UNL     1       8.359  -6.706   7.765  1.00  0.00     0.088 A 
ATOM      4  C   UNL     1       7.398  -5.677   7.572  1.00  0.00     0.035 A 
ATOM      5  N   UNL     1       5.583  -4.811   6.111  1.00  0.00    -0.360 N 
ATOM      6  N   UNL     1       6.379  -5.764   4.278  1.00  0.00    -0.360 N 
ATOM      7  C   UNL     1       8.764  -7.445   6.656  1.00  0.00     0.271 A 
ATOM      8  C   UNL     1       5.841  -4.556   4.790  1.00  0.00     0.205 C 
ATOM      9  C   UNL     1       8.171  -7.189   5.380  1.00  0.00     0.113 A 
ATOM     10  H   UNL     1       4.801  -4.492   6.701  1.00  0.00     0.163 HD
ATOM     11  H   UNL     1       6.213  -6.185   3.353  1.00  0.00     0.163 HD
ENDROOT
BRANCH   8  12
ATOM     12  C   UNL     1       4.729  -3.912   3.914  1.00  0.00    -0.003 A 
ATOM     13  C   UNL     1       3.495  -3.963   1.768  1.00  0.00     0.042 A 
ATOM     14  C   UNL     1       4.037  -4.650   2.928  1.00  0.00     0.028 A 
ATOM     15  C   UNL     1       3.154  -2.545   1.933  1.00  0.00     0.041 A 
ATOM     16  C   UNL     1       3.590  -1.911   3.173  1.00  0.00     0.042 A 
ATOM     17  C   UNL     1       4.504  -2.499   4.082  1.00  0.00     0.028 A 
ATOM     18  Cl  UNL     1       2.963  -4.636   0.467  1.00  0.00    -0.084 Cl
ATOM     19  Cl  UNL     1       3.015  -0.327   3.457  1.00  0.00    -0.084 Cl
ENDBRANCH   8  12
BRANCH   7  20
ATOM     20  N   UNL     1       9.795  -8.362   6.683  1.00  0.00     0.062 N 
ATOM     21  O   UNL     1      10.290  -8.728   5.681  1.00  0.00    -0.258 OA
ATOM     22  O   UNL     1      10.425  -8.699   7.776  1.00  0.00    -0.258 OA
ENDBRANCH   7  20
TORSDOF 2
ENDMDL
MODEL 8
REMARK VINA RESULT:    -3.449      5.115      7.480
REMARK INTER + INTRA:          -4.168
REMARK INTER:                  -3.872
REMARK INTRA:                  -0.296
REMARK UNBOUND:                -0.315
REMARK SMILES O=[N+]([O-])c1ccc2c(c1)N[C@@H](c1cc(Cl)cc(Cl)c1)N2
REMARK SMILES IDX 7 1 8 2 5 3 6 4 20 5 10 6 4 7 11 8 9 9 12 12 14 13 13 14
REMARK SMILES IDX 16 15 17 16 19 17 15 18 18 19 2 20 3 21 1 22
REMARK H PARENT 20 10 10 11
ROOT
ATOM      1  C   UNL     1       6.575  -4.231   5.659  1.00  0.00     0.060 A 
ATOM      2  C   UNL     1       5.676  -5.270   5.638  1.00  0.00     0.066 A 
ATOM      3  C   UNL     1       5.929  -3.542   3.501  1.00  0.00     0.088 A 
ATOM      4  C   UNL     1       6.543  -3.276   4.755  1.00  0.00     0.035 A 
ATOM      5  N   UNL     1       7.286  -4.239   6.922  1.00  0.00    -0.360 N 
ATOM      6  N   UNL     1       5.805  -5.884   6.887  1.00  0.00    -0.360 N 
ATOM      7  C   UNL     1       5.117  -4.669   3.391  1.00  0.00     0.271 A 
ATOM      8  C   UNL     1       6.381  -4.891   7.719  1.00  0.00     0.205 C 
ATOM      9  C   UNL     1       4.969  -5.545   4.511  1.00  0.00     0.113 A 
ATOM     10  H   UNL     1       8.214  -3.859   7.157  1.00  0.00     0.163 HD
ATOM     11  H   UNL     1       5.540  -6.845   7.145  1.00  0.00     0.163 HD
ENDROOT
BRANCH   8  12
ATOM     12  C   UNL     1       6.833  -5.392   9.119  1.00  0.00    -0.003 A 
ATOM     13  C   UNL     1       6.348  -5.466  11.547  1.00  0.00     0.042 A 
ATOM     14  C   UNL     1       5.909  -5.603  10.168  1.00  0.00     0.028 A 
ATOM     15  C   UNL     1       7.769  -5.710  11.821  1.00  0.00     0.041 A 
ATOM     16  C   UNL     1       8.640  -5.853  10.659  1.00  0.00     0.042 A 
ATOM     17  C   UNL     1       8.250  -5.536   9.335  1.00  0.00     0.028 A 
ATOM     18  Cl  UNL     1       5.426  -5.381  12.800  1.00  0.00    -0.084 Cl
ATOM     19  Cl  UNL     1      10.247  -6.343  10.974  1.00  0.00    -0.084 Cl
ENDBRANCH   8  12
BRANCH   7  20
ATOM     20  N   UNL     1       4.348  -4.953   2.281  1.00  0.00     0.062 N 
ATOM     21  O   UNL     1       4.630  -4.500   1.233  1.00  0.00    -0.258 OA
ATOM     22  O   UNL     1       3.435  -5.885   2.262  1.00  0.00    -0.258 OA
ENDBRANCH   7  20
TORSDOF 2
ENDMDL
MODEL 9
REMARK VINA RESULT:    -3.393      5.212      7.696
REMARK INTER + INTRA:          -4.105
REMARK INTER:                  -3.809
REMARK INTRA:                  -0.296
REMARK UNBOUND:                -0.315
REMARK SMILES O=[N+]([O-])c1ccc2c(c1)N[C@@H](c1cc(Cl)cc(Cl)c1)N2
REMARK SMILES IDX 7 1 8 2 5 3 6 4 20 5 10 6 4 7 11 8 9 9 12 12 14 13 13 14
REMARK SMILES IDX 16 15 17 16 19 17 15 18 18 19 2 20 3 21 1 22
REMARK H PARENT 20 10 10 11
ROOT
ATOM      1  C   UNL     1       5.875  -6.031   5.214  1.00  0.00     0.060 A 
ATOM      2  C   UNL     1       6.648  -4.901   5.088  1.00  0.00     0.066 A 
ATOM      3  C   UNL     1       3.941  -4.862   4.547  1.00  0.00     0.088 A 
ATOM      4  C   UNL     1       4.647  -6.080   4.743  1.00  0.00     0.035 A 
ATOM      5  N   UNL     1       6.709  -7.135   5.645  1.00  0.00    -0.360 N 
ATOM      6  N   UNL     1       7.945  -5.315   5.400  1.00  0.00    -0.360 N 
ATOM      7  C   UNL     1       4.666  -3.672   4.554  1.00  0.00     0.271 A 
ATOM      8  C   UNL     1       7.935  -6.718   5.196  1.00  0.00     0.205 C 
ATOM      9  C   UNL     1       6.073  -3.703   4.807  1.00  0.00     0.113 A 
ATOM     10  H   UNL     1       6.452  -7.996   6.148  1.00  0.00     0.163 HD
ATOM     11  H   UNL     1       8.735  -4.730   5.710  1.00  0.00     0.163 HD
ENDROOT
BRANCH   8  12
ATOM     12  C   UNL     1       9.210  -7.460   5.685  1.00  0.00    -0.003 A 
ATOM     13  C   UNL     1      11.333  -8.566   5.052  1.00  0.00     0.042 A 
ATOM     14  C   UNL     1      10.411  -7.449   4.940  1.00  0.00     0.028 A 
ATOM     15  C   UNL     1      11.309  -9.327   6.306  1.00  0.00     0.041 A 
ATOM     16  C   UNL     1      10.219  -9.026   7.228  1.00  0.00     0.042 A 
ATOM     17  C   UNL     1       9.086  -8.247   6.886  1.00  0.00     0.028 A 
ATOM     18  Cl  UNL     1      12.542  -8.857   4.112  1.00  0.00    -0.084 Cl
ATOM     19  Cl  UNL     1      10.308  -9.757   8.771  1.00  0.00    -0.084 Cl
ENDBRANCH   8  12
BRANCH   7  20
ATOM     20  N   UNL     1       4.126  -2.445   4.225  1.00  0.00     0.062 N 
ATOM     21  O   UNL     1       2.980  -2.239   4.390  1.00  0.00    -0.258 OA
ATOM     22  O   UNL     1       4.850  -1.397   3.943  1.00  0.00    -0.258 OA
ENDBRANCH   7  20
TORSDOF 2
ENDMDL
