MODEL 1
REMARK VINA RESULT:    -4.230      0.000      0.000
REMARK INTER + INTRA:          -5.040
REMARK INTER:                  -4.724
REMARK INTRA:                  -0.315
REMARK UNBOUND:                -0.315
REMARK SMILES O=[N+]([O-])c1ccc2c(c1)N[C@@H](c1cc(Cl)cc(Cl)c1)N2
REMARK SMILES IDX 7 1 8 2 5 3 6 4 20 5 10 6 4 7 11 8 9 9 12 12 14 13 13 14
REMARK SMILES IDX 16 15 17 16 19 17 15 18 18 19 2 20 3 21 1 22
REMARK H PARENT 20 10 10 11
ROOT
ATOM      1  C   UNL     1     -12.075   4.107  -1.895  1.00  0.00     0.060 A 
ATOM      2  C   UNL     1     -11.984   4.714  -0.666  1.00  0.00     0.066 A 
ATOM      3  C   UNL     1     -14.210   5.029  -2.266  1.00  0.00     0.088 A 
ATOM      4  C   UNL     1     -13.017   4.431  -2.754  1.00  0.00     0.035 A 
ATOM      5  N   UNL     1     -10.867   3.345  -2.143  1.00  0.00    -0.360 N 
ATOM      6  N   UNL     1     -10.721   4.362  -0.182  1.00  0.00    -0.360 N 
ATOM      7  C   UNL     1     -14.211   5.535  -0.968  1.00  0.00     0.271 A 
ATOM      8  C   UNL     1      -9.978   4.008  -1.337  1.00  0.00     0.205 C 
ATOM      9  C   UNL     1     -13.044   5.393  -0.154  1.00  0.00     0.113 A 
ATOM     10  H   UNL     1     -10.716   2.531  -2.756  1.00  0.00     0.163 HD
ATOM     11  H   UNL     1     -10.400   4.361   0.796  1.00  0.00     0.163 HD
ENDROOT
BRANCH   8  12
ATOM     12  C   UNL     1      -8.592   3.365  -1.053  1.00  0.00    -0.003 A 
ATOM     13  C   UNL     1      -6.645   2.147  -1.979  1.00  0.00     0.042 A 
ATOM     14  C   UNL     1      -7.613   3.228  -2.063  1.00  0.00     0.028 A 
ATOM     15  C   UNL     1      -6.329   1.638  -0.640  1.00  0.00     0.041 A 
ATOM     16  C   UNL     1      -7.170   2.115   0.453  1.00  0.00     0.042 A 
ATOM     17  C   UNL     1      -8.384   2.821   0.265  1.00  0.00     0.028 A 
ATOM     18  Cl  UNL     1      -5.694   1.675  -3.120  1.00  0.00    -0.084 Cl
ATOM     19  Cl  UNL     1      -6.674   1.690   2.032  1.00  0.00    -0.084 Cl
ENDBRANCH   8  12
BRANCH   7  20
ATOM     20  N   UNL     1     -15.249   6.270  -0.433  1.00  0.00     0.062 N 
ATOM     21  O   UNL     1     -15.063   6.976   0.488  1.00  0.00    -0.258 OA
ATOM     22  O   UNL     1     -16.404   6.412  -1.025  1.00  0.00    -0.258 OA
ENDBRANCH   7  20
TORSDOF 2
ENDMDL
MODEL 2
REMARK VINA RESULT:    -4.210      1.040      2.683
REMARK INTER + INTRA:          -5.017
REMARK INTER:                  -4.702
REMARK INTRA:                  -0.315
REMARK UNBOUND:                -0.315
REMARK SMILES O=[N+]([O-])c1ccc2c(c1)N[C@@H](c1cc(Cl)cc(Cl)c1)N2
REMARK SMILES IDX 7 1 8 2 5 3 6 4 20 5 10 6 4 7 11 8 9 9 12 12 14 13 13 14
REMARK SMILES IDX 16 15 17 16 19 17 15 18 18 19 2 20 3 21 1 22
REMARK H PARENT 20 10 10 11
ROOT
ATOM      1  C   UNL     1     -11.913   4.732  -0.613  1.00  0.00     0.060 A 
ATOM      2  C   UNL     1     -12.123   4.174  -1.851  1.00  0.00     0.066 A 
ATOM      3  C   UNL     1     -14.054   5.715  -0.620  1.00  0.00     0.088 A 
ATOM      4  C   UNL     1     -12.897   5.269   0.075  1.00  0.00     0.035 A 
ATOM      5  N   UNL     1     -10.591   4.368  -0.143  1.00  0.00    -0.360 N 
ATOM      6  N   UNL     1     -10.962   3.444  -2.120  1.00  0.00    -0.360 N 
ATOM      7  C   UNL     1     -14.239   5.287  -1.933  1.00  0.00     0.271 A 
ATOM      8  C   UNL     1     -10.379   3.212  -0.848  1.00  0.00     0.205 C 
ATOM      9  C   UNL     1     -13.248   4.466  -2.555  1.00  0.00     0.113 A 
ATOM     10  H   UNL     1      -9.980   4.845   0.535  1.00  0.00     0.163 HD
ATOM     11  H   UNL     1     -10.608   3.142  -3.039  1.00  0.00     0.163 HD
ENDROOT
BRANCH   8  12
ATOM     12  C   UNL     1      -8.951   2.601  -0.885  1.00  0.00    -0.003 A 
ATOM     13  C   UNL     1      -6.907   2.036   0.395  1.00  0.00     0.042 A 
ATOM     14  C   UNL     1      -8.355   2.032   0.263  1.00  0.00     0.028 A 
ATOM     15  C   UNL     1      -6.125   2.061  -0.846  1.00  0.00     0.041 A 
ATOM     16  C   UNL     1      -6.870   2.295  -2.079  1.00  0.00     0.042 A 
ATOM     17  C   UNL     1      -8.217   2.730  -2.118  1.00  0.00     0.028 A 
ATOM     18  Cl  UNL     1      -6.102   1.720   1.692  1.00  0.00    -0.084 Cl
ATOM     19  Cl  UNL     1      -5.996   2.116  -3.537  1.00  0.00    -0.084 Cl
ENDBRANCH   8  12
BRANCH   7  20
ATOM     20  N   UNL     1     -15.388   5.524  -2.660  1.00  0.00     0.062 N 
ATOM     21  O   UNL     1     -15.674   4.826  -3.562  1.00  0.00    -0.258 OA
ATOM     22  O   UNL     1     -16.320   6.354  -2.276  1.00  0.00    -0.258 OA
ENDBRANCH   7  20
TORSDOF 2
ENDMDL
MODEL 3
REMARK VINA RESULT:    -3.990      4.983      7.648
REMARK INTER + INTRA:          -4.772
REMARK INTER:                  -4.472
REMARK INTRA:                  -0.300
REMARK UNBOUND:                -0.315
REMARK SMILES O=[N+]([O-])c1ccc2c(c1)N[C@@H](c1cc(Cl)cc(Cl)c1)N2
REMARK SMILES IDX 7 1 8 2 5 3 6 4 20 5 10 6 4 7 11 8 9 9 12 12 14 13 13 14
REMARK SMILES IDX 16 15 17 16 19 17 15 18 18 19 2 20 3 21 1 22
REMARK H PARENT 20 10 10 11
ROOT
ATOM      1  C   UNL     1      -8.425   3.103  -1.936  1.00  0.00     0.060 A 
ATOM      2  C   UNL     1      -8.446   3.223  -0.567  1.00  0.00     0.066 A 
ATOM      3  C   UNL     1      -6.383   1.930  -1.867  1.00  0.00     0.088 A 
ATOM      4  C   UNL     1      -7.578   2.299  -2.542  1.00  0.00     0.035 A 
ATOM      5  N   UNL     1      -9.605   3.737  -2.489  1.00  0.00    -0.360 N 
ATOM      6  N   UNL     1      -9.641   3.887  -0.281  1.00  0.00    -0.360 N 
ATOM      7  C   UNL     1      -6.302   2.164  -0.496  1.00  0.00     0.271 A 
ATOM      8  C   UNL     1     -10.458   3.665  -1.419  1.00  0.00     0.205 C 
ATOM      9  C   UNL     1      -7.386   2.809   0.176  1.00  0.00     0.113 A 
ATOM     10  H   UNL     1      -9.761   4.131  -3.428  1.00  0.00     0.163 HD
ATOM     11  H   UNL     1      -9.878   4.420   0.568  1.00  0.00     0.163 HD
ENDROOT
BRANCH   8  12
ATOM     12  C   UNL     1     -11.777   4.487  -1.449  1.00  0.00    -0.003 A 
ATOM     13  C   UNL     1     -13.489   5.703  -0.136  1.00  0.00     0.042 A 
ATOM     14  C   UNL     1     -12.095   5.422  -0.437  1.00  0.00     0.028 A 
ATOM     15  C   UNL     1     -14.458   5.504  -1.219  1.00  0.00     0.041 A 
ATOM     16  C   UNL     1     -13.963   4.841  -2.421  1.00  0.00     0.042 A 
ATOM     17  C   UNL     1     -12.712   4.182  -2.501  1.00  0.00     0.028 A 
ATOM     18  Cl  UNL     1     -14.022   6.471   1.112  1.00  0.00    -0.084 Cl
ATOM     19  Cl  UNL     1     -15.030   4.797  -3.756  1.00  0.00    -0.084 Cl
ENDBRANCH   8  12
BRANCH   7  20
ATOM     20  N   UNL     1      -5.265   1.715   0.296  1.00  0.00     0.062 N 
ATOM     21  O   UNL     1      -4.287   1.285  -0.194  1.00  0.00    -0.258 OA
ATOM     22  O   UNL     1      -5.197   1.939   1.580  1.00  0.00    -0.258 OA
ENDBRANCH   7  20
TORSDOF 2
ENDMDL
MODEL 4
REMARK VINA RESULT:    -3.980      3.056      4.421
REMARK INTER + INTRA:          -4.761
REMARK INTER:                  -4.456
REMARK INTRA:                  -0.305
REMARK UNBOUND:                -0.315
REMARK SMILES O=[N+]([O-])c1ccc2c(c1)N[C@@H](c1cc(Cl)cc(Cl)c1)N2
REMARK SMILES IDX 7 1 8 2 5 3 6 4 20 5 10 6 4 7 11 8 9 9 12 12 14 13 13 14
REMARK SMILES IDX 16 15 17 16 19 17 15 18 18 19 2 20 3 21 1 22
REMARK H PARENT 20 10 10 11
ROOT
ATOM      1  C   UNL     1     -14.253   6.466   0.951  1.00  0.00     0.060 A 
ATOM      2  C   UNL     1     -13.194   7.314   1.177  1.00  0.00     0.066 A 
ATOM      3  C   UNL     1     -15.789   8.070   1.736  1.00  0.00     0.088 A 
ATOM      4  C   UNL     1     -15.496   6.893   0.995  1.00  0.00     0.035 A 
ATOM      5  N   UNL     1     -13.757   5.218   0.406  1.00  0.00    -0.360 N 
ATOM      6  N   UNL     1     -12.069   6.610   0.741  1.00  0.00    -0.360 N 
ATOM      7  C   UNL     1     -14.730   8.892   2.113  1.00  0.00     0.271 A 
ATOM      8  C   UNL     1     -12.578   5.634  -0.153  1.00  0.00     0.205 C 
ATOM      9  C   UNL     1     -13.390   8.507   1.796  1.00  0.00     0.113 A 
ATOM     10  H   UNL     1     -14.176   4.277   0.432  1.00  0.00     0.163 HD
ATOM     11  H   UNL     1     -11.087   6.765   1.010  1.00  0.00     0.163 HD
ENDROOT
BRANCH   8  12
ATOM     12  C   UNL     1     -11.545   4.569  -0.617  1.00  0.00    -0.003 A 
ATOM     13  C   UNL     1     -10.507   2.364  -0.181  1.00  0.00     0.042 A 
ATOM     14  C   UNL     1     -11.689   3.201  -0.294  1.00  0.00     0.028 A 
ATOM     15  C   UNL     1      -9.328   2.768  -0.956  1.00  0.00     0.041 A 
ATOM     16  C   UNL     1      -9.386   4.080  -1.591  1.00  0.00     0.042 A 
ATOM     17  C   UNL     1     -10.376   5.052  -1.308  1.00  0.00     0.028 A 
ATOM     18  Cl  UNL     1     -10.450   0.933   0.435  1.00  0.00    -0.084 Cl
ATOM     19  Cl  UNL     1      -8.107   4.461  -2.660  1.00  0.00    -0.084 Cl
ENDBRANCH   8  12
BRANCH   7  20
ATOM     20  N   UNL     1     -14.893  10.131   2.698  1.00  0.00     0.062 N 
ATOM     21  O   UNL     1     -14.794  11.109   2.053  1.00  0.00    -0.258 OA
ATOM     22  O   UNL     1     -15.378  10.298   3.898  1.00  0.00    -0.258 OA
ENDBRANCH   7  20
TORSDOF 2
ENDMDL
MODEL 5
REMARK VINA RESULT:    -3.968      5.131      7.596
REMARK INTER + INTRA:          -4.747
REMARK INTER:                  -4.448
REMARK INTRA:                  -0.299
REMARK UNBOUND:                -0.315
REMARK SMILES O=[N+]([O-])c1ccc2c(c1)N[C@@H](c1cc(Cl)cc(Cl)c1)N2
REMARK SMILES IDX 7 1 8 2 5 3 6 4 20 5 10 6 4 7 11 8 9 9 12 12 14 13 13 14
REMARK SMILES IDX 16 15 17 16 19 17 15 18 18 19 2 20 3 21 1 22
REMARK H PARENT 20 10 10 11
ROOT
ATOM      1  C   UNL     1      -8.676   2.732   0.021  1.00  0.00     0.060 A 
ATOM      2  C   UNL     1      -8.597   2.518  -1.334  1.00  0.00     0.066 A 
ATOM      3  C   UNL     1      -6.455   2.010   0.330  1.00  0.00     0.088 A 
ATOM      4  C   UNL     1      -7.603   2.714   0.783  1.00  0.00     0.035 A 
ATOM      5  N   UNL     1      -9.994   3.236   0.350  1.00  0.00    -0.360 N 
ATOM      6  N   UNL     1      -9.837   2.921  -1.836  1.00  0.00    -0.360 N 
ATOM      7  C   UNL     1      -6.393   1.644  -1.013  1.00  0.00     0.271 A 
ATOM      8  C   UNL     1     -10.360   3.794  -0.847  1.00  0.00     0.205 C 
ATOM      9  C   UNL     1      -7.496   1.935  -1.875  1.00  0.00     0.113 A 
ATOM     10  H   UNL     1     -10.514   3.188   1.238  1.00  0.00     0.163 HD
ATOM     11  H   UNL     1     -10.275   2.646  -2.726  1.00  0.00     0.163 HD
ENDROOT
BRANCH   8  12
ATOM     12  C   UNL     1     -11.840   4.216  -1.063  1.00  0.00    -0.003 A 
ATOM     13  C   UNL     1     -13.672   4.585  -2.688  1.00  0.00     0.042 A 
ATOM     14  C   UNL     1     -12.589   3.764  -2.172  1.00  0.00     0.028 A 
ATOM     15  C   UNL     1     -14.324   5.498  -1.741  1.00  0.00     0.041 A 
ATOM     16  C   UNL     1     -13.686   5.648  -0.438  1.00  0.00     0.042 A 
ATOM     17  C   UNL     1     -12.387   5.172  -0.134  1.00  0.00     0.028 A 
ATOM     18  Cl  UNL     1     -14.405   4.390  -4.049  1.00  0.00    -0.084 Cl
ATOM     19  Cl  UNL     1     -14.554   6.542   0.732  1.00  0.00    -0.084 Cl
ENDBRANCH   8  12
BRANCH   7  20
ATOM     20  N   UNL     1      -5.274   1.096  -1.606  1.00  0.00     0.062 N 
ATOM     21  O   UNL     1      -4.398   0.677  -0.945  1.00  0.00    -0.258 OA
ATOM     22  O   UNL     1      -5.209   0.802  -2.876  1.00  0.00    -0.258 OA
ENDBRANCH   7  20
TORSDOF 2
ENDMDL
MODEL 6
REMARK VINA RESULT:    -3.877      1.456      2.114
REMARK INTER + INTRA:          -4.646
REMARK INTER:                  -4.347
REMARK INTRA:                  -0.300
REMARK UNBOUND:                -0.315
REMARK SMILES O=[N+]([O-])c1ccc2c(c1)N[C@@H](c1cc(Cl)cc(Cl)c1)N2
REMARK SMILES IDX 7 1 8 2 5 3 6 4 20 5 10 6 4 7 11 8 9 9 12 12 14 13 13 14
REMARK SMILES IDX 16 15 17 16 19 17 15 18 18 19 2 20 3 21 1 22
REMARK H PARENT 20 10 10 11
ROOT
ATOM      1  C   UNL     1     -12.127   4.762  -1.122  1.00  0.00     0.060 A 
ATOM      2  C   UNL     1     -12.091   4.064  -2.306  1.00  0.00     0.066 A 
ATOM      3  C   UNL     1     -14.343   5.454  -1.522  1.00  0.00     0.088 A 
ATOM      4  C   UNL     1     -13.256   5.230  -0.634  1.00  0.00     0.035 A 
ATOM      5  N   UNL     1     -10.854   4.619  -0.444  1.00  0.00    -0.360 N 
ATOM      6  N   UNL     1     -10.827   3.469  -2.336  1.00  0.00    -0.360 N 
ATOM      7  C   UNL     1     -14.286   4.881  -2.791  1.00  0.00     0.271 A 
ATOM      8  C   UNL     1     -10.411   3.438  -0.980  1.00  0.00     0.205 C 
ATOM      9  C   UNL     1     -13.128   4.140  -3.180  1.00  0.00     0.113 A 
ATOM     10  H   UNL     1     -10.406   5.234   0.250  1.00  0.00     0.163 HD
ATOM     11  H   UNL     1     -10.311   3.129  -3.160  1.00  0.00     0.163 HD
ENDROOT
BRANCH   8  12
ATOM     12  C   UNL     1      -8.931   3.017  -0.759  1.00  0.00    -0.003 A 
ATOM     13  C   UNL     1      -6.849   2.152  -1.783  1.00  0.00     0.042 A 
ATOM     14  C   UNL     1      -7.979   3.066  -1.802  1.00  0.00     0.028 A 
ATOM     15  C   UNL     1      -6.410   1.662  -0.472  1.00  0.00     0.041 A 
ATOM     16  C   UNL     1      -7.277   1.967   0.660  1.00  0.00     0.042 A 
ATOM     17  C   UNL     1      -8.594   2.476   0.533  1.00  0.00     0.028 A 
ATOM     18  Cl  UNL     1      -5.876   1.871  -2.968  1.00  0.00    -0.084 Cl
ATOM     19  Cl  UNL     1      -6.666   1.581   2.209  1.00  0.00    -0.084 Cl
ENDBRANCH   8  12
BRANCH   7  20
ATOM     20  N   UNL     1     -15.338   4.896  -3.684  1.00  0.00     0.062 N 
ATOM     21  O   UNL     1     -15.350   4.156  -4.598  1.00  0.00    -0.258 OA
ATOM     22  O   UNL     1     -16.455   5.535  -3.465  1.00  0.00    -0.258 OA
ENDBRANCH   7  20
TORSDOF 2
ENDMDL
MODEL 7
REMARK VINA RESULT:    -3.875      0.759      2.149
REMARK INTER + INTRA:          -4.643
REMARK INTER:                  -4.343
REMARK INTRA:                  -0.300
REMARK UNBOUND:                -0.315
REMARK SMILES O=[N+]([O-])c1ccc2c(c1)N[C@@H](c1cc(Cl)cc(Cl)c1)N2
REMARK SMILES IDX 7 1 8 2 5 3 6 4 20 5 10 6 4 7 11 8 9 9 12 12 14 13 13 14
REMARK SMILES IDX 16 15 17 16 19 17 15 18 18 19 2 20 3 21 1 22
REMARK H PARENT 20 10 10 11
ROOT
ATOM      1  C   UNL     1     -12.346   4.301  -1.343  1.00  0.00     0.060 A 
ATOM      2  C   UNL     1     -11.945   4.847  -0.147  1.00  0.00     0.066 A 
ATOM      3  C   UNL     1     -14.368   5.508  -1.292  1.00  0.00     0.088 A 
ATOM      4  C   UNL     1     -13.379   4.777  -2.004  1.00  0.00     0.035 A 
ATOM      5  N   UNL     1     -11.320   3.397  -1.824  1.00  0.00    -0.360 N 
ATOM      6  N   UNL     1     -10.674   4.316   0.084  1.00  0.00    -0.360 N 
ATOM      7  C   UNL     1     -14.058   5.963  -0.013  1.00  0.00     0.271 A 
ATOM      8  C   UNL     1     -10.215   3.909  -1.194  1.00  0.00     0.205 C 
ATOM      9  C   UNL     1     -12.790   5.640   0.563  1.00  0.00     0.113 A 
ATOM     10  H   UNL     1     -11.398   2.593  -2.462  1.00  0.00     0.163 HD
ATOM     11  H   UNL     1     -10.179   4.238   0.984  1.00  0.00     0.163 HD
ENDROOT
BRANCH   8  12
ATOM     12  C   UNL     1      -8.900   3.081  -1.185  1.00  0.00    -0.003 A 
ATOM     13  C   UNL     1      -7.048   2.151   0.172  1.00  0.00     0.042 A 
ATOM     14  C   UNL     1      -8.468   2.382  -0.034  1.00  0.00     0.028 A 
ATOM     15  C   UNL     1      -6.201   2.097  -1.025  1.00  0.00     0.041 A 
ATOM     16  C   UNL     1      -6.827   2.492  -2.282  1.00  0.00     0.042 A 
ATOM     17  C   UNL     1      -8.085   3.137  -2.371  1.00  0.00     0.028 A 
ATOM     18  Cl  UNL     1      -6.379   1.664   1.493  1.00  0.00    -0.084 Cl
ATOM     19  Cl  UNL     1      -5.908   2.230  -3.700  1.00  0.00    -0.084 Cl
ENDBRANCH   8  12
BRANCH   7  20
ATOM     20  N   UNL     1     -14.869   6.808   0.717  1.00  0.00     0.062 N 
ATOM     21  O   UNL     1     -14.434   7.402   1.634  1.00  0.00    -0.258 OA
ATOM     22  O   UNL     1     -16.058   7.176   0.323  1.00  0.00    -0.258 OA
ENDBRANCH   7  20
TORSDOF 2
ENDMDL
MODEL 8
REMARK VINA RESULT:    -3.628      4.024      5.855
REMARK INTER + INTRA:          -4.367
REMARK INTER:                  -4.076
REMARK INTRA:                  -0.291
REMARK UNBOUND:                -0.315
REMARK SMILES O=[N+]([O-])c1ccc2c(c1)N[C@@H](c1cc(Cl)cc(Cl)c1)N2
REMARK SMILES IDX 7 1 8 2 5 3 6 4 20 5 10 6 4 7 11 8 9 9 12 12 14 13 13 14
REMARK SMILES IDX 16 15 17 16 19 17 15 18 18 19 2 20 3 21 1 22
REMARK H PARENT 20 10 10 11
ROOT
ATOM      1  C   UNL     1     -15.240   7.509   1.435  1.00  0.00     0.060 A 
ATOM      2  C   UNL     1     -14.026   8.113   1.656  1.00  0.00     0.066 A 
ATOM      3  C   UNL     1     -16.384   9.273   2.499  1.00  0.00     0.088 A 
ATOM      4  C   UNL     1     -16.372   8.154   1.623  1.00  0.00     0.035 A 
ATOM      5  N   UNL     1     -15.033   6.260   0.730  1.00  0.00    -0.360 N 
ATOM      6  N   UNL     1     -13.088   7.264   1.062  1.00  0.00    -0.360 N 
ATOM      7  C   UNL     1     -15.163   9.834   2.868  1.00  0.00     0.271 A 
ATOM      8  C   UNL     1     -13.831   6.509   0.119  1.00  0.00     0.205 C 
ATOM      9  C   UNL     1     -13.946   9.244   2.405  1.00  0.00     0.113 A 
ATOM     10  H   UNL     1     -15.624   5.418   0.696  1.00  0.00     0.163 HD
ATOM     11  H   UNL     1     -12.080   7.202   1.263  1.00  0.00     0.163 HD
ENDROOT
BRANCH   8  12
ATOM     12  C   UNL     1     -13.056   5.329  -0.531  1.00  0.00    -0.003 A 
ATOM     13  C   UNL     1     -10.917   4.092  -0.686  1.00  0.00     0.042 A 
ATOM     14  C   UNL     1     -11.960   4.712   0.113  1.00  0.00     0.028 A 
ATOM     15  C   UNL     1     -11.297   3.604  -2.016  1.00  0.00     0.041 A 
ATOM     16  C   UNL     1     -12.625   3.979  -2.491  1.00  0.00     0.042 A 
ATOM     17  C   UNL     1     -13.440   4.957  -1.869  1.00  0.00     0.028 A 
ATOM     18  Cl  UNL     1      -9.521   3.626  -0.172  1.00  0.00    -0.084 Cl
ATOM     19  Cl  UNL     1     -13.147   3.240  -3.941  1.00  0.00    -0.084 Cl
ENDBRANCH   8  12
BRANCH   7  20
ATOM     20  N   UNL     1     -15.046  11.007   3.584  1.00  0.00     0.062 N 
ATOM     21  O   UNL     1     -15.016  10.984   4.759  1.00  0.00    -0.258 OA
ATOM     22  O   UNL     1     -14.738  12.152   3.037  1.00  0.00    -0.258 OA
ENDBRANCH   7  20
TORSDOF 2
ENDMDL
MODEL 9
REMARK VINA RESULT:    -3.427      5.145      7.508
REMARK INTER + INTRA:          -4.143
REMARK INTER:                  -3.848
REMARK INTRA:                  -0.295
REMARK UNBOUND:                -0.315
REMARK SMILES O=[N+]([O-])c1ccc2c(c1)N[C@@H](c1cc(Cl)cc(Cl)c1)N2
REMARK SMILES IDX 7 1 8 2 5 3 6 4 20 5 10 6 4 7 11 8 9 9 12 12 14 13 13 14
REMARK SMILES IDX 16 15 17 16 19 17 15 18 18 19 2 20 3 21 1 22
REMARK H PARENT 20 10 10 11
ROOT
ATOM      1  C   UNL     1     -10.900   4.475  -2.020  1.00  0.00     0.060 A 
ATOM      2  C   UNL     1     -11.361   3.453  -1.225  1.00  0.00     0.066 A 
ATOM      3  C   UNL     1      -8.725   4.266  -1.138  1.00  0.00     0.088 A 
ATOM      4  C   UNL     1      -9.613   4.714  -2.154  1.00  0.00     0.035 A 
ATOM      5  N   UNL     1     -11.989   4.978  -2.834  1.00  0.00    -0.360 N 
ATOM      6  N   UNL     1     -12.706   3.305  -1.573  1.00  0.00    -0.360 N 
ATOM      7  C   UNL     1      -9.195   3.332  -0.218  1.00  0.00     0.271 A 
ATOM      8  C   UNL     1     -12.810   3.881  -2.865  1.00  0.00     0.205 C 
ATOM      9  C   UNL     1     -10.554   2.895  -0.286  1.00  0.00     0.113 A 
ATOM     10  H   UNL     1     -12.112   5.903  -3.269  1.00  0.00     0.163 HD
ATOM     11  H   UNL     1     -13.456   2.872  -1.015  1.00  0.00     0.163 HD
ENDROOT
BRANCH   8  12
ATOM     12  C   UNL     1     -14.262   4.040  -3.396  1.00  0.00    -0.003 A 
ATOM     13  C   UNL     1     -15.988   3.233  -4.978  1.00  0.00     0.042 A 
ATOM     14  C   UNL     1     -14.962   2.962  -3.985  1.00  0.00     0.028 A 
ATOM     15  C   UNL     1     -16.664   4.533  -4.901  1.00  0.00     0.041 A 
ATOM     16  C   UNL     1     -16.096   5.507  -3.976  1.00  0.00     0.042 A 
ATOM     17  C   UNL     1     -14.830   5.363  -3.355  1.00  0.00     0.028 A 
ATOM     18  Cl  UNL     1     -16.650   2.185  -5.923  1.00  0.00    -0.084 Cl
ATOM     19  Cl  UNL     1     -16.999   6.937  -3.732  1.00  0.00    -0.084 Cl
ENDBRANCH   8  12
BRANCH   7  20
ATOM     20  N   UNL     1      -8.393   2.708   0.716  1.00  0.00     0.062 N 
ATOM     21  O   UNL     1      -7.482   3.280   1.192  1.00  0.00    -0.258 OA
ATOM     22  O   UNL     1      -8.706   1.578   1.288  1.00  0.00    -0.258 OA
ENDBRANCH   7  20
TORSDOF 2
ENDMDL
