MODEL 1
REMARK VINA RESULT:    -4.722      0.000      0.000
REMARK INTER + INTRA:          -5.589
REMARK INTER:                  -5.275
REMARK INTRA:                  -0.315
REMARK UNBOUND:                -0.315
REMARK SMILES O=[N+]([O-])c1ccc2c(c1)N[C@@H](c1cc(Cl)cc(Cl)c1)N2
REMARK SMILES IDX 7 1 8 2 5 3 6 4 20 5 10 6 4 7 11 8 9 9 12 12 14 13 13 14
REMARK SMILES IDX 16 15 17 16 19 17 15 18 18 19 2 20 3 21 1 22
REMARK H PARENT 20 10 10 11
ROOT
ATOM      1  C   UNL     1      -8.157  -4.342   4.045  1.00  0.00     0.060 A 
ATOM      2  C   UNL     1      -8.638  -3.311   3.273  1.00  0.00     0.066 A 
ATOM      3  C   UNL     1     -10.288  -4.731   4.970  1.00  0.00     0.088 A 
ATOM      4  C   UNL     1      -8.967  -5.165   4.675  1.00  0.00     0.035 A 
ATOM      5  N   UNL     1      -6.739  -4.505   3.794  1.00  0.00    -0.360 N 
ATOM      6  N   UNL     1      -7.539  -2.873   2.530  1.00  0.00    -0.360 N 
ATOM      7  C   UNL     1     -10.773  -3.601   4.315  1.00  0.00     0.271 A 
ATOM      8  C   UNL     1      -6.640  -3.969   2.537  1.00  0.00     0.205 C 
ATOM      9  C   UNL     1      -9.921  -2.886   3.416  1.00  0.00     0.113 A 
ATOM     10  H   UNL     1      -6.008  -4.911   4.394  1.00  0.00     0.163 HD
ATOM     11  H   UNL     1      -7.411  -1.957   2.078  1.00  0.00     0.163 HD
ENDROOT
BRANCH   8  12
ATOM     12  C   UNL     1      -5.231  -3.663   1.956  1.00  0.00    -0.003 A 
ATOM     13  C   UNL     1      -2.911  -4.462   1.622  1.00  0.00     0.042 A 
ATOM     14  C   UNL     1      -4.344  -4.694   1.570  1.00  0.00     0.028 A 
ATOM     15  C   UNL     1      -2.455  -3.074   1.484  1.00  0.00     0.041 A 
ATOM     16  C   UNL     1      -3.487  -2.044   1.523  1.00  0.00     0.042 A 
ATOM     17  C   UNL     1      -4.826  -2.281   1.921  1.00  0.00     0.028 A 
ATOM     18  Cl  UNL     1      -1.799  -5.549   1.512  1.00  0.00    -0.084 Cl
ATOM     19  Cl  UNL     1      -2.984  -0.452   1.155  1.00  0.00    -0.084 Cl
ENDBRANCH   8  12
BRANCH   7  20
ATOM     20  N   UNL     1     -12.081  -3.170   4.398  1.00  0.00     0.062 N 
ATOM     21  O   UNL     1     -12.527  -2.464   3.571  1.00  0.00    -0.258 OA
ATOM     22  O   UNL     1     -12.949  -3.676   5.232  1.00  0.00    -0.258 OA
ENDBRANCH   7  20
TORSDOF 2
ENDMDL
MODEL 2
REMARK VINA RESULT:    -4.718      1.075      2.702
REMARK INTER + INTRA:          -5.584
REMARK INTER:                  -5.269
REMARK INTRA:                  -0.315
REMARK UNBOUND:                -0.315
REMARK SMILES O=[N+]([O-])c1ccc2c(c1)N[C@@H](c1cc(Cl)cc(Cl)c1)N2
REMARK SMILES IDX 7 1 8 2 5 3 6 4 20 5 10 6 4 7 11 8 9 9 12 12 14 13 13 14
REMARK SMILES IDX 16 15 17 16 19 17 15 18 18 19 2 20 3 21 1 22
REMARK H PARENT 20 10 10 11
ROOT
ATOM      1  C   UNL     1      -8.613  -3.072   3.236  1.00  0.00     0.060 A 
ATOM      2  C   UNL     1      -8.228  -4.142   4.007  1.00  0.00     0.066 A 
ATOM      3  C   UNL     1     -10.834  -3.235   4.004  1.00  0.00     0.088 A 
ATOM      4  C   UNL     1      -9.784  -2.493   3.399  1.00  0.00     0.035 A 
ATOM      5  N   UNL     1      -7.467  -2.573   2.503  1.00  0.00    -0.360 N 
ATOM      6  N   UNL     1      -6.855  -4.274   3.781  1.00  0.00    -0.360 N 
ATOM      7  C   UNL     1     -10.508  -4.409   4.680  1.00  0.00     0.271 A 
ATOM      8  C   UNL     1      -6.444  -3.003   3.307  1.00  0.00     0.205 C 
ATOM      9  C   UNL     1      -9.151  -4.858   4.701  1.00  0.00     0.113 A 
ATOM     10  H   UNL     1      -7.430  -2.042   1.621  1.00  0.00     0.163 HD
ATOM     11  H   UNL     1      -6.271  -5.110   3.926  1.00  0.00     0.163 HD
ENDROOT
BRANCH   8  12
ATOM     12  C   UNL     1      -4.986  -2.944   2.771  1.00  0.00    -0.003 A 
ATOM     13  C   UNL     1      -3.284  -1.631   1.541  1.00  0.00     0.042 A 
ATOM     14  C   UNL     1      -4.320  -1.716   2.556  1.00  0.00     0.028 A 
ATOM     15  C   UNL     1      -2.566  -2.870   1.217  1.00  0.00     0.041 A 
ATOM     16  C   UNL     1      -3.104  -4.101   1.785  1.00  0.00     0.042 A 
ATOM     17  C   UNL     1      -4.375  -4.196   2.405  1.00  0.00     0.028 A 
ATOM     18  Cl  UNL     1      -2.654  -0.321   0.978  1.00  0.00    -0.084 Cl
ATOM     19  Cl  UNL     1      -2.155  -5.507   1.582  1.00  0.00    -0.084 Cl
ENDBRANCH   8  12
BRANCH   7  20
ATOM     20  N   UNL     1     -11.409  -5.133   5.434  1.00  0.00     0.062 N 
ATOM     21  O   UNL     1     -11.027  -5.889   6.250  1.00  0.00    -0.258 OA
ATOM     22  O   UNL     1     -12.688  -4.877   5.462  1.00  0.00    -0.258 OA
ENDBRANCH   7  20
TORSDOF 2
ENDMDL
MODEL 3
REMARK VINA RESULT:    -4.343      1.515      2.154
REMARK INTER + INTRA:          -5.165
REMARK INTER:                  -4.866
REMARK INTRA:                  -0.299
REMARK UNBOUND:                -0.315
REMARK SMILES O=[N+]([O-])c1ccc2c(c1)N[C@@H](c1cc(Cl)cc(Cl)c1)N2
REMARK SMILES IDX 7 1 8 2 5 3 6 4 20 5 10 6 4 7 11 8 9 9 12 12 14 13 13 14
REMARK SMILES IDX 16 15 17 16 19 17 15 18 18 19 2 20 3 21 1 22
REMARK H PARENT 20 10 10 11
ROOT
ATOM      1  C   UNL     1      -8.729  -3.650   3.461  1.00  0.00     0.060 A 
ATOM      2  C   UNL     1      -8.075  -4.651   4.140  1.00  0.00     0.066 A 
ATOM      3  C   UNL     1     -10.747  -4.118   4.583  1.00  0.00     0.088 A 
ATOM      4  C   UNL     1      -9.925  -3.240   3.826  1.00  0.00     0.035 A 
ATOM      5  N   UNL     1      -7.800  -3.000   2.558  1.00  0.00    -0.360 N 
ATOM      6  N   UNL     1      -6.754  -4.591   3.688  1.00  0.00    -0.360 N 
ATOM      7  C   UNL     1     -10.153  -5.230   5.175  1.00  0.00     0.271 A 
ATOM      8  C   UNL     1      -6.608  -3.277   3.175  1.00  0.00     0.205 C 
ATOM      9  C   UNL     1      -8.762  -5.484   4.964  1.00  0.00     0.113 A 
ATOM     10  H   UNL     1      -7.985  -2.475   1.691  1.00  0.00     0.163 HD
ATOM     11  H   UNL     1      -6.044  -5.336   3.720  1.00  0.00     0.163 HD
ENDROOT
BRANCH   8  12
ATOM     12  C   UNL     1      -5.282  -3.018   2.406  1.00  0.00    -0.003 A 
ATOM     13  C   UNL     1      -3.070  -3.906   1.737  1.00  0.00     0.042 A 
ATOM     14  C   UNL     1      -4.506  -4.076   1.883  1.00  0.00     0.028 A 
ATOM     15  C   UNL     1      -2.576  -2.536   1.558  1.00  0.00     0.041 A 
ATOM     16  C   UNL     1      -3.546  -1.464   1.758  1.00  0.00     0.042 A 
ATOM     17  C   UNL     1      -4.825  -1.653   2.337  1.00  0.00     0.028 A 
ATOM     18  Cl  UNL     1      -2.035  -5.036   1.454  1.00  0.00    -0.084 Cl
ATOM     19  Cl  UNL     1      -3.028   0.112   1.347  1.00  0.00    -0.084 Cl
ENDBRANCH   8  12
BRANCH   7  20
ATOM     20  N   UNL     1     -10.806  -6.068   6.055  1.00  0.00     0.062 N 
ATOM     21  O   UNL     1     -10.195  -6.808   6.734  1.00  0.00    -0.258 OA
ATOM     22  O   UNL     1     -12.071  -5.946   6.355  1.00  0.00    -0.258 OA
ENDBRANCH   7  20
TORSDOF 2
ENDMDL
MODEL 4
REMARK VINA RESULT:    -4.297      4.963      7.630
REMARK INTER + INTRA:          -5.114
REMARK INTER:                  -4.815
REMARK INTRA:                  -0.300
REMARK UNBOUND:                -0.315
REMARK SMILES O=[N+]([O-])c1ccc2c(c1)N[C@@H](c1cc(Cl)cc(Cl)c1)N2
REMARK SMILES IDX 7 1 8 2 5 3 6 4 20 5 10 6 4 7 11 8 9 9 12 12 14 13 13 14
REMARK SMILES IDX 16 15 17 16 19 17 15 18 18 19 2 20 3 21 1 22
REMARK H PARENT 20 10 10 11
ROOT
ATOM      1  C   UNL     1      -4.958  -4.218   2.198  1.00  0.00     0.060 A 
ATOM      2  C   UNL     1      -5.195  -2.885   1.961  1.00  0.00     0.066 A 
ATOM      3  C   UNL     1      -2.690  -3.988   1.603  1.00  0.00     0.088 A 
ATOM      4  C   UNL     1      -3.735  -4.699   2.253  1.00  0.00     0.035 A 
ATOM      5  N   UNL     1      -6.186  -4.851   2.637  1.00  0.00    -0.360 N 
ATOM      6  N   UNL     1      -6.540  -2.694   2.287  1.00  0.00    -0.360 N 
ATOM      7  C   UNL     1      -2.932  -2.672   1.214  1.00  0.00     0.271 A 
ATOM      8  C   UNL     1      -6.859  -3.774   3.150  1.00  0.00     0.205 C 
ATOM      9  C   UNL     1      -4.224  -2.098   1.428  1.00  0.00     0.113 A 
ATOM     10  H   UNL     1      -6.473  -5.839   2.579  1.00  0.00     0.163 HD
ATOM     11  H   UNL     1      -7.163  -1.937   1.970  1.00  0.00     0.163 HD
ENDROOT
BRANCH   8  12
ATOM     12  C   UNL     1      -8.369  -3.918   3.488  1.00  0.00    -0.003 A 
ATOM     13  C   UNL     1     -10.589  -2.821   3.561  1.00  0.00     0.042 A 
ATOM     14  C   UNL     1      -9.353  -3.122   2.857  1.00  0.00     0.028 A 
ATOM     15  C   UNL     1     -11.029  -3.785   4.576  1.00  0.00     0.041 A 
ATOM     16  C   UNL     1     -10.080  -4.834   4.931  1.00  0.00     0.042 A 
ATOM     17  C   UNL     1      -8.716  -4.830   4.548  1.00  0.00     0.028 A 
ATOM     18  Cl  UNL     1     -11.642  -1.749   3.149  1.00  0.00    -0.084 Cl
ATOM     19  Cl  UNL     1     -10.667  -6.072   5.953  1.00  0.00    -0.084 Cl
ENDBRANCH   8  12
BRANCH   7  20
ATOM     20  N   UNL     1      -1.959  -1.830   0.715  1.00  0.00     0.062 N 
ATOM     21  O   UNL     1      -0.895  -2.250   0.443  1.00  0.00    -0.258 OA
ATOM     22  O   UNL     1      -2.205  -0.615   0.307  1.00  0.00    -0.258 OA
ENDBRANCH   7  20
TORSDOF 2
ENDMDL
MODEL 5
REMARK VINA RESULT:    -4.253      5.012      7.435
REMARK INTER + INTRA:          -5.066
REMARK INTER:                  -4.748
REMARK INTRA:                  -0.317
REMARK UNBOUND:                -0.315
REMARK SMILES O=[N+]([O-])c1ccc2c(c1)N[C@@H](c1cc(Cl)cc(Cl)c1)N2
REMARK SMILES IDX 7 1 8 2 5 3 6 4 20 5 10 6 4 7 11 8 9 9 12 12 14 13 13 14
REMARK SMILES IDX 16 15 17 16 19 17 15 18 18 19 2 20 3 21 1 22
REMARK H PARENT 20 10 10 11
ROOT
ATOM      1  C   UNL     1      -4.778  -4.219   2.383  1.00  0.00     0.060 A 
ATOM      2  C   UNL     1      -4.860  -2.873   2.122  1.00  0.00     0.066 A 
ATOM      3  C   UNL     1      -2.545  -4.295   1.636  1.00  0.00     0.088 A 
ATOM      4  C   UNL     1      -3.624  -4.852   2.374  1.00  0.00     0.035 A 
ATOM      5  N   UNL     1      -6.043  -4.680   2.920  1.00  0.00    -0.360 N 
ATOM      6  N   UNL     1      -6.145  -2.504   2.528  1.00  0.00    -0.360 N 
ATOM      7  C   UNL     1      -2.645  -2.968   1.223  1.00  0.00     0.271 A 
ATOM      8  C   UNL     1      -6.538  -3.514   3.442  1.00  0.00     0.205 C 
ATOM      9  C   UNL     1      -3.836  -2.229   1.503  1.00  0.00     0.113 A 
ATOM     10  H   UNL     1      -6.456  -5.624   2.911  1.00  0.00     0.163 HD
ATOM     11  H   UNL     1      -6.687  -1.680   2.229  1.00  0.00     0.163 HD
ENDROOT
BRANCH   8  12
ATOM     12  C   UNL     1      -8.028  -3.456   3.881  1.00  0.00    -0.003 A 
ATOM     13  C   UNL     1      -9.946  -4.676   4.864  1.00  0.00     0.042 A 
ATOM     14  C   UNL     1      -8.541  -4.303   4.889  1.00  0.00     0.028 A 
ATOM     15  C   UNL     1     -10.872  -3.742   4.212  1.00  0.00     0.041 A 
ATOM     16  C   UNL     1     -10.268  -2.642   3.468  1.00  0.00     0.042 A 
ATOM     17  C   UNL     1      -8.891  -2.568   3.144  1.00  0.00     0.028 A 
ATOM     18  Cl  UNL     1     -10.612  -5.805   5.707  1.00  0.00    -0.084 Cl
ATOM     19  Cl  UNL     1     -11.339  -1.442   2.888  1.00  0.00    -0.084 Cl
ENDBRANCH   8  12
BRANCH   7  20
ATOM     20  N   UNL     1      -1.609  -2.269   0.637  1.00  0.00     0.062 N 
ATOM     21  O   UNL     1      -1.805  -1.220   0.145  1.00  0.00    -0.258 OA
ATOM     22  O   UNL     1      -0.353  -2.594   0.784  1.00  0.00    -0.258 OA
ENDBRANCH   7  20
TORSDOF 2
ENDMDL
MODEL 6
REMARK VINA RESULT:    -4.252      0.654      2.100
REMARK INTER + INTRA:          -5.064
REMARK INTER:                  -4.767
REMARK INTRA:                  -0.297
REMARK UNBOUND:                -0.315
REMARK SMILES O=[N+]([O-])c1ccc2c(c1)N[C@@H](c1cc(Cl)cc(Cl)c1)N2
REMARK SMILES IDX 7 1 8 2 5 3 6 4 20 5 10 6 4 7 11 8 9 9 12 12 14 13 13 14
REMARK SMILES IDX 16 15 17 16 19 17 15 18 18 19 2 20 3 21 1 22
REMARK H PARENT 20 10 10 11
ROOT
ATOM      1  C   UNL     1      -8.379  -3.857   4.127  1.00  0.00     0.060 A 
ATOM      2  C   UNL     1      -8.712  -2.807   3.306  1.00  0.00     0.066 A 
ATOM      3  C   UNL     1     -10.641  -4.244   4.659  1.00  0.00     0.088 A 
ATOM      4  C   UNL     1      -9.292  -4.685   4.589  1.00  0.00     0.035 A 
ATOM      5  N   UNL     1      -6.940  -4.030   4.123  1.00  0.00    -0.360 N 
ATOM      6  N   UNL     1      -7.497  -2.365   2.775  1.00  0.00    -0.360 N 
ATOM      7  C   UNL     1     -10.997  -3.096   3.954  1.00  0.00     0.271 A 
ATOM      8  C   UNL     1      -6.620  -3.470   2.914  1.00  0.00     0.205 C 
ATOM      9  C   UNL     1      -9.997  -2.372   3.233  1.00  0.00     0.113 A 
ATOM     10  H   UNL     1      -6.327  -4.456   4.832  1.00  0.00     0.163 HD
ATOM     11  H   UNL     1      -7.286  -1.440   2.372  1.00  0.00     0.163 HD
ENDROOT
BRANCH   8  12
ATOM     12  C   UNL     1      -5.130  -3.166   2.593  1.00  0.00    -0.003 A 
ATOM     13  C   UNL     1      -3.488  -1.518   1.743  1.00  0.00     0.042 A 
ATOM     14  C   UNL     1      -4.622  -1.848   2.591  1.00  0.00     0.028 A 
ATOM     15  C   UNL     1      -2.569  -2.611   1.405  1.00  0.00     0.041 A 
ATOM     16  C   UNL     1      -2.995  -3.957   1.774  1.00  0.00     0.042 A 
ATOM     17  C   UNL     1      -4.308  -4.282   2.198  1.00  0.00     0.028 A 
ATOM     18  Cl  UNL     1      -2.984  -0.084   1.400  1.00  0.00    -0.084 Cl
ATOM     19  Cl  UNL     1      -1.840  -5.199   1.572  1.00  0.00    -0.084 Cl
ENDBRANCH   8  12
BRANCH   7  20
ATOM     20  N   UNL     1     -12.297  -2.653   3.818  1.00  0.00     0.062 N 
ATOM     21  O   UNL     1     -12.665  -2.197   2.799  1.00  0.00    -0.258 OA
ATOM     22  O   UNL     1     -13.235  -2.910   4.689  1.00  0.00    -0.258 OA
ENDBRANCH   7  20
TORSDOF 2
ENDMDL
MODEL 7
REMARK VINA RESULT:    -4.159      4.415      5.899
REMARK INTER + INTRA:          -4.960
REMARK INTER:                  -4.656
REMARK INTRA:                  -0.304
REMARK UNBOUND:                -0.315
REMARK SMILES O=[N+]([O-])c1ccc2c(c1)N[C@@H](c1cc(Cl)cc(Cl)c1)N2
REMARK SMILES IDX 7 1 8 2 5 3 6 4 20 5 10 6 4 7 11 8 9 9 12 12 14 13 13 14
REMARK SMILES IDX 16 15 17 16 19 17 15 18 18 19 2 20 3 21 1 22
REMARK H PARENT 20 10 10 11
ROOT
ATOM      1  C   UNL     1      -9.684  -6.410   7.719  1.00  0.00     0.060 A 
ATOM      2  C   UNL     1     -10.815  -6.727   7.005  1.00  0.00     0.066 A 
ATOM      3  C   UNL     1     -10.321  -7.832   9.486  1.00  0.00     0.088 A 
ATOM      4  C   UNL     1      -9.328  -7.096   8.783  1.00  0.00     0.035 A 
ATOM      5  N   UNL     1      -8.887  -5.468   6.958  1.00  0.00    -0.360 N 
ATOM      6  N   UNL     1     -10.695  -6.020   5.806  1.00  0.00    -0.360 N 
ATOM      7  C   UNL     1     -11.543  -8.058   8.855  1.00  0.00     0.271 A 
ATOM      8  C   UNL     1      -9.308  -5.748   5.684  1.00  0.00     0.205 C 
ATOM      9  C   UNL     1     -11.781  -7.506   7.558  1.00  0.00     0.113 A 
ATOM     10  H   UNL     1      -8.194  -4.779   7.284  1.00  0.00     0.163 HD
ATOM     11  H   UNL     1     -11.447  -5.754   5.154  1.00  0.00     0.163 HD
ENDROOT
BRANCH   8  12
ATOM     12  C   UNL     1      -8.930  -4.775   4.533  1.00  0.00    -0.003 A 
ATOM     13  C   UNL     1      -7.120  -3.557   3.362  1.00  0.00     0.042 A 
ATOM     14  C   UNL     1      -7.645  -4.780   3.945  1.00  0.00     0.028 A 
ATOM     15  C   UNL     1      -8.098  -2.579   2.871  1.00  0.00     0.041 A 
ATOM     16  C   UNL     1      -9.494  -2.831   3.209  1.00  0.00     0.042 A 
ATOM     17  C   UNL     1      -9.917  -3.794   4.158  1.00  0.00     0.028 A 
ATOM     18  Cl  UNL     1      -5.642  -3.304   2.935  1.00  0.00    -0.084 Cl
ATOM     19  Cl  UNL     1     -10.649  -1.813   2.465  1.00  0.00    -0.084 Cl
ENDBRANCH   8  12
BRANCH   7  20
ATOM     20  N   UNL     1     -12.526  -8.881   9.365  1.00  0.00     0.062 N 
ATOM     21  O   UNL     1     -12.425 -10.049   9.278  1.00  0.00    -0.258 OA
ATOM     22  O   UNL     1     -13.479  -8.457  10.149  1.00  0.00    -0.258 OA
ENDBRANCH   7  20
TORSDOF 2
ENDMDL
MODEL 8
REMARK VINA RESULT:    -4.101      3.742      4.781
REMARK INTER + INTRA:          -4.895
REMARK INTER:                  -4.590
REMARK INTRA:                  -0.305
REMARK UNBOUND:                -0.315
REMARK SMILES O=[N+]([O-])c1ccc2c(c1)N[C@@H](c1cc(Cl)cc(Cl)c1)N2
REMARK SMILES IDX 7 1 8 2 5 3 6 4 20 5 10 6 4 7 11 8 9 9 12 12 14 13 13 14
REMARK SMILES IDX 16 15 17 16 19 17 15 18 18 19 2 20 3 21 1 22
REMARK H PARENT 20 10 10 11
ROOT
ATOM      1  C   UNL     1     -10.146  -6.246   5.931  1.00  0.00     0.060 A 
ATOM      2  C   UNL     1      -9.106  -6.102   6.819  1.00  0.00     0.066 A 
ATOM      3  C   UNL     1     -11.494  -7.263   7.573  1.00  0.00     0.088 A 
ATOM      4  C   UNL     1     -11.353  -6.581   6.334  1.00  0.00     0.035 A 
ATOM      5  N   UNL     1      -9.754  -5.704   4.645  1.00  0.00    -0.360 N 
ATOM      6  N   UNL     1      -8.104  -5.447   6.099  1.00  0.00    -0.360 N 
ATOM      7  C   UNL     1     -10.413  -7.267   8.451  1.00  0.00     0.271 A 
ATOM      8  C   UNL     1      -8.785  -4.814   5.028  1.00  0.00     0.205 C 
ATOM      9  C   UNL     1      -9.187  -6.639   8.064  1.00  0.00     0.113 A 
ATOM     10  H   UNL     1     -10.106  -5.927   3.703  1.00  0.00     0.163 HD
ATOM     11  H   UNL     1      -7.094  -5.429   6.301  1.00  0.00     0.163 HD
ENDROOT
BRANCH   8  12
ATOM     12  C   UNL     1      -7.862  -4.190   3.944  1.00  0.00    -0.003 A 
ATOM     13  C   UNL     1      -6.578  -4.555   1.858  1.00  0.00     0.042 A 
ATOM     14  C   UNL     1      -7.799  -4.709   2.631  1.00  0.00     0.028 A 
ATOM     15  C   UNL     1      -5.720  -3.411   2.188  1.00  0.00     0.041 A 
ATOM     16  C   UNL     1      -6.065  -2.667   3.395  1.00  0.00     0.042 A 
ATOM     17  C   UNL     1      -6.995  -3.119   4.364  1.00  0.00     0.028 A 
ATOM     18  Cl  UNL     1      -6.231  -5.295   0.531  1.00  0.00    -0.084 Cl
ATOM     19  Cl  UNL     1      -5.200  -1.218   3.665  1.00  0.00    -0.084 Cl
ENDBRANCH   8  12
BRANCH   7  20
ATOM     20  N   UNL     1     -10.474  -7.758   9.738  1.00  0.00     0.062 N 
ATOM     21  O   UNL     1     -10.505  -8.918   9.930  1.00  0.00    -0.258 OA
ATOM     22  O   UNL     1     -10.275  -7.020  10.797  1.00  0.00    -0.258 OA
ENDBRANCH   7  20
TORSDOF 2
ENDMDL
MODEL 9
REMARK VINA RESULT:    -3.658      5.104      7.478
REMARK INTER + INTRA:          -4.400
REMARK INTER:                  -4.105
REMARK INTRA:                  -0.296
REMARK UNBOUND:                -0.315
REMARK SMILES O=[N+]([O-])c1ccc2c(c1)N[C@@H](c1cc(Cl)cc(Cl)c1)N2
REMARK SMILES IDX 7 1 8 2 5 3 6 4 20 5 10 6 4 7 11 8 9 9 12 12 14 13 13 14
REMARK SMILES IDX 16 15 17 16 19 17 15 18 18 19 2 20 3 21 1 22
REMARK H PARENT 20 10 10 11
ROOT
ATOM      1  C   UNL     1      -7.496  -4.559   3.026  1.00  0.00     0.060 A 
ATOM      2  C   UNL     1      -7.317  -3.481   3.858  1.00  0.00     0.066 A 
ATOM      3  C   UNL     1      -5.909  -3.726   1.497  1.00  0.00     0.088 A 
ATOM      4  C   UNL     1      -6.674  -4.800   2.027  1.00  0.00     0.035 A 
ATOM      5  N   UNL     1      -8.483  -5.450   3.603  1.00  0.00    -0.360 N 
ATOM      6  N   UNL     1      -8.154  -3.725   4.950  1.00  0.00    -0.360 N 
ATOM      7  C   UNL     1      -5.814  -2.554   2.243  1.00  0.00     0.271 A 
ATOM      8  C   UNL     1      -8.373  -5.126   4.930  1.00  0.00     0.205 C 
ATOM      9  C   UNL     1      -6.525  -2.444   3.479  1.00  0.00     0.113 A 
ATOM     10  H   UNL     1      -9.096  -6.138   3.144  1.00  0.00     0.163 HD
ATOM     11  H   UNL     1      -8.528  -3.039   5.622  1.00  0.00     0.163 HD
ENDROOT
BRANCH   8  12
ATOM     12  C   UNL     1      -9.456  -5.633   5.923  1.00  0.00    -0.003 A 
ATOM     13  C   UNL     1      -9.945  -6.979   7.944  1.00  0.00     0.042 A 
ATOM     14  C   UNL     1      -9.140  -5.984   7.255  1.00  0.00     0.028 A 
ATOM     15  C   UNL     1     -11.336  -7.130   7.504  1.00  0.00     0.041 A 
ATOM     16  C   UNL     1     -11.713  -6.425   6.283  1.00  0.00     0.042 A 
ATOM     17  C   UNL     1     -10.783  -5.827   5.397  1.00  0.00     0.028 A 
ATOM     18  Cl  UNL     1      -9.582  -7.687   9.284  1.00  0.00    -0.084 Cl
ATOM     19  Cl  UNL     1     -13.376  -6.431   5.887  1.00  0.00    -0.084 Cl
ENDBRANCH   8  12
BRANCH   7  20
ATOM     20  N   UNL     1      -4.983  -1.502   1.915  1.00  0.00     0.062 N 
ATOM     21  O   UNL     1      -4.495  -0.846   2.759  1.00  0.00    -0.258 OA
ATOM     22  O   UNL     1      -4.512  -1.311   0.712  1.00  0.00    -0.258 OA
ENDBRANCH   7  20
TORSDOF 2
ENDMDL
