MODEL 1
REMARK VINA RESULT:    -4.966      0.000      0.000
REMARK INTER + INTRA:          -5.862
REMARK INTER:                  -5.546
REMARK INTRA:                  -0.315
REMARK UNBOUND:                -0.315
REMARK SMILES O=[N+]([O-])c1ccc2c(c1)N[C@@H](c1cc(Cl)cc(Cl)c1)N2
REMARK SMILES IDX 7 1 8 2 5 3 6 4 20 5 10 6 4 7 11 8 9 9 12 12 14 13 13 14
REMARK SMILES IDX 16 15 17 16 19 17 15 18 18 19 2 20 3 21 1 22
REMARK H PARENT 20 10 10 11
ROOT
ATOM      1  C   UNL     1      -0.974  -0.754  10.966  1.00  0.00     0.060 A 
ATOM      2  C   UNL     1      -0.446  -2.023  10.978  1.00  0.00     0.066 A 
ATOM      3  C   UNL     1      -1.186  -0.748  13.312  1.00  0.00     0.088 A 
ATOM      4  C   UNL     1      -1.112  -0.056  12.073  1.00  0.00     0.035 A 
ATOM      5  N   UNL     1      -1.045  -0.279   9.598  1.00  0.00    -0.360 N 
ATOM      6  N   UNL     1      -0.161  -2.308   9.640  1.00  0.00    -0.360 N 
ATOM      7  C   UNL     1      -0.794  -2.085  13.344  1.00  0.00     0.271 A 
ATOM      8  C   UNL     1      -0.067  -1.040   9.013  1.00  0.00     0.205 C 
ATOM      9  C   UNL     1      -0.386  -2.731  12.136  1.00  0.00     0.113 A 
ATOM     10  H   UNL     1      -1.660   0.434   9.181  1.00  0.00     0.163 HD
ATOM     11  H   UNL     1      -0.046  -3.235   9.206  1.00  0.00     0.163 HD
ENDROOT
BRANCH   8  12
ATOM     12  C   UNL     1       0.031  -1.082   7.462  1.00  0.00    -0.003 A 
ATOM     13  C   UNL     1      -0.043   0.205   5.348  1.00  0.00     0.042 A 
ATOM     14  C   UNL     1       0.435   0.045   6.711  1.00  0.00     0.028 A 
ATOM     15  C   UNL     1      -0.400  -1.018   4.619  1.00  0.00     0.041 A 
ATOM     16  C   UNL     1      -0.445  -2.250   5.398  1.00  0.00     0.042 A 
ATOM     17  C   UNL     1      -0.408  -2.291   6.814  1.00  0.00     0.028 A 
ATOM     18  Cl  UNL     1       0.063   1.497   4.483  1.00  0.00    -0.084 Cl
ATOM     19  Cl  UNL     1      -0.653  -3.698   4.515  1.00  0.00    -0.084 Cl
ENDBRANCH   8  12
BRANCH   7  20
ATOM     20  N   UNL     1      -0.674  -2.819  14.506  1.00  0.00     0.062 N 
ATOM     21  O   UNL     1      -0.048  -3.814  14.518  1.00  0.00    -0.258 OA
ATOM     22  O   UNL     1      -1.032  -2.368  15.678  1.00  0.00    -0.258 OA
ENDBRANCH   7  20
TORSDOF 2
ENDMDL
MODEL 2
REMARK VINA RESULT:    -4.924      1.008      2.662
REMARK INTER + INTRA:          -5.815
REMARK INTER:                  -5.500
REMARK INTRA:                  -0.315
REMARK UNBOUND:                -0.315
REMARK SMILES O=[N+]([O-])c1ccc2c(c1)N[C@@H](c1cc(Cl)cc(Cl)c1)N2
REMARK SMILES IDX 7 1 8 2 5 3 6 4 20 5 10 6 4 7 11 8 9 9 12 12 14 13 13 14
REMARK SMILES IDX 16 15 17 16 19 17 15 18 18 19 2 20 3 21 1 22
REMARK H PARENT 20 10 10 11
ROOT
ATOM      1  C   UNL     1      -0.381  -2.353  10.916  1.00  0.00     0.060 A 
ATOM      2  C   UNL     1      -0.963  -1.115  11.045  1.00  0.00     0.066 A 
ATOM      3  C   UNL     1      -0.478  -2.714  13.242  1.00  0.00     0.088 A 
ATOM      4  C   UNL     1      -0.357  -3.209  11.915  1.00  0.00     0.035 A 
ATOM      5  N   UNL     1      -0.110  -2.610   9.515  1.00  0.00    -0.360 N 
ATOM      6  N   UNL     1      -1.083  -0.634   9.739  1.00  0.00    -0.360 N 
ATOM      7  C   UNL     1      -0.931  -1.409  13.420  1.00  0.00     0.271 A 
ATOM      8  C   UNL     1      -1.037  -1.793   8.923  1.00  0.00     0.205 C 
ATOM      9  C   UNL     1      -1.207  -0.595  12.277  1.00  0.00     0.113 A 
ATOM     10  H   UNL     1       0.586  -3.234   9.084  1.00  0.00     0.163 HD
ATOM     11  H   UNL     1      -1.183   0.345   9.436  1.00  0.00     0.163 HD
ENDROOT
BRANCH   8  12
ATOM     12  C   UNL     1      -0.932  -1.515   7.397  1.00  0.00    -0.003 A 
ATOM     13  C   UNL     1      -0.560  -2.465   5.140  1.00  0.00     0.042 A 
ATOM     14  C   UNL     1      -1.215  -2.513   6.437  1.00  0.00     0.028 A 
ATOM     15  C   UNL     1      -0.135  -1.146   4.658  1.00  0.00     0.041 A 
ATOM     16  C   UNL     1      -0.215  -0.047   5.614  1.00  0.00     0.042 A 
ATOM     17  C   UNL     1      -0.436  -0.221   7.002  1.00  0.00     0.028 A 
ATOM     18  Cl  UNL     1      -0.528  -3.610   4.084  1.00  0.00    -0.084 Cl
ATOM     19  Cl  UNL     1       0.079   1.519   4.995  1.00  0.00    -0.084 Cl
ENDBRANCH   8  12
BRANCH   7  20
ATOM     20  N   UNL     1      -1.235  -0.866  14.651  1.00  0.00     0.062 N 
ATOM     21  O   UNL     1      -1.940   0.072  14.728  1.00  0.00    -0.258 OA
ATOM     22  O   UNL     1      -0.969  -1.461  15.782  1.00  0.00    -0.258 OA
ENDBRANCH   7  20
TORSDOF 2
ENDMDL
MODEL 3
REMARK VINA RESULT:    -4.785     10.999     11.701
REMARK INTER + INTRA:          -5.660
REMARK INTER:                  -5.363
REMARK INTRA:                  -0.297
REMARK UNBOUND:                -0.315
REMARK SMILES O=[N+]([O-])c1ccc2c(c1)N[C@@H](c1cc(Cl)cc(Cl)c1)N2
REMARK SMILES IDX 7 1 8 2 5 3 6 4 20 5 10 6 4 7 11 8 9 9 12 12 14 13 13 14
REMARK SMILES IDX 16 15 17 16 19 17 15 18 18 19 2 20 3 21 1 22
REMARK H PARENT 20 10 10 11
ROOT
ATOM      1  C   UNL     1       1.244  -1.484  -0.526  1.00  0.00     0.060 A 
ATOM      2  C   UNL     1       1.769  -0.265  -0.883  1.00  0.00     0.066 A 
ATOM      3  C   UNL     1       3.393  -2.372  -0.146  1.00  0.00     0.088 A 
ATOM      4  C   UNL     1       1.984  -2.412   0.042  1.00  0.00     0.035 A 
ATOM      5  N   UNL     1      -0.202  -1.425  -0.609  1.00  0.00    -0.360 N 
ATOM      6  N   UNL     1       0.659   0.543  -1.144  1.00  0.00    -0.360 N 
ATOM      7  C   UNL     1       3.958  -1.200  -0.644  1.00  0.00     0.271 A 
ATOM      8  C   UNL     1      -0.411  -0.079  -0.453  1.00  0.00     0.205 C 
ATOM      9  C   UNL     1       3.113  -0.103  -0.997  1.00  0.00     0.113 A 
ATOM     10  H   UNL     1      -0.885  -2.183  -0.746  1.00  0.00     0.163 HD
ATOM     11  H   UNL     1       0.626   1.401  -1.713  1.00  0.00     0.163 HD
ENDROOT
BRANCH   8  12
ATOM     12  C   UNL     1      -1.817   0.507  -0.760  1.00  0.00    -0.003 A 
ATOM     13  C   UNL     1      -3.199   2.546  -1.021  1.00  0.00     0.042 A 
ATOM     14  C   UNL     1      -1.983   1.801  -1.303  1.00  0.00     0.028 A 
ATOM     15  C   UNL     1      -4.405   1.764  -0.725  1.00  0.00     0.041 A 
ATOM     16  C   UNL     1      -4.219   0.330  -0.530  1.00  0.00     0.042 A 
ATOM     17  C   UNL     1      -2.954  -0.288  -0.372  1.00  0.00     0.028 A 
ATOM     18  Cl  UNL     1      -3.430   4.064  -1.290  1.00  0.00    -0.084 Cl
ATOM     19  Cl  UNL     1      -5.642  -0.607  -0.394  1.00  0.00    -0.084 Cl
ENDBRANCH   8  12
BRANCH   7  20
ATOM     20  N   UNL     1       5.318  -0.982  -0.727  1.00  0.00     0.062 N 
ATOM     21  O   UNL     1       5.777   0.043  -0.379  1.00  0.00    -0.258 OA
ATOM     22  O   UNL     1       6.182  -1.932  -0.964  1.00  0.00    -0.258 OA
ENDBRANCH   7  20
TORSDOF 2
ENDMDL
MODEL 4
REMARK VINA RESULT:    -4.603      5.114      7.584
REMARK INTER + INTRA:          -5.456
REMARK INTER:                  -5.157
REMARK INTRA:                  -0.299
REMARK UNBOUND:                -0.315
REMARK SMILES O=[N+]([O-])c1ccc2c(c1)N[C@@H](c1cc(Cl)cc(Cl)c1)N2
REMARK SMILES IDX 7 1 8 2 5 3 6 4 20 5 10 6 4 7 11 8 9 9 12 12 14 13 13 14
REMARK SMILES IDX 16 15 17 16 19 17 15 18 18 19 2 20 3 21 1 22
REMARK H PARENT 20 10 10 11
ROOT
ATOM      1  C   UNL     1      -0.548  -2.051   7.136  1.00  0.00     0.060 A 
ATOM      2  C   UNL     1      -0.653  -0.683   7.225  1.00  0.00     0.066 A 
ATOM      3  C   UNL     1      -0.090  -1.931   4.828  1.00  0.00     0.088 A 
ATOM      4  C   UNL     1      -0.059  -2.634   6.063  1.00  0.00     0.035 A 
ATOM      5  N   UNL     1      -0.771  -2.633   8.444  1.00  0.00    -0.360 N 
ATOM      6  N   UNL     1      -0.899  -0.427   8.576  1.00  0.00    -0.360 N 
ATOM      7  C   UNL     1      -0.335  -0.560   4.856  1.00  0.00     0.271 A 
ATOM      8  C   UNL     1      -0.430  -1.581   9.253  1.00  0.00     0.205 C 
ATOM      9  C   UNL     1      -0.599   0.084   6.105  1.00  0.00     0.113 A 
ATOM     10  H   UNL     1      -1.097  -3.577   8.697  1.00  0.00     0.163 HD
ATOM     11  H   UNL     1      -1.327   0.414   8.989  1.00  0.00     0.163 HD
ENDROOT
BRANCH   8  12
ATOM     12  C   UNL     1      -0.786  -1.644  10.764  1.00  0.00    -0.003 A 
ATOM     13  C   UNL     1      -1.346  -0.373  12.814  1.00  0.00     0.042 A 
ATOM     14  C   UNL     1      -1.536  -0.626  11.396  1.00  0.00     0.028 A 
ATOM     15  C   UNL     1      -0.882  -1.497  13.636  1.00  0.00     0.041 A 
ATOM     16  C   UNL     1      -0.453  -2.692  12.919  1.00  0.00     0.042 A 
ATOM     17  C   UNL     1      -0.232  -2.739  11.520  1.00  0.00     0.028 A 
ATOM     18  Cl  UNL     1      -1.861   0.870  13.603  1.00  0.00    -0.084 Cl
ATOM     19  Cl  UNL     1      -0.113  -4.068  13.875  1.00  0.00    -0.084 Cl
ENDBRANCH   8  12
BRANCH   7  20
ATOM     20  N   UNL     1      -0.241   0.257   3.749  1.00  0.00     0.062 N 
ATOM     21  O   UNL     1      -0.228  -0.207   2.669  1.00  0.00    -0.258 OA
ATOM     22  O   UNL     1      -0.387   1.553   3.801  1.00  0.00    -0.258 OA
ENDBRANCH   7  20
TORSDOF 2
ENDMDL
MODEL 5
REMARK VINA RESULT:    -4.554      0.772      2.158
REMARK INTER + INTRA:          -5.402
REMARK INTER:                  -5.102
REMARK INTRA:                  -0.300
REMARK UNBOUND:                -0.315
REMARK SMILES O=[N+]([O-])c1ccc2c(c1)N[C@@H](c1cc(Cl)cc(Cl)c1)N2
REMARK SMILES IDX 7 1 8 2 5 3 6 4 20 5 10 6 4 7 11 8 9 9 12 12 14 13 13 14
REMARK SMILES IDX 16 15 17 16 19 17 15 18 18 19 2 20 3 21 1 22
REMARK H PARENT 20 10 10 11
ROOT
ATOM      1  C   UNL     1      -0.956  -1.349  11.134  1.00  0.00     0.060 A 
ATOM      2  C   UNL     1      -0.365  -2.553  10.836  1.00  0.00     0.066 A 
ATOM      3  C   UNL     1      -0.877  -1.805  13.443  1.00  0.00     0.088 A 
ATOM      4  C   UNL     1      -0.994  -0.887  12.365  1.00  0.00     0.035 A 
ATOM      5  N   UNL     1      -1.221  -0.629   9.904  1.00  0.00    -0.360 N 
ATOM      6  N   UNL     1      -0.234  -2.557   9.445  1.00  0.00    -0.360 N 
ATOM      7  C   UNL     1      -0.415  -3.090  13.167  1.00  0.00     0.271 A 
ATOM      8  C   UNL     1      -0.284  -1.189   9.075  1.00  0.00     0.205 C 
ATOM      9  C   UNL     1      -0.125  -3.462  11.818  1.00  0.00     0.113 A 
ATOM     10  H   UNL     1      -1.919   0.101   9.706  1.00  0.00     0.163 HD
ATOM     11  H   UNL     1      -0.124  -3.373   8.826  1.00  0.00     0.163 HD
ENDROOT
BRANCH   8  12
ATOM     12  C   UNL     1      -0.377  -0.928   7.545  1.00  0.00    -0.003 A 
ATOM     13  C   UNL     1      -0.314  -1.906   5.271  1.00  0.00     0.042 A 
ATOM     14  C   UNL     1      -0.793  -1.933   6.642  1.00  0.00     0.028 A 
ATOM     15  C   UNL     1       0.060  -0.597   4.721  1.00  0.00     0.041 A 
ATOM     16  C   UNL     1       0.118   0.512   5.666  1.00  0.00     0.042 A 
ATOM     17  C   UNL     1       0.079   0.355   7.074  1.00  0.00     0.028 A 
ATOM     18  Cl  UNL     1      -0.434  -3.062   4.233  1.00  0.00    -0.084 Cl
ATOM     19  Cl  UNL     1       0.347   2.068   4.996  1.00  0.00    -0.084 Cl
ENDBRANCH   8  12
BRANCH   7  20
ATOM     20  N   UNL     1      -0.114  -4.020  14.141  1.00  0.00     0.062 N 
ATOM     21  O   UNL     1       0.484  -4.995  13.866  1.00  0.00    -0.258 OA
ATOM     22  O   UNL     1      -0.255  -3.791  15.418  1.00  0.00    -0.258 OA
ENDBRANCH   7  20
TORSDOF 2
ENDMDL
MODEL 6
REMARK VINA RESULT:    -4.524      5.088      7.815
REMARK INTER + INTRA:          -5.368
REMARK INTER:                  -5.050
REMARK INTRA:                  -0.318
REMARK UNBOUND:                -0.315
REMARK SMILES O=[N+]([O-])c1ccc2c(c1)N[C@@H](c1cc(Cl)cc(Cl)c1)N2
REMARK SMILES IDX 7 1 8 2 5 3 6 4 20 5 10 6 4 7 11 8 9 9 12 12 14 13 13 14
REMARK SMILES IDX 16 15 17 16 19 17 15 18 18 19 2 20 3 21 1 22
REMARK H PARENT 20 10 10 11
ROOT
ATOM      1  C   UNL     1      -0.395  -2.115   7.157  1.00  0.00     0.060 A 
ATOM      2  C   UNL     1      -0.423  -0.742   7.107  1.00  0.00     0.066 A 
ATOM      3  C   UNL     1      -0.167  -2.260   4.817  1.00  0.00     0.088 A 
ATOM      4  C   UNL     1      -0.046  -2.834   6.112  1.00  0.00     0.035 A 
ATOM      5  N   UNL     1      -0.513  -2.546   8.536  1.00  0.00    -0.360 N 
ATOM      6  N   UNL     1      -0.517  -0.334   8.440  1.00  0.00    -0.360 N 
ATOM      7  C   UNL     1      -0.341  -0.881   4.720  1.00  0.00     0.271 A 
ATOM      8  C   UNL     1      -0.039  -1.439   9.190  1.00  0.00     0.205 C 
ATOM      9  C   UNL     1      -0.444  -0.097   5.911  1.00  0.00     0.113 A 
ATOM     10  H   UNL     1      -0.857  -3.438   8.919  1.00  0.00     0.163 HD
ATOM     11  H   UNL     1      -0.859   0.569   8.799  1.00  0.00     0.163 HD
ENDROOT
BRANCH   8  12
ATOM     12  C   UNL     1      -0.243  -1.325  10.727  1.00  0.00    -0.003 A 
ATOM     13  C   UNL     1      -0.454  -2.526  12.882  1.00  0.00     0.042 A 
ATOM     14  C   UNL     1       0.229  -2.316  11.616  1.00  0.00     0.028 A 
ATOM     15  C   UNL     1      -1.176  -1.381  13.448  1.00  0.00     0.041 A 
ATOM     16  C   UNL     1      -1.318  -0.212  12.586  1.00  0.00     0.042 A 
ATOM     17  C   UNL     1      -1.027  -0.212  11.199  1.00  0.00     0.028 A 
ATOM     18  Cl  UNL     1      -0.257  -3.738  13.842  1.00  0.00    -0.084 Cl
ATOM     19  Cl  UNL     1      -1.971   1.190  13.313  1.00  0.00    -0.084 Cl
ENDBRANCH   8  12
BRANCH   7  20
ATOM     20  N   UNL     1      -0.318  -0.189   3.527  1.00  0.00     0.062 N 
ATOM     21  O   UNL     1      -0.461   0.978   3.515  1.00  0.00    -0.258 OA
ATOM     22  O   UNL     1       0.077  -0.718   2.400  1.00  0.00    -0.258 OA
ENDBRANCH   7  20
TORSDOF 2
ENDMDL
MODEL 7
REMARK VINA RESULT:    -4.521      5.007      7.646
REMARK INTER + INTRA:          -5.365
REMARK INTER:                  -5.065
REMARK INTRA:                  -0.300
REMARK UNBOUND:                -0.315
REMARK SMILES O=[N+]([O-])c1ccc2c(c1)N[C@@H](c1cc(Cl)cc(Cl)c1)N2
REMARK SMILES IDX 7 1 8 2 5 3 6 4 20 5 10 6 4 7 11 8 9 9 12 12 14 13 13 14
REMARK SMILES IDX 16 15 17 16 19 17 15 18 18 19 2 20 3 21 1 22
REMARK H PARENT 20 10 10 11
ROOT
ATOM      1  C   UNL     1      -0.301  -0.251   7.433  1.00  0.00     0.060 A 
ATOM      2  C   UNL     1      -0.069  -1.590   7.227  1.00  0.00     0.066 A 
ATOM      3  C   UNL     1      -0.435   0.149   5.115  1.00  0.00     0.088 A 
ATOM      4  C   UNL     1      -0.701   0.535   6.457  1.00  0.00     0.035 A 
ATOM      5  N   UNL     1      -0.314   0.018   8.857  1.00  0.00    -0.360 N 
ATOM      6  N   UNL     1       0.020  -2.142   8.508  1.00  0.00    -0.360 N 
ATOM      7  C   UNL     1      -0.056  -1.169   4.872  1.00  0.00     0.271 A 
ATOM      8  C   UNL     1      -0.651  -1.216   9.347  1.00  0.00     0.205 C 
ATOM      9  C   UNL     1       0.104  -2.072   5.969  1.00  0.00     0.113 A 
ATOM     10  H   UNL     1      -0.123   0.895   9.362  1.00  0.00     0.163 HD
ATOM     11  H   UNL     1       0.473  -3.026   8.781  1.00  0.00     0.163 HD
ENDROOT
BRANCH   8  12
ATOM     12  C   UNL     1      -0.506  -1.490  10.870  1.00  0.00    -0.003 A 
ATOM     13  C   UNL     1      -0.229  -3.187  12.652  1.00  0.00     0.042 A 
ATOM     14  C   UNL     1       0.153  -2.639  11.361  1.00  0.00     0.028 A 
ATOM     15  C   UNL     1      -0.806  -2.254  13.627  1.00  0.00     0.041 A 
ATOM     16  C   UNL     1      -1.137  -0.921  13.135  1.00  0.00     0.042 A 
ATOM     17  C   UNL     1      -1.163  -0.569  11.763  1.00  0.00     0.028 A 
ATOM     18  Cl  UNL     1       0.177  -4.582  13.215  1.00  0.00    -0.084 Cl
ATOM     19  Cl  UNL     1      -1.611   0.225  14.311  1.00  0.00    -0.084 Cl
ENDBRANCH   8  12
BRANCH   7  20
ATOM     20  N   UNL     1       0.081  -1.705   3.608  1.00  0.00     0.062 N 
ATOM     21  O   UNL     1       0.249  -1.002   2.680  1.00  0.00    -0.258 OA
ATOM     22  O   UNL     1       0.261  -2.979   3.386  1.00  0.00    -0.258 OA
ENDBRANCH   7  20
TORSDOF 2
ENDMDL
MODEL 8
REMARK VINA RESULT:    -4.485      1.693      2.121
REMARK INTER + INTRA:          -5.325
REMARK INTER:                  -5.033
REMARK INTRA:                  -0.292
REMARK UNBOUND:                -0.315
REMARK SMILES O=[N+]([O-])c1ccc2c(c1)N[C@@H](c1cc(Cl)cc(Cl)c1)N2
REMARK SMILES IDX 7 1 8 2 5 3 6 4 20 5 10 6 4 7 11 8 9 9 12 12 14 13 13 14
REMARK SMILES IDX 16 15 17 16 19 17 15 18 18 19 2 20 3 21 1 22
REMARK H PARENT 20 10 10 11
ROOT
ATOM      1  C   UNL     1      -0.454  -1.617  11.262  1.00  0.00     0.060 A 
ATOM      2  C   UNL     1      -1.025  -0.380  11.082  1.00  0.00     0.066 A 
ATOM      3  C   UNL     1      -0.919  -1.567  13.571  1.00  0.00     0.088 A 
ATOM      4  C   UNL     1      -0.602  -2.285  12.386  1.00  0.00     0.035 A 
ATOM      5  N   UNL     1       0.028  -2.112   9.988  1.00  0.00    -0.360 N 
ATOM      6  N   UNL     1      -0.930  -0.135   9.709  1.00  0.00    -0.360 N 
ATOM      7  C   UNL     1      -1.370  -0.255  13.446  1.00  0.00     0.271 A 
ATOM      8  C   UNL     1      -0.779  -1.418   9.124  1.00  0.00     0.205 C 
ATOM      9  C   UNL     1      -1.448   0.345  12.150  1.00  0.00     0.113 A 
ATOM     10  H   UNL     1       0.771  -2.796   9.786  1.00  0.00     0.163 HD
ATOM     11  H   UNL     1      -0.963   0.775   9.229  1.00  0.00     0.163 HD
ENDROOT
BRANCH   8  12
ATOM     12  C   UNL     1      -0.433  -1.410   7.609  1.00  0.00    -0.003 A 
ATOM     13  C   UNL     1      -0.063  -0.044   5.577  1.00  0.00     0.042 A 
ATOM     14  C   UNL     1       0.172  -0.293   6.989  1.00  0.00     0.028 A 
ATOM     15  C   UNL     1      -0.385  -1.205   4.740  1.00  0.00     0.041 A 
ATOM     16  C   UNL     1      -0.649  -2.458   5.439  1.00  0.00     0.042 A 
ATOM     17  C   UNL     1      -0.848  -2.555   6.839  1.00  0.00     0.028 A 
ATOM     18  Cl  UNL     1       0.279   1.268   4.806  1.00  0.00    -0.084 Cl
ATOM     19  Cl  UNL     1      -0.816  -3.850   4.463  1.00  0.00    -0.084 Cl
ENDBRANCH   8  12
BRANCH   7  20
ATOM     20  N   UNL     1      -1.852   0.492  14.501  1.00  0.00     0.062 N 
ATOM     21  O   UNL     1      -1.162   1.280  15.034  1.00  0.00    -0.258 OA
ATOM     22  O   UNL     1      -3.117   0.548  14.819  1.00  0.00    -0.258 OA
ENDBRANCH   7  20
TORSDOF 2
ENDMDL
MODEL 9
REMARK VINA RESULT:    -4.458      5.077      7.464
REMARK INTER + INTRA:          -5.295
REMARK INTER:                  -4.981
REMARK INTRA:                  -0.314
REMARK UNBOUND:                -0.315
REMARK SMILES O=[N+]([O-])c1ccc2c(c1)N[C@@H](c1cc(Cl)cc(Cl)c1)N2
REMARK SMILES IDX 7 1 8 2 5 3 6 4 20 5 10 6 4 7 11 8 9 9 12 12 14 13 13 14
REMARK SMILES IDX 16 15 17 16 19 17 15 18 18 19 2 20 3 21 1 22
REMARK H PARENT 20 10 10 11
ROOT
ATOM      1  C   UNL     1       0.034  -0.033   7.331  1.00  0.00     0.060 A 
ATOM      2  C   UNL     1      -0.250  -1.313   6.920  1.00  0.00     0.066 A 
ATOM      3  C   UNL     1       0.256   0.703   5.104  1.00  0.00     0.088 A 
ATOM      4  C   UNL     1       0.048   0.974   6.484  1.00  0.00     0.035 A 
ATOM      5  N   UNL     1       0.007   0.022   8.779  1.00  0.00    -0.360 N 
ATOM      6  N   UNL     1      -0.486  -2.026   8.098  1.00  0.00    -0.360 N 
ATOM      7  C   UNL     1       0.119  -0.611   4.663  1.00  0.00     0.271 A 
ATOM      8  C   UNL     1      -0.817  -1.037   9.059  1.00  0.00     0.205 C 
ATOM      9  C   UNL     1      -0.171  -1.646   5.605  1.00  0.00     0.113 A 
ATOM     10  H   UNL     1       0.477   0.676   9.422  1.00  0.00     0.163 HD
ATOM     11  H   UNL     1      -0.430  -3.045   8.238  1.00  0.00     0.163 HD
ENDROOT
BRANCH   8  12
ATOM     12  C   UNL     1      -0.915  -1.552  10.522  1.00  0.00    -0.003 A 
ATOM     13  C   UNL     1      -1.140  -0.957  12.915  1.00  0.00     0.042 A 
ATOM     14  C   UNL     1      -1.561  -0.805  11.533  1.00  0.00     0.028 A 
ATOM     15  C   UNL     1      -0.531  -2.239  13.289  1.00  0.00     0.041 A 
ATOM     16  C   UNL     1      -0.213  -3.151  12.195  1.00  0.00     0.042 A 
ATOM     17  C   UNL     1      -0.229  -2.781  10.828  1.00  0.00     0.028 A 
ATOM     18  Cl  UNL     1      -1.531  -0.026  14.103  1.00  0.00    -0.084 Cl
ATOM     19  Cl  UNL     1       0.298  -4.720  12.641  1.00  0.00    -0.084 Cl
ENDBRANCH   8  12
BRANCH   7  20
ATOM     20  N   UNL     1       0.144  -0.978   3.333  1.00  0.00     0.062 N 
ATOM     21  O   UNL     1       0.435  -2.075   3.026  1.00  0.00    -0.258 OA
ATOM     22  O   UNL     1      -0.354  -0.241   2.377  1.00  0.00    -0.258 OA
ENDBRANCH   7  20
TORSDOF 2
ENDMDL
