MODEL 1
REMARK VINA RESULT:    -5.485      0.000      0.000
REMARK INTER + INTRA:          -6.424
REMARK INTER:                  -6.127
REMARK INTRA:                  -0.297
REMARK UNBOUND:                -0.297
REMARK SMILES O=[N+]([O-])c1ccc2c(c1)N[C@@H](c1cc(Cl)cc(Cl)c1)N2
REMARK SMILES IDX 7 1 8 2 5 3 6 4 20 5 10 6 4 7 11 8 9 9 12 12 14 13 13 14
REMARK SMILES IDX 16 15 17 16 19 17 15 18 18 19 2 20 3 21 1 22
REMARK H PARENT 20 10 10 11
ROOT
ATOM      1  C   UNL     1      -4.403   2.121   6.478  1.00  0.00     0.060 A 
ATOM      2  C   UNL     1      -3.880   3.375   6.271  1.00  0.00     0.066 A 
ATOM      3  C   UNL     1      -3.082   1.212   4.753  1.00  0.00     0.088 A 
ATOM      4  C   UNL     1      -3.869   1.053   5.925  1.00  0.00     0.035 A 
ATOM      5  N   UNL     1      -5.364   2.177   7.562  1.00  0.00    -0.360 N 
ATOM      6  N   UNL     1      -4.483   4.182   7.238  1.00  0.00    -0.360 N 
ATOM      7  C   UNL     1      -2.645   2.493   4.421  1.00  0.00     0.271 A 
ATOM      8  C   UNL     1      -4.916   3.279   8.242  1.00  0.00     0.205 C 
ATOM      9  C   UNL     1      -3.040   3.605   5.228  1.00  0.00     0.113 A 
ATOM     10  H   UNL     1      -6.163   1.560   7.765  1.00  0.00     0.163 HD
ATOM     11  H   UNL     1      -4.589   5.207   7.226  1.00  0.00     0.163 HD
ENDROOT
BRANCH   8  12
ATOM     12  C   UNL     1      -5.819   3.906   9.341  1.00  0.00    -0.003 A 
ATOM     13  C   UNL     1      -6.128   5.752  10.963  1.00  0.00     0.042 A 
ATOM     14  C   UNL     1      -5.794   5.290   9.626  1.00  0.00     0.028 A 
ATOM     15  C   UNL     1      -7.021   4.902  11.758  1.00  0.00     0.041 A 
ATOM     16  C   UNL     1      -7.313   3.579  11.215  1.00  0.00     0.042 A 
ATOM     17  C   UNL     1      -6.612   2.998  10.130  1.00  0.00     0.028 A 
ATOM     18  Cl  UNL     1      -5.882   7.184  11.528  1.00  0.00    -0.084 Cl
ATOM     19  Cl  UNL     1      -8.511   2.674  12.031  1.00  0.00    -0.084 Cl
ENDBRANCH   8  12
BRANCH   7  20
ATOM     20  N   UNL     1      -1.754   2.757   3.401  1.00  0.00     0.062 N 
ATOM     21  O   UNL     1      -0.893   3.544   3.554  1.00  0.00    -0.258 OA
ATOM     22  O   UNL     1      -1.658   2.022   2.326  1.00  0.00    -0.258 OA
ENDBRANCH   7  20
TORSDOF 2
ENDMDL
MODEL 2
REMARK VINA RESULT:    -5.478      1.022      2.681
REMARK INTER + INTRA:          -6.416
REMARK INTER:                  -6.119
REMARK INTRA:                  -0.297
REMARK UNBOUND:                -0.297
REMARK SMILES O=[N+]([O-])c1ccc2c(c1)N[C@@H](c1cc(Cl)cc(Cl)c1)N2
REMARK SMILES IDX 7 1 8 2 5 3 6 4 20 5 10 6 4 7 11 8 9 9 12 12 14 13 13 14
REMARK SMILES IDX 16 15 17 16 19 17 15 18 18 19 2 20 3 21 1 22
REMARK H PARENT 20 10 10 11
ROOT
ATOM      1  C   UNL     1      -3.809   3.459   6.348  1.00  0.00     0.060 A 
ATOM      2  C   UNL     1      -4.245   2.158   6.433  1.00  0.00     0.066 A 
ATOM      3  C   UNL     1      -2.870   3.075   4.222  1.00  0.00     0.088 A 
ATOM      4  C   UNL     1      -3.363   3.962   5.218  1.00  0.00     0.035 A 
ATOM      5  N   UNL     1      -4.195   4.171   7.550  1.00  0.00    -0.360 N 
ATOM      6  N   UNL     1      -4.922   2.083   7.653  1.00  0.00    -0.360 N 
ATOM      7  C   UNL     1      -3.167   1.719   4.343  1.00  0.00     0.271 A 
ATOM      8  C   UNL     1      -5.270   3.424   7.955  1.00  0.00     0.205 C 
ATOM      9  C   UNL     1      -3.904   1.255   5.477  1.00  0.00     0.113 A 
ATOM     10  H   UNL     1      -3.778   5.008   7.981  1.00  0.00     0.163 HD
ATOM     11  H   UNL     1      -5.124   1.240   8.209  1.00  0.00     0.163 HD
ENDROOT
BRANCH   8  12
ATOM     12  C   UNL     1      -5.849   3.645   9.381  1.00  0.00    -0.003 A 
ATOM     13  C   UNL     1      -7.482   2.907  11.090  1.00  0.00     0.042 A 
ATOM     14  C   UNL     1      -6.455   2.596  10.109  1.00  0.00     0.028 A 
ATOM     15  C   UNL     1      -7.432   4.236  11.709  1.00  0.00     0.041 A 
ATOM     16  C   UNL     1      -6.493   5.189  11.127  1.00  0.00     0.042 A 
ATOM     17  C   UNL     1      -5.831   4.992   9.890  1.00  0.00     0.028 A 
ATOM     18  Cl  UNL     1      -8.444   1.885  11.767  1.00  0.00    -0.084 Cl
ATOM     19  Cl  UNL     1      -6.284   6.659  11.974  1.00  0.00    -0.084 Cl
ENDBRANCH   8  12
BRANCH   7  20
ATOM     20  N   UNL     1      -2.880   0.783   3.370  1.00  0.00     0.062 N 
ATOM     21  O   UNL     1      -3.665  -0.047   3.095  1.00  0.00    -0.258 OA
ATOM     22  O   UNL     1      -1.864   0.885   2.557  1.00  0.00    -0.258 OA
ENDBRANCH   7  20
TORSDOF 2
ENDMDL
MODEL 3
REMARK VINA RESULT:    -5.330      5.027      7.646
REMARK INTER + INTRA:          -6.251
REMARK INTER:                  -5.939
REMARK INTRA:                  -0.311
REMARK UNBOUND:                -0.297
REMARK SMILES O=[N+]([O-])c1ccc2c(c1)N[C@@H](c1cc(Cl)cc(Cl)c1)N2
REMARK SMILES IDX 7 1 8 2 5 3 6 4 20 5 10 6 4 7 11 8 9 9 12 12 14 13 13 14
REMARK SMILES IDX 16 15 17 16 19 17 15 18 18 19 2 20 3 21 1 22
REMARK H PARENT 20 10 10 11
ROOT
ATOM      1  C   UNL     1      -6.242   3.246   9.547  1.00  0.00     0.060 A 
ATOM      2  C   UNL     1      -5.686   4.501   9.479  1.00  0.00     0.066 A 
ATOM      3  C   UNL     1      -7.407   3.797  11.519  1.00  0.00     0.088 A 
ATOM      4  C   UNL     1      -7.230   2.975  10.373  1.00  0.00     0.035 A 
ATOM      5  N   UNL     1      -5.777   2.456   8.424  1.00  0.00    -0.360 N 
ATOM      6  N   UNL     1      -4.920   4.494   8.310  1.00  0.00    -0.360 N 
ATOM      7  C   UNL     1      -6.746   5.023  11.560  1.00  0.00     0.271 A 
ATOM      8  C   UNL     1      -5.466   3.445   7.528  1.00  0.00     0.205 C 
ATOM      9  C   UNL     1      -5.877   5.393  10.486  1.00  0.00     0.113 A 
ATOM     10  H   UNL     1      -5.701   1.434   8.326  1.00  0.00     0.163 HD
ATOM     11  H   UNL     1      -4.133   5.114   8.070  1.00  0.00     0.163 HD
ENDROOT
BRANCH   8  12
ATOM     12  C   UNL     1      -4.649   3.083   6.257  1.00  0.00    -0.003 A 
ATOM     13  C   UNL     1      -4.425   1.588   4.295  1.00  0.00     0.042 A 
ATOM     14  C   UNL     1      -5.241   2.434   5.150  1.00  0.00     0.028 A 
ATOM     15  C   UNL     1      -2.991   1.895   4.227  1.00  0.00     0.041 A 
ATOM     16  C   UNL     1      -2.491   2.876   5.184  1.00  0.00     0.042 A 
ATOM     17  C   UNL     1      -3.233   3.347   6.295  1.00  0.00     0.028 A 
ATOM     18  Cl  UNL     1      -4.950   0.586   3.223  1.00  0.00    -0.084 Cl
ATOM     19  Cl  UNL     1      -0.874   3.386   4.969  1.00  0.00    -0.084 Cl
ENDBRANCH   8  12
BRANCH   7  20
ATOM     20  N   UNL     1      -6.954   5.972  12.540  1.00  0.00     0.062 N 
ATOM     21  O   UNL     1      -6.993   7.113  12.261  1.00  0.00    -0.258 OA
ATOM     22  O   UNL     1      -7.339   5.677  13.752  1.00  0.00    -0.258 OA
ENDBRANCH   7  20
TORSDOF 2
ENDMDL
MODEL 4
REMARK VINA RESULT:    -5.316      5.140      7.635
REMARK INTER + INTRA:          -6.235
REMARK INTER:                  -5.924
REMARK INTRA:                  -0.311
REMARK UNBOUND:                -0.297
REMARK SMILES O=[N+]([O-])c1ccc2c(c1)N[C@@H](c1cc(Cl)cc(Cl)c1)N2
REMARK SMILES IDX 7 1 8 2 5 3 6 4 20 5 10 6 4 7 11 8 9 9 12 12 14 13 13 14
REMARK SMILES IDX 16 15 17 16 19 17 15 18 18 19 2 20 3 21 1 22
REMARK H PARENT 20 10 10 11
ROOT
ATOM      1  C   UNL     1      -5.618   4.441   9.495  1.00  0.00     0.060 A 
ATOM      2  C   UNL     1      -6.191   3.197   9.607  1.00  0.00     0.066 A 
ATOM      3  C   UNL     1      -6.735   5.201  11.425  1.00  0.00     0.088 A 
ATOM      4  C   UNL     1      -5.688   5.320  10.472  1.00  0.00     0.035 A 
ATOM      5  N   UNL     1      -4.751   4.465   8.334  1.00  0.00    -0.360 N 
ATOM      6  N   UNL     1      -5.653   2.455   8.552  1.00  0.00    -0.360 N 
ATOM      7  C   UNL     1      -7.443   4.003  11.480  1.00  0.00     0.271 A 
ATOM      8  C   UNL     1      -4.456   3.132   8.209  1.00  0.00     0.205 C 
ATOM      9  C   UNL     1      -7.137   2.958  10.553  1.00  0.00     0.113 A 
ATOM     10  H   UNL     1      -4.441   5.262   7.761  1.00  0.00     0.163 HD
ATOM     11  H   UNL     1      -6.041   1.605   8.119  1.00  0.00     0.163 HD
ENDROOT
BRANCH   8  12
ATOM     12  C   UNL     1      -3.769   2.630   6.908  1.00  0.00    -0.003 A 
ATOM     13  C   UNL     1      -1.907   2.926   5.303  1.00  0.00     0.042 A 
ATOM     14  C   UNL     1      -2.390   2.827   6.670  1.00  0.00     0.028 A 
ATOM     15  C   UNL     1      -2.694   2.248   4.267  1.00  0.00     0.041 A 
ATOM     16  C   UNL     1      -3.994   1.726   4.676  1.00  0.00     0.042 A 
ATOM     17  C   UNL     1      -4.621   2.042   5.906  1.00  0.00     0.028 A 
ATOM     18  Cl  UNL     1      -0.495   3.418   4.861  1.00  0.00    -0.084 Cl
ATOM     19  Cl  UNL     1      -4.816   0.759   3.531  1.00  0.00    -0.084 Cl
ENDBRANCH   8  12
BRANCH   7  20
ATOM     20  N   UNL     1      -8.374   3.708  12.455  1.00  0.00     0.062 N 
ATOM     21  O   UNL     1      -8.452   2.619  12.891  1.00  0.00    -0.258 OA
ATOM     22  O   UNL     1      -9.044   4.621  13.104  1.00  0.00    -0.258 OA
ENDBRANCH   7  20
TORSDOF 2
ENDMDL
MODEL 5
REMARK VINA RESULT:    -5.299      1.044      1.801
REMARK INTER + INTRA:          -6.217
REMARK INTER:                  -5.897
REMARK INTRA:                  -0.319
REMARK UNBOUND:                -0.297
REMARK SMILES O=[N+]([O-])c1ccc2c(c1)N[C@@H](c1cc(Cl)cc(Cl)c1)N2
REMARK SMILES IDX 7 1 8 2 5 3 6 4 20 5 10 6 4 7 11 8 9 9 12 12 14 13 13 14
REMARK SMILES IDX 16 15 17 16 19 17 15 18 18 19 2 20 3 21 1 22
REMARK H PARENT 20 10 10 11
ROOT
ATOM      1  C   UNL     1      -3.683   3.432   6.248  1.00  0.00     0.060 A 
ATOM      2  C   UNL     1      -4.374   2.247   6.172  1.00  0.00     0.066 A 
ATOM      3  C   UNL     1      -2.471   2.927   4.292  1.00  0.00     0.088 A 
ATOM      4  C   UNL     1      -2.950   3.867   5.245  1.00  0.00     0.035 A 
ATOM      5  N   UNL     1      -4.130   4.173   7.411  1.00  0.00    -0.360 N 
ATOM      6  N   UNL     1      -5.261   2.276   7.251  1.00  0.00    -0.360 N 
ATOM      7  C   UNL     1      -3.046   1.659   4.271  1.00  0.00     0.271 A 
ATOM      8  C   UNL     1      -5.386   3.650   7.578  1.00  0.00     0.205 C 
ATOM      9  C   UNL     1      -4.051   1.322   5.230  1.00  0.00     0.113 A 
ATOM     10  H   UNL     1      -3.640   4.893   7.961  1.00  0.00     0.163 HD
ATOM     11  H   UNL     1      -5.722   1.476   7.708  1.00  0.00     0.163 HD
ENDROOT
BRANCH   8  12
ATOM     12  C   UNL     1      -6.157   3.942   8.895  1.00  0.00    -0.003 A 
ATOM     13  C   UNL     1      -6.352   5.375  10.906  1.00  0.00     0.042 A 
ATOM     14  C   UNL     1      -6.190   5.234   9.468  1.00  0.00     0.028 A 
ATOM     15  C   UNL     1      -7.051   4.293  11.607  1.00  0.00     0.041 A 
ATOM     16  C   UNL     1      -7.324   3.086  10.833  1.00  0.00     0.042 A 
ATOM     17  C   UNL     1      -6.754   2.815   9.565  1.00  0.00     0.028 A 
ATOM     18  Cl  UNL     1      -6.128   6.678  11.732  1.00  0.00    -0.084 Cl
ATOM     19  Cl  UNL     1      -8.317   1.914  11.582  1.00  0.00    -0.084 Cl
ENDBRANCH   8  12
BRANCH   7  20
ATOM     20  N   UNL     1      -2.778   0.714   3.301  1.00  0.00     0.062 N 
ATOM     21  O   UNL     1      -3.569  -0.118   3.050  1.00  0.00    -0.258 OA
ATOM     22  O   UNL     1      -1.777   0.807   2.468  1.00  0.00    -0.258 OA
ENDBRANCH   7  20
TORSDOF 2
ENDMDL
MODEL 6
REMARK VINA RESULT:    -4.900      4.936      7.400
REMARK INTER + INTRA:          -5.771
REMARK INTER:                  -5.471
REMARK INTRA:                  -0.300
REMARK UNBOUND:                -0.297
REMARK SMILES O=[N+]([O-])c1ccc2c(c1)N[C@@H](c1cc(Cl)cc(Cl)c1)N2
REMARK SMILES IDX 7 1 8 2 5 3 6 4 20 5 10 6 4 7 11 8 9 9 12 12 14 13 13 14
REMARK SMILES IDX 16 15 17 16 19 17 15 18 18 19 2 20 3 21 1 22
REMARK H PARENT 20 10 10 11
ROOT
ATOM      1  C   UNL     1      -5.929   3.564   9.750  1.00  0.00     0.060 A 
ATOM      2  C   UNL     1      -5.349   4.773   9.450  1.00  0.00     0.066 A 
ATOM      3  C   UNL     1      -7.089   4.499  11.574  1.00  0.00     0.088 A 
ATOM      4  C   UNL     1      -6.925   3.473  10.605  1.00  0.00     0.035 A 
ATOM      5  N   UNL     1      -5.476   2.567   8.800  1.00  0.00    -0.360 N 
ATOM      6  N   UNL     1      -4.580   4.531   8.309  1.00  0.00    -0.360 N 
ATOM      7  C   UNL     1      -6.406   5.698  11.387  1.00  0.00     0.271 A 
ATOM      8  C   UNL     1      -5.144   3.363   7.735  1.00  0.00     0.205 C 
ATOM      9  C   UNL     1      -5.527   5.843  10.269  1.00  0.00     0.113 A 
ATOM     10  H   UNL     1      -5.419   1.544   8.898  1.00  0.00     0.163 HD
ATOM     11  H   UNL     1      -3.781   5.080   7.961  1.00  0.00     0.163 HD
ENDROOT
BRANCH   8  12
ATOM     12  C   UNL     1      -4.329   2.752   6.561  1.00  0.00    -0.003 A 
ATOM     13  C   UNL     1      -2.296   2.898   5.155  1.00  0.00     0.042 A 
ATOM     14  C   UNL     1      -2.928   2.912   6.463  1.00  0.00     0.028 A 
ATOM     15  C   UNL     1      -2.979   2.151   4.092  1.00  0.00     0.041 A 
ATOM     16  C   UNL     1      -4.327   1.679   4.393  1.00  0.00     0.042 A 
ATOM     17  C   UNL     1      -5.079   2.099   5.518  1.00  0.00     0.028 A 
ATOM     18  Cl  UNL     1      -0.834   3.336   4.836  1.00  0.00    -0.084 Cl
ATOM     19  Cl  UNL     1      -5.038   0.636   3.242  1.00  0.00    -0.084 Cl
ENDBRANCH   8  12
BRANCH   7  20
ATOM     20  N   UNL     1      -6.599   6.819  12.168  1.00  0.00     0.062 N 
ATOM     21  O   UNL     1      -6.158   7.857  11.836  1.00  0.00    -0.258 OA
ATOM     22  O   UNL     1      -7.441   6.861  13.165  1.00  0.00    -0.258 OA
ENDBRANCH   7  20
TORSDOF 2
ENDMDL
MODEL 7
REMARK VINA RESULT:    -4.854      5.132      7.835
REMARK INTER + INTRA:          -5.719
REMARK INTER:                  -5.419
REMARK INTRA:                  -0.300
REMARK UNBOUND:                -0.297
REMARK SMILES O=[N+]([O-])c1ccc2c(c1)N[C@@H](c1cc(Cl)cc(Cl)c1)N2
REMARK SMILES IDX 7 1 8 2 5 3 6 4 20 5 10 6 4 7 11 8 9 9 12 12 14 13 13 14
REMARK SMILES IDX 16 15 17 16 19 17 15 18 18 19 2 20 3 21 1 22
REMARK H PARENT 20 10 10 11
ROOT
ATOM      1  C   UNL     1      -5.910   4.307   9.390  1.00  0.00     0.060 A 
ATOM      2  C   UNL     1      -6.431   3.036   9.335  1.00  0.00     0.066 A 
ATOM      3  C   UNL     1      -6.940   4.711  11.469  1.00  0.00     0.088 A 
ATOM      4  C   UNL     1      -5.954   5.021  10.494  1.00  0.00     0.035 A 
ATOM      5  N   UNL     1      -5.112   4.547   8.204  1.00  0.00    -0.360 N 
ATOM      6  N   UNL     1      -5.929   2.491   8.151  1.00  0.00    -0.360 N 
ATOM      7  C   UNL     1      -7.601   3.488  11.372  1.00  0.00     0.271 A 
ATOM      8  C   UNL     1      -4.777   3.264   7.857  1.00  0.00     0.205 C 
ATOM      9  C   UNL     1      -7.312   2.614  10.279  1.00  0.00     0.113 A 
ATOM     10  H   UNL     1      -4.864   5.437   7.748  1.00  0.00     0.163 HD
ATOM     11  H   UNL     1      -6.310   1.701   7.611  1.00  0.00     0.163 HD
ENDROOT
BRANCH   8  12
ATOM     12  C   UNL     1      -4.149   2.999   6.461  1.00  0.00    -0.003 A 
ATOM     13  C   UNL     1      -4.194   1.633   4.396  1.00  0.00     0.042 A 
ATOM     14  C   UNL     1      -4.888   2.406   5.412  1.00  0.00     0.028 A 
ATOM     15  C   UNL     1      -2.790   1.975   4.141  1.00  0.00     0.041 A 
ATOM     16  C   UNL     1      -2.168   2.907   5.076  1.00  0.00     0.042 A 
ATOM     17  C   UNL     1      -2.746   3.292   6.310  1.00  0.00     0.028 A 
ATOM     18  Cl  UNL     1      -4.856   0.687   3.349  1.00  0.00    -0.084 Cl
ATOM     19  Cl  UNL     1      -0.606   3.466   4.662  1.00  0.00    -0.084 Cl
ENDBRANCH   8  12
BRANCH   7  20
ATOM     20  N   UNL     1      -8.463   3.007  12.336  1.00  0.00     0.062 N 
ATOM     21  O   UNL     1      -8.824   1.888  12.303  1.00  0.00    -0.258 OA
ATOM     22  O   UNL     1      -8.744   3.654  13.434  1.00  0.00    -0.258 OA
ENDBRANCH   7  20
TORSDOF 2
ENDMDL
MODEL 8
REMARK VINA RESULT:    -4.193      5.775      8.168
REMARK INTER + INTRA:          -4.981
REMARK INTER:                  -4.675
REMARK INTRA:                  -0.306
REMARK UNBOUND:                -0.297
REMARK SMILES O=[N+]([O-])c1ccc2c(c1)N[C@@H](c1cc(Cl)cc(Cl)c1)N2
REMARK SMILES IDX 7 1 8 2 5 3 6 4 20 5 10 6 4 7 11 8 9 9 12 12 14 13 13 14
REMARK SMILES IDX 16 15 17 16 19 17 15 18 18 19 2 20 3 21 1 22
REMARK H PARENT 20 10 10 11
ROOT
ATOM      1  C   UNL     1      -7.998   2.446  11.262  1.00  0.00     0.060 A 
ATOM      2  C   UNL     1      -7.255   1.294  11.359  1.00  0.00     0.066 A 
ATOM      3  C   UNL     1      -9.209   1.907  13.210  1.00  0.00     0.088 A 
ATOM      4  C   UNL     1      -8.762   2.857  12.252  1.00  0.00     0.035 A 
ATOM      5  N   UNL     1      -7.571   3.194  10.097  1.00  0.00    -0.360 N 
ATOM      6  N   UNL     1      -6.357   1.353  10.290  1.00  0.00    -0.360 N 
ATOM      7  C   UNL     1      -8.577   0.666  13.251  1.00  0.00     0.271 A 
ATOM      8  C   UNL     1      -6.290   2.728   9.950  1.00  0.00     0.205 C 
ATOM      9  C   UNL     1      -7.547   0.366  12.307  1.00  0.00     0.113 A 
ATOM     10  H   UNL     1      -8.086   3.886   9.534  1.00  0.00     0.163 HD
ATOM     11  H   UNL     1      -5.855   0.570   9.847  1.00  0.00     0.163 HD
ENDROOT
BRANCH   8  12
ATOM     12  C   UNL     1      -5.518   3.041   8.638  1.00  0.00    -0.003 A 
ATOM     13  C   UNL     1      -5.641   3.326   6.181  1.00  0.00     0.042 A 
ATOM     14  C   UNL     1      -6.162   3.599   7.510  1.00  0.00     0.028 A 
ATOM     15  C   UNL     1      -4.210   3.021   6.076  1.00  0.00     0.041 A 
ATOM     16  C   UNL     1      -3.497   2.809   7.331  1.00  0.00     0.042 A 
ATOM     17  C   UNL     1      -4.135   2.644   8.585  1.00  0.00     0.028 A 
ATOM     18  Cl  UNL     1      -6.369   3.613   4.833  1.00  0.00    -0.084 Cl
ATOM     19  Cl  UNL     1      -1.797   2.662   7.221  1.00  0.00    -0.084 Cl
ENDBRANCH   8  12
BRANCH   7  20
ATOM     20  N   UNL     1      -8.813  -0.281  14.228  1.00  0.00     0.062 N 
ATOM     21  O   UNL     1      -9.793  -0.929  14.200  1.00  0.00    -0.258 OA
ATOM     22  O   UNL     1      -7.905  -0.673  15.079  1.00  0.00    -0.258 OA
ENDBRANCH   7  20
TORSDOF 2
ENDMDL
MODEL 9
REMARK VINA RESULT:    -4.184      5.457      7.827
REMARK INTER + INTRA:          -4.971
REMARK INTER:                  -4.665
REMARK INTRA:                  -0.306
REMARK UNBOUND:                -0.297
REMARK SMILES O=[N+]([O-])c1ccc2c(c1)N[C@@H](c1cc(Cl)cc(Cl)c1)N2
REMARK SMILES IDX 7 1 8 2 5 3 6 4 20 5 10 6 4 7 11 8 9 9 12 12 14 13 13 14
REMARK SMILES IDX 16 15 17 16 19 17 15 18 18 19 2 20 3 21 1 22
REMARK H PARENT 20 10 10 11
ROOT
ATOM      1  C   UNL     1      -5.872   6.343  11.201  1.00  0.00     0.060 A 
ATOM      2  C   UNL     1      -6.033   7.162  10.109  1.00  0.00     0.066 A 
ATOM      3  C   UNL     1      -6.664   8.017  12.657  1.00  0.00     0.088 A 
ATOM      4  C   UNL     1      -6.379   6.653  12.374  1.00  0.00     0.035 A 
ATOM      5  N   UNL     1      -5.354   5.061  10.764  1.00  0.00    -0.360 N 
ATOM      6  N   UNL     1      -5.657   6.382   9.013  1.00  0.00    -0.360 N 
ATOM      7  C   UNL     1      -6.699   8.917  11.594  1.00  0.00     0.271 A 
ATOM      8  C   UNL     1      -5.784   5.043   9.463  1.00  0.00     0.205 C 
ATOM      9  C   UNL     1      -6.398   8.461  10.273  1.00  0.00     0.113 A 
ATOM     10  H   UNL     1      -4.813   4.358  11.287  1.00  0.00     0.163 HD
ATOM     11  H   UNL     1      -5.354   6.707   8.084  1.00  0.00     0.163 HD
ENDROOT
BRANCH   8  12
ATOM     12  C   UNL     1      -5.214   3.970   8.494  1.00  0.00    -0.003 A 
ATOM     13  C   UNL     1      -3.243   2.633   7.814  1.00  0.00     0.042 A 
ATOM     14  C   UNL     1      -4.120   3.150   8.852  1.00  0.00     0.028 A 
ATOM     15  C   UNL     1      -3.822   2.463   6.476  1.00  0.00     0.041 A 
ATOM     16  C   UNL     1      -5.151   3.029   6.267  1.00  0.00     0.042 A 
ATOM     17  C   UNL     1      -5.785   3.915   7.173  1.00  0.00     0.028 A 
ATOM     18  Cl  UNL     1      -1.853   1.964   8.035  1.00  0.00    -0.084 Cl
ATOM     19  Cl  UNL     1      -5.909   2.653   4.782  1.00  0.00    -0.084 Cl
ENDBRANCH   8  12
BRANCH   7  20
ATOM     20  N   UNL     1      -7.111  10.228  11.715  1.00  0.00     0.062 N 
ATOM     21  O   UNL     1      -6.398  11.032  12.192  1.00  0.00    -0.258 OA
ATOM     22  O   UNL     1      -8.175  10.701  11.125  1.00  0.00    -0.258 OA
ENDBRANCH   7  20
TORSDOF 2
ENDMDL
