MODEL 1
REMARK VINA RESULT:    -5.433      0.000      0.000
REMARK INTER + INTRA:          -6.380
REMARK INTER:                  -6.069
REMARK INTRA:                  -0.312
REMARK UNBOUND:                -0.312
REMARK SMILES O=[N+]([O-])c1ccc2c(c1)N[C@@H](c1cc(Cl)cc(Cl)c1)N2
REMARK SMILES IDX 7 1 8 2 5 3 6 4 20 5 10 6 4 7 11 8 9 9 12 12 14 13 13 14
REMARK SMILES IDX 16 15 17 16 19 17 15 18 18 19 2 20 3 21 1 22
REMARK H PARENT 20 10 10 11
ROOT
ATOM      1  C   UNL     1       6.598  -3.609   9.700  1.00  0.00     0.060 A 
ATOM      2  C   UNL     1       6.888  -4.821   9.121  1.00  0.00     0.066 A 
ATOM      3  C   UNL     1       7.530  -4.292  11.752  1.00  0.00     0.088 A 
ATOM      4  C   UNL     1       7.099  -3.267  10.867  1.00  0.00     0.035 A 
ATOM      5  N   UNL     1       5.950  -2.755   8.724  1.00  0.00    -0.360 N 
ATOM      6  N   UNL     1       6.460  -4.700   7.796  1.00  0.00    -0.360 N 
ATOM      7  C   UNL     1       7.703  -5.576  11.239  1.00  0.00     0.271 A 
ATOM      8  C   UNL     1       6.417  -3.302   7.557  1.00  0.00     0.205 C 
ATOM      9  C   UNL     1       7.395  -5.836   9.868  1.00  0.00     0.113 A 
ATOM     10  H   UNL     1       5.314  -1.958   8.867  1.00  0.00     0.163 HD
ATOM     11  H   UNL     1       6.227  -5.457   7.139  1.00  0.00     0.163 HD
ENDROOT
BRANCH   8  12
ATOM     12  C   UNL     1       5.758  -2.888   6.212  1.00  0.00    -0.003 A 
ATOM     13  C   UNL     1       4.992  -1.028   4.769  1.00  0.00     0.042 A 
ATOM     14  C   UNL     1       6.006  -1.630   5.618  1.00  0.00     0.028 A 
ATOM     15  C   UNL     1       4.064  -1.939   4.089  1.00  0.00     0.041 A 
ATOM     16  C   UNL     1       4.112  -3.339   4.498  1.00  0.00     0.042 A 
ATOM     17  C   UNL     1       4.802  -3.804   5.645  1.00  0.00     0.028 A 
ATOM     18  Cl  UNL     1       4.969   0.449   4.271  1.00  0.00    -0.084 Cl
ATOM     19  Cl  UNL     1       3.186  -4.433   3.567  1.00  0.00    -0.084 Cl
ENDBRANCH   8  12
BRANCH   7  20
ATOM     20  N   UNL     1       8.260  -6.617  11.954  1.00  0.00     0.062 N 
ATOM     21  O   UNL     1       9.007  -7.361  11.434  1.00  0.00    -0.258 OA
ATOM     22  O   UNL     1       8.188  -6.711  13.254  1.00  0.00    -0.258 OA
ENDBRANCH   7  20
TORSDOF 2
ENDMDL
MODEL 2
REMARK VINA RESULT:    -5.429      1.133      2.718
REMARK INTER + INTRA:          -6.375
REMARK INTER:                  -6.064
REMARK INTRA:                  -0.311
REMARK UNBOUND:                -0.312
REMARK SMILES O=[N+]([O-])c1ccc2c(c1)N[C@@H](c1cc(Cl)cc(Cl)c1)N2
REMARK SMILES IDX 7 1 8 2 5 3 6 4 20 5 10 6 4 7 11 8 9 9 12 12 14 13 13 14
REMARK SMILES IDX 16 15 17 16 19 17 15 18 18 19 2 20 3 21 1 22
REMARK H PARENT 20 10 10 11
ROOT
ATOM      1  C   UNL     1       6.858  -4.905   9.088  1.00  0.00     0.060 A 
ATOM      2  C   UNL     1       6.595  -3.726   9.743  1.00  0.00     0.066 A 
ATOM      3  C   UNL     1       7.853  -5.829  11.012  1.00  0.00     0.088 A 
ATOM      4  C   UNL     1       7.243  -5.982   9.738  1.00  0.00     0.035 A 
ATOM      5  N   UNL     1       6.376  -4.812   7.724  1.00  0.00    -0.360 N 
ATOM      6  N   UNL     1       5.925  -2.934   8.807  1.00  0.00    -0.360 N 
ATOM      7  C   UNL     1       7.734  -4.600  11.657  1.00  0.00     0.271 A 
ATOM      8  C   UNL     1       5.404  -3.855   7.862  1.00  0.00     0.205 C 
ATOM      9  C   UNL     1       7.056  -3.523  11.005  1.00  0.00     0.113 A 
ATOM     10  H   UNL     1       6.678  -5.324   6.883  1.00  0.00     0.163 HD
ATOM     11  H   UNL     1       5.831  -1.909   8.803  1.00  0.00     0.163 HD
ENDROOT
BRANCH   8  12
ATOM     12  C   UNL     1       4.793  -3.210   6.587  1.00  0.00    -0.003 A 
ATOM     13  C   UNL     1       3.765  -3.586   4.366  1.00  0.00     0.042 A 
ATOM     14  C   UNL     1       3.853  -3.894   5.784  1.00  0.00     0.028 A 
ATOM     15  C   UNL     1       4.177  -2.241   3.950  1.00  0.00     0.041 A 
ATOM     16  C   UNL     1       4.834  -1.420   4.961  1.00  0.00     0.042 A 
ATOM     17  C   UNL     1       5.303  -1.919   6.202  1.00  0.00     0.028 A 
ATOM     18  Cl  UNL     1       3.006  -4.421   3.290  1.00  0.00    -0.084 Cl
ATOM     19  Cl  UNL     1       5.124   0.211   4.541  1.00  0.00    -0.084 Cl
ENDBRANCH   8  12
BRANCH   7  20
ATOM     20  N   UNL     1       8.146  -4.373  12.954  1.00  0.00     0.062 N 
ATOM     21  O   UNL     1       7.470  -3.758  13.693  1.00  0.00    -0.258 OA
ATOM     22  O   UNL     1       9.157  -4.992  13.502  1.00  0.00    -0.258 OA
ENDBRANCH   7  20
TORSDOF 2
ENDMDL
MODEL 3
REMARK VINA RESULT:    -5.396      5.121      7.619
REMARK INTER + INTRA:          -6.338
REMARK INTER:                  -6.041
REMARK INTRA:                  -0.298
REMARK UNBOUND:                -0.312
REMARK SMILES O=[N+]([O-])c1ccc2c(c1)N[C@@H](c1cc(Cl)cc(Cl)c1)N2
REMARK SMILES IDX 7 1 8 2 5 3 6 4 20 5 10 6 4 7 11 8 9 9 12 12 14 13 13 14
REMARK SMILES IDX 16 15 17 16 19 17 15 18 18 19 2 20 3 21 1 22
REMARK H PARENT 20 10 10 11
ROOT
ATOM      1  C   UNL     1       5.441  -3.637   5.994  1.00  0.00     0.060 A 
ATOM      2  C   UNL     1       5.050  -2.449   6.564  1.00  0.00     0.066 A 
ATOM      3  C   UNL     1       4.846  -2.877   3.845  1.00  0.00     0.088 A 
ATOM      4  C   UNL     1       5.563  -3.766   4.690  1.00  0.00     0.035 A 
ATOM      5  N   UNL     1       5.937  -4.523   7.028  1.00  0.00    -0.360 N 
ATOM      6  N   UNL     1       5.338  -2.589   7.924  1.00  0.00    -0.360 N 
ATOM      7  C   UNL     1       4.305  -1.723   4.409  1.00  0.00     0.271 A 
ATOM      8  C   UNL     1       6.316  -3.614   7.982  1.00  0.00     0.205 C 
ATOM      9  C   UNL     1       4.439  -1.495   5.814  1.00  0.00     0.113 A 
ATOM     10  H   UNL     1       5.991  -5.551   7.043  1.00  0.00     0.163 HD
ATOM     11  H   UNL     1       4.930  -2.064   8.711  1.00  0.00     0.163 HD
ENDROOT
BRANCH   8  12
ATOM     12  C   UNL     1       6.653  -4.118   9.413  1.00  0.00    -0.003 A 
ATOM     13  C   UNL     1       7.235  -3.504  11.740  1.00  0.00     0.042 A 
ATOM     14  C   UNL     1       6.409  -3.327  10.558  1.00  0.00     0.028 A 
ATOM     15  C   UNL     1       7.847  -4.824  11.933  1.00  0.00     0.041 A 
ATOM     16  C   UNL     1       7.745  -5.758  10.817  1.00  0.00     0.042 A 
ATOM     17  C   UNL     1       7.321  -5.390   9.516  1.00  0.00     0.028 A 
ATOM     18  Cl  UNL     1       7.299  -2.547  12.969  1.00  0.00    -0.084 Cl
ATOM     19  Cl  UNL     1       8.270  -7.356  11.116  1.00  0.00    -0.084 Cl
ENDBRANCH   8  12
BRANCH   7  20
ATOM     20  N   UNL     1       3.723  -0.712   3.673  1.00  0.00     0.062 N 
ATOM     21  O   UNL     1       3.933   0.413   3.941  1.00  0.00    -0.258 OA
ATOM     22  O   UNL     1       3.114  -0.914   2.536  1.00  0.00    -0.258 OA
ENDBRANCH   7  20
TORSDOF 2
ENDMDL
MODEL 4
REMARK VINA RESULT:    -5.385      5.025      7.644
REMARK INTER + INTRA:          -6.327
REMARK INTER:                  -6.029
REMARK INTRA:                  -0.298
REMARK UNBOUND:                -0.312
REMARK SMILES O=[N+]([O-])c1ccc2c(c1)N[C@@H](c1cc(Cl)cc(Cl)c1)N2
REMARK SMILES IDX 7 1 8 2 5 3 6 4 20 5 10 6 4 7 11 8 9 9 12 12 14 13 13 14
REMARK SMILES IDX 16 15 17 16 19 17 15 18 18 19 2 20 3 21 1 22
REMARK H PARENT 20 10 10 11
ROOT
ATOM      1  C   UNL     1       5.091  -2.334   6.622  1.00  0.00     0.060 A 
ATOM      2  C   UNL     1       5.393  -3.471   5.912  1.00  0.00     0.066 A 
ATOM      3  C   UNL     1       3.807  -1.483   4.840  1.00  0.00     0.088 A 
ATOM      4  C   UNL     1       4.160  -1.497   6.216  1.00  0.00     0.035 A 
ATOM      5  N   UNL     1       5.720  -2.403   7.926  1.00  0.00    -0.360 N 
ATOM      6  N   UNL     1       6.166  -4.245   6.781  1.00  0.00    -0.360 N 
ATOM      7  C   UNL     1       4.215  -2.551   4.043  1.00  0.00     0.271 A 
ATOM      8  C   UNL     1       5.848  -3.759   8.075  1.00  0.00     0.205 C 
ATOM      9  C   UNL     1       5.014  -3.591   4.613  1.00  0.00     0.113 A 
ATOM     10  H   UNL     1       5.995  -1.643   8.564  1.00  0.00     0.163 HD
ATOM     11  H   UNL     1       6.821  -5.001   6.537  1.00  0.00     0.163 HD
ENDROOT
BRANCH   8  12
ATOM     12  C   UNL     1       6.742  -4.311   9.220  1.00  0.00    -0.003 A 
ATOM     13  C   UNL     1       7.763  -6.309  10.270  1.00  0.00     0.042 A 
ATOM     14  C   UNL     1       7.460  -5.521   9.086  1.00  0.00     0.028 A 
ATOM     15  C   UNL     1       7.862  -5.586  11.543  1.00  0.00     0.041 A 
ATOM     16  C   UNL     1       7.437  -4.190  11.534  1.00  0.00     0.042 A 
ATOM     17  C   UNL     1       6.729  -3.587  10.465  1.00  0.00     0.028 A 
ATOM     18  Cl  UNL     1       8.283  -7.778  10.288  1.00  0.00    -0.084 Cl
ATOM     19  Cl  UNL     1       7.747  -3.294  12.956  1.00  0.00    -0.084 Cl
ENDBRANCH   8  12
BRANCH   7  20
ATOM     20  N   UNL     1       3.810  -2.730   2.737  1.00  0.00     0.062 N 
ATOM     21  O   UNL     1       3.528  -3.802   2.345  1.00  0.00    -0.258 OA
ATOM     22  O   UNL     1       3.497  -1.742   1.942  1.00  0.00    -0.258 OA
ENDBRANCH   7  20
TORSDOF 2
ENDMDL
MODEL 5
REMARK VINA RESULT:    -5.019      1.081      1.758
REMARK INTER + INTRA:          -5.917
REMARK INTER:                  -5.621
REMARK INTRA:                  -0.296
REMARK UNBOUND:                -0.312
REMARK SMILES O=[N+]([O-])c1ccc2c(c1)N[C@@H](c1cc(Cl)cc(Cl)c1)N2
REMARK SMILES IDX 7 1 8 2 5 3 6 4 20 5 10 6 4 7 11 8 9 9 12 12 14 13 13 14
REMARK SMILES IDX 16 15 17 16 19 17 15 18 18 19 2 20 3 21 1 22
REMARK H PARENT 20 10 10 11
ROOT
ATOM      1  C   UNL     1       7.109  -4.997   8.934  1.00  0.00     0.060 A 
ATOM      2  C   UNL     1       6.940  -3.770   9.529  1.00  0.00     0.066 A 
ATOM      3  C   UNL     1       7.757  -5.972  10.978  1.00  0.00     0.088 A 
ATOM      4  C   UNL     1       7.271  -6.090   9.647  1.00  0.00     0.035 A 
ATOM      5  N   UNL     1       6.792  -4.892   7.523  1.00  0.00    -0.360 N 
ATOM      6  N   UNL     1       6.489  -2.932   8.506  1.00  0.00    -0.360 N 
ATOM      7  C   UNL     1       7.739  -4.714  11.577  1.00  0.00     0.271 A 
ATOM      8  C   UNL     1       5.951  -3.810   7.531  1.00  0.00     0.205 C 
ATOM      9  C   UNL     1       7.288  -3.582  10.829  1.00  0.00     0.113 A 
ATOM     10  H   UNL     1       7.109  -5.471   6.733  1.00  0.00     0.163 HD
ATOM     11  H   UNL     1       6.536  -1.904   8.468  1.00  0.00     0.163 HD
ENDROOT
BRANCH   8  12
ATOM     12  C   UNL     1       5.573  -3.138   6.182  1.00  0.00    -0.003 A 
ATOM     13  C   UNL     1       5.250  -1.018   4.943  1.00  0.00     0.042 A 
ATOM     14  C   UNL     1       6.041  -1.851   5.833  1.00  0.00     0.028 A 
ATOM     15  C   UNL     1       4.364  -1.707   3.998  1.00  0.00     0.041 A 
ATOM     16  C   UNL     1       4.202  -3.144   4.189  1.00  0.00     0.042 A 
ATOM     17  C   UNL     1       4.639  -3.843   5.341  1.00  0.00     0.028 A 
ATOM     18  Cl  UNL     1       5.460   0.504   4.681  1.00  0.00    -0.084 Cl
ATOM     19  Cl  UNL     1       3.341  -3.978   2.970  1.00  0.00    -0.084 Cl
ENDBRANCH   8  12
BRANCH   7  20
ATOM     20  N   UNL     1       8.038  -4.495  12.906  1.00  0.00     0.062 N 
ATOM     21  O   UNL     1       9.005  -4.965  13.381  1.00  0.00    -0.258 OA
ATOM     22  O   UNL     1       7.428  -3.604  13.639  1.00  0.00    -0.258 OA
ENDBRANCH   7  20
TORSDOF 2
ENDMDL
MODEL 6
REMARK VINA RESULT:    -4.968      0.859      2.188
REMARK INTER + INTRA:          -5.860
REMARK INTER:                  -5.570
REMARK INTRA:                  -0.291
REMARK UNBOUND:                -0.312
REMARK SMILES O=[N+]([O-])c1ccc2c(c1)N[C@@H](c1cc(Cl)cc(Cl)c1)N2
REMARK SMILES IDX 7 1 8 2 5 3 6 4 20 5 10 6 4 7 11 8 9 9 12 12 14 13 13 14
REMARK SMILES IDX 16 15 17 16 19 17 15 18 18 19 2 20 3 21 1 22
REMARK H PARENT 20 10 10 11
ROOT
ATOM      1  C   UNL     1       6.645  -4.385   9.682  1.00  0.00     0.060 A 
ATOM      2  C   UNL     1       6.890  -5.437   8.833  1.00  0.00     0.066 A 
ATOM      3  C   UNL     1       7.777  -5.460  11.446  1.00  0.00     0.088 A 
ATOM      4  C   UNL     1       7.253  -4.284  10.844  1.00  0.00     0.035 A 
ATOM      5  N   UNL     1       5.898  -3.364   8.975  1.00  0.00    -0.360 N 
ATOM      6  N   UNL     1       6.335  -5.051   7.610  1.00  0.00    -0.360 N 
ATOM      7  C   UNL     1       7.912  -6.600  10.657  1.00  0.00     0.271 A 
ATOM      8  C   UNL     1       6.256  -3.637   7.681  1.00  0.00     0.205 C 
ATOM      9  C   UNL     1       7.475  -6.572   9.296  1.00  0.00     0.113 A 
ATOM     10  H   UNL     1       5.271  -2.634   9.343  1.00  0.00     0.163 HD
ATOM     11  H   UNL     1       6.047  -5.659   6.830  1.00  0.00     0.163 HD
ENDROOT
BRANCH   8  12
ATOM     12  C   UNL     1       5.467  -2.967   6.522  1.00  0.00    -0.003 A 
ATOM     13  C   UNL     1       4.155  -3.297   4.447  1.00  0.00     0.042 A 
ATOM     14  C   UNL     1       4.439  -3.647   5.829  1.00  0.00     0.028 A 
ATOM     15  C   UNL     1       4.483  -1.931   4.024  1.00  0.00     0.041 A 
ATOM     16  C   UNL     1       5.256  -1.127   4.965  1.00  0.00     0.042 A 
ATOM     17  C   UNL     1       5.896  -1.653   6.114  1.00  0.00     0.028 A 
ATOM     18  Cl  UNL     1       3.273  -4.115   3.456  1.00  0.00    -0.084 Cl
ATOM     19  Cl  UNL     1       5.457   0.522   4.565  1.00  0.00    -0.084 Cl
ENDBRANCH   8  12
BRANCH   7  20
ATOM     20  N   UNL     1       8.545  -7.751  11.078  1.00  0.00     0.062 N 
ATOM     21  O   UNL     1       9.688  -7.915  10.857  1.00  0.00    -0.258 OA
ATOM     22  O   UNL     1       8.009  -8.598  11.915  1.00  0.00    -0.258 OA
ENDBRANCH   7  20
TORSDOF 2
ENDMDL
MODEL 7
REMARK VINA RESULT:    -4.514      4.156      5.988
REMARK INTER + INTRA:          -5.354
REMARK INTER:                  -5.048
REMARK INTRA:                  -0.305
REMARK UNBOUND:                -0.312
REMARK SMILES O=[N+]([O-])c1ccc2c(c1)N[C@@H](c1cc(Cl)cc(Cl)c1)N2
REMARK SMILES IDX 7 1 8 2 5 3 6 4 20 5 10 6 4 7 11 8 9 9 12 12 14 13 13 14
REMARK SMILES IDX 16 15 17 16 19 17 15 18 18 19 2 20 3 21 1 22
REMARK H PARENT 20 10 10 11
ROOT
ATOM      1  C   UNL     1       9.974  -8.532  10.063  1.00  0.00     0.060 A 
ATOM      2  C   UNL     1       9.362  -8.682  11.284  1.00  0.00     0.066 A 
ATOM      3  C   UNL     1      11.266 -10.473  10.398  1.00  0.00     0.088 A 
ATOM      4  C   UNL     1      10.704  -9.492   9.537  1.00  0.00     0.035 A 
ATOM      5  N   UNL     1       9.451  -7.350   9.407  1.00  0.00    -0.360 N 
ATOM      6  N   UNL     1       8.447  -7.628  11.361  1.00  0.00    -0.360 N 
ATOM      7  C   UNL     1      10.774 -10.568  11.698  1.00  0.00     0.271 A 
ATOM      8  C   UNL     1       8.226  -7.243  10.014  1.00  0.00     0.205 C 
ATOM      9  C   UNL     1       9.768  -9.655  12.141  1.00  0.00     0.113 A 
ATOM     10  H   UNL     1       9.879  -6.754   8.685  1.00  0.00     0.163 HD
ATOM     11  H   UNL     1       8.027  -7.221  12.209  1.00  0.00     0.163 HD
ENDROOT
BRANCH   8  12
ATOM     12  C   UNL     1       7.405  -5.936   9.833  1.00  0.00    -0.003 A 
ATOM     13  C   UNL     1       6.500  -4.262   8.249  1.00  0.00     0.042 A 
ATOM     14  C   UNL     1       6.721  -5.647   8.631  1.00  0.00     0.028 A 
ATOM     15  C   UNL     1       6.438  -3.273   9.331  1.00  0.00     0.041 A 
ATOM     16  C   UNL     1       6.817  -3.741  10.661  1.00  0.00     0.042 A 
ATOM     17  C   UNL     1       7.454  -4.981  10.911  1.00  0.00     0.028 A 
ATOM     18  Cl  UNL     1       6.030  -3.759   6.850  1.00  0.00    -0.084 Cl
ATOM     19  Cl  UNL     1       6.545  -2.653  11.951  1.00  0.00    -0.084 Cl
ENDBRANCH   8  12
BRANCH   7  20
ATOM     20  N   UNL     1      11.126 -11.572  12.578  1.00  0.00     0.062 N 
ATOM     21  O   UNL     1      10.877 -12.693  12.329  1.00  0.00    -0.258 OA
ATOM     22  O   UNL     1      11.930 -11.387  13.589  1.00  0.00    -0.258 OA
ENDBRANCH   7  20
TORSDOF 2
ENDMDL
MODEL 8
REMARK VINA RESULT:    -3.888      4.101      5.757
REMARK INTER + INTRA:          -4.654
REMARK INTER:                  -4.363
REMARK INTRA:                  -0.291
REMARK UNBOUND:                -0.312
REMARK SMILES O=[N+]([O-])c1ccc2c(c1)N[C@@H](c1cc(Cl)cc(Cl)c1)N2
REMARK SMILES IDX 7 1 8 2 5 3 6 4 20 5 10 6 4 7 11 8 9 9 12 12 14 13 13 14
REMARK SMILES IDX 16 15 17 16 19 17 15 18 18 19 2 20 3 21 1 22
REMARK H PARENT 20 10 10 11
ROOT
ATOM      1  C   UNL     1      10.022  -8.546  10.036  1.00  0.00     0.060 A 
ATOM      2  C   UNL     1       9.366  -8.592  11.243  1.00  0.00     0.066 A 
ATOM      3  C   UNL     1      11.157 -10.557  10.502  1.00  0.00     0.088 A 
ATOM      4  C   UNL     1      10.693  -9.581   9.579  1.00  0.00     0.035 A 
ATOM      5  N   UNL     1       9.606  -7.362   9.311  1.00  0.00    -0.360 N 
ATOM      6  N   UNL     1       8.530  -7.473  11.242  1.00  0.00    -0.360 N 
ATOM      7  C   UNL     1      10.622 -10.554  11.788  1.00  0.00     0.271 A 
ATOM      8  C   UNL     1       8.376  -7.138   9.873  1.00  0.00     0.205 C 
ATOM      9  C   UNL     1       9.674  -9.550  12.156  1.00  0.00     0.113 A 
ATOM     10  H   UNL     1      10.098  -6.835   8.576  1.00  0.00     0.163 HD
ATOM     11  H   UNL     1       8.117  -6.996  12.057  1.00  0.00     0.163 HD
ENDROOT
BRANCH   8  12
ATOM     12  C   UNL     1       7.659  -5.785   9.606  1.00  0.00    -0.003 A 
ATOM     13  C   UNL     1       6.429  -3.867  10.576  1.00  0.00     0.042 A 
ATOM     14  C   UNL     1       7.552  -4.790  10.603  1.00  0.00     0.028 A 
ATOM     15  C   UNL     1       5.817  -3.602   9.269  1.00  0.00     0.041 A 
ATOM     16  C   UNL     1       6.252  -4.448   8.164  1.00  0.00     0.042 A 
ATOM     17  C   UNL     1       7.018  -5.629   8.326  1.00  0.00     0.028 A 
ATOM     18  Cl  UNL     1       5.999  -2.909  11.728  1.00  0.00    -0.084 Cl
ATOM     19  Cl  UNL     1       5.698  -4.006   6.608  1.00  0.00    -0.084 Cl
ENDBRANCH   8  12
BRANCH   7  20
ATOM     20  N   UNL     1      10.874 -11.537  12.724  1.00  0.00     0.062 N 
ATOM     21  O   UNL     1      10.537 -12.645  12.525  1.00  0.00    -0.258 OA
ATOM     22  O   UNL     1      11.674 -11.367  13.742  1.00  0.00    -0.258 OA
ENDBRANCH   7  20
TORSDOF 2
ENDMDL
MODEL 9
REMARK VINA RESULT:    -3.621      5.403      8.130
REMARK INTER + INTRA:          -4.356
REMARK INTER:                  -4.040
REMARK INTRA:                  -0.316
REMARK UNBOUND:                -0.312
REMARK SMILES O=[N+]([O-])c1ccc2c(c1)N[C@@H](c1cc(Cl)cc(Cl)c1)N2
REMARK SMILES IDX 7 1 8 2 5 3 6 4 20 5 10 6 4 7 11 8 9 9 12 12 14 13 13 14
REMARK SMILES IDX 16 15 17 16 19 17 15 18 18 19 2 20 3 21 1 22
REMARK H PARENT 20 10 10 11
ROOT
ATOM      1  C   UNL     1       7.328  -4.840  10.430  1.00  0.00     0.060 A 
ATOM      2  C   UNL     1       7.265  -5.415   9.183  1.00  0.00     0.066 A 
ATOM      3  C   UNL     1       6.143  -2.944   9.686  1.00  0.00     0.088 A 
ATOM      4  C   UNL     1       6.606  -3.783  10.736  1.00  0.00     0.035 A 
ATOM      5  N   UNL     1       8.036  -5.727  11.331  1.00  0.00    -0.360 N 
ATOM      6  N   UNL     1       7.892  -6.656   9.326  1.00  0.00    -0.360 N 
ATOM      7  C   UNL     1       6.192  -3.432   8.383  1.00  0.00     0.271 A 
ATOM      8  C   UNL     1       7.829  -6.934  10.715  1.00  0.00     0.205 C 
ATOM      9  C   UNL     1       6.750  -4.725   8.133  1.00  0.00     0.113 A 
ATOM     10  H   UNL     1       8.553  -5.511  12.195  1.00  0.00     0.163 HD
ATOM     11  H   UNL     1       8.309  -7.239   8.586  1.00  0.00     0.163 HD
ENDROOT
BRANCH   8  12
ATOM     12  C   UNL     1       8.655  -8.167  11.174  1.00  0.00    -0.003 A 
ATOM     13  C   UNL     1       9.572  -9.452  13.083  1.00  0.00     0.042 A 
ATOM     14  C   UNL     1       8.465  -8.762  12.442  1.00  0.00     0.028 A 
ATOM     15  C   UNL     1      10.602 -10.018  12.205  1.00  0.00     0.041 A 
ATOM     16  C   UNL     1      10.529  -9.650  10.795  1.00  0.00     0.042 A 
ATOM     17  C   UNL     1       9.699  -8.619  10.290  1.00  0.00     0.028 A 
ATOM     18  Cl  UNL     1       9.630  -9.910  14.572  1.00  0.00    -0.084 Cl
ATOM     19  Cl  UNL     1      11.596 -10.470   9.742  1.00  0.00    -0.084 Cl
ENDBRANCH   8  12
BRANCH   7  20
ATOM     20  N   UNL     1       5.635  -2.782   7.301  1.00  0.00     0.062 N 
ATOM     21  O   UNL     1       5.717  -3.245   6.223  1.00  0.00    -0.258 OA
ATOM     22  O   UNL     1       4.814  -1.773   7.417  1.00  0.00    -0.258 OA
ENDBRANCH   7  20
TORSDOF 2
ENDMDL
