MODEL 1
REMARK VINA RESULT:    -4.474      0.000      0.000
REMARK INTER + INTRA:          -5.312
REMARK INTER:                  -4.997
REMARK INTRA:                  -0.316
REMARK UNBOUND:                -0.316
REMARK SMILES O=[N+]([O-])c1ccc2c(c1)N[C@@H](c1cc(Cl)cc(Cl)c1)N2
REMARK SMILES IDX 7 1 8 2 5 3 6 4 20 5 10 6 4 7 11 8 9 9 12 12 14 13 13 14
REMARK SMILES IDX 16 15 17 16 19 17 15 18 18 19 2 20 3 21 1 22
REMARK H PARENT 20 10 10 11
ROOT
ATOM      1  C   UNL     1       8.940  -6.440   2.824  1.00  0.00     0.060 A 
ATOM      2  C   UNL     1       9.810  -5.482   2.361  1.00  0.00     0.066 A 
ATOM      3  C   UNL     1      10.720  -7.854   3.440  1.00  0.00     0.088 A 
ATOM      4  C   UNL     1       9.359  -7.460   3.542  1.00  0.00     0.035 A 
ATOM      5  N   UNL     1       7.578  -5.976   2.644  1.00  0.00    -0.360 N 
ATOM      6  N   UNL     1       8.995  -4.429   1.938  1.00  0.00    -0.360 N 
ATOM      7  C   UNL     1      11.619  -6.971   2.846  1.00  0.00     0.271 A 
ATOM      8  C   UNL     1       7.771  -4.619   2.628  1.00  0.00     0.205 C 
ATOM      9  C   UNL     1      11.144  -5.732   2.313  1.00  0.00     0.113 A 
ATOM     10  H   UNL     1       6.706  -6.516   2.554  1.00  0.00     0.163 HD
ATOM     11  H   UNL     1       9.231  -3.680   1.271  1.00  0.00     0.163 HD
ENDROOT
BRANCH   8  12
ATOM     12  C   UNL     1       6.609  -3.697   2.167  1.00  0.00    -0.003 A 
ATOM     13  C   UNL     1       4.179  -3.227   2.254  1.00  0.00     0.042 A 
ATOM     14  C   UNL     1       5.425  -3.554   2.926  1.00  0.00     0.028 A 
ATOM     15  C   UNL     1       4.277  -2.493   0.987  1.00  0.00     0.041 A 
ATOM     16  C   UNL     1       5.614  -2.352   0.420  1.00  0.00     0.042 A 
ATOM     17  C   UNL     1       6.747  -3.069   0.878  1.00  0.00     0.028 A 
ATOM     18  Cl  UNL     1       2.751  -3.310   2.875  1.00  0.00    -0.084 Cl
ATOM     19  Cl  UNL     1       5.756  -1.323  -0.938  1.00  0.00    -0.084 Cl
ENDBRANCH   8  12
BRANCH   7  20
ATOM     20  N   UNL     1      12.985  -7.168   2.823  1.00  0.00     0.062 N 
ATOM     21  O   UNL     1      13.713  -6.258   2.672  1.00  0.00    -0.258 OA
ATOM     22  O   UNL     1      13.552  -8.287   3.185  1.00  0.00    -0.258 OA
ENDBRANCH   7  20
TORSDOF 2
ENDMDL
MODEL 2
REMARK VINA RESULT:    -4.454      1.067      2.700
REMARK INTER + INTRA:          -5.291
REMARK INTER:                  -4.975
REMARK INTRA:                  -0.315
REMARK UNBOUND:                -0.316
REMARK SMILES O=[N+]([O-])c1ccc2c(c1)N[C@@H](c1cc(Cl)cc(Cl)c1)N2
REMARK SMILES IDX 7 1 8 2 5 3 6 4 20 5 10 6 4 7 11 8 9 9 12 12 14 13 13 14
REMARK SMILES IDX 16 15 17 16 19 17 15 18 18 19 2 20 3 21 1 22
REMARK H PARENT 20 10 10 11
ROOT
ATOM      1  C   UNL     1       9.814  -5.435   2.326  1.00  0.00     0.060 A 
ATOM      2  C   UNL     1       9.024  -6.447   2.816  1.00  0.00     0.066 A 
ATOM      3  C   UNL     1      11.776  -6.660   2.772  1.00  0.00     0.088 A 
ATOM      4  C   UNL     1      11.095  -5.616   2.089  1.00  0.00     0.035 A 
ATOM      5  N   UNL     1       8.970  -4.344   1.879  1.00  0.00    -0.360 N 
ATOM      6  N   UNL     1       7.712  -6.001   2.637  1.00  0.00    -0.360 N 
ATOM      7  C   UNL     1      11.014  -7.636   3.409  1.00  0.00     0.271 A 
ATOM      8  C   UNL     1       7.802  -5.014   1.622  1.00  0.00     0.205 C 
ATOM      9  C   UNL     1       9.588  -7.534   3.404  1.00  0.00     0.113 A 
ATOM     10  H   UNL     1       9.187  -3.342   1.780  1.00  0.00     0.163 HD
ATOM     11  H   UNL     1       6.867  -6.318   3.133  1.00  0.00     0.163 HD
ENDROOT
BRANCH   8  12
ATOM     12  C   UNL     1       6.501  -4.199   1.384  1.00  0.00    -0.003 A 
ATOM     13  C   UNL     1       5.462  -2.225   0.310  1.00  0.00     0.042 A 
ATOM     14  C   UNL     1       6.328  -3.389   0.239  1.00  0.00     0.028 A 
ATOM     15  C   UNL     1       4.378  -2.260   1.298  1.00  0.00     0.041 A 
ATOM     16  C   UNL     1       4.406  -3.361   2.255  1.00  0.00     0.042 A 
ATOM     17  C   UNL     1       5.514  -4.225   2.434  1.00  0.00     0.028 A 
ATOM     18  Cl  UNL     1       5.376  -1.078  -0.742  1.00  0.00    -0.084 Cl
ATOM     19  Cl  UNL     1       3.037  -3.520   3.267  1.00  0.00    -0.084 Cl
ENDBRANCH   8  12
BRANCH   7  20
ATOM     20  N   UNL     1      11.548  -8.777   3.973  1.00  0.00     0.062 N 
ATOM     21  O   UNL     1      10.879  -9.730   4.131  1.00  0.00    -0.258 OA
ATOM     22  O   UNL     1      12.829  -8.956   4.148  1.00  0.00    -0.258 OA
ENDBRANCH   7  20
TORSDOF 2
ENDMDL
MODEL 3
REMARK VINA RESULT:    -4.130      5.111      7.576
REMARK INTER + INTRA:          -4.929
REMARK INTER:                  -4.630
REMARK INTRA:                  -0.299
REMARK UNBOUND:                -0.316
REMARK SMILES O=[N+]([O-])c1ccc2c(c1)N[C@@H](c1cc(Cl)cc(Cl)c1)N2
REMARK SMILES IDX 7 1 8 2 5 3 6 4 20 5 10 6 4 7 11 8 9 9 12 12 14 13 13 14
REMARK SMILES IDX 16 15 17 16 19 17 15 18 18 19 2 20 3 21 1 22
REMARK H PARENT 20 10 10 11
ROOT
ATOM      1  C   UNL     1       6.949  -3.493   1.210  1.00  0.00     0.060 A 
ATOM      2  C   UNL     1       6.086  -4.335   1.869  1.00  0.00     0.066 A 
ATOM      3  C   UNL     1       5.235  -1.921   0.837  1.00  0.00     0.088 A 
ATOM      4  C   UNL     1       6.614  -2.254   0.920  1.00  0.00     0.035 A 
ATOM      5  N   UNL     1       8.270  -4.089   1.182  1.00  0.00    -0.360 N 
ATOM      6  N   UNL     1       6.874  -5.415   2.274  1.00  0.00    -0.360 N 
ATOM      7  C   UNL     1       4.307  -2.816   1.367  1.00  0.00     0.271 A 
ATOM      8  C   UNL     1       8.201  -4.913   2.275  1.00  0.00     0.205 C 
ATOM      9  C   UNL     1       4.758  -4.052   1.925  1.00  0.00     0.113 A 
ATOM     10  H   UNL     1       9.047  -3.935   0.524  1.00  0.00     0.163 HD
ATOM     11  H   UNL     1       6.562  -6.366   2.519  1.00  0.00     0.163 HD
ENDROOT
BRANCH   8  12
ATOM     12  C   UNL     1       9.306  -5.985   2.483  1.00  0.00    -0.003 A 
ATOM     13  C   UNL     1       9.976  -8.072   3.636  1.00  0.00     0.042 A 
ATOM     14  C   UNL     1       8.998  -7.306   2.882  1.00  0.00     0.028 A 
ATOM     15  C   UNL     1      11.388  -7.723   3.443  1.00  0.00     0.041 A 
ATOM     16  C   UNL     1      11.660  -6.507   2.685  1.00  0.00     0.042 A 
ATOM     17  C   UNL     1      10.672  -5.547   2.349  1.00  0.00     0.028 A 
ATOM     18  Cl  UNL     1       9.711  -9.409   4.392  1.00  0.00    -0.084 Cl
ATOM     19  Cl  UNL     1      13.295  -6.213   2.283  1.00  0.00    -0.084 Cl
ENDBRANCH   8  12
BRANCH   7  20
ATOM     20  N   UNL     1       2.960  -2.541   1.485  1.00  0.00     0.062 N 
ATOM     21  O   UNL     1       2.442  -1.786   0.747  1.00  0.00    -0.258 OA
ATOM     22  O   UNL     1       2.150  -3.239   2.234  1.00  0.00    -0.258 OA
ENDBRANCH   7  20
TORSDOF 2
ENDMDL
MODEL 4
REMARK VINA RESULT:    -4.116      4.991      7.652
REMARK INTER + INTRA:          -4.913
REMARK INTER:                  -4.614
REMARK INTRA:                  -0.299
REMARK UNBOUND:                -0.316
REMARK SMILES O=[N+]([O-])c1ccc2c(c1)N[C@@H](c1cc(Cl)cc(Cl)c1)N2
REMARK SMILES IDX 7 1 8 2 5 3 6 4 20 5 10 6 4 7 11 8 9 9 12 12 14 13 13 14
REMARK SMILES IDX 16 15 17 16 19 17 15 18 18 19 2 20 3 21 1 22
REMARK H PARENT 20 10 10 11
ROOT
ATOM      1  C   UNL     1       5.946  -4.217   2.261  1.00  0.00     0.060 A 
ATOM      2  C   UNL     1       6.713  -3.299   1.584  1.00  0.00     0.066 A 
ATOM      3  C   UNL     1       3.956  -3.158   1.577  1.00  0.00     0.088 A 
ATOM      4  C   UNL     1       4.646  -4.295   2.077  1.00  0.00     0.035 A 
ATOM      5  N   UNL     1       6.814  -5.179   2.909  1.00  0.00    -0.360 N 
ATOM      6  N   UNL     1       8.032  -3.714   1.782  1.00  0.00    -0.360 N 
ATOM      7  C   UNL     1       4.706  -2.131   1.006  1.00  0.00     0.271 A 
ATOM      8  C   UNL     1       7.931  -5.088   2.120  1.00  0.00     0.205 C 
ATOM      9  C   UNL     1       6.133  -2.224   0.989  1.00  0.00     0.113 A 
ATOM     10  H   UNL     1       6.641  -5.770   3.735  1.00  0.00     0.163 HD
ATOM     11  H   UNL     1       8.889  -3.148   1.700  1.00  0.00     0.163 HD
ENDROOT
BRANCH   8  12
ATOM     12  C   UNL     1       9.255  -5.742   2.605  1.00  0.00    -0.003 A 
ATOM     13  C   UNL     1      11.714  -5.878   2.346  1.00  0.00     0.042 A 
ATOM     14  C   UNL     1      10.501  -5.088   2.474  1.00  0.00     0.028 A 
ATOM     15  C   UNL     1      11.700  -7.221   2.937  1.00  0.00     0.041 A 
ATOM     16  C   UNL     1      10.408  -7.712   3.404  1.00  0.00     0.042 A 
ATOM     17  C   UNL     1       9.170  -7.090   3.105  1.00  0.00     0.028 A 
ATOM     18  Cl  UNL     1      13.114  -5.347   1.914  1.00  0.00    -0.084 Cl
ATOM     19  Cl  UNL     1      10.427  -9.181   4.278  1.00  0.00    -0.084 Cl
ENDBRANCH   8  12
BRANCH   7  20
ATOM     20  N   UNL     1       4.151  -1.051   0.351  1.00  0.00     0.062 N 
ATOM     21  O   UNL     1       3.069  -0.683   0.627  1.00  0.00    -0.258 OA
ATOM     22  O   UNL     1       4.837  -0.250  -0.418  1.00  0.00    -0.258 OA
ENDBRANCH   7  20
TORSDOF 2
ENDMDL
MODEL 5
REMARK VINA RESULT:    -4.062      4.970      7.405
REMARK INTER + INTRA:          -4.852
REMARK INTER:                  -4.533
REMARK INTRA:                  -0.319
REMARK UNBOUND:                -0.316
REMARK SMILES O=[N+]([O-])c1ccc2c(c1)N[C@@H](c1cc(Cl)cc(Cl)c1)N2
REMARK SMILES IDX 7 1 8 2 5 3 6 4 20 5 10 6 4 7 11 8 9 9 12 12 14 13 13 14
REMARK SMILES IDX 16 15 17 16 19 17 15 18 18 19 2 20 3 21 1 22
REMARK H PARENT 20 10 10 11
ROOT
ATOM      1  C   UNL     1       5.993  -4.248   2.352  1.00  0.00     0.060 A 
ATOM      2  C   UNL     1       6.674  -3.473   1.444  1.00  0.00     0.066 A 
ATOM      3  C   UNL     1       4.005  -3.035   1.994  1.00  0.00     0.088 A 
ATOM      4  C   UNL     1       4.682  -4.199   2.450  1.00  0.00     0.035 A 
ATOM      5  N   UNL     1       6.891  -5.246   2.897  1.00  0.00    -0.360 N 
ATOM      6  N   UNL     1       7.963  -4.012   1.404  1.00  0.00    -0.360 N 
ATOM      7  C   UNL     1       4.703  -2.142   1.183  1.00  0.00     0.271 A 
ATOM      8  C   UNL     1       7.814  -5.336   1.889  1.00  0.00     0.205 C 
ATOM      9  C   UNL     1       6.078  -2.390   0.880  1.00  0.00     0.113 A 
ATOM     10  H   UNL     1       6.847  -5.749   3.795  1.00  0.00     0.163 HD
ATOM     11  H   UNL     1       8.829  -3.550   1.092  1.00  0.00     0.163 HD
ENDROOT
BRANCH   8  12
ATOM     12  C   UNL     1       9.147  -6.091   2.151  1.00  0.00    -0.003 A 
ATOM     13  C   UNL     1      10.306  -7.862   3.437  1.00  0.00     0.042 A 
ATOM     14  C   UNL     1       9.169  -7.413   2.650  1.00  0.00     0.028 A 
ATOM     15  C   UNL     1      11.591  -7.197   3.193  1.00  0.00     0.041 A 
ATOM     16  C   UNL     1      11.557  -6.011   2.344  1.00  0.00     0.042 A 
ATOM     17  C   UNL     1      10.366  -5.347   1.960  1.00  0.00     0.028 A 
ATOM     18  Cl  UNL     1      10.374  -9.163   4.293  1.00  0.00    -0.084 Cl
ATOM     19  Cl  UNL     1      13.072  -5.361   1.890  1.00  0.00    -0.084 Cl
ENDBRANCH   8  12
BRANCH   7  20
ATOM     20  N   UNL     1       4.118  -1.062   0.555  1.00  0.00     0.062 N 
ATOM     21  O   UNL     1       4.723  -0.436  -0.235  1.00  0.00    -0.258 OA
ATOM     22  O   UNL     1       2.839  -0.807   0.612  1.00  0.00    -0.258 OA
ENDBRANCH   7  20
TORSDOF 2
ENDMDL
MODEL 6
REMARK VINA RESULT:    -3.982      0.557      2.069
REMARK INTER + INTRA:          -4.763
REMARK INTER:                  -4.465
REMARK INTRA:                  -0.298
REMARK UNBOUND:                -0.316
REMARK SMILES O=[N+]([O-])c1ccc2c(c1)N[C@@H](c1cc(Cl)cc(Cl)c1)N2
REMARK SMILES IDX 7 1 8 2 5 3 6 4 20 5 10 6 4 7 11 8 9 9 12 12 14 13 13 14
REMARK SMILES IDX 16 15 17 16 19 17 15 18 18 19 2 20 3 21 1 22
REMARK H PARENT 20 10 10 11
ROOT
ATOM      1  C   UNL     1       9.287  -6.434   2.578  1.00  0.00     0.060 A 
ATOM      2  C   UNL     1       9.983  -5.349   2.103  1.00  0.00     0.066 A 
ATOM      3  C   UNL     1      11.279  -7.510   3.229  1.00  0.00     0.088 A 
ATOM      4  C   UNL     1       9.869  -7.355   3.316  1.00  0.00     0.035 A 
ATOM      5  N   UNL     1       7.868  -6.215   2.382  1.00  0.00    -0.360 N 
ATOM      6  N   UNL     1       9.003  -4.458   1.657  1.00  0.00    -0.360 N 
ATOM      7  C   UNL     1      12.018  -6.495   2.624  1.00  0.00     0.271 A 
ATOM      8  C   UNL     1       7.824  -4.846   2.344  1.00  0.00     0.205 C 
ATOM      9  C   UNL     1      11.341  -5.365   2.068  1.00  0.00     0.113 A 
ATOM     10  H   UNL     1       7.102  -6.899   2.296  1.00  0.00     0.163 HD
ATOM     11  H   UNL     1       9.112  -3.691   0.979  1.00  0.00     0.163 HD
ENDROOT
BRANCH   8  12
ATOM     12  C   UNL     1       6.524  -4.145   1.860  1.00  0.00    -0.003 A 
ATOM     13  C   UNL     1       5.530  -2.381   0.434  1.00  0.00     0.042 A 
ATOM     14  C   UNL     1       6.451  -3.492   0.609  1.00  0.00     0.028 A 
ATOM     15  C   UNL     1       4.340  -2.361   1.291  1.00  0.00     0.041 A 
ATOM     16  C   UNL     1       4.304  -3.335   2.377  1.00  0.00     0.042 A 
ATOM     17  C   UNL     1       5.422  -4.103   2.788  1.00  0.00     0.028 A 
ATOM     18  Cl  UNL     1       5.518  -1.377  -0.758  1.00  0.00    -0.084 Cl
ATOM     19  Cl  UNL     1       2.835  -3.453   3.242  1.00  0.00    -0.084 Cl
ENDBRANCH   8  12
BRANCH   7  20
ATOM     20  N   UNL     1      13.397  -6.454   2.613  1.00  0.00     0.062 N 
ATOM     21  O   UNL     1      13.961  -5.428   2.722  1.00  0.00    -0.258 OA
ATOM     22  O   UNL     1      14.145  -7.519   2.713  1.00  0.00    -0.258 OA
ENDBRANCH   7  20
TORSDOF 2
ENDMDL
MODEL 7
REMARK VINA RESULT:    -3.979      1.086      1.847
REMARK INTER + INTRA:          -4.760
REMARK INTER:                  -4.461
REMARK INTRA:                  -0.298
REMARK UNBOUND:                -0.316
REMARK SMILES O=[N+]([O-])c1ccc2c(c1)N[C@@H](c1cc(Cl)cc(Cl)c1)N2
REMARK SMILES IDX 7 1 8 2 5 3 6 4 20 5 10 6 4 7 11 8 9 9 12 12 14 13 13 14
REMARK SMILES IDX 16 15 17 16 19 17 15 18 18 19 2 20 3 21 1 22
REMARK H PARENT 20 10 10 11
ROOT
ATOM      1  C   UNL     1       9.916  -5.340   2.464  1.00  0.00     0.060 A 
ATOM      2  C   UNL     1       9.056  -6.250   3.031  1.00  0.00     0.066 A 
ATOM      3  C   UNL     1      11.748  -6.794   2.751  1.00  0.00     0.088 A 
ATOM      4  C   UNL     1      11.141  -5.674   2.119  1.00  0.00     0.035 A 
ATOM      5  N   UNL     1       9.174  -4.155   2.082  1.00  0.00    -0.360 N 
ATOM      6  N   UNL     1       7.797  -5.649   2.962  1.00  0.00    -0.360 N 
ATOM      7  C   UNL     1      10.932  -7.672   3.460  1.00  0.00     0.271 A 
ATOM      8  C   UNL     1       7.917  -4.679   1.934  1.00  0.00     0.205 C 
ATOM      9  C   UNL     1       9.534  -7.399   3.578  1.00  0.00     0.113 A 
ATOM     10  H   UNL     1       9.501  -3.187   1.955  1.00  0.00     0.163 HD
ATOM     11  H   UNL     1       6.966  -5.862   3.532  1.00  0.00     0.163 HD
ENDROOT
BRANCH   8  12
ATOM     12  C   UNL     1       6.707  -3.713   1.802  1.00  0.00    -0.003 A 
ATOM     13  C   UNL     1       4.332  -3.280   2.355  1.00  0.00     0.042 A 
ATOM     14  C   UNL     1       5.668  -3.684   2.760  1.00  0.00     0.028 A 
ATOM     15  C   UNL     1       4.229  -2.380   1.200  1.00  0.00     0.041 A 
ATOM     16  C   UNL     1       5.455  -2.152   0.443  1.00  0.00     0.042 A 
ATOM     17  C   UNL     1       6.637  -2.915   0.604  1.00  0.00     0.028 A 
ATOM     18  Cl  UNL     1       3.027  -3.459   3.188  1.00  0.00    -0.084 Cl
ATOM     19  Cl  UNL     1       5.383  -0.948  -0.768  1.00  0.00    -0.084 Cl
ENDBRANCH   8  12
BRANCH   7  20
ATOM     20  N   UNL     1      11.372  -8.870   3.986  1.00  0.00     0.062 N 
ATOM     21  O   UNL     1      10.651  -9.797   4.034  1.00  0.00    -0.258 OA
ATOM     22  O   UNL     1      12.628  -9.121   4.240  1.00  0.00    -0.258 OA
ENDBRANCH   7  20
TORSDOF 2
ENDMDL
MODEL 8
REMARK VINA RESULT:    -3.946      3.705      4.742
REMARK INTER + INTRA:          -4.723
REMARK INTER:                  -4.415
REMARK INTRA:                  -0.308
REMARK UNBOUND:                -0.316
REMARK SMILES O=[N+]([O-])c1ccc2c(c1)N[C@@H](c1cc(Cl)cc(Cl)c1)N2
REMARK SMILES IDX 7 1 8 2 5 3 6 4 20 5 10 6 4 7 11 8 9 9 12 12 14 13 13 14
REMARK SMILES IDX 16 15 17 16 19 17 15 18 18 19 2 20 3 21 1 22
REMARK H PARENT 20 10 10 11
ROOT
ATOM      1  C   UNL     1       9.971  -9.254   4.347  1.00  0.00     0.060 A 
ATOM      2  C   UNL     1       9.072  -9.815   3.472  1.00  0.00     0.066 A 
ATOM      3  C   UNL     1      10.818 -11.371   4.937  1.00  0.00     0.088 A 
ATOM      4  C   UNL     1      10.952  -9.958   4.870  1.00  0.00     0.035 A 
ATOM      5  N   UNL     1       9.820  -7.813   4.329  1.00  0.00    -0.360 N 
ATOM      6  N   UNL     1       8.403  -8.731   2.897  1.00  0.00    -0.360 N 
ATOM      7  C   UNL     1       9.822 -11.976   4.173  1.00  0.00     0.271 A 
ATOM      8  C   UNL     1       9.275  -7.629   3.085  1.00  0.00     0.205 C 
ATOM      9  C   UNL     1       8.938 -11.165   3.396  1.00  0.00     0.113 A 
ATOM     10  H   UNL     1      10.056  -7.118   5.051  1.00  0.00     0.163 HD
ATOM     11  H   UNL     1       7.481  -8.733   2.438  1.00  0.00     0.163 HD
ENDROOT
BRANCH   8  12
ATOM     12  C   UNL     1       8.668  -6.245   2.723  1.00  0.00    -0.003 A 
ATOM     13  C   UNL     1       7.469  -4.235   3.532  1.00  0.00     0.042 A 
ATOM     14  C   UNL     1       8.528  -5.219   3.685  1.00  0.00     0.028 A 
ATOM     15  C   UNL     1       6.998  -3.969   2.168  1.00  0.00     0.041 A 
ATOM     16  C   UNL     1       7.483  -4.867   1.126  1.00  0.00     0.042 A 
ATOM     17  C   UNL     1       8.160  -6.085   1.385  1.00  0.00     0.028 A 
ATOM     18  Cl  UNL     1       6.991  -3.224   4.618  1.00  0.00    -0.084 Cl
ATOM     19  Cl  UNL     1       7.106  -4.435  -0.484  1.00  0.00    -0.084 Cl
ENDBRANCH   8  12
BRANCH   7  20
ATOM     20  N   UNL     1       9.688 -13.342   4.033  1.00  0.00     0.062 N 
ATOM     21  O   UNL     1       9.451 -14.014   4.969  1.00  0.00    -0.258 OA
ATOM     22  O   UNL     1       9.587 -13.937   2.876  1.00  0.00    -0.258 OA
ENDBRANCH   7  20
TORSDOF 2
ENDMDL
MODEL 9
REMARK VINA RESULT:    -3.349      4.198      5.673
REMARK INTER + INTRA:          -4.057
REMARK INTER:                  -3.746
REMARK INTRA:                  -0.311
REMARK UNBOUND:                -0.316
REMARK SMILES O=[N+]([O-])c1ccc2c(c1)N[C@@H](c1cc(Cl)cc(Cl)c1)N2
REMARK SMILES IDX 7 1 8 2 5 3 6 4 20 5 10 6 4 7 11 8 9 9 12 12 14 13 13 14
REMARK SMILES IDX 16 15 17 16 19 17 15 18 18 19 2 20 3 21 1 22
REMARK H PARENT 20 10 10 11
ROOT
ATOM      1  C   UNL     1       9.705 -10.872   3.758  1.00  0.00     0.060 A 
ATOM      2  C   UNL     1      10.778 -10.449   4.505  1.00  0.00     0.066 A 
ATOM      3  C   UNL     1       9.999 -13.096   4.476  1.00  0.00     0.088 A 
ATOM      4  C   UNL     1       9.189 -12.072   3.915  1.00  0.00     0.035 A 
ATOM      5  N   UNL     1       9.129  -9.738   3.064  1.00  0.00    -0.360 N 
ATOM      6  N   UNL     1      10.837  -9.068   4.303  1.00  0.00    -0.360 N 
ATOM      7  C   UNL     1      11.176 -12.726   5.123  1.00  0.00     0.271 A 
ATOM      8  C   UNL     1       9.533  -8.710   3.876  1.00  0.00     0.205 C 
ATOM      9  C   UNL     1      11.559 -11.349   5.158  1.00  0.00     0.113 A 
ATOM     10  H   UNL     1       8.570  -9.711   2.199  1.00  0.00     0.163 HD
ATOM     11  H   UNL     1      11.648  -8.446   4.434  1.00  0.00     0.163 HD
ENDROOT
BRANCH   8  12
ATOM     12  C   UNL     1       9.387  -7.247   3.371  1.00  0.00    -0.003 A 
ATOM     13  C   UNL     1       7.902  -5.546   2.355  1.00  0.00     0.042 A 
ATOM     14  C   UNL     1       8.135  -6.593   3.336  1.00  0.00     0.028 A 
ATOM     15  C   UNL     1       9.077  -4.811   1.873  1.00  0.00     0.041 A 
ATOM     16  C   UNL     1      10.379  -5.342   2.259  1.00  0.00     0.042 A 
ATOM     17  C   UNL     1      10.571  -6.619   2.843  1.00  0.00     0.028 A 
ATOM     18  Cl  UNL     1       6.521  -4.925   1.985  1.00  0.00    -0.084 Cl
ATOM     19  Cl  UNL     1      11.736  -4.375   1.877  1.00  0.00    -0.084 Cl
ENDBRANCH   8  12
BRANCH   7  20
ATOM     20  N   UNL     1      11.966 -13.604   5.837  1.00  0.00     0.062 N 
ATOM     21  O   UNL     1      12.218 -14.665   5.398  1.00  0.00    -0.258 OA
ATOM     22  O   UNL     1      12.651 -13.255   6.892  1.00  0.00    -0.258 OA
ENDBRANCH   7  20
TORSDOF 2
ENDMDL
