MODEL 1
REMARK VINA RESULT:    -4.556      0.000      0.000
REMARK INTER + INTRA:          -5.385
REMARK INTER:                  -5.088
REMARK INTRA:                  -0.297
REMARK UNBOUND:                -0.297
REMARK SMILES O=[N+]([O-])c1ccc2c(c1)N[C@@H](c1cc(Cl)cc(Cl)c1)N2
REMARK SMILES IDX 7 1 8 2 5 3 6 4 20 5 10 6 4 7 11 8 9 9 12 12 14 13 13 14
REMARK SMILES IDX 16 15 17 16 19 17 15 18 18 19 2 20 3 21 1 22
REMARK H PARENT 20 10 10 11
ROOT
ATOM      1  C   UNL     1      -2.892   0.236  -1.498  1.00  0.00     0.060 A 
ATOM      2  C   UNL     1      -3.426   0.166  -0.233  1.00  0.00     0.066 A 
ATOM      3  C   UNL     1      -5.030   0.108  -2.479  1.00  0.00     0.088 A 
ATOM      4  C   UNL     1      -3.650   0.440  -2.554  1.00  0.00     0.035 A 
ATOM      5  N   UNL     1      -1.450   0.341  -1.402  1.00  0.00    -0.360 N 
ATOM      6  N   UNL     1      -2.330   0.265   0.628  1.00  0.00    -0.360 N 
ATOM      7  C   UNL     1      -5.587  -0.114  -1.222  1.00  0.00     0.271 A 
ATOM      8  C   UNL     1      -1.316   0.880  -0.149  1.00  0.00     0.205 C 
ATOM      9  C   UNL     1      -4.756  -0.055  -0.060  1.00  0.00     0.113 A 
ATOM     10  H   UNL     1      -0.725   0.083  -2.086  1.00  0.00     0.163 HD
ATOM     11  H   UNL     1      -2.272  -0.042   1.610  1.00  0.00     0.163 HD
ENDROOT
BRANCH   8  12
ATOM     12  C   UNL     1       0.089   0.910   0.515  1.00  0.00    -0.003 A 
ATOM     13  C   UNL     1       1.401   1.358   2.567  1.00  0.00     0.042 A 
ATOM     14  C   UNL     1       0.259   0.747   1.908  1.00  0.00     0.028 A 
ATOM     15  C   UNL     1       2.598   1.585   1.749  1.00  0.00     0.041 A 
ATOM     16  C   UNL     1       2.454   1.375   0.313  1.00  0.00     0.042 A 
ATOM     17  C   UNL     1       1.208   1.213  -0.341  1.00  0.00     0.028 A 
ATOM     18  Cl  UNL     1       1.594   1.523   4.104  1.00  0.00    -0.084 Cl
ATOM     19  Cl  UNL     1       3.892   1.435  -0.610  1.00  0.00    -0.084 Cl
ENDBRANCH   8  12
BRANCH   7  20
ATOM     20  N   UNL     1      -6.938  -0.292  -1.005  1.00  0.00     0.062 N 
ATOM     21  O   UNL     1      -7.485   0.304  -0.151  1.00  0.00    -0.258 OA
ATOM     22  O   UNL     1      -7.720  -0.924  -1.837  1.00  0.00    -0.258 OA
ENDBRANCH   7  20
TORSDOF 2
ENDMDL
MODEL 2
REMARK VINA RESULT:    -4.262     14.540     15.283
REMARK INTER + INTRA:          -5.057
REMARK INTER:                  -4.752
REMARK INTRA:                  -0.305
REMARK UNBOUND:                -0.297
REMARK SMILES O=[N+]([O-])c1ccc2c(c1)N[C@@H](c1cc(Cl)cc(Cl)c1)N2
REMARK SMILES IDX 7 1 8 2 5 3 6 4 20 5 10 6 4 7 11 8 9 9 12 12 14 13 13 14
REMARK SMILES IDX 16 15 17 16 19 17 15 18 18 19 2 20 3 21 1 22
REMARK H PARENT 20 10 10 11
ROOT
ATOM      1  C   UNL     1      -4.733  13.043  -8.835  1.00  0.00     0.060 A 
ATOM      2  C   UNL     1      -3.613  13.808  -9.057  1.00  0.00     0.066 A 
ATOM      3  C   UNL     1      -5.714  13.778 -10.847  1.00  0.00     0.088 A 
ATOM      4  C   UNL     1      -5.628  12.844  -9.779  1.00  0.00     0.035 A 
ATOM      5  N   UNL     1      -4.582  12.326  -7.585  1.00  0.00    -0.360 N 
ATOM      6  N   UNL     1      -2.769  13.535  -7.978  1.00  0.00    -0.360 N 
ATOM      7  C   UNL     1      -4.662  14.673 -11.026  1.00  0.00     0.271 A 
ATOM      8  C   UNL     1      -3.216  12.285  -7.478  1.00  0.00     0.205 C 
ATOM      9  C   UNL     1      -3.563  14.665 -10.111  1.00  0.00     0.113 A 
ATOM     10  H   UNL     1      -5.301  11.950  -6.951  1.00  0.00     0.163 HD
ATOM     11  H   UNL     1      -1.994  14.113  -7.623  1.00  0.00     0.163 HD
ENDROOT
BRANCH   8  12
ATOM     12  C   UNL     1      -2.576  11.853  -6.129  1.00  0.00    -0.003 A 
ATOM     13  C   UNL     1      -2.374  10.085  -4.406  1.00  0.00     0.042 A 
ATOM     14  C   UNL     1      -2.377  10.492  -5.802  1.00  0.00     0.028 A 
ATOM     15  C   UNL     1      -1.981  11.096  -3.418  1.00  0.00     0.041 A 
ATOM     16  C   UNL     1      -1.841  12.464  -3.907  1.00  0.00     0.042 A 
ATOM     17  C   UNL     1      -2.287  12.897  -5.180  1.00  0.00     0.028 A 
ATOM     18  Cl  UNL     1      -2.453   8.622  -3.876  1.00  0.00    -0.084 Cl
ATOM     19  Cl  UNL     1      -1.184  13.598  -2.810  1.00  0.00    -0.084 Cl
ENDBRANCH   8  12
BRANCH   7  20
ATOM     20  N   UNL     1      -4.555  15.522 -12.109  1.00  0.00     0.062 N 
ATOM     21  O   UNL     1      -4.712  15.113 -13.200  1.00  0.00    -0.258 OA
ATOM     22  O   UNL     1      -4.506  16.821 -11.998  1.00  0.00    -0.258 OA
ENDBRANCH   7  20
TORSDOF 2
ENDMDL
MODEL 3
REMARK VINA RESULT:    -4.258     10.891     11.603
REMARK INTER + INTRA:          -5.053
REMARK INTER:                  -4.738
REMARK INTRA:                  -0.315
REMARK UNBOUND:                -0.297
REMARK SMILES O=[N+]([O-])c1ccc2c(c1)N[C@@H](c1cc(Cl)cc(Cl)c1)N2
REMARK SMILES IDX 7 1 8 2 5 3 6 4 20 5 10 6 4 7 11 8 9 9 12 12 14 13 13 14
REMARK SMILES IDX 16 15 17 16 19 17 15 18 18 19 2 20 3 21 1 22
REMARK H PARENT 20 10 10 11
ROOT
ATOM      1  C   UNL     1      -2.086  11.566  -4.176  1.00  0.00     0.060 A 
ATOM      2  C   UNL     1      -2.613  11.045  -5.334  1.00  0.00     0.066 A 
ATOM      3  C   UNL     1      -2.061  13.738  -5.088  1.00  0.00     0.088 A 
ATOM      4  C   UNL     1      -2.035  12.864  -3.967  1.00  0.00     0.035 A 
ATOM      5  N   UNL     1      -1.905  10.500  -3.211  1.00  0.00    -0.360 N 
ATOM      6  N   UNL     1      -2.790   9.685  -5.069  1.00  0.00    -0.360 N 
ATOM      7  C   UNL     1      -2.454  13.220  -6.319  1.00  0.00     0.271 A 
ATOM      8  C   UNL     1      -2.834   9.595  -3.655  1.00  0.00     0.205 C 
ATOM      9  C   UNL     1      -2.765  11.829  -6.433  1.00  0.00     0.113 A 
ATOM     10  H   UNL     1      -1.259  10.439  -2.412  1.00  0.00     0.163 HD
ATOM     11  H   UNL     1      -2.871   8.917  -5.751  1.00  0.00     0.163 HD
ENDROOT
BRANCH   8  12
ATOM     12  C   UNL     1      -2.808   8.148  -3.089  1.00  0.00    -0.003 A 
ATOM     13  C   UNL     1      -2.583   6.712  -1.084  1.00  0.00     0.042 A 
ATOM     14  C   UNL     1      -3.165   7.864  -1.752  1.00  0.00     0.028 A 
ATOM     15  C   UNL     1      -2.154   5.595  -1.934  1.00  0.00     0.041 A 
ATOM     16  C   UNL     1      -2.155   5.836  -3.373  1.00  0.00     0.042 A 
ATOM     17  C   UNL     1      -2.304   7.117  -3.960  1.00  0.00     0.028 A 
ATOM     18  Cl  UNL     1      -2.636   6.412   0.444  1.00  0.00    -0.084 Cl
ATOM     19  Cl  UNL     1      -1.860   4.478  -4.368  1.00  0.00    -0.084 Cl
ENDBRANCH   8  12
BRANCH   7  20
ATOM     20  N   UNL     1      -2.667  13.993  -7.443  1.00  0.00     0.062 N 
ATOM     21  O   UNL     1      -3.256  13.555  -8.361  1.00  0.00    -0.258 OA
ATOM     22  O   UNL     1      -2.447  15.279  -7.478  1.00  0.00    -0.258 OA
ENDBRANCH   7  20
TORSDOF 2
ENDMDL
MODEL 4
REMARK VINA RESULT:    -4.237     10.960     11.772
REMARK INTER + INTRA:          -5.029
REMARK INTER:                  -4.713
REMARK INTRA:                  -0.316
REMARK UNBOUND:                -0.297
REMARK SMILES O=[N+]([O-])c1ccc2c(c1)N[C@@H](c1cc(Cl)cc(Cl)c1)N2
REMARK SMILES IDX 7 1 8 2 5 3 6 4 20 5 10 6 4 7 11 8 9 9 12 12 14 13 13 14
REMARK SMILES IDX 16 15 17 16 19 17 15 18 18 19 2 20 3 21 1 22
REMARK H PARENT 20 10 10 11
ROOT
ATOM      1  C   UNL     1      -2.404  11.125  -5.202  1.00  0.00     0.060 A 
ATOM      2  C   UNL     1      -1.891  11.588  -4.014  1.00  0.00     0.066 A 
ATOM      3  C   UNL     1      -2.519  13.309  -6.078  1.00  0.00     0.088 A 
ATOM      4  C   UNL     1      -2.489  11.900  -6.262  1.00  0.00     0.035 A 
ATOM      5  N   UNL     1      -2.527   9.682  -5.141  1.00  0.00    -0.360 N 
ATOM      6  N   UNL     1      -1.665  10.441  -3.248  1.00  0.00    -0.360 N 
ATOM      7  C   UNL     1      -2.141  13.820  -4.838  1.00  0.00     0.271 A 
ATOM      8  C   UNL     1      -1.582   9.387  -4.192  1.00  0.00     0.205 C 
ATOM      9  C   UNL     1      -1.791  12.922  -3.781  1.00  0.00     0.113 A 
ATOM     10  H   UNL     1      -3.150   9.052  -5.665  1.00  0.00     0.163 HD
ATOM     11  H   UNL     1      -1.578  10.376  -2.223  1.00  0.00     0.163 HD
ENDROOT
BRANCH   8  12
ATOM     12  C   UNL     1      -1.550   7.959  -3.579  1.00  0.00    -0.003 A 
ATOM     13  C   UNL     1      -1.700   5.522  -3.995  1.00  0.00     0.042 A 
ATOM     14  C   UNL     1      -1.167   6.830  -4.338  1.00  0.00     0.028 A 
ATOM     15  C   UNL     1      -2.097   5.310  -2.598  1.00  0.00     0.041 A 
ATOM     16  C   UNL     1      -2.120   6.491  -1.742  1.00  0.00     0.042 A 
ATOM     17  C   UNL     1      -2.025   7.820  -2.226  1.00  0.00     0.028 A 
ATOM     18  Cl  UNL     1      -1.619   4.238  -4.874  1.00  0.00    -0.084 Cl
ATOM     19  Cl  UNL     1      -2.377   6.214  -0.076  1.00  0.00    -0.084 Cl
ENDBRANCH   8  12
BRANCH   7  20
ATOM     20  N   UNL     1      -1.982  15.166  -4.581  1.00  0.00     0.062 N 
ATOM     21  O   UNL     1      -1.417  15.523  -3.614  1.00  0.00    -0.258 OA
ATOM     22  O   UNL     1      -2.226  16.097  -5.464  1.00  0.00    -0.258 OA
ENDBRANCH   7  20
TORSDOF 2
ENDMDL
MODEL 5
REMARK VINA RESULT:    -3.958     11.109     11.806
REMARK INTER + INTRA:          -4.717
REMARK INTER:                  -4.417
REMARK INTRA:                  -0.300
REMARK UNBOUND:                -0.297
REMARK SMILES O=[N+]([O-])c1ccc2c(c1)N[C@@H](c1cc(Cl)cc(Cl)c1)N2
REMARK SMILES IDX 7 1 8 2 5 3 6 4 20 5 10 6 4 7 11 8 9 9 12 12 14 13 13 14
REMARK SMILES IDX 16 15 17 16 19 17 15 18 18 19 2 20 3 21 1 22
REMARK H PARENT 20 10 10 11
ROOT
ATOM      1  C   UNL     1      -2.531  11.511  -4.908  1.00  0.00     0.060 A 
ATOM      2  C   UNL     1      -1.976  11.782  -3.680  1.00  0.00     0.066 A 
ATOM      3  C   UNL     1      -2.313  13.759  -5.577  1.00  0.00     0.088 A 
ATOM      4  C   UNL     1      -2.485  12.384  -5.892  1.00  0.00     0.035 A 
ATOM      5  N   UNL     1      -2.862  10.102  -4.982  1.00  0.00    -0.360 N 
ATOM      6  N   UNL     1      -1.932  10.550  -3.024  1.00  0.00    -0.360 N 
ATOM      7  C   UNL     1      -1.886  14.093  -4.294  1.00  0.00     0.271 A 
ATOM      8  C   UNL     1      -1.987   9.586  -4.062  1.00  0.00     0.205 C 
ATOM      9  C   UNL     1      -1.687  13.061  -3.324  1.00  0.00     0.113 A 
ATOM     10  H   UNL     1      -3.562   9.620  -5.564  1.00  0.00     0.163 HD
ATOM     11  H   UNL     1      -1.872  10.379  -2.010  1.00  0.00     0.163 HD
ENDROOT
BRANCH   8  12
ATOM     12  C   UNL     1      -2.172   8.118  -3.584  1.00  0.00    -0.003 A 
ATOM     13  C   UNL     1      -2.333   6.574  -1.655  1.00  0.00     0.042 A 
ATOM     14  C   UNL     1      -2.715   7.811  -2.316  1.00  0.00     0.028 A 
ATOM     15  C   UNL     1      -1.918   5.460  -2.515  1.00  0.00     0.041 A 
ATOM     16  C   UNL     1      -1.722   5.767  -3.928  1.00  0.00     0.042 A 
ATOM     17  C   UNL     1      -1.671   7.082  -4.451  1.00  0.00     0.028 A 
ATOM     18  Cl  UNL     1      -2.600   6.210  -0.163  1.00  0.00    -0.084 Cl
ATOM     19  Cl  UNL     1      -1.445   4.434  -4.961  1.00  0.00    -0.084 Cl
ENDBRANCH   8  12
BRANCH   7  20
ATOM     20  N   UNL     1      -1.537  15.373  -3.912  1.00  0.00     0.062 N 
ATOM     21  O   UNL     1      -0.902  15.549  -2.939  1.00  0.00    -0.258 OA
ATOM     22  O   UNL     1      -1.676  16.414  -4.688  1.00  0.00    -0.258 OA
ENDBRANCH   7  20
TORSDOF 2
ENDMDL
MODEL 6
REMARK VINA RESULT:    -3.941     10.891     11.719
REMARK INTER + INTRA:          -4.698
REMARK INTER:                  -4.400
REMARK INTRA:                  -0.297
REMARK UNBOUND:                -0.297
REMARK SMILES O=[N+]([O-])c1ccc2c(c1)N[C@@H](c1cc(Cl)cc(Cl)c1)N2
REMARK SMILES IDX 7 1 8 2 5 3 6 4 20 5 10 6 4 7 11 8 9 9 12 12 14 13 13 14
REMARK SMILES IDX 16 15 17 16 19 17 15 18 18 19 2 20 3 21 1 22
REMARK H PARENT 20 10 10 11
ROOT
ATOM      1  C   UNL     1      -1.863  11.626  -4.263  1.00  0.00     0.060 A 
ATOM      2  C   UNL     1      -2.328  11.036  -5.414  1.00  0.00     0.066 A 
ATOM      3  C   UNL     1      -2.191  13.780  -5.158  1.00  0.00     0.088 A 
ATOM      4  C   UNL     1      -2.008  12.915  -4.045  1.00  0.00     0.035 A 
ATOM      5  N   UNL     1      -1.501  10.596  -3.310  1.00  0.00    -0.360 N 
ATOM      6  N   UNL     1      -2.289   9.663  -5.156  1.00  0.00    -0.360 N 
ATOM      7  C   UNL     1      -2.526  13.213  -6.385  1.00  0.00     0.271 A 
ATOM      8  C   UNL     1      -2.289   9.561  -3.742  1.00  0.00     0.205 C 
ATOM      9  C   UNL     1      -2.622  11.792  -6.504  1.00  0.00     0.113 A 
ATOM     10  H   UNL     1      -0.836  10.631  -2.524  1.00  0.00     0.163 HD
ATOM     11  H   UNL     1      -2.266   8.895  -5.842  1.00  0.00     0.163 HD
ENDROOT
BRANCH   8  12
ATOM     12  C   UNL     1      -2.029   8.132  -3.189  1.00  0.00    -0.003 A 
ATOM     13  C   UNL     1      -1.855   5.715  -3.697  1.00  0.00     0.042 A 
ATOM     14  C   UNL     1      -1.527   7.096  -4.008  1.00  0.00     0.028 A 
ATOM     15  C   UNL     1      -2.154   5.400  -2.295  1.00  0.00     0.041 A 
ATOM     16  C   UNL     1      -2.303   6.536  -1.392  1.00  0.00     0.042 A 
ATOM     17  C   UNL     1      -2.417   7.881  -1.824  1.00  0.00     0.028 A 
ATOM     18  Cl  UNL     1      -1.636   4.486  -4.630  1.00  0.00    -0.084 Cl
ATOM     19  Cl  UNL     1      -2.443   6.168   0.271  1.00  0.00    -0.084 Cl
ENDBRANCH   8  12
BRANCH   7  20
ATOM     20  N   UNL     1      -2.878  13.950  -7.498  1.00  0.00     0.062 N 
ATOM     21  O   UNL     1      -3.732  13.573  -8.213  1.00  0.00    -0.258 OA
ATOM     22  O   UNL     1      -2.474  15.174  -7.703  1.00  0.00    -0.258 OA
ENDBRANCH   7  20
TORSDOF 2
ENDMDL
MODEL 7
REMARK VINA RESULT:    -3.919      9.992     10.867
REMARK INTER + INTRA:          -4.674
REMARK INTER:                  -4.354
REMARK INTRA:                  -0.320
REMARK UNBOUND:                -0.297
REMARK SMILES O=[N+]([O-])c1ccc2c(c1)N[C@@H](c1cc(Cl)cc(Cl)c1)N2
REMARK SMILES IDX 7 1 8 2 5 3 6 4 20 5 10 6 4 7 11 8 9 9 12 12 14 13 13 14
REMARK SMILES IDX 16 15 17 16 19 17 15 18 18 19 2 20 3 21 1 22
REMARK H PARENT 20 10 10 11
ROOT
ATOM      1  C   UNL     1      -2.205   7.597  -4.009  1.00  0.00     0.060 A 
ATOM      2  C   UNL     1      -2.081   8.018  -2.706  1.00  0.00     0.066 A 
ATOM      3  C   UNL     1      -2.177   5.335  -3.350  1.00  0.00     0.088 A 
ATOM      4  C   UNL     1      -2.481   6.344  -4.303  1.00  0.00     0.035 A 
ATOM      5  N   UNL     1      -2.272   8.753  -4.880  1.00  0.00    -0.360 N 
ATOM      6  N   UNL     1      -2.111   9.413  -2.773  1.00  0.00    -0.360 N 
ATOM      7  C   UNL     1      -1.903   5.726  -2.041  1.00  0.00     0.271 A 
ATOM      8  C   UNL     1      -2.742   9.701  -4.010  1.00  0.00     0.205 C 
ATOM      9  C   UNL     1      -1.883   7.117  -1.709  1.00  0.00     0.113 A 
ATOM     10  H   UNL     1      -2.033   8.839  -5.878  1.00  0.00     0.163 HD
ATOM     11  H   UNL     1      -1.753  10.084  -2.078  1.00  0.00     0.163 HD
ENDROOT
BRANCH   8  12
ATOM     12  C   UNL     1      -2.705  11.197  -4.431  1.00  0.00    -0.003 A 
ATOM     13  C   UNL     1      -2.680  12.822  -6.299  1.00  0.00     0.042 A 
ATOM     14  C   UNL     1      -3.233  11.637  -5.665  1.00  0.00     0.028 A 
ATOM     15  C   UNL     1      -2.063  13.821  -5.419  1.00  0.00     0.041 A 
ATOM     16  C   UNL     1      -1.873  13.432  -4.026  1.00  0.00     0.042 A 
ATOM     17  C   UNL     1      -2.016  12.105  -3.549  1.00  0.00     0.028 A 
ATOM     18  Cl  UNL     1      -2.934  13.283  -7.766  1.00  0.00    -0.084 Cl
ATOM     19  Cl  UNL     1      -1.350  14.662  -2.960  1.00  0.00    -0.084 Cl
ENDBRANCH   8  12
BRANCH   7  20
ATOM     20  N   UNL     1      -1.745   4.840  -0.995  1.00  0.00     0.062 N 
ATOM     21  O   UNL     1      -1.747   5.227   0.115  1.00  0.00    -0.258 OA
ATOM     22  O   UNL     1      -1.814   3.544  -1.138  1.00  0.00    -0.258 OA
ENDBRANCH   7  20
TORSDOF 2
ENDMDL
MODEL 8
REMARK VINA RESULT:    -3.895     10.047     10.824
REMARK INTER + INTRA:          -4.647
REMARK INTER:                  -4.348
REMARK INTRA:                  -0.300
REMARK UNBOUND:                -0.297
REMARK SMILES O=[N+]([O-])c1ccc2c(c1)N[C@@H](c1cc(Cl)cc(Cl)c1)N2
REMARK SMILES IDX 7 1 8 2 5 3 6 4 20 5 10 6 4 7 11 8 9 9 12 12 14 13 13 14
REMARK SMILES IDX 16 15 17 16 19 17 15 18 18 19 2 20 3 21 1 22
REMARK H PARENT 20 10 10 11
ROOT
ATOM      1  C   UNL     1      -1.764   7.528  -4.167  1.00  0.00     0.060 A 
ATOM      2  C   UNL     1      -1.852   8.013  -2.884  1.00  0.00     0.066 A 
ATOM      3  C   UNL     1      -1.932   5.304  -3.409  1.00  0.00     0.088 A 
ATOM      4  C   UNL     1      -2.030   6.270  -4.447  1.00  0.00     0.035 A 
ATOM      5  N   UNL     1      -1.637   8.639  -5.090  1.00  0.00    -0.360 N 
ATOM      6  N   UNL     1      -1.819   9.403  -3.020  1.00  0.00    -0.360 N 
ATOM      7  C   UNL     1      -1.875   5.755  -2.092  1.00  0.00     0.271 A 
ATOM      8  C   UNL     1      -2.216   9.644  -4.360  1.00  0.00     0.205 C 
ATOM      9  C   UNL     1      -1.862   7.160  -1.826  1.00  0.00     0.113 A 
ATOM     10  H   UNL     1      -1.226   8.666  -6.034  1.00  0.00     0.163 HD
ATOM     11  H   UNL     1      -1.563  10.099  -2.305  1.00  0.00     0.163 HD
ENDROOT
BRANCH   8  12
ATOM     12  C   UNL     1      -2.053  11.114  -4.837  1.00  0.00    -0.003 A 
ATOM     13  C   UNL     1      -1.796  13.487  -4.180  1.00  0.00     0.042 A 
ATOM     14  C   UNL     1      -1.420  12.091  -4.036  1.00  0.00     0.028 A 
ATOM     15  C   UNL     1      -2.327  13.904  -5.483  1.00  0.00     0.041 A 
ATOM     16  C   UNL     1      -2.626  12.838  -6.433  1.00  0.00     0.042 A 
ATOM     17  C   UNL     1      -2.666  11.463  -6.093  1.00  0.00     0.028 A 
ATOM     18  Cl  UNL     1      -1.422  14.644  -3.204  1.00  0.00    -0.084 Cl
ATOM     19  Cl  UNL     1      -3.044  13.330  -8.016  1.00  0.00    -0.084 Cl
ENDBRANCH   8  12
BRANCH   7  20
ATOM     20  N   UNL     1      -1.932   4.921  -0.994  1.00  0.00     0.062 N 
ATOM     21  O   UNL     1      -1.889   3.754  -1.133  1.00  0.00    -0.258 OA
ATOM     22  O   UNL     1      -1.808   5.345   0.234  1.00  0.00    -0.258 OA
ENDBRANCH   7  20
TORSDOF 2
ENDMDL
MODEL 9
REMARK VINA RESULT:    -3.879     13.245     14.017
REMARK INTER + INTRA:          -4.629
REMARK INTER:                  -4.324
REMARK INTRA:                  -0.305
REMARK UNBOUND:                -0.297
REMARK SMILES O=[N+]([O-])c1ccc2c(c1)N[C@@H](c1cc(Cl)cc(Cl)c1)N2
REMARK SMILES IDX 7 1 8 2 5 3 6 4 20 5 10 6 4 7 11 8 9 9 12 12 14 13 13 14
REMARK SMILES IDX 16 15 17 16 19 17 15 18 18 19 2 20 3 21 1 22
REMARK H PARENT 20 10 10 11
ROOT
ATOM      1  C   UNL     1      -3.099  13.136  -8.299  1.00  0.00     0.060 A 
ATOM      2  C   UNL     1      -4.262  12.403  -8.279  1.00  0.00     0.066 A 
ATOM      3  C   UNL     1      -3.933  14.534 -10.002  1.00  0.00     0.088 A 
ATOM      4  C   UNL     1      -3.019  14.280  -8.943  1.00  0.00     0.035 A 
ATOM      5  N   UNL     1      -2.179  12.601  -7.315  1.00  0.00    -0.360 N 
ATOM      6  N   UNL     1      -4.073  11.455  -7.269  1.00  0.00    -0.360 N 
ATOM      7  C   UNL     1      -5.061  13.722 -10.108  1.00  0.00     0.271 A 
ATOM      8  C   UNL     1      -3.055  12.002  -6.447  1.00  0.00     0.205 C 
ATOM      9  C   UNL     1      -5.238  12.637  -9.194  1.00  0.00     0.113 A 
ATOM     10  H   UNL     1      -1.152  12.656  -7.277  1.00  0.00     0.163 HD
ATOM     11  H   UNL     1      -4.565  10.559  -7.149  1.00  0.00     0.163 HD
ENDROOT
BRANCH   8  12
ATOM     12  C   UNL     1      -2.501  11.037  -5.363  1.00  0.00    -0.003 A 
ATOM     13  C   UNL     1      -0.823   9.307  -4.792  1.00  0.00     0.042 A 
ATOM     14  C   UNL     1      -1.158  10.596  -5.373  1.00  0.00     0.028 A 
ATOM     15  C   UNL     1      -1.704   8.804  -3.732  1.00  0.00     0.041 A 
ATOM     16  C   UNL     1      -2.945   9.541  -3.514  1.00  0.00     0.042 A 
ATOM     17  C   UNL     1      -3.444  10.528  -4.400  1.00  0.00     0.028 A 
ATOM     18  Cl  UNL     1       0.526   8.545  -4.964  1.00  0.00    -0.084 Cl
ATOM     19  Cl  UNL     1      -3.867   9.085  -2.149  1.00  0.00    -0.084 Cl
ENDBRANCH   8  12
BRANCH   7  20
ATOM     20  N   UNL     1      -6.094  13.959 -10.991  1.00  0.00     0.062 N 
ATOM     21  O   UNL     1      -6.053  13.524 -12.082  1.00  0.00    -0.258 OA
ATOM     22  O   UNL     1      -7.244  14.460 -10.630  1.00  0.00    -0.258 OA
ENDBRANCH   7  20
TORSDOF 2
ENDMDL
