MODEL 1
REMARK VINA RESULT:    -0.502      0.000      0.000
REMARK INTER + INTRA:          -0.863
REMARK INTER:                  -0.560
REMARK INTRA:                  -0.303
REMARK UNBOUND:                -0.303
REMARK SMILES O=[N+]([O-])c1ccc2c(c1)N[C@@H](c1cc(Cl)cc(Cl)c1)N2
REMARK SMILES IDX 7 1 8 2 5 3 6 4 20 5 10 6 4 7 11 8 9 9 12 12 14 13 13 14
REMARK SMILES IDX 16 15 17 16 19 17 15 18 18 19 2 20 3 21 1 22
REMARK H PARENT 20 10 10 11
ROOT
ATOM      1  C   UNL     1     -10.481   4.394  -8.157  1.00  0.00     0.060 A 
ATOM      2  C   UNL     1      -9.416   4.047  -8.953  1.00  0.00     0.066 A 
ATOM      3  C   UNL     1     -11.764   5.021 -10.031  1.00  0.00     0.088 A 
ATOM      4  C   UNL     1     -11.670   4.636  -8.665  1.00  0.00     0.035 A 
ATOM      5  N   UNL     1     -10.137   4.156  -6.769  1.00  0.00    -0.360 N 
ATOM      6  N   UNL     1      -8.446   3.567  -8.070  1.00  0.00    -0.360 N 
ATOM      7  C   UNL     1     -10.655   4.819 -10.849  1.00  0.00     0.271 A 
ATOM      8  C   UNL     1      -9.168   3.196  -6.907  1.00  0.00     0.205 C 
ATOM      9  C   UNL     1      -9.451   4.289 -10.290  1.00  0.00     0.113 A 
ATOM     10  H   UNL     1     -10.516   4.587  -5.914  1.00  0.00     0.163 HD
ATOM     11  H   UNL     1      -7.431   3.497  -8.229  1.00  0.00     0.163 HD
ENDROOT
BRANCH   8  12
ATOM     12  C   UNL     1      -8.289   2.829  -5.680  1.00  0.00    -0.003 A 
ATOM     13  C   UNL     1      -6.393   3.473  -4.223  1.00  0.00     0.042 A 
ATOM     14  C   UNL     1      -7.623   3.815  -4.918  1.00  0.00     0.028 A 
ATOM     15  C   UNL     1      -6.213   2.069  -3.839  1.00  0.00     0.041 A 
ATOM     16  C   UNL     1      -7.180   1.118  -4.377  1.00  0.00     0.042 A 
ATOM     17  C   UNL     1      -8.100   1.426  -5.410  1.00  0.00     0.028 A 
ATOM     18  Cl  UNL     1      -5.389   4.480  -3.585  1.00  0.00    -0.084 Cl
ATOM     19  Cl  UNL     1      -7.098  -0.475  -3.765  1.00  0.00    -0.084 Cl
ENDBRANCH   8  12
BRANCH   7  20
ATOM     20  N   UNL     1     -10.669   5.007 -12.216  1.00  0.00     0.062 N 
ATOM     21  O   UNL     1      -9.735   4.709 -12.866  1.00  0.00    -0.258 OA
ATOM     22  O   UNL     1     -11.750   5.295 -12.888  1.00  0.00    -0.258 OA
ENDBRANCH   7  20
TORSDOF 2
ENDMDL
MODEL 2
REMARK VINA RESULT:     0.139      4.035      5.239
REMARK INTER + INTRA:          -0.148
REMARK INTER:                   0.151
REMARK INTRA:                  -0.299
REMARK UNBOUND:                -0.303
REMARK SMILES O=[N+]([O-])c1ccc2c(c1)N[C@@H](c1cc(Cl)cc(Cl)c1)N2
REMARK SMILES IDX 7 1 8 2 5 3 6 4 20 5 10 6 4 7 11 8 9 9 12 12 14 13 13 14
REMARK SMILES IDX 16 15 17 16 19 17 15 18 18 19 2 20 3 21 1 22
REMARK H PARENT 20 10 10 11
ROOT
ATOM      1  C   UNL     1     -10.967   2.066  -6.126  1.00  0.00     0.060 A 
ATOM      2  C   UNL     1     -11.396   1.836  -4.841  1.00  0.00     0.066 A 
ATOM      3  C   UNL     1     -13.184   2.149  -6.920  1.00  0.00     0.088 A 
ATOM      4  C   UNL     1     -11.801   2.442  -7.072  1.00  0.00     0.035 A 
ATOM      5  N   UNL     1      -9.519   2.108  -6.147  1.00  0.00    -0.360 N 
ATOM      6  N   UNL     1     -10.228   1.776  -4.076  1.00  0.00    -0.360 N 
ATOM      7  C   UNL     1     -13.643   1.771  -5.660  1.00  0.00     0.271 A 
ATOM      8  C   UNL     1      -9.256   2.461  -4.849  1.00  0.00     0.205 C 
ATOM      9  C   UNL     1     -12.715   1.638  -4.581  1.00  0.00     0.113 A 
ATOM     10  H   UNL     1      -8.867   1.924  -6.922  1.00  0.00     0.163 HD
ATOM     11  H   UNL     1     -10.101   1.333  -3.155  1.00  0.00     0.163 HD
ENDROOT
BRANCH   8  12
ATOM     12  C   UNL     1      -7.800   2.350  -4.317  1.00  0.00    -0.003 A 
ATOM     13  C   UNL     1      -6.245   1.212  -2.761  1.00  0.00     0.042 A 
ATOM     14  C   UNL     1      -7.300   1.151  -3.759  1.00  0.00     0.028 A 
ATOM     15  C   UNL     1      -5.353   2.376  -2.804  1.00  0.00     0.041 A 
ATOM     16  C   UNL     1      -5.740   3.459  -3.701  1.00  0.00     0.042 A 
ATOM     17  C   UNL     1      -7.009   3.554  -4.323  1.00  0.00     0.028 A 
ATOM     18  Cl  UNL     1      -5.778   0.039  -1.846  1.00  0.00    -0.084 Cl
ATOM     19  Cl  UNL     1      -4.600   4.715  -3.909  1.00  0.00    -0.084 Cl
ENDBRANCH   8  12
BRANCH   7  20
ATOM     20  N   UNL     1     -14.977   1.610  -5.349  1.00  0.00     0.062 N 
ATOM     21  O   UNL     1     -15.333   1.638  -4.229  1.00  0.00    -0.258 OA
ATOM     22  O   UNL     1     -15.930   1.646  -6.241  1.00  0.00    -0.258 OA
ENDBRANCH   7  20
TORSDOF 2
ENDMDL
MODEL 3
REMARK VINA RESULT:     0.140      5.649      8.322
REMARK INTER + INTRA:          -0.147
REMARK INTER:                   0.161
REMARK INTRA:                  -0.308
REMARK UNBOUND:                -0.303
REMARK SMILES O=[N+]([O-])c1ccc2c(c1)N[C@@H](c1cc(Cl)cc(Cl)c1)N2
REMARK SMILES IDX 7 1 8 2 5 3 6 4 20 5 10 6 4 7 11 8 9 9 12 12 14 13 13 14
REMARK SMILES IDX 16 15 17 16 19 17 15 18 18 19 2 20 3 21 1 22
REMARK H PARENT 20 10 10 11
ROOT
ATOM      1  C   UNL     1      -7.267   0.847  -3.501  1.00  0.00     0.060 A 
ATOM      2  C   UNL     1      -6.691   2.089  -3.620  1.00  0.00     0.066 A 
ATOM      3  C   UNL     1      -5.569   0.128  -2.035  1.00  0.00     0.088 A 
ATOM      4  C   UNL     1      -6.874  -0.008  -2.580  1.00  0.00     0.035 A 
ATOM      5  N   UNL     1      -8.472   0.800  -4.304  1.00  0.00    -0.360 N 
ATOM      6  N   UNL     1      -7.552   2.807  -4.454  1.00  0.00    -0.360 N 
ATOM      7  C   UNL     1      -4.885   1.322  -2.252  1.00  0.00     0.271 A 
ATOM      8  C   UNL     1      -8.794   2.131  -4.359  1.00  0.00     0.205 C 
ATOM      9  C   UNL     1      -5.484   2.344  -3.051  1.00  0.00     0.113 A 
ATOM     10  H   UNL     1      -8.955  -0.010  -4.719  1.00  0.00     0.163 HD
ATOM     11  H   UNL     1      -7.332   3.643  -5.015  1.00  0.00     0.163 HD
ENDROOT
BRANCH   8  12
ATOM     12  C   UNL     1      -9.877   2.605  -5.369  1.00  0.00    -0.003 A 
ATOM     13  C   UNL     1     -12.109   2.190  -6.358  1.00  0.00     0.042 A 
ATOM     14  C   UNL     1     -11.244   2.296  -5.194  1.00  0.00     0.028 A 
ATOM     15  C   UNL     1     -11.723   2.959  -7.546  1.00  0.00     0.041 A 
ATOM     16  C   UNL     1     -10.403   3.581  -7.518  1.00  0.00     0.042 A 
ATOM     17  C   UNL     1      -9.412   3.289  -6.549  1.00  0.00     0.028 A 
ATOM     18  Cl  UNL     1     -13.547   1.590  -6.382  1.00  0.00    -0.084 Cl
ATOM     19  Cl  UNL     1     -10.039   4.644  -8.806  1.00  0.00    -0.084 Cl
ENDBRANCH   8  12
BRANCH   7  20
ATOM     20  N   UNL     1      -3.682   1.634  -1.651  1.00  0.00     0.062 N 
ATOM     21  O   UNL     1      -3.580   1.613  -0.480  1.00  0.00    -0.258 OA
ATOM     22  O   UNL     1      -2.560   1.743  -2.310  1.00  0.00    -0.258 OA
ENDBRANCH   7  20
TORSDOF 2
ENDMDL
MODEL 4
REMARK VINA RESULT:     0.179      5.588      7.971
REMARK INTER + INTRA:          -0.103
REMARK INTER:                   0.205
REMARK INTRA:                  -0.308
REMARK UNBOUND:                -0.303
REMARK SMILES O=[N+]([O-])c1ccc2c(c1)N[C@@H](c1cc(Cl)cc(Cl)c1)N2
REMARK SMILES IDX 7 1 8 2 5 3 6 4 20 5 10 6 4 7 11 8 9 9 12 12 14 13 13 14
REMARK SMILES IDX 16 15 17 16 19 17 15 18 18 19 2 20 3 21 1 22
REMARK H PARENT 20 10 10 11
ROOT
ATOM      1  C   UNL     1      -6.263   3.460  -4.234  1.00  0.00     0.060 A 
ATOM      2  C   UNL     1      -6.489   2.165  -3.832  1.00  0.00     0.066 A 
ATOM      3  C   UNL     1      -4.208   3.527  -3.084  1.00  0.00     0.088 A 
ATOM      4  C   UNL     1      -5.088   4.033  -4.079  1.00  0.00     0.035 A 
ATOM      5  N   UNL     1      -7.370   3.905  -5.056  1.00  0.00    -0.360 N 
ATOM      6  N   UNL     1      -7.700   1.808  -4.430  1.00  0.00    -0.360 N 
ATOM      7  C   UNL     1      -4.477   2.273  -2.541  1.00  0.00     0.271 A 
ATOM      8  C   UNL     1      -7.843   2.705  -5.519  1.00  0.00     0.205 C 
ATOM      9  C   UNL     1      -5.647   1.561  -2.953  1.00  0.00     0.113 A 
ATOM     10  H   UNL     1      -7.709   4.860  -5.242  1.00  0.00     0.163 HD
ATOM     11  H   UNL     1      -8.346   1.058  -4.144  1.00  0.00     0.163 HD
ENDROOT
BRANCH   8  12
ATOM     12  C   UNL     1      -9.226   2.661  -6.227  1.00  0.00    -0.003 A 
ATOM     13  C   UNL     1     -10.752   3.729  -7.858  1.00  0.00     0.042 A 
ATOM     14  C   UNL     1      -9.431   3.242  -7.498  1.00  0.00     0.028 A 
ATOM     15  C   UNL     1     -11.899   3.094  -7.198  1.00  0.00     0.041 A 
ATOM     16  C   UNL     1     -11.595   2.191  -6.094  1.00  0.00     0.042 A 
ATOM     17  C   UNL     1     -10.320   2.088  -5.485  1.00  0.00     0.028 A 
ATOM     18  Cl  UNL     1     -11.096   4.639  -9.076  1.00  0.00    -0.084 Cl
ATOM     19  Cl  UNL     1     -12.907   1.294  -5.465  1.00  0.00    -0.084 Cl
ENDBRANCH   8  12
BRANCH   7  20
ATOM     20  N   UNL     1      -3.622   1.610  -1.686  1.00  0.00     0.062 N 
ATOM     21  O   UNL     1      -2.502   1.423  -1.993  1.00  0.00    -0.258 OA
ATOM     22  O   UNL     1      -3.909   1.359  -0.437  1.00  0.00    -0.258 OA
ENDBRANCH   7  20
TORSDOF 2
ENDMDL
MODEL 5
REMARK VINA RESULT:     0.218      0.623      2.070
REMARK INTER + INTRA:          -0.059
REMARK INTER:                   0.244
REMARK INTRA:                  -0.304
REMARK UNBOUND:                -0.303
REMARK SMILES O=[N+]([O-])c1ccc2c(c1)N[C@@H](c1cc(Cl)cc(Cl)c1)N2
REMARK SMILES IDX 7 1 8 2 5 3 6 4 20 5 10 6 4 7 11 8 9 9 12 12 14 13 13 14
REMARK SMILES IDX 16 15 17 16 19 17 15 18 18 19 2 20 3 21 1 22
REMARK H PARENT 20 10 10 11
ROOT
ATOM      1  C   UNL     1     -10.187   4.071  -7.749  1.00  0.00     0.060 A 
ATOM      2  C   UNL     1      -9.164   3.896  -8.651  1.00  0.00     0.066 A 
ATOM      3  C   UNL     1     -11.664   4.745  -9.456  1.00  0.00     0.088 A 
ATOM      4  C   UNL     1     -11.429   4.250  -8.145  1.00  0.00     0.035 A 
ATOM      5  N   UNL     1      -9.714   3.742  -6.419  1.00  0.00    -0.360 N 
ATOM      6  N   UNL     1      -8.089   3.429  -7.890  1.00  0.00    -0.360 N 
ATOM      7  C   UNL     1     -10.612   4.720 -10.369  1.00  0.00     0.271 A 
ATOM      8  C   UNL     1      -8.682   2.891  -6.720  1.00  0.00     0.205 C 
ATOM      9  C   UNL     1      -9.326   4.253  -9.952  1.00  0.00     0.113 A 
ATOM     10  H   UNL     1     -10.057   4.059  -5.502  1.00  0.00     0.163 HD
ATOM     11  H   UNL     1      -7.088   3.466  -8.128  1.00  0.00     0.163 HD
ENDROOT
BRANCH   8  12
ATOM     12  C   UNL     1      -7.679   2.496  -5.600  1.00  0.00    -0.003 A 
ATOM     13  C   UNL     1      -7.185   0.985  -3.702  1.00  0.00     0.042 A 
ATOM     14  C   UNL     1      -7.633   1.187  -5.070  1.00  0.00     0.028 A 
ATOM     15  C   UNL     1      -6.268   1.986  -3.146  1.00  0.00     0.041 A 
ATOM     16  C   UNL     1      -6.065   3.193  -3.939  1.00  0.00     0.042 A 
ATOM     17  C   UNL     1      -6.864   3.551  -5.053  1.00  0.00     0.028 A 
ATOM     18  Cl  UNL     1      -7.337  -0.325  -2.870  1.00  0.00    -0.084 Cl
ATOM     19  Cl  UNL     1      -4.843   4.259  -3.398  1.00  0.00    -0.084 Cl
ENDBRANCH   8  12
BRANCH   7  20
ATOM     20  N   UNL     1     -10.751   5.028 -11.707  1.00  0.00     0.062 N 
ATOM     21  O   UNL     1      -9.911   4.733 -12.474  1.00  0.00    -0.258 OA
ATOM     22  O   UNL     1     -11.873   5.437 -12.233  1.00  0.00    -0.258 OA
ENDBRANCH   7  20
TORSDOF 2
ENDMDL
MODEL 6
REMARK VINA RESULT:     0.367      4.118      4.956
REMARK INTER + INTRA:           0.107
REMARK INTER:                   0.416
REMARK INTRA:                  -0.309
REMARK UNBOUND:                -0.303
REMARK SMILES O=[N+]([O-])c1ccc2c(c1)N[C@@H](c1cc(Cl)cc(Cl)c1)N2
REMARK SMILES IDX 7 1 8 2 5 3 6 4 20 5 10 6 4 7 11 8 9 9 12 12 14 13 13 14
REMARK SMILES IDX 16 15 17 16 19 17 15 18 18 19 2 20 3 21 1 22
REMARK H PARENT 20 10 10 11
ROOT
ATOM      1  C   UNL     1     -11.000   2.107  -5.853  1.00  0.00     0.060 A 
ATOM      2  C   UNL     1     -11.553   1.947  -4.605  1.00  0.00     0.066 A 
ATOM      3  C   UNL     1     -13.122   2.053  -6.874  1.00  0.00     0.088 A 
ATOM      4  C   UNL     1     -11.741   2.387  -6.903  1.00  0.00     0.035 A 
ATOM      5  N   UNL     1      -9.559   2.201  -5.729  1.00  0.00    -0.360 N 
ATOM      6  N   UNL     1     -10.470   1.982  -3.723  1.00  0.00    -0.360 N 
ATOM      7  C   UNL     1     -13.699   1.744  -5.644  1.00  0.00     0.271 A 
ATOM      8  C   UNL     1      -9.444   2.649  -4.439  1.00  0.00     0.205 C 
ATOM      9  C   UNL     1     -12.885   1.718  -4.469  1.00  0.00     0.113 A 
ATOM     10  H   UNL     1      -8.824   1.991  -6.419  1.00  0.00     0.163 HD
ATOM     11  H   UNL     1     -10.427   1.607  -2.765  1.00  0.00     0.163 HD
ENDROOT
BRANCH   8  12
ATOM     12  C   UNL     1      -8.048   2.629  -3.754  1.00  0.00    -0.003 A 
ATOM     13  C   UNL     1      -5.752   3.554  -3.705  1.00  0.00     0.042 A 
ATOM     14  C   UNL     1      -7.190   3.751  -3.778  1.00  0.00     0.028 A 
ATOM     15  C   UNL     1      -5.279   2.340  -3.030  1.00  0.00     0.041 A 
ATOM     16  C   UNL     1      -6.294   1.348  -2.690  1.00  0.00     0.042 A 
ATOM     17  C   UNL     1      -7.623   1.378  -3.178  1.00  0.00     0.028 A 
ATOM     18  Cl  UNL     1      -4.662   4.628  -4.000  1.00  0.00    -0.084 Cl
ATOM     19  Cl  UNL     1      -5.777   0.037  -1.723  1.00  0.00    -0.084 Cl
ENDBRANCH   8  12
BRANCH   7  20
ATOM     20  N   UNL     1     -15.053   1.554  -5.460  1.00  0.00     0.062 N 
ATOM     21  O   UNL     1     -15.499   1.474  -4.375  1.00  0.00    -0.258 OA
ATOM     22  O   UNL     1     -15.930   1.677  -6.419  1.00  0.00    -0.258 OA
ENDBRANCH   7  20
TORSDOF 2
ENDMDL
MODEL 7
REMARK VINA RESULT:     0.583      6.358      8.879
REMARK INTER + INTRA:           0.348
REMARK INTER:                   0.664
REMARK INTRA:                  -0.316
REMARK UNBOUND:                -0.303
REMARK SMILES O=[N+]([O-])c1ccc2c(c1)N[C@@H](c1cc(Cl)cc(Cl)c1)N2
REMARK SMILES IDX 7 1 8 2 5 3 6 4 20 5 10 6 4 7 11 8 9 9 12 12 14 13 13 14
REMARK SMILES IDX 16 15 17 16 19 17 15 18 18 19 2 20 3 21 1 22
REMARK H PARENT 20 10 10 11
ROOT
ATOM      1  C   UNL     1      -5.908   0.312  -1.507  1.00  0.00     0.060 A 
ATOM      2  C   UNL     1      -5.226   1.360  -2.079  1.00  0.00     0.066 A 
ATOM      3  C   UNL     1      -7.067  -0.114  -3.513  1.00  0.00     0.088 A 
ATOM      4  C   UNL     1      -6.607  -0.532  -2.235  1.00  0.00     0.035 A 
ATOM      5  N   UNL     1      -5.487   0.164  -0.128  1.00  0.00    -0.360 N 
ATOM      6  N   UNL     1      -4.371   1.824  -1.076  1.00  0.00    -0.360 N 
ATOM      7  C   UNL     1      -6.504   1.030  -4.074  1.00  0.00     0.271 A 
ATOM      8  C   UNL     1      -4.242   0.733  -0.179  1.00  0.00     0.205 C 
ATOM      9  C   UNL     1      -5.530   1.773  -3.337  1.00  0.00     0.113 A 
ATOM     10  H   UNL     1      -5.986  -0.254   0.670  1.00  0.00     0.163 HD
ATOM     11  H   UNL     1      -3.931   2.752  -1.004  1.00  0.00     0.163 HD
ENDROOT
BRANCH   8  12
ATOM     12  C   UNL     1      -3.507   1.063   1.151  1.00  0.00    -0.003 A 
ATOM     13  C   UNL     1      -3.538   0.921   3.623  1.00  0.00     0.042 A 
ATOM     14  C   UNL     1      -3.707   0.296   2.321  1.00  0.00     0.028 A 
ATOM     15  C   UNL     1      -2.626   2.068   3.698  1.00  0.00     0.041 A 
ATOM     16  C   UNL     1      -2.148   2.603   2.428  1.00  0.00     0.042 A 
ATOM     17  C   UNL     1      -2.689   2.248   1.167  1.00  0.00     0.028 A 
ATOM     18  Cl  UNL     1      -3.984   0.325   4.993  1.00  0.00    -0.084 Cl
ATOM     19  Cl  UNL     1      -0.930   3.799   2.519  1.00  0.00    -0.084 Cl
ENDBRANCH   8  12
BRANCH   7  20
ATOM     20  N   UNL     1      -6.752   1.451  -5.365  1.00  0.00     0.062 N 
ATOM     21  O   UNL     1      -7.857   1.540  -5.758  1.00  0.00    -0.258 OA
ATOM     22  O   UNL     1      -5.839   1.981  -6.133  1.00  0.00    -0.258 OA
ENDBRANCH   7  20
TORSDOF 2
ENDMDL
MODEL 8
REMARK VINA RESULT:     0.715      1.637      2.260
REMARK INTER + INTRA:           0.495
REMARK INTER:                   0.785
REMARK INTRA:                  -0.290
REMARK UNBOUND:                -0.303
REMARK SMILES O=[N+]([O-])c1ccc2c(c1)N[C@@H](c1cc(Cl)cc(Cl)c1)N2
REMARK SMILES IDX 7 1 8 2 5 3 6 4 20 5 10 6 4 7 11 8 9 9 12 12 14 13 13 14
REMARK SMILES IDX 16 15 17 16 19 17 15 18 18 19 2 20 3 21 1 22
REMARK H PARENT 20 10 10 11
ROOT
ATOM      1  C   UNL     1      -9.779   4.106 -10.089  1.00  0.00     0.060 A 
ATOM      2  C   UNL     1     -10.991   4.530  -9.598  1.00  0.00     0.066 A 
ATOM      3  C   UNL     1     -10.298   4.904 -12.244  1.00  0.00     0.088 A 
ATOM      4  C   UNL     1      -9.349   4.480 -11.275  1.00  0.00     0.035 A 
ATOM      5  N   UNL     1      -9.021   3.486  -9.021  1.00  0.00    -0.360 N 
ATOM      6  N   UNL     1     -10.961   4.210  -8.239  1.00  0.00    -0.360 N 
ATOM      7  C   UNL     1     -11.587   5.211 -11.813  1.00  0.00     0.271 A 
ATOM      8  C   UNL     1      -9.583   4.089  -7.926  1.00  0.00     0.205 C 
ATOM      9  C   UNL     1     -11.931   5.041 -10.436  1.00  0.00     0.113 A 
ATOM     10  H   UNL     1      -8.267   2.785  -9.070  1.00  0.00     0.163 HD
ATOM     11  H   UNL     1     -11.763   4.089  -7.604  1.00  0.00     0.163 HD
ENDROOT
BRANCH   8  12
ATOM     12  C   UNL     1      -9.280   3.521  -6.512  1.00  0.00    -0.003 A 
ATOM     13  C   UNL     1      -8.630   4.021  -4.175  1.00  0.00     0.042 A 
ATOM     14  C   UNL     1      -9.447   4.300  -5.345  1.00  0.00     0.028 A 
ATOM     15  C   UNL     1      -8.132   2.649  -4.022  1.00  0.00     0.041 A 
ATOM     16  C   UNL     1      -8.322   1.758  -5.161  1.00  0.00     0.042 A 
ATOM     17  C   UNL     1      -8.722   2.194  -6.448  1.00  0.00     0.028 A 
ATOM     18  Cl  UNL     1      -8.476   4.937  -2.923  1.00  0.00    -0.084 Cl
ATOM     19  Cl  UNL     1      -7.933   0.113  -4.909  1.00  0.00    -0.084 Cl
ENDBRANCH   8  12
BRANCH   7  20
ATOM     20  N   UNL     1     -12.550   5.777 -12.623  1.00  0.00     0.062 N 
ATOM     21  O   UNL     1     -12.331   6.781 -13.193  1.00  0.00    -0.258 OA
ATOM     22  O   UNL     1     -13.637   5.151 -12.987  1.00  0.00    -0.258 OA
ENDBRANCH   7  20
TORSDOF 2
ENDMDL
MODEL 9
REMARK VINA RESULT:     0.720      1.628      2.854
REMARK INTER + INTRA:           0.501
REMARK INTER:                   0.809
REMARK INTRA:                  -0.307
REMARK UNBOUND:                -0.303
REMARK SMILES O=[N+]([O-])c1ccc2c(c1)N[C@@H](c1cc(Cl)cc(Cl)c1)N2
REMARK SMILES IDX 7 1 8 2 5 3 6 4 20 5 10 6 4 7 11 8 9 9 12 12 14 13 13 14
REMARK SMILES IDX 16 15 17 16 19 17 15 18 18 19 2 20 3 21 1 22
REMARK H PARENT 20 10 10 11
ROOT
ATOM      1  C   UNL     1     -10.135   3.020  -6.487  1.00  0.00     0.060 A 
ATOM      2  C   UNL     1      -9.178   3.530  -7.332  1.00  0.00     0.066 A 
ATOM      3  C   UNL     1     -11.864   3.653  -7.957  1.00  0.00     0.088 A 
ATOM      4  C   UNL     1     -11.383   2.867  -6.875  1.00  0.00     0.035 A 
ATOM      5  N   UNL     1      -9.490   2.458  -5.318  1.00  0.00    -0.360 N 
ATOM      6  N   UNL     1      -7.960   3.250  -6.708  1.00  0.00    -0.360 N 
ATOM      7  C   UNL     1     -10.933   4.307  -8.761  1.00  0.00     0.271 A 
ATOM      8  C   UNL     1      -8.246   2.180  -5.822  1.00  0.00     0.205 C 
ATOM      9  C   UNL     1      -9.541   4.216  -8.447  1.00  0.00     0.113 A 
ATOM     10  H   UNL     1      -9.863   2.308  -4.369  1.00  0.00     0.163 HD
ATOM     11  H   UNL     1      -7.054   3.716  -6.859  1.00  0.00     0.163 HD
ENDROOT
BRANCH   8  12
ATOM     12  C   UNL     1      -7.097   1.818  -4.840  1.00  0.00    -0.003 A 
ATOM     13  C   UNL     1      -6.404   0.507  -2.856  1.00  0.00     0.042 A 
ATOM     14  C   UNL     1      -7.070   0.588  -4.146  1.00  0.00     0.028 A 
ATOM     15  C   UNL     1      -5.319   1.462  -2.606  1.00  0.00     0.041 A 
ATOM     16  C   UNL     1      -5.157   2.533  -3.584  1.00  0.00     0.042 A 
ATOM     17  C   UNL     1      -6.109   2.836  -4.589  1.00  0.00     0.028 A 
ATOM     18  Cl  UNL     1      -6.517  -0.665  -1.836  1.00  0.00    -0.084 Cl
ATOM     19  Cl  UNL     1      -3.771   3.517  -3.407  1.00  0.00    -0.084 Cl
ENDBRANCH   8  12
BRANCH   7  20
ATOM     20  N   UNL     1     -11.260   4.972  -9.925  1.00  0.00     0.062 N 
ATOM     21  O   UNL     1     -11.728   6.049  -9.882  1.00  0.00    -0.258 OA
ATOM     22  O   UNL     1     -10.877   4.573 -11.108  1.00  0.00    -0.258 OA
ENDBRANCH   7  20
TORSDOF 2
ENDMDL
