MODEL 1
REMARK VINA RESULT:    -4.672      0.000      0.000
REMARK INTER + INTRA:          -5.534
REMARK INTER:                  -5.219
REMARK INTRA:                  -0.315
REMARK UNBOUND:                -0.315
REMARK SMILES O=[N+]([O-])c1ccc2c(c1)N[C@@H](c1cc(Cl)cc(Cl)c1)N2
REMARK SMILES IDX 7 1 8 2 5 3 6 4 20 5 10 6 4 7 11 8 9 9 12 12 14 13 13 14
REMARK SMILES IDX 16 15 17 16 19 17 15 18 18 19 2 20 3 21 1 22
REMARK H PARENT 20 10 10 11
ROOT
ATOM      1  C   UNL     1     -12.114   1.343   2.143  1.00  0.00     0.060 A 
ATOM      2  C   UNL     1     -11.834   2.479   2.864  1.00  0.00     0.066 A 
ATOM      3  C   UNL     1     -14.407   1.502   2.660  1.00  0.00     0.088 A 
ATOM      4  C   UNL     1     -13.351   1.002   1.851  1.00  0.00     0.035 A 
ATOM      5  N   UNL     1     -10.887   0.826   1.569  1.00  0.00    -0.360 N 
ATOM      6  N   UNL     1     -10.460   2.679   2.703  1.00  0.00    -0.360 N 
ATOM      7  C   UNL     1     -14.134   2.567   3.516  1.00  0.00     0.271 A 
ATOM      8  C   UNL     1     -10.128   1.966   1.523  1.00  0.00     0.205 C 
ATOM      9  C   UNL     1     -12.804   3.086   3.596  1.00  0.00     0.113 A 
ATOM     10  H   UNL     1     -10.651  -0.132   1.276  1.00  0.00     0.163 HD
ATOM     11  H   UNL     1      -9.829   3.224   3.308  1.00  0.00     0.163 HD
ENDROOT
BRANCH   8  12
ATOM     12  C   UNL     1      -8.605   1.847   1.237  1.00  0.00    -0.003 A 
ATOM     13  C   UNL     1      -6.832   0.796  -0.136  1.00  0.00     0.042 A 
ATOM     14  C   UNL     1      -8.113   1.476  -0.034  1.00  0.00     0.028 A 
ATOM     15  C   UNL     1      -5.858   1.047   0.933  1.00  0.00     0.041 A 
ATOM     16  C   UNL     1      -6.345   1.778   2.098  1.00  0.00     0.042 A 
ATOM     17  C   UNL     1      -7.715   2.034   2.355  1.00  0.00     0.028 A 
ATOM     18  Cl  UNL     1      -6.274   0.071  -1.397  1.00  0.00    -0.084 Cl
ATOM     19  Cl  UNL     1      -5.167   2.251   3.242  1.00  0.00    -0.084 Cl
ENDBRANCH   8  12
BRANCH   7  20
ATOM     20  N   UNL     1     -15.102   3.237   4.236  1.00  0.00     0.062 N 
ATOM     21  O   UNL     1     -14.893   4.320   4.645  1.00  0.00    -0.258 OA
ATOM     22  O   UNL     1     -16.342   2.838   4.312  1.00  0.00    -0.258 OA
ENDBRANCH   7  20
TORSDOF 2
ENDMDL
MODEL 2
REMARK VINA RESULT:    -4.649      0.944      2.630
REMARK INTER + INTRA:          -5.508
REMARK INTER:                  -5.193
REMARK INTRA:                  -0.315
REMARK UNBOUND:                -0.315
REMARK SMILES O=[N+]([O-])c1ccc2c(c1)N[C@@H](c1cc(Cl)cc(Cl)c1)N2
REMARK SMILES IDX 7 1 8 2 5 3 6 4 20 5 10 6 4 7 11 8 9 9 12 12 14 13 13 14
REMARK SMILES IDX 16 15 17 16 19 17 15 18 18 19 2 20 3 21 1 22
REMARK H PARENT 20 10 10 11
ROOT
ATOM      1  C   UNL     1     -11.622   2.815   3.100  1.00  0.00     0.060 A 
ATOM      2  C   UNL     1     -12.077   1.678   2.476  1.00  0.00     0.066 A 
ATOM      3  C   UNL     1     -13.774   3.306   3.922  1.00  0.00     0.088 A 
ATOM      4  C   UNL     1     -12.363   3.464   3.972  1.00  0.00     0.035 A 
ATOM      5  N   UNL     1     -10.199   2.954   2.861  1.00  0.00    -0.360 N 
ATOM      6  N   UNL     1     -10.943   1.107   1.894  1.00  0.00    -0.360 N 
ATOM      7  C   UNL     1     -14.292   2.246   3.181  1.00  0.00     0.271 A 
ATOM      8  C   UNL     1      -9.853   1.650   2.619  1.00  0.00     0.205 C 
ATOM      9  C   UNL     1     -13.405   1.390   2.457  1.00  0.00     0.113 A 
ATOM     10  H   UNL     1      -9.610   3.799   2.870  1.00  0.00     0.163 HD
ATOM     11  H   UNL     1     -10.907   0.439   1.111  1.00  0.00     0.163 HD
ENDROOT
BRANCH   8  12
ATOM     12  C   UNL     1      -8.451   1.339   2.024  1.00  0.00    -0.003 A 
ATOM     13  C   UNL     1      -6.013   1.760   2.140  1.00  0.00     0.042 A 
ATOM     14  C   UNL     1      -7.272   1.451   2.796  1.00  0.00     0.028 A 
ATOM     15  C   UNL     1      -5.880   1.361   0.734  1.00  0.00     0.041 A 
ATOM     16  C   UNL     1      -7.093   0.892   0.073  1.00  0.00     0.042 A 
ATOM     17  C   UNL     1      -8.393   1.029   0.619  1.00  0.00     0.028 A 
ATOM     18  Cl  UNL     1      -4.692   2.195   2.844  1.00  0.00    -0.084 Cl
ATOM     19  Cl  UNL     1      -6.897   0.234  -1.492  1.00  0.00    -0.084 Cl
ENDBRANCH   8  12
BRANCH   7  20
ATOM     20  N   UNL     1     -15.627   1.895   3.177  1.00  0.00     0.062 N 
ATOM     21  O   UNL     1     -15.964   0.848   2.762  1.00  0.00    -0.258 OA
ATOM     22  O   UNL     1     -16.545   2.566   3.817  1.00  0.00    -0.258 OA
ENDBRANCH   7  20
TORSDOF 2
ENDMDL
MODEL 3
REMARK VINA RESULT:    -4.526      5.129      7.601
REMARK INTER + INTRA:          -5.370
REMARK INTER:                  -5.070
REMARK INTRA:                  -0.299
REMARK UNBOUND:                -0.315
REMARK SMILES O=[N+]([O-])c1ccc2c(c1)N[C@@H](c1cc(Cl)cc(Cl)c1)N2
REMARK SMILES IDX 7 1 8 2 5 3 6 4 20 5 10 6 4 7 11 8 9 9 12 12 14 13 13 14
REMARK SMILES IDX 16 15 17 16 19 17 15 18 18 19 2 20 3 21 1 22
REMARK H PARENT 20 10 10 11
ROOT
ATOM      1  C   UNL     1      -7.961   1.889   2.313  1.00  0.00     0.060 A 
ATOM      2  C   UNL     1      -8.343   1.038   1.303  1.00  0.00     0.066 A 
ATOM      3  C   UNL     1      -5.725   1.870   1.573  1.00  0.00     0.088 A 
ATOM      4  C   UNL     1      -6.780   2.468   2.315  1.00  0.00     0.035 A 
ATOM      5  N   UNL     1      -9.118   2.222   3.120  1.00  0.00    -0.360 N 
ATOM      6  N   UNL     1      -9.722   0.882   1.465  1.00  0.00    -0.360 N 
ATOM      7  C   UNL     1      -6.051   0.896   0.632  1.00  0.00     0.271 A 
ATOM      8  C   UNL     1     -10.127   2.014   2.217  1.00  0.00     0.205 C 
ATOM      9  C   UNL     1      -7.413   0.489   0.479  1.00  0.00     0.113 A 
ATOM     10  H   UNL     1      -9.169   2.530   4.102  1.00  0.00     0.163 HD
ATOM     11  H   UNL     1     -10.313   0.115   1.115  1.00  0.00     0.163 HD
ENDROOT
BRANCH   8  12
ATOM     12  C   UNL     1     -11.596   1.971   2.723  1.00  0.00    -0.003 A 
ATOM     13  C   UNL     1     -13.882   1.084   2.373  1.00  0.00     0.042 A 
ATOM     14  C   UNL     1     -12.446   0.874   2.453  1.00  0.00     0.028 A 
ATOM     15  C   UNL     1     -14.434   2.212   3.132  1.00  0.00     0.041 A 
ATOM     16  C   UNL     1     -13.469   3.138   3.715  1.00  0.00     0.042 A 
ATOM     17  C   UNL     1     -12.089   3.147   3.394  1.00  0.00     0.028 A 
ATOM     18  Cl  UNL     1     -14.928   0.072   1.815  1.00  0.00    -0.084 Cl
ATOM     19  Cl  UNL     1     -14.100   4.327   4.768  1.00  0.00    -0.084 Cl
ENDBRANCH   8  12
BRANCH   7  20
ATOM     20  N   UNL     1      -5.142   0.353  -0.253  1.00  0.00     0.062 N 
ATOM     21  O   UNL     1      -3.988   0.489  -0.076  1.00  0.00    -0.258 OA
ATOM     22  O   UNL     1      -5.471  -0.508  -1.178  1.00  0.00    -0.258 OA
ENDBRANCH   7  20
TORSDOF 2
ENDMDL
MODEL 4
REMARK VINA RESULT:    -4.492      5.024      7.665
REMARK INTER + INTRA:          -5.332
REMARK INTER:                  -5.033
REMARK INTRA:                  -0.299
REMARK UNBOUND:                -0.315
REMARK SMILES O=[N+]([O-])c1ccc2c(c1)N[C@@H](c1cc(Cl)cc(Cl)c1)N2
REMARK SMILES IDX 7 1 8 2 5 3 6 4 20 5 10 6 4 7 11 8 9 9 12 12 14 13 13 14
REMARK SMILES IDX 16 15 17 16 19 17 15 18 18 19 2 20 3 21 1 22
REMARK H PARENT 20 10 10 11
ROOT
ATOM      1  C   UNL     1      -8.602   1.213   0.584  1.00  0.00     0.060 A 
ATOM      2  C   UNL     1      -8.105   2.016   1.583  1.00  0.00     0.066 A 
ATOM      3  C   UNL     1      -6.430   0.591  -0.085  1.00  0.00     0.088 A 
ATOM      4  C   UNL     1      -7.833   0.361  -0.059  1.00  0.00     0.035 A 
ATOM      5  N   UNL     1     -10.050   1.269   0.601  1.00  0.00    -0.360 N 
ATOM      6  N   UNL     1      -9.233   2.528   2.229  1.00  0.00    -0.360 N 
ATOM      7  C   UNL     1      -5.896   1.508   0.818  1.00  0.00     0.271 A 
ATOM      8  C   UNL     1     -10.276   1.623   1.906  1.00  0.00     0.205 C 
ATOM      9  C   UNL     1      -6.767   2.222   1.698  1.00  0.00     0.113 A 
ATOM     10  H   UNL     1     -10.724   1.093  -0.158  1.00  0.00     0.163 HD
ATOM     11  H   UNL     1      -9.294   3.376   2.811  1.00  0.00     0.163 HD
ENDROOT
BRANCH   8  12
ATOM     12  C   UNL     1     -11.699   2.086   2.327  1.00  0.00    -0.003 A 
ATOM     13  C   UNL     1     -13.052   3.487   3.856  1.00  0.00     0.042 A 
ATOM     14  C   UNL     1     -11.921   3.331   2.957  1.00  0.00     0.028 A 
ATOM     15  C   UNL     1     -14.210   2.614   3.627  1.00  0.00     0.041 A 
ATOM     16  C   UNL     1     -14.030   1.535   2.662  1.00  0.00     0.042 A 
ATOM     17  C   UNL     1     -12.773   1.144   2.139  1.00  0.00     0.028 A 
ATOM     18  Cl  UNL     1     -13.287   4.672   4.840  1.00  0.00    -0.084 Cl
ATOM     19  Cl  UNL     1     -15.432   0.653   2.242  1.00  0.00    -0.084 Cl
ENDBRANCH   8  12
BRANCH   7  20
ATOM     20  N   UNL     1      -4.542   1.706   0.995  1.00  0.00     0.062 N 
ATOM     21  O   UNL     1      -3.772   1.274   0.219  1.00  0.00    -0.258 OA
ATOM     22  O   UNL     1      -4.050   2.546   1.866  1.00  0.00    -0.258 OA
ENDBRANCH   7  20
TORSDOF 2
ENDMDL
MODEL 5
REMARK VINA RESULT:    -4.370      1.347      2.036
REMARK INTER + INTRA:          -5.196
REMARK INTER:                  -4.896
REMARK INTRA:                  -0.300
REMARK UNBOUND:                -0.315
REMARK SMILES O=[N+]([O-])c1ccc2c(c1)N[C@@H](c1cc(Cl)cc(Cl)c1)N2
REMARK SMILES IDX 7 1 8 2 5 3 6 4 20 5 10 6 4 7 11 8 9 9 12 12 14 13 13 14
REMARK SMILES IDX 16 15 17 16 19 17 15 18 18 19 2 20 3 21 1 22
REMARK H PARENT 20 10 10 11
ROOT
ATOM      1  C   UNL     1     -12.055   2.375   2.624  1.00  0.00     0.060 A 
ATOM      2  C   UNL     1     -12.197   1.179   1.963  1.00  0.00     0.066 A 
ATOM      3  C   UNL     1     -14.313   2.349   3.294  1.00  0.00     0.088 A 
ATOM      4  C   UNL     1     -12.981   2.822   3.445  1.00  0.00     0.035 A 
ATOM      5  N   UNL     1     -10.688   2.838   2.485  1.00  0.00    -0.360 N 
ATOM      6  N   UNL     1     -10.926   0.892   1.459  1.00  0.00    -0.360 N 
ATOM      7  C   UNL     1     -14.525   1.215   2.513  1.00  0.00     0.271 A 
ATOM      8  C   UNL     1     -10.039   1.652   2.262  1.00  0.00     0.205 C 
ATOM      9  C   UNL     1     -13.420   0.598   1.848  1.00  0.00     0.113 A 
ATOM     10  H   UNL     1     -10.309   3.794   2.540  1.00  0.00     0.163 HD
ATOM     11  H   UNL     1     -10.687   0.266   0.676  1.00  0.00     0.163 HD
ENDROOT
BRANCH   8  12
ATOM     12  C   UNL     1      -8.567   1.680   1.766  1.00  0.00    -0.003 A 
ATOM     13  C   UNL     1      -6.931   0.874   0.090  1.00  0.00     0.042 A 
ATOM     14  C   UNL     1      -8.231   1.436   0.415  1.00  0.00     0.028 A 
ATOM     15  C   UNL     1      -5.838   1.132   1.035  1.00  0.00     0.041 A 
ATOM     16  C   UNL     1      -6.210   1.741   2.307  1.00  0.00     0.042 A 
ATOM     17  C   UNL     1      -7.545   1.865   2.765  1.00  0.00     0.028 A 
ATOM     18  Cl  UNL     1      -6.504   0.283  -1.288  1.00  0.00    -0.084 Cl
ATOM     19  Cl  UNL     1      -4.921   2.232   3.317  1.00  0.00    -0.084 Cl
ENDBRANCH   8  12
BRANCH   7  20
ATOM     20  N   UNL     1     -15.742   0.571   2.413  1.00  0.00     0.062 N 
ATOM     21  O   UNL     1     -15.811  -0.493   1.919  1.00  0.00    -0.258 OA
ATOM     22  O   UNL     1     -16.816   0.970   3.038  1.00  0.00    -0.258 OA
ENDBRANCH   7  20
TORSDOF 2
ENDMDL
MODEL 6
REMARK VINA RESULT:    -4.345      0.804      2.183
REMARK INTER + INTRA:          -5.168
REMARK INTER:                  -4.868
REMARK INTRA:                  -0.300
REMARK UNBOUND:                -0.315
REMARK SMILES O=[N+]([O-])c1ccc2c(c1)N[C@@H](c1cc(Cl)cc(Cl)c1)N2
REMARK SMILES IDX 7 1 8 2 5 3 6 4 20 5 10 6 4 7 11 8 9 9 12 12 14 13 13 14
REMARK SMILES IDX 16 15 17 16 19 17 15 18 18 19 2 20 3 21 1 22
REMARK H PARENT 20 10 10 11
ROOT
ATOM      1  C   UNL     1     -12.095   1.786   2.711  1.00  0.00     0.060 A 
ATOM      2  C   UNL     1     -11.526   2.915   3.250  1.00  0.00     0.066 A 
ATOM      3  C   UNL     1     -14.241   2.448   3.422  1.00  0.00     0.088 A 
ATOM      4  C   UNL     1     -13.399   1.666   2.585  1.00  0.00     0.035 A 
ATOM      5  N   UNL     1     -11.062   0.979   2.093  1.00  0.00    -0.360 N 
ATOM      6  N   UNL     1     -10.169   2.822   2.933  1.00  0.00    -0.360 N 
ATOM      7  C   UNL     1     -13.677   3.524   4.104  1.00  0.00     0.271 A 
ATOM      8  C   UNL     1     -10.116   1.935   1.828  1.00  0.00     0.205 C 
ATOM      9  C   UNL     1     -12.274   3.776   3.988  1.00  0.00     0.113 A 
ATOM     10  H   UNL     1     -11.043  -0.033   1.904  1.00  0.00     0.163 HD
ATOM     11  H   UNL     1      -9.380   3.293   3.399  1.00  0.00     0.163 HD
ENDROOT
BRANCH   8  12
ATOM     12  C   UNL     1      -8.687   1.488   1.414  1.00  0.00    -0.003 A 
ATOM     13  C   UNL     1      -6.252   1.707   1.812  1.00  0.00     0.042 A 
ATOM     14  C   UNL     1      -7.602   1.528   2.320  1.00  0.00     0.028 A 
ATOM     15  C   UNL     1      -5.989   1.252   0.443  1.00  0.00     0.041 A 
ATOM     16  C   UNL     1      -7.152   0.863  -0.348  1.00  0.00     0.042 A 
ATOM     17  C   UNL     1      -8.491   1.126   0.033  1.00  0.00     0.028 A 
ATOM     18  Cl  UNL     1      -4.991   2.055   2.660  1.00  0.00    -0.084 Cl
ATOM     19  Cl  UNL     1      -6.830   0.138  -1.862  1.00  0.00    -0.084 Cl
ENDBRANCH   8  12
BRANCH   7  20
ATOM     20  N   UNL     1     -14.412   4.446   4.821  1.00  0.00     0.062 N 
ATOM     21  O   UNL     1     -13.911   5.441   5.197  1.00  0.00    -0.258 OA
ATOM     22  O   UNL     1     -15.712   4.396   4.930  1.00  0.00    -0.258 OA
ENDBRANCH   7  20
TORSDOF 2
ENDMDL
MODEL 7
REMARK VINA RESULT:    -4.069      3.110      4.452
REMARK INTER + INTRA:          -4.860
REMARK INTER:                  -4.554
REMARK INTRA:                  -0.306
REMARK UNBOUND:                -0.315
REMARK SMILES O=[N+]([O-])c1ccc2c(c1)N[C@@H](c1cc(Cl)cc(Cl)c1)N2
REMARK SMILES IDX 7 1 8 2 5 3 6 4 20 5 10 6 4 7 11 8 9 9 12 12 14 13 13 14
REMARK SMILES IDX 16 15 17 16 19 17 15 18 18 19 2 20 3 21 1 22
REMARK H PARENT 20 10 10 11
ROOT
ATOM      1  C   UNL     1     -13.594   4.465   4.751  1.00  0.00     0.060 A 
ATOM      2  C   UNL     1     -12.961   5.489   4.088  1.00  0.00     0.066 A 
ATOM      3  C   UNL     1     -15.204   5.943   5.632  1.00  0.00     0.088 A 
ATOM      4  C   UNL     1     -14.781   4.628   5.294  1.00  0.00     0.035 A 
ATOM      5  N   UNL     1     -12.899   3.222   4.485  1.00  0.00    -0.360 N 
ATOM      6  N   UNL     1     -11.914   4.877   3.394  1.00  0.00    -0.360 N 
ATOM      7  C   UNL     1     -14.500   7.019   5.095  1.00  0.00     0.271 A 
ATOM      8  C   UNL     1     -12.299   3.516   3.289  1.00  0.00     0.205 C 
ATOM      9  C   UNL     1     -13.356   6.776   4.274  1.00  0.00     0.113 A 
ATOM     10  H   UNL     1     -12.865   2.355   5.041  1.00  0.00     0.163 HD
ATOM     11  H   UNL     1     -11.054   5.317   3.037  1.00  0.00     0.163 HD
ENDROOT
BRANCH   8  12
ATOM     12  C   UNL     1     -11.198   2.565   2.742  1.00  0.00    -0.003 A 
ATOM     13  C   UNL     1      -9.245   1.138   3.272  1.00  0.00     0.042 A 
ATOM     14  C   UNL     1     -10.604   1.570   3.551  1.00  0.00     0.028 A 
ATOM     15  C   UNL     1      -8.773   1.272   1.889  1.00  0.00     0.041 A 
ATOM     16  C   UNL     1      -9.633   2.022   0.979  1.00  0.00     0.042 A 
ATOM     17  C   UNL     1     -10.734   2.808   1.400  1.00  0.00     0.028 A 
ATOM     18  Cl  UNL     1      -8.344   0.279   4.210  1.00  0.00    -0.084 Cl
ATOM     19  Cl  UNL     1      -9.190   2.001  -0.671  1.00  0.00    -0.084 Cl
ENDBRANCH   8  12
BRANCH   7  20
ATOM     20  N   UNL     1     -14.900   8.334   5.222  1.00  0.00     0.062 N 
ATOM     21  O   UNL     1     -14.847   8.872   6.265  1.00  0.00    -0.258 OA
ATOM     22  O   UNL     1     -15.134   9.112   4.200  1.00  0.00    -0.258 OA
ENDBRANCH   7  20
TORSDOF 2
ENDMDL
MODEL 8
REMARK VINA RESULT:    -3.851      4.106      5.876
REMARK INTER + INTRA:          -4.616
REMARK INTER:                  -4.326
REMARK INTRA:                  -0.290
REMARK UNBOUND:                -0.315
REMARK SMILES O=[N+]([O-])c1ccc2c(c1)N[C@@H](c1cc(Cl)cc(Cl)c1)N2
REMARK SMILES IDX 7 1 8 2 5 3 6 4 20 5 10 6 4 7 11 8 9 9 12 12 14 13 13 14
REMARK SMILES IDX 16 15 17 16 19 17 15 18 18 19 2 20 3 21 1 22
REMARK H PARENT 20 10 10 11
ROOT
ATOM      1  C   UNL     1     -14.625   5.421   5.295  1.00  0.00     0.060 A 
ATOM      2  C   UNL     1     -13.762   6.247   4.616  1.00  0.00     0.066 A 
ATOM      3  C   UNL     1     -15.842   7.262   6.119  1.00  0.00     0.088 A 
ATOM      4  C   UNL     1     -15.743   5.876   5.819  1.00  0.00     0.035 A 
ATOM      5  N   UNL     1     -14.245   4.041   5.068  1.00  0.00    -0.360 N 
ATOM      6  N   UNL     1     -12.887   5.385   3.949  1.00  0.00    -0.360 N 
ATOM      7  C   UNL     1     -14.900   8.125   5.566  1.00  0.00     0.271 A 
ATOM      8  C   UNL     1     -13.584   4.152   3.872  1.00  0.00     0.205 C 
ATOM      9  C   UNL     1     -13.840   7.595   4.765  1.00  0.00     0.113 A 
ATOM     10  H   UNL     1     -14.422   3.206   5.644  1.00  0.00     0.163 HD
ATOM     11  H   UNL     1     -11.944   5.598   3.593  1.00  0.00     0.163 HD
ENDROOT
BRANCH   8  12
ATOM     12  C   UNL     1     -12.737   2.953   3.363  1.00  0.00    -0.003 A 
ATOM     13  C   UNL     1     -10.544   2.179   2.514  1.00  0.00     0.042 A 
ATOM     14  C   UNL     1     -11.329   2.933   3.476  1.00  0.00     0.028 A 
ATOM     15  C   UNL     1     -11.198   1.034   1.871  1.00  0.00     0.041 A 
ATOM     16  C   UNL     1     -12.633   0.894   2.097  1.00  0.00     0.042 A 
ATOM     17  C   UNL     1     -13.444   1.902   2.676  1.00  0.00     0.028 A 
ATOM     18  Cl  UNL     1      -9.001   2.272   2.313  1.00  0.00    -0.084 Cl
ATOM     19  Cl  UNL     1     -13.353  -0.547   1.525  1.00  0.00    -0.084 Cl
ENDBRANCH   8  12
BRANCH   7  20
ATOM     20  N   UNL     1     -14.975   9.500   5.655  1.00  0.00     0.062 N 
ATOM     21  O   UNL     1     -15.656  10.106   4.913  1.00  0.00    -0.258 OA
ATOM     22  O   UNL     1     -14.506  10.178   6.667  1.00  0.00    -0.258 OA
ENDBRANCH   7  20
TORSDOF 2
ENDMDL
MODEL 9
REMARK VINA RESULT:    -3.627      5.184      7.637
REMARK INTER + INTRA:          -4.366
REMARK INTER:                  -4.071
REMARK INTRA:                  -0.296
REMARK UNBOUND:                -0.315
REMARK SMILES O=[N+]([O-])c1ccc2c(c1)N[C@@H](c1cc(Cl)cc(Cl)c1)N2
REMARK SMILES IDX 7 1 8 2 5 3 6 4 20 5 10 6 4 7 11 8 9 9 12 12 14 13 13 14
REMARK SMILES IDX 16 15 17 16 19 17 15 18 18 19 2 20 3 21 1 22
REMARK H PARENT 20 10 10 11
ROOT
ATOM      1  C   UNL     1     -10.451   1.836   3.305  1.00  0.00     0.060 A 
ATOM      2  C   UNL     1     -10.685   2.321   2.040  1.00  0.00     0.066 A 
ATOM      3  C   UNL     1      -8.615   0.568   2.549  1.00  0.00     0.088 A 
ATOM      4  C   UNL     1      -9.343   1.191   3.599  1.00  0.00     0.035 A 
ATOM      5  N   UNL     1     -11.428   2.393   4.219  1.00  0.00    -0.360 N 
ATOM      6  N   UNL     1     -11.767   3.194   2.184  1.00  0.00    -0.360 N 
ATOM      7  C   UNL     1      -8.916   0.925   1.236  1.00  0.00     0.271 A 
ATOM      8  C   UNL     1     -11.768   3.544   3.558  1.00  0.00     0.205 C 
ATOM      9  C   UNL     1      -9.972   1.855   0.982  1.00  0.00     0.113 A 
ATOM     10  H   UNL     1     -11.771   2.026   5.118  1.00  0.00     0.163 HD
ATOM     11  H   UNL     1     -12.419   3.513   1.453  1.00  0.00     0.163 HD
ENDROOT
BRANCH   8  12
ATOM     12  C   UNL     1     -13.015   4.344   4.028  1.00  0.00    -0.003 A 
ATOM     13  C   UNL     1     -13.901   6.513   4.830  1.00  0.00     0.042 A 
ATOM     14  C   UNL     1     -13.092   5.749   3.896  1.00  0.00     0.028 A 
ATOM     15  C   UNL     1     -15.032   5.818   5.455  1.00  0.00     0.041 A 
ATOM     16  C   UNL     1     -15.105   4.376   5.246  1.00  0.00     0.042 A 
ATOM     17  C   UNL     1     -14.050   3.602   4.701  1.00  0.00     0.028 A 
ATOM     18  Cl  UNL     1     -13.879   8.061   5.012  1.00  0.00    -0.084 Cl
ATOM     19  Cl  UNL     1     -16.526   3.601   5.794  1.00  0.00    -0.084 Cl
ENDBRANCH   8  12
BRANCH   7  20
ATOM     20  N   UNL     1      -8.184   0.510   0.143  1.00  0.00     0.062 N 
ATOM     21  O   UNL     1      -7.588  -0.502   0.178  1.00  0.00    -0.258 OA
ATOM     22  O   UNL     1      -8.281   1.064  -1.035  1.00  0.00    -0.258 OA
ENDBRANCH   7  20
TORSDOF 2
ENDMDL
