MODEL 1
REMARK VINA RESULT:    -4.535      0.000      0.000
REMARK INTER + INTRA:          -5.361
REMARK INTER:                  -5.065
REMARK INTRA:                  -0.296
REMARK UNBOUND:                -0.296
REMARK SMILES O=[N+]([O-])c1ccc2c(c1)N[C@@H](c1cc(Cl)cc(Cl)c1)N2
REMARK SMILES IDX 7 1 8 2 5 3 6 4 20 5 10 6 4 7 11 8 9 9 12 12 14 13 13 14
REMARK SMILES IDX 16 15 17 16 19 17 15 18 18 19 2 20 3 21 1 22
REMARK H PARENT 20 10 10 11
ROOT
ATOM      1  C   UNL     1       0.042  -0.542   0.197  1.00  0.00     0.060 A 
ATOM      2  C   UNL     1      -0.152   0.235  -0.919  1.00  0.00     0.066 A 
ATOM      3  C   UNL     1       2.362  -0.140   0.155  1.00  0.00     0.088 A 
ATOM      4  C   UNL     1       1.186  -0.541   0.846  1.00  0.00     0.035 A 
ATOM      5  N   UNL     1      -1.235  -1.065   0.643  1.00  0.00    -0.360 N 
ATOM      6  N   UNL     1      -1.533   0.222  -1.133  1.00  0.00    -0.360 N 
ATOM      7  C   UNL     1       2.218   0.529  -1.058  1.00  0.00     0.271 A 
ATOM      8  C   UNL     1      -2.089  -0.128   0.123  1.00  0.00     0.205 C 
ATOM      9  C   UNL     1       0.911   0.745  -1.595  1.00  0.00     0.113 A 
ATOM     10  H   UNL     1      -1.443  -1.907   1.198  1.00  0.00     0.163 HD
ATOM     11  H   UNL     1      -2.035   0.422  -2.010  1.00  0.00     0.163 HD
ENDROOT
BRANCH   8  12
ATOM     12  C   UNL     1      -3.615  -0.425   0.104  1.00  0.00    -0.003 A 
ATOM     13  C   UNL     1      -5.848   0.264  -0.714  1.00  0.00     0.042 A 
ATOM     14  C   UNL     1      -4.442  -0.006  -0.963  1.00  0.00     0.028 A 
ATOM     15  C   UNL     1      -6.476  -0.449   0.405  1.00  0.00     0.041 A 
ATOM     16  C   UNL     1      -5.581  -1.189   1.288  1.00  0.00     0.042 A 
ATOM     17  C   UNL     1      -4.170  -1.061   1.271  1.00  0.00     0.028 A 
ATOM     18  Cl  UNL     1      -6.828   0.994  -1.682  1.00  0.00    -0.084 Cl
ATOM     19  Cl  UNL     1      -6.326  -2.184   2.461  1.00  0.00    -0.084 Cl
ENDBRANCH   8  12
BRANCH   7  20
ATOM     20  N   UNL     1       3.269   1.101  -1.745  1.00  0.00     0.062 N 
ATOM     21  O   UNL     1       3.204   2.219  -2.105  1.00  0.00    -0.258 OA
ATOM     22  O   UNL     1       4.448   0.550  -1.839  1.00  0.00    -0.258 OA
ENDBRANCH   7  20
TORSDOF 2
ENDMDL
MODEL 2
REMARK VINA RESULT:    -4.530      5.113      7.773
REMARK INTER + INTRA:          -5.356
REMARK INTER:                  -5.061
REMARK INTRA:                  -0.296
REMARK UNBOUND:                -0.296
REMARK SMILES O=[N+]([O-])c1ccc2c(c1)N[C@@H](c1cc(Cl)cc(Cl)c1)N2
REMARK SMILES IDX 7 1 8 2 5 3 6 4 20 5 10 6 4 7 11 8 9 9 12 12 14 13 13 14
REMARK SMILES IDX 16 15 17 16 19 17 15 18 18 19 2 20 3 21 1 22
REMARK H PARENT 20 10 10 11
ROOT
ATOM      1  C   UNL     1      -2.876   0.471  -0.276  1.00  0.00     0.060 A 
ATOM      2  C   UNL     1      -2.735  -0.874  -0.032  1.00  0.00     0.066 A 
ATOM      3  C   UNL     1      -5.166   0.396   0.272  1.00  0.00     0.088 A 
ATOM      4  C   UNL     1      -3.960   1.124   0.083  1.00  0.00     0.035 A 
ATOM      5  N   UNL     1      -1.598   1.020  -0.682  1.00  0.00    -0.360 N 
ATOM      6  N   UNL     1      -1.380  -1.140  -0.248  1.00  0.00    -0.360 N 
ATOM      7  C   UNL     1      -5.088  -0.990   0.383  1.00  0.00     0.271 A 
ATOM      8  C   UNL     1      -0.739   0.118  -0.110  1.00  0.00     0.205 C 
ATOM      9  C   UNL     1      -3.821  -1.639   0.252  1.00  0.00     0.113 A 
ATOM     10  H   UNL     1      -1.391   1.857  -1.245  1.00  0.00     0.163 HD
ATOM     11  H   UNL     1      -0.943  -2.048  -0.460  1.00  0.00     0.163 HD
ENDROOT
BRANCH   8  12
ATOM     12  C   UNL     1       0.760   0.138  -0.519  1.00  0.00    -0.003 A 
ATOM     13  C   UNL     1       2.966  -0.976  -0.354  1.00  0.00     0.042 A 
ATOM     14  C   UNL     1       1.531  -1.045  -0.578  1.00  0.00     0.028 A 
ATOM     15  C   UNL     1       3.629   0.295  -0.668  1.00  0.00     0.041 A 
ATOM     16  C   UNL     1       2.757   1.426  -0.968  1.00  0.00     0.042 A 
ATOM     17  C   UNL     1       1.359   1.429  -0.738  1.00  0.00     0.028 A 
ATOM     18  Cl  UNL     1       3.915  -2.186  -0.102  1.00  0.00    -0.084 Cl
ATOM     19  Cl  UNL     1       3.524   2.844  -1.535  1.00  0.00    -0.084 Cl
ENDBRANCH   8  12
BRANCH   7  20
ATOM     20  N   UNL     1      -6.160  -1.792   0.718  1.00  0.00     0.062 N 
ATOM     21  O   UNL     1      -6.090  -2.521   1.638  1.00  0.00    -0.258 OA
ATOM     22  O   UNL     1      -7.353  -1.641   0.211  1.00  0.00    -0.258 OA
ENDBRANCH   7  20
TORSDOF 2
ENDMDL
MODEL 3
REMARK VINA RESULT:    -4.520      4.981      7.425
REMARK INTER + INTRA:          -5.345
REMARK INTER:                  -5.049
REMARK INTRA:                  -0.296
REMARK UNBOUND:                -0.296
REMARK SMILES O=[N+]([O-])c1ccc2c(c1)N[C@@H](c1cc(Cl)cc(Cl)c1)N2
REMARK SMILES IDX 7 1 8 2 5 3 6 4 20 5 10 6 4 7 11 8 9 9 12 12 14 13 13 14
REMARK SMILES IDX 16 15 17 16 19 17 15 18 18 19 2 20 3 21 1 22
REMARK H PARENT 20 10 10 11
ROOT
ATOM      1  C   UNL     1      -2.697  -1.010   0.188  1.00  0.00     0.060 A 
ATOM      2  C   UNL     1      -2.869   0.331  -0.062  1.00  0.00     0.066 A 
ATOM      3  C   UNL     1      -5.024  -1.374   0.200  1.00  0.00     0.088 A 
ATOM      4  C   UNL     1      -3.694  -1.862   0.086  1.00  0.00     0.035 A 
ATOM      5  N   UNL     1      -1.279  -1.302   0.271  1.00  0.00    -0.360 N 
ATOM      6  N   UNL     1      -1.575   0.847  -0.169  1.00  0.00    -0.360 N 
ATOM      7  C   UNL     1      -5.233  -0.000   0.096  1.00  0.00     0.271 A 
ATOM      8  C   UNL     1      -0.763  -0.274  -0.475  1.00  0.00     0.205 C 
ATOM      9  C   UNL     1      -4.114   0.874  -0.068  1.00  0.00     0.113 A 
ATOM     10  H   UNL     1      -0.794  -2.070   0.755  1.00  0.00     0.163 HD
ATOM     11  H   UNL     1      -1.277   1.826  -0.052  1.00  0.00     0.163 HD
ENDROOT
BRANCH   8  12
ATOM     12  C   UNL     1       0.767  -0.006  -0.433  1.00  0.00    -0.003 A 
ATOM     13  C   UNL     1       2.625   1.492  -1.095  1.00  0.00     0.042 A 
ATOM     14  C   UNL     1       1.297   1.300  -0.536  1.00  0.00     0.028 A 
ATOM     15  C   UNL     1       3.567   0.374  -0.971  1.00  0.00     0.041 A 
ATOM     16  C   UNL     1       3.017  -0.891  -0.496  1.00  0.00     0.042 A 
ATOM     17  C   UNL     1       1.630  -1.158  -0.387  1.00  0.00     0.028 A 
ATOM     18  Cl  UNL     1       3.246   2.850  -1.542  1.00  0.00    -0.084 Cl
ATOM     19  Cl  UNL     1       4.146  -2.128  -0.154  1.00  0.00    -0.084 Cl
ENDBRANCH   8  12
BRANCH   7  20
ATOM     20  N   UNL     1      -6.484   0.581   0.037  1.00  0.00     0.062 N 
ATOM     21  O   UNL     1      -6.758   1.308  -0.845  1.00  0.00    -0.258 OA
ATOM     22  O   UNL     1      -7.484   0.204   0.786  1.00  0.00    -0.258 OA
ENDBRANCH   7  20
TORSDOF 2
ENDMDL
MODEL 4
REMARK VINA RESULT:    -4.314      1.249      2.735
REMARK INTER + INTRA:          -5.114
REMARK INTER:                  -4.821
REMARK INTRA:                  -0.293
REMARK UNBOUND:                -0.296
REMARK SMILES O=[N+]([O-])c1ccc2c(c1)N[C@@H](c1cc(Cl)cc(Cl)c1)N2
REMARK SMILES IDX 7 1 8 2 5 3 6 4 20 5 10 6 4 7 11 8 9 9 12 12 14 13 13 14
REMARK SMILES IDX 16 15 17 16 19 17 15 18 18 19 2 20 3 21 1 22
REMARK H PARENT 20 10 10 11
ROOT
ATOM      1  C   UNL     1      -0.062   0.526  -0.722  1.00  0.00     0.060 A 
ATOM      2  C   UNL     1       0.099  -0.486   0.194  1.00  0.00     0.066 A 
ATOM      3  C   UNL     1       2.243   0.539  -1.210  1.00  0.00     0.088 A 
ATOM      4  C   UNL     1       0.902   0.860  -1.554  1.00  0.00     0.035 A 
ATOM      5  N   UNL     1      -1.462   0.896  -0.785  1.00  0.00    -0.360 N 
ATOM      6  N   UNL     1      -1.190  -0.760   0.658  1.00  0.00    -0.360 N 
ATOM      7  C   UNL     1       2.459  -0.380  -0.185  1.00  0.00     0.271 A 
ATOM      8  C   UNL     1      -2.051  -0.263  -0.353  1.00  0.00     0.205 C 
ATOM      9  C   UNL     1       1.342  -0.928   0.519  1.00  0.00     0.113 A 
ATOM     10  H   UNL     1      -1.895   1.785  -1.075  1.00  0.00     0.163 HD
ATOM     11  H   UNL     1      -1.456  -1.221   1.540  1.00  0.00     0.163 HD
ENDROOT
BRANCH   8  12
ATOM     12  C   UNL     1      -3.560  -0.249   0.021  1.00  0.00    -0.003 A 
ATOM     13  C   UNL     1      -5.384  -1.319   1.309  1.00  0.00     0.042 A 
ATOM     14  C   UNL     1      -4.031  -0.793   1.237  1.00  0.00     0.028 A 
ATOM     15  C   UNL     1      -6.369  -0.754   0.379  1.00  0.00     0.041 A 
ATOM     16  C   UNL     1      -5.849   0.121  -0.666  1.00  0.00     0.042 A 
ATOM     17  C   UNL     1      -4.473   0.254  -0.974  1.00  0.00     0.028 A 
ATOM     18  Cl  UNL     1      -5.968  -2.198   2.456  1.00  0.00    -0.084 Cl
ATOM     19  Cl  UNL     1      -7.011   0.942  -1.613  1.00  0.00    -0.084 Cl
ENDBRANCH   8  12
BRANCH   7  20
ATOM     20  N   UNL     1       3.700  -0.888   0.138  1.00  0.00     0.062 N 
ATOM     21  O   UNL     1       3.991  -1.985  -0.168  1.00  0.00    -0.258 OA
ATOM     22  O   UNL     1       4.683  -0.149   0.578  1.00  0.00    -0.258 OA
ENDBRANCH   7  20
TORSDOF 2
ENDMDL
MODEL 5
REMARK VINA RESULT:    -4.168     10.932     11.729
REMARK INTER + INTRA:          -4.952
REMARK INTER:                  -4.636
REMARK INTRA:                  -0.316
REMARK UNBOUND:                -0.296
REMARK SMILES O=[N+]([O-])c1ccc2c(c1)N[C@@H](c1cc(Cl)cc(Cl)c1)N2
REMARK SMILES IDX 7 1 8 2 5 3 6 4 20 5 10 6 4 7 11 8 9 9 12 12 14 13 13 14
REMARK SMILES IDX 16 15 17 16 19 17 15 18 18 19 2 20 3 21 1 22
REMARK H PARENT 20 10 10 11
ROOT
ATOM      1  C   UNL     1      -0.320   5.941   9.643  1.00  0.00     0.060 A 
ATOM      2  C   UNL     1      -1.420   6.669   9.258  1.00  0.00     0.066 A 
ATOM      3  C   UNL     1      -0.109   7.189  11.630  1.00  0.00     0.088 A 
ATOM      4  C   UNL     1       0.167   6.025  10.862  1.00  0.00     0.035 A 
ATOM      5  N   UNL     1      -0.031   4.941   8.635  1.00  0.00    -0.360 N 
ATOM      6  N   UNL     1      -1.825   6.098   8.048  1.00  0.00    -0.360 N 
ATOM      7  C   UNL     1      -1.126   8.037  11.198  1.00  0.00     0.271 A 
ATOM      8  C   UNL     1      -1.267   4.794   8.060  1.00  0.00     0.205 C 
ATOM      9  C   UNL     1      -1.820   7.746   9.983  1.00  0.00     0.113 A 
ATOM     10  H   UNL     1       0.856   4.469   8.411  1.00  0.00     0.163 HD
ATOM     11  H   UNL     1      -2.402   6.528   7.312  1.00  0.00     0.163 HD
ENDROOT
BRANCH   8  12
ATOM     12  C   UNL     1      -1.390   4.017   6.720  1.00  0.00    -0.003 A 
ATOM     13  C   UNL     1      -0.654   2.068   5.382  1.00  0.00     0.042 A 
ATOM     14  C   UNL     1      -1.126   2.631   6.635  1.00  0.00     0.028 A 
ATOM     15  C   UNL     1      -1.026   2.774   4.151  1.00  0.00     0.041 A 
ATOM     16  C   UNL     1      -1.648   4.083   4.316  1.00  0.00     0.042 A 
ATOM     17  C   UNL     1      -1.685   4.792   5.542  1.00  0.00     0.028 A 
ATOM     18  Cl  UNL     1      -0.051   0.644   5.185  1.00  0.00    -0.084 Cl
ATOM     19  Cl  UNL     1      -2.270   4.810   2.899  1.00  0.00    -0.084 Cl
ENDBRANCH   8  12
BRANCH   7  20
ATOM     20  N   UNL     1      -1.591   9.109  11.932  1.00  0.00     0.062 N 
ATOM     21  O   UNL     1      -2.649   9.569  11.705  1.00  0.00    -0.258 OA
ATOM     22  O   UNL     1      -1.022   9.525  13.031  1.00  0.00    -0.258 OA
ENDBRANCH   7  20
TORSDOF 2
ENDMDL
MODEL 6
REMARK VINA RESULT:    -4.153     10.899     11.600
REMARK INTER + INTRA:          -4.935
REMARK INTER:                  -4.619
REMARK INTRA:                  -0.316
REMARK UNBOUND:                -0.296
REMARK SMILES O=[N+]([O-])c1ccc2c(c1)N[C@@H](c1cc(Cl)cc(Cl)c1)N2
REMARK SMILES IDX 7 1 8 2 5 3 6 4 20 5 10 6 4 7 11 8 9 9 12 12 14 13 13 14
REMARK SMILES IDX 16 15 17 16 19 17 15 18 18 19 2 20 3 21 1 22
REMARK H PARENT 20 10 10 11
ROOT
ATOM      1  C   UNL     1      -1.453   6.753   9.182  1.00  0.00     0.060 A 
ATOM      2  C   UNL     1      -0.349   6.070   9.633  1.00  0.00     0.066 A 
ATOM      3  C   UNL     1      -1.443   8.151  11.078  1.00  0.00     0.088 A 
ATOM      4  C   UNL     1      -1.839   7.880   9.740  1.00  0.00     0.035 A 
ATOM      5  N   UNL     1      -1.871   6.199   7.909  1.00  0.00    -0.360 N 
ATOM      6  N   UNL     1      -0.069   5.135   8.633  1.00  0.00    -0.360 N 
ATOM      7  C   UNL     1      -0.419   7.386  11.630  1.00  0.00     0.271 A 
ATOM      8  C   UNL     1      -0.693   5.654   7.470  1.00  0.00     0.205 C 
ATOM      9  C   UNL     1       0.162   6.326  10.865  1.00  0.00     0.113 A 
ATOM     10  H   UNL     1      -2.797   6.212   7.459  1.00  0.00     0.163 HD
ATOM     11  H   UNL     1       0.470   4.262   8.721  1.00  0.00     0.163 HD
ENDROOT
BRANCH   8  12
ATOM     12  C   UNL     1      -0.716   4.688   6.253  1.00  0.00    -0.003 A 
ATOM     13  C   UNL     1      -1.636   4.213   4.003  1.00  0.00     0.042 A 
ATOM     14  C   UNL     1      -1.036   5.136   4.951  1.00  0.00     0.028 A 
ATOM     15  C   UNL     1      -1.347   2.786   4.188  1.00  0.00     0.041 A 
ATOM     16  C   UNL     1      -0.665   2.416   5.423  1.00  0.00     0.042 A 
ATOM     17  C   UNL     1      -0.495   3.290   6.525  1.00  0.00     0.028 A 
ATOM     18  Cl  UNL     1      -2.306   4.593   2.648  1.00  0.00    -0.084 Cl
ATOM     19  Cl  UNL     1      -0.143   0.793   5.544  1.00  0.00    -0.084 Cl
ENDBRANCH   8  12
BRANCH   7  20
ATOM     20  N   UNL     1       0.157   7.648  12.856  1.00  0.00     0.062 N 
ATOM     21  O   UNL     1       1.230   7.238  13.108  1.00  0.00    -0.258 OA
ATOM     22  O   UNL     1      -0.321   8.524  13.698  1.00  0.00    -0.258 OA
ENDBRANCH   7  20
TORSDOF 2
ENDMDL
MODEL 7
REMARK VINA RESULT:    -3.937     13.188     13.940
REMARK INTER + INTRA:          -4.694
REMARK INTER:                  -4.388
REMARK INTRA:                  -0.305
REMARK UNBOUND:                -0.296
REMARK SMILES O=[N+]([O-])c1ccc2c(c1)N[C@@H](c1cc(Cl)cc(Cl)c1)N2
REMARK SMILES IDX 7 1 8 2 5 3 6 4 20 5 10 6 4 7 11 8 9 9 12 12 14 13 13 14
REMARK SMILES IDX 16 15 17 16 19 17 15 18 18 19 2 20 3 21 1 22
REMARK H PARENT 20 10 10 11
ROOT
ATOM      1  C   UNL     1       1.306   6.464  12.841  1.00  0.00     0.060 A 
ATOM      2  C   UNL     1       2.411   6.444  12.024  1.00  0.00     0.066 A 
ATOM      3  C   UNL     1       2.605   7.136  14.688  1.00  0.00     0.088 A 
ATOM      4  C   UNL     1       1.347   7.008  14.039  1.00  0.00     0.035 A 
ATOM      5  N   UNL     1       0.136   6.085  12.074  1.00  0.00    -0.360 N 
ATOM      6  N   UNL     1       1.920   6.095  10.763  1.00  0.00    -0.360 N 
ATOM      7  C   UNL     1       3.760   6.982  13.925  1.00  0.00     0.271 A 
ATOM      8  C   UNL     1       0.541   6.422  10.809  1.00  0.00     0.205 C 
ATOM      9  C   UNL     1       3.651   6.650  12.538  1.00  0.00     0.113 A 
ATOM     10  H   UNL     1      -0.754   5.675  12.391  1.00  0.00     0.163 HD
ATOM     11  H   UNL     1       2.444   5.689   9.974  1.00  0.00     0.163 HD
ENDROOT
BRANCH   8  12
ATOM     12  C   UNL     1      -0.291   5.927   9.593  1.00  0.00    -0.003 A 
ATOM     13  C   UNL     1      -1.652   4.101   8.621  1.00  0.00     0.042 A 
ATOM     14  C   UNL     1      -1.324   4.974   9.736  1.00  0.00     0.028 A 
ATOM     15  C   UNL     1      -1.359   4.602   7.274  1.00  0.00     0.041 A 
ATOM     16  C   UNL     1      -0.575   5.830   7.193  1.00  0.00     0.042 A 
ATOM     17  C   UNL     1       0.105   6.407   8.294  1.00  0.00     0.028 A 
ATOM     18  Cl  UNL     1      -2.546   2.826   8.686  1.00  0.00    -0.084 Cl
ATOM     19  Cl  UNL     1      -0.413   6.525   5.640  1.00  0.00    -0.084 Cl
ENDBRANCH   8  12
BRANCH   7  20
ATOM     20  N   UNL     1       5.031   7.231  14.401  1.00  0.00     0.062 N 
ATOM     21  O   UNL     1       5.591   6.424  15.047  1.00  0.00    -0.258 OA
ATOM     22  O   UNL     1       5.763   8.233  13.996  1.00  0.00    -0.258 OA
ENDBRANCH   7  20
TORSDOF 2
ENDMDL
MODEL 8
REMARK VINA RESULT:    -3.914     13.903     14.819
REMARK INTER + INTRA:          -4.667
REMARK INTER:                  -4.361
REMARK INTRA:                  -0.306
REMARK UNBOUND:                -0.296
REMARK SMILES O=[N+]([O-])c1ccc2c(c1)N[C@@H](c1cc(Cl)cc(Cl)c1)N2
REMARK SMILES IDX 7 1 8 2 5 3 6 4 20 5 10 6 4 7 11 8 9 9 12 12 14 13 13 14
REMARK SMILES IDX 16 15 17 16 19 17 15 18 18 19 2 20 3 21 1 22
REMARK H PARENT 20 10 10 11
ROOT
ATOM      1  C   UNL     1      -2.825   9.694  10.949  1.00  0.00     0.060 A 
ATOM      2  C   UNL     1      -3.990   9.007  10.706  1.00  0.00     0.066 A 
ATOM      3  C   UNL     1      -3.943  11.227  12.345  1.00  0.00     0.088 A 
ATOM      4  C   UNL     1      -2.747  10.602  11.898  1.00  0.00     0.035 A 
ATOM      5  N   UNL     1      -1.737   9.059  10.232  1.00  0.00    -0.360 N 
ATOM      6  N   UNL     1      -3.616   7.942   9.882  1.00  0.00    -0.360 N 
ATOM      7  C   UNL     1      -5.160  10.643  12.002  1.00  0.00     0.271 A 
ATOM      8  C   UNL     1      -2.224   7.785  10.106  1.00  0.00     0.205 C 
ATOM      9  C   UNL     1      -5.175   9.476  11.175  1.00  0.00     0.113 A 
ATOM     10  H   UNL     1      -0.844   9.456   9.906  1.00  0.00     0.163 HD
ATOM     11  H   UNL     1      -4.217   7.392   9.252  1.00  0.00     0.163 HD
ENDROOT
BRANCH   8  12
ATOM     12  C   UNL     1      -1.513   6.796   9.140  1.00  0.00    -0.003 A 
ATOM     13  C   UNL     1      -0.324   6.499   6.988  1.00  0.00     0.042 A 
ATOM     14  C   UNL     1      -0.522   7.228   8.230  1.00  0.00     0.028 A 
ATOM     15  C   UNL     1      -0.692   5.079   6.983  1.00  0.00     0.041 A 
ATOM     16  C   UNL     1      -1.417   4.591   8.151  1.00  0.00     0.042 A 
ATOM     17  C   UNL     1      -1.981   5.434   9.140  1.00  0.00     0.028 A 
ATOM     18  Cl  UNL     1       0.505   6.984   5.761  1.00  0.00    -0.084 Cl
ATOM     19  Cl  UNL     1      -1.660   2.901   8.240  1.00  0.00    -0.084 Cl
ENDBRANCH   8  12
BRANCH   7  20
ATOM     20  N   UNL     1      -6.377  11.062  12.498  1.00  0.00     0.062 N 
ATOM     21  O   UNL     1      -6.825  12.100  12.173  1.00  0.00    -0.258 OA
ATOM     22  O   UNL     1      -7.194  10.278  13.148  1.00  0.00    -0.258 OA
ENDBRANCH   7  20
TORSDOF 2
ENDMDL
MODEL 9
REMARK VINA RESULT:    -3.886     15.042     16.006
REMARK INTER + INTRA:          -4.637
REMARK INTER:                  -4.326
REMARK INTRA:                  -0.311
REMARK UNBOUND:                -0.296
REMARK SMILES O=[N+]([O-])c1ccc2c(c1)N[C@@H](c1cc(Cl)cc(Cl)c1)N2
REMARK SMILES IDX 7 1 8 2 5 3 6 4 20 5 10 6 4 7 11 8 9 9 12 12 14 13 13 14
REMARK SMILES IDX 16 15 17 16 19 17 15 18 18 19 2 20 3 21 1 22
REMARK H PARENT 20 10 10 11
ROOT
ATOM      1  C   UNL     1      -4.460   9.577  11.441  1.00  0.00     0.060 A 
ATOM      2  C   UNL     1      -3.374  10.327  11.826  1.00  0.00     0.066 A 
ATOM      3  C   UNL     1      -5.954  11.156  12.350  1.00  0.00     0.088 A 
ATOM      4  C   UNL     1      -5.681  10.066  11.479  1.00  0.00     0.035 A 
ATOM      5  N   UNL     1      -4.000   8.381  10.765  1.00  0.00    -0.360 N 
ATOM      6  N   UNL     1      -2.263   9.620  11.359  1.00  0.00    -0.360 N 
ATOM      7  C   UNL     1      -4.877  11.861  12.881  1.00  0.00     0.271 A 
ATOM      8  C   UNL     1      -2.771   8.796  10.322  1.00  0.00     0.205 C 
ATOM      9  C   UNL     1      -3.543  11.443  12.583  1.00  0.00     0.113 A 
ATOM     10  H   UNL     1      -4.466   7.470  10.649  1.00  0.00     0.163 HD
ATOM     11  H   UNL     1      -1.291   9.683  11.693  1.00  0.00     0.163 HD
ENDROOT
BRANCH   8  12
ATOM     12  C   UNL     1      -1.769   7.740   9.776  1.00  0.00    -0.003 A 
ATOM     13  C   UNL     1      -1.354   5.937   8.129  1.00  0.00     0.042 A 
ATOM     14  C   UNL     1      -1.832   7.274   8.443  1.00  0.00     0.028 A 
ATOM     15  C   UNL     1      -0.322   5.375   9.008  1.00  0.00     0.041 A 
ATOM     16  C   UNL     1      -0.032   6.119  10.229  1.00  0.00     0.042 A 
ATOM     17  C   UNL     1      -0.834   7.179  10.718  1.00  0.00     0.028 A 
ATOM     18  Cl  UNL     1      -1.601   5.162   6.800  1.00  0.00    -0.084 Cl
ATOM     19  Cl  UNL     1       1.307   5.581  11.144  1.00  0.00    -0.084 Cl
ENDBRANCH   8  12
BRANCH   7  20
ATOM     20  N   UNL     1      -5.009  13.024  13.611  1.00  0.00     0.062 N 
ATOM     21  O   UNL     1      -6.051  13.322  14.068  1.00  0.00    -0.258 OA
ATOM     22  O   UNL     1      -3.992  13.727  14.029  1.00  0.00    -0.258 OA
ENDBRANCH   7  20
TORSDOF 2
ENDMDL
