MODEL 1
REMARK VINA RESULT:    -4.135      0.000      0.000
REMARK INTER + INTRA:          -4.922
REMARK INTER:                  -4.618
REMARK INTRA:                  -0.303
REMARK UNBOUND:                -0.303
REMARK SMILES O=[N+]([O-])c1ccc2c(c1)N[C@@H](c1cc(Cl)cc(Cl)c1)N2
REMARK SMILES IDX 7 1 8 2 5 3 6 4 20 5 10 6 4 7 11 8 9 9 12 12 14 13 13 14
REMARK SMILES IDX 16 15 17 16 19 17 15 18 18 19 2 20 3 21 1 22
REMARK H PARENT 20 10 10 11
ROOT
ATOM      1  C   UNL     1      -3.035  -1.786   4.197  1.00  0.00     0.060 A 
ATOM      2  C   UNL     1      -3.581  -2.363   3.076  1.00  0.00     0.066 A 
ATOM      3  C   UNL     1      -1.215  -0.947   2.959  1.00  0.00     0.088 A 
ATOM      4  C   UNL     1      -2.044  -0.925   4.114  1.00  0.00     0.035 A 
ATOM      5  N   UNL     1      -3.889  -2.054   5.337  1.00  0.00    -0.360 N 
ATOM      6  N   UNL     1      -4.774  -2.945   3.513  1.00  0.00    -0.360 N 
ATOM      7  C   UNL     1      -1.664  -1.642   1.839  1.00  0.00     0.271 A 
ATOM      8  C   UNL     1      -5.092  -2.256   4.712  1.00  0.00     0.205 C 
ATOM      9  C   UNL     1      -2.904  -2.351   1.898  1.00  0.00     0.113 A 
ATOM     10  H   UNL     1      -3.658  -2.084   6.340  1.00  0.00     0.163 HD
ATOM     11  H   UNL     1      -5.305  -3.705   3.065  1.00  0.00     0.163 HD
ENDROOT
BRANCH   8  12
ATOM     12  C   UNL     1      -6.272  -2.863   5.522  1.00  0.00    -0.003 A 
ATOM     13  C   UNL     1      -7.752  -2.654   7.496  1.00  0.00     0.042 A 
ATOM     14  C   UNL     1      -7.106  -2.064   6.336  1.00  0.00     0.028 A 
ATOM     15  C   UNL     1      -8.012  -4.097   7.452  1.00  0.00     0.041 A 
ATOM     16  C   UNL     1      -7.407  -4.833   6.347  1.00  0.00     0.042 A 
ATOM     17  C   UNL     1      -6.417  -4.296   5.488  1.00  0.00     0.028 A 
ATOM     18  Cl  UNL     1      -8.461  -1.877   8.647  1.00  0.00    -0.084 Cl
ATOM     19  Cl  UNL     1      -7.879  -6.467   6.177  1.00  0.00    -0.084 Cl
ENDBRANCH   8  12
BRANCH   7  20
ATOM     20  N   UNL     1      -1.029  -1.612   0.614  1.00  0.00     0.062 N 
ATOM     21  O   UNL     1      -0.904  -0.596   0.036  1.00  0.00    -0.258 OA
ATOM     22  O   UNL     1      -0.347  -2.617   0.137  1.00  0.00    -0.258 OA
ENDBRANCH   7  20
TORSDOF 2
ENDMDL
MODEL 2
REMARK VINA RESULT:    -4.119      1.065      2.706
REMARK INTER + INTRA:          -4.904
REMARK INTER:                  -4.600
REMARK INTRA:                  -0.304
REMARK UNBOUND:                -0.303
REMARK SMILES O=[N+]([O-])c1ccc2c(c1)N[C@@H](c1cc(Cl)cc(Cl)c1)N2
REMARK SMILES IDX 7 1 8 2 5 3 6 4 20 5 10 6 4 7 11 8 9 9 12 12 14 13 13 14
REMARK SMILES IDX 16 15 17 16 19 17 15 18 18 19 2 20 3 21 1 22
REMARK H PARENT 20 10 10 11
ROOT
ATOM      1  C   UNL     1      -4.461  -3.179   2.267  1.00  0.00     0.060 A 
ATOM      2  C   UNL     1      -3.556  -2.451   3.001  1.00  0.00     0.066 A 
ATOM      3  C   UNL     1      -3.075  -3.106   0.363  1.00  0.00     0.088 A 
ATOM      4  C   UNL     1      -4.145  -3.688   1.095  1.00  0.00     0.035 A 
ATOM      5  N   UNL     1      -5.605  -3.498   3.098  1.00  0.00    -0.360 N 
ATOM      6  N   UNL     1      -4.118  -2.358   4.277  1.00  0.00    -0.360 N 
ATOM      7  C   UNL     1      -2.209  -2.244   1.034  1.00  0.00     0.271 A 
ATOM      8  C   UNL     1      -5.039  -3.434   4.345  1.00  0.00     0.205 C 
ATOM      9  C   UNL     1      -2.449  -1.932   2.409  1.00  0.00     0.113 A 
ATOM     10  H   UNL     1      -6.575  -3.714   2.827  1.00  0.00     0.163 HD
ATOM     11  H   UNL     1      -3.909  -1.662   5.007  1.00  0.00     0.163 HD
ENDROOT
BRANCH   8  12
ATOM     12  C   UNL     1      -5.964  -3.426   5.594  1.00  0.00    -0.003 A 
ATOM     13  C   UNL     1      -7.765  -4.578   6.843  1.00  0.00     0.042 A 
ATOM     14  C   UNL     1      -6.499  -4.618   6.132  1.00  0.00     0.028 A 
ATOM     15  C   UNL     1      -8.130  -3.309   7.484  1.00  0.00     0.041 A 
ATOM     16  C   UNL     1      -7.293  -2.157   7.166  1.00  0.00     0.042 A 
ATOM     17  C   UNL     1      -6.337  -2.138   6.121  1.00  0.00     0.028 A 
ATOM     18  Cl  UNL     1      -8.632  -5.809   7.248  1.00  0.00    -0.084 Cl
ATOM     19  Cl  UNL     1      -7.587  -0.735   8.069  1.00  0.00    -0.084 Cl
ENDBRANCH   8  12
BRANCH   7  20
ATOM     20  N   UNL     1      -1.051  -1.738   0.480  1.00  0.00     0.062 N 
ATOM     21  O   UNL     1      -0.200  -2.464   0.119  1.00  0.00    -0.258 OA
ATOM     22  O   UNL     1      -0.918  -0.492   0.116  1.00  0.00    -0.258 OA
ENDBRANCH   7  20
TORSDOF 2
ENDMDL
MODEL 3
REMARK VINA RESULT:    -4.049      5.248      7.600
REMARK INTER + INTRA:          -4.826
REMARK INTER:                  -4.512
REMARK INTRA:                  -0.315
REMARK UNBOUND:                -0.303
REMARK SMILES O=[N+]([O-])c1ccc2c(c1)N[C@@H](c1cc(Cl)cc(Cl)c1)N2
REMARK SMILES IDX 7 1 8 2 5 3 6 4 20 5 10 6 4 7 11 8 9 9 12 12 14 13 13 14
REMARK SMILES IDX 16 15 17 16 19 17 15 18 18 19 2 20 3 21 1 22
REMARK H PARENT 20 10 10 11
ROOT
ATOM      1  C   UNL     1      -6.733  -2.739   6.337  1.00  0.00     0.060 A 
ATOM      2  C   UNL     1      -6.722  -4.064   5.973  1.00  0.00     0.066 A 
ATOM      3  C   UNL     1      -8.384  -3.134   7.970  1.00  0.00     0.088 A 
ATOM      4  C   UNL     1      -7.343  -2.331   7.429  1.00  0.00     0.035 A 
ATOM      5  N   UNL     1      -5.774  -2.013   5.527  1.00  0.00    -0.360 N 
ATOM      6  N   UNL     1      -5.743  -4.158   4.980  1.00  0.00    -0.360 N 
ATOM      7  C   UNL     1      -8.502  -4.448   7.524  1.00  0.00     0.271 A 
ATOM      8  C   UNL     1      -4.916  -3.024   5.181  1.00  0.00     0.205 C 
ATOM      9  C   UNL     1      -7.620  -4.932   6.509  1.00  0.00     0.113 A 
ATOM     10  H   UNL     1      -5.746  -1.014   5.280  1.00  0.00     0.163 HD
ATOM     11  H   UNL     1      -5.644  -4.889   4.261  1.00  0.00     0.163 HD
ENDROOT
BRANCH   8  12
ATOM     12  C   UNL     1      -3.866  -2.773   4.063  1.00  0.00    -0.003 A 
ATOM     13  C   UNL     1      -2.134  -1.255   3.152  1.00  0.00     0.042 A 
ATOM     14  C   UNL     1      -2.732  -1.956   4.276  1.00  0.00     0.028 A 
ATOM     15  C   UNL     1      -2.315  -1.849   1.823  1.00  0.00     0.041 A 
ATOM     16  C   UNL     1      -3.253  -2.963   1.731  1.00  0.00     0.042 A 
ATOM     17  C   UNL     1      -4.151  -3.327   2.764  1.00  0.00     0.028 A 
ATOM     18  Cl  UNL     1      -1.079  -0.110   3.240  1.00  0.00    -0.084 Cl
ATOM     19  Cl  UNL     1      -3.307  -3.786   0.234  1.00  0.00    -0.084 Cl
ENDBRANCH   8  12
BRANCH   7  20
ATOM     20  N   UNL     1      -9.367  -5.369   8.079  1.00  0.00     0.062 N 
ATOM     21  O   UNL     1      -9.172  -6.521   7.947  1.00  0.00    -0.258 OA
ATOM     22  O   UNL     1     -10.290  -5.052   8.946  1.00  0.00    -0.258 OA
ENDBRANCH   7  20
TORSDOF 2
ENDMDL
MODEL 4
REMARK VINA RESULT:    -4.046      5.254      7.851
REMARK INTER + INTRA:          -4.822
REMARK INTER:                  -4.507
REMARK INTRA:                  -0.315
REMARK UNBOUND:                -0.303
REMARK SMILES O=[N+]([O-])c1ccc2c(c1)N[C@@H](c1cc(Cl)cc(Cl)c1)N2
REMARK SMILES IDX 7 1 8 2 5 3 6 4 20 5 10 6 4 7 11 8 9 9 12 12 14 13 13 14
REMARK SMILES IDX 16 15 17 16 19 17 15 18 18 19 2 20 3 21 1 22
REMARK H PARENT 20 10 10 11
ROOT
ATOM      1  C   UNL     1      -6.727  -3.966   5.947  1.00  0.00     0.060 A 
ATOM      2  C   UNL     1      -6.760  -2.648   6.337  1.00  0.00     0.066 A 
ATOM      3  C   UNL     1      -8.358  -4.548   7.543  1.00  0.00     0.088 A 
ATOM      4  C   UNL     1      -7.638  -4.825   6.350  1.00  0.00     0.035 A 
ATOM      5  N   UNL     1      -5.769  -4.122   4.870  1.00  0.00    -0.360 N 
ATOM      6  N   UNL     1      -5.864  -1.997   5.485  1.00  0.00    -0.360 N 
ATOM      7  C   UNL     1      -8.307  -3.254   8.058  1.00  0.00     0.271 A 
ATOM      8  C   UNL     1      -5.752  -2.850   4.358  1.00  0.00     0.205 C 
ATOM      9  C   UNL     1      -7.498  -2.268   7.412  1.00  0.00     0.113 A 
ATOM     10  H   UNL     1      -5.246  -4.957   4.571  1.00  0.00     0.163 HD
ATOM     11  H   UNL     1      -5.389  -1.097   5.642  1.00  0.00     0.163 HD
ENDROOT
BRANCH   8  12
ATOM     12  C   UNL     1      -4.638  -2.458   3.348  1.00  0.00    -0.003 A 
ATOM     13  C   UNL     1      -3.375  -3.085   1.313  1.00  0.00     0.042 A 
ATOM     14  C   UNL     1      -4.637  -2.937   2.018  1.00  0.00     0.028 A 
ATOM     15  C   UNL     1      -2.270  -2.216   1.733  1.00  0.00     0.041 A 
ATOM     16  C   UNL     1      -2.479  -1.443   2.952  1.00  0.00     0.042 A 
ATOM     17  C   UNL     1      -3.549  -1.663   3.855  1.00  0.00     0.028 A 
ATOM     18  Cl  UNL     1      -3.156  -3.852  -0.027  1.00  0.00    -0.084 Cl
ATOM     19  Cl  UNL     1      -1.284  -0.279   3.326  1.00  0.00    -0.084 Cl
ENDBRANCH   8  12
BRANCH   7  20
ATOM     20  N   UNL     1      -9.079  -2.821   9.117  1.00  0.00     0.062 N 
ATOM     21  O   UNL     1      -9.235  -1.671   9.306  1.00  0.00    -0.258 OA
ATOM     22  O   UNL     1      -9.848  -3.613   9.813  1.00  0.00    -0.258 OA
ENDBRANCH   7  20
TORSDOF 2
ENDMDL
MODEL 5
REMARK VINA RESULT:    -3.741      5.223      7.809
REMARK INTER + INTRA:          -4.482
REMARK INTER:                  -4.184
REMARK INTRA:                  -0.297
REMARK UNBOUND:                -0.303
REMARK SMILES O=[N+]([O-])c1ccc2c(c1)N[C@@H](c1cc(Cl)cc(Cl)c1)N2
REMARK SMILES IDX 7 1 8 2 5 3 6 4 20 5 10 6 4 7 11 8 9 9 12 12 14 13 13 14
REMARK SMILES IDX 16 15 17 16 19 17 15 18 18 19 2 20 3 21 1 22
REMARK H PARENT 20 10 10 11
ROOT
ATOM      1  C   UNL     1      -7.007  -2.983   6.251  1.00  0.00     0.060 A 
ATOM      2  C   UNL     1      -6.836  -4.260   5.773  1.00  0.00     0.066 A 
ATOM      3  C   UNL     1      -8.499  -3.734   7.912  1.00  0.00     0.088 A 
ATOM      4  C   UNL     1      -7.607  -2.753   7.399  1.00  0.00     0.035 A 
ATOM      5  N   UNL     1      -6.201  -2.067   5.467  1.00  0.00    -0.360 N 
ATOM      6  N   UNL     1      -5.908  -4.136   4.736  1.00  0.00    -0.360 N 
ATOM      7  C   UNL     1      -8.461  -5.012   7.360  1.00  0.00     0.271 A 
ATOM      8  C   UNL     1      -5.233  -2.917   4.999  1.00  0.00     0.205 C 
ATOM      9  C   UNL     1      -7.577  -5.284   6.270  1.00  0.00     0.113 A 
ATOM     10  H   UNL     1      -6.322  -1.057   5.307  1.00  0.00     0.163 HD
ATOM     11  H   UNL     1      -5.750  -4.786   3.953  1.00  0.00     0.163 HD
ENDROOT
BRANCH   8  12
ATOM     12  C   UNL     1      -4.289  -2.433   3.863  1.00  0.00    -0.003 A 
ATOM     13  C   UNL     1      -3.315  -2.908   1.637  1.00  0.00     0.042 A 
ATOM     14  C   UNL     1      -4.466  -2.843   2.522  1.00  0.00     0.028 A 
ATOM     15  C   UNL     1      -2.187  -2.021   1.943  1.00  0.00     0.041 A 
ATOM     16  C   UNL     1      -2.240  -1.319   3.221  1.00  0.00     0.042 A 
ATOM     17  C   UNL     1      -3.162  -1.625   4.253  1.00  0.00     0.028 A 
ATOM     18  Cl  UNL     1      -3.270  -3.597   0.239  1.00  0.00    -0.084 Cl
ATOM     19  Cl  UNL     1      -1.039  -0.132   3.484  1.00  0.00    -0.084 Cl
ENDBRANCH   8  12
BRANCH   7  20
ATOM     20  N   UNL     1      -9.162  -6.086   7.869  1.00  0.00     0.062 N 
ATOM     21  O   UNL     1      -8.686  -7.161   7.863  1.00  0.00    -0.258 OA
ATOM     22  O   UNL     1     -10.254  -5.960   8.573  1.00  0.00    -0.258 OA
ENDBRANCH   7  20
TORSDOF 2
ENDMDL
MODEL 6
REMARK VINA RESULT:    -3.733      5.227      7.626
REMARK INTER + INTRA:          -4.473
REMARK INTER:                  -4.176
REMARK INTRA:                  -0.297
REMARK UNBOUND:                -0.303
REMARK SMILES O=[N+]([O-])c1ccc2c(c1)N[C@@H](c1cc(Cl)cc(Cl)c1)N2
REMARK SMILES IDX 7 1 8 2 5 3 6 4 20 5 10 6 4 7 11 8 9 9 12 12 14 13 13 14
REMARK SMILES IDX 16 15 17 16 19 17 15 18 18 19 2 20 3 21 1 22
REMARK H PARENT 20 10 10 11
ROOT
ATOM      1  C   UNL     1      -6.722  -3.734   6.326  1.00  0.00     0.060 A 
ATOM      2  C   UNL     1      -6.629  -2.380   6.538  1.00  0.00     0.066 A 
ATOM      3  C   UNL     1      -8.482  -3.923   7.880  1.00  0.00     0.088 A 
ATOM      4  C   UNL     1      -7.740  -4.433   6.780  1.00  0.00     0.035 A 
ATOM      5  N   UNL     1      -5.737  -4.133   5.340  1.00  0.00    -0.360 N 
ATOM      6  N   UNL     1      -5.627  -1.946   5.666  1.00  0.00    -0.360 N 
ATOM      7  C   UNL     1      -8.313  -2.584   8.225  1.00  0.00     0.271 A 
ATOM      8  C   UNL     1      -5.557  -2.951   4.669  1.00  0.00     0.205 C 
ATOM      9  C   UNL     1      -7.371  -1.783   7.507  1.00  0.00     0.113 A 
ATOM     10  H   UNL     1      -5.295  -5.050   5.185  1.00  0.00     0.163 HD
ATOM     11  H   UNL     1      -5.064  -1.086   5.733  1.00  0.00     0.163 HD
ENDROOT
BRANCH   8  12
ATOM     12  C   UNL     1      -4.360  -2.817   3.686  1.00  0.00    -0.003 A 
ATOM     13  C   UNL     1      -2.390  -1.485   2.992  1.00  0.00     0.042 A 
ATOM     14  C   UNL     1      -3.185  -2.112   4.035  1.00  0.00     0.028 A 
ATOM     15  C   UNL     1      -2.466  -2.075   1.651  1.00  0.00     0.041 A 
ATOM     16  C   UNL     1      -3.491  -3.093   1.446  1.00  0.00     0.042 A 
ATOM     17  C   UNL     1      -4.539  -3.356   2.363  1.00  0.00     0.028 A 
ATOM     18  Cl  UNL     1      -1.247  -0.448   3.208  1.00  0.00    -0.084 Cl
ATOM     19  Cl  UNL     1      -3.444  -3.926  -0.046  1.00  0.00    -0.084 Cl
ENDBRANCH   8  12
BRANCH   7  20
ATOM     20  N   UNL     1      -9.082  -1.934   9.168  1.00  0.00     0.062 N 
ATOM     21  O   UNL     1      -9.391  -0.811   9.010  1.00  0.00    -0.258 OA
ATOM     22  O   UNL     1      -9.691  -2.551  10.144  1.00  0.00    -0.258 OA
ENDBRANCH   7  20
TORSDOF 2
ENDMDL
MODEL 7
REMARK VINA RESULT:    -3.341      5.997      8.549
REMARK INTER + INTRA:          -4.035
REMARK INTER:                  -3.728
REMARK INTRA:                  -0.307
REMARK UNBOUND:                -0.303
REMARK SMILES O=[N+]([O-])c1ccc2c(c1)N[C@@H](c1cc(Cl)cc(Cl)c1)N2
REMARK SMILES IDX 7 1 8 2 5 3 6 4 20 5 10 6 4 7 11 8 9 9 12 12 14 13 13 14
REMARK SMILES IDX 16 15 17 16 19 17 15 18 18 19 2 20 3 21 1 22
REMARK H PARENT 20 10 10 11
ROOT
ATOM      1  C   UNL     1      -8.581  -6.148   7.040  1.00  0.00     0.060 A 
ATOM      2  C   UNL     1      -7.413  -6.869   7.109  1.00  0.00     0.066 A 
ATOM      3  C   UNL     1      -9.730  -7.762   8.315  1.00  0.00     0.088 A 
ATOM      4  C   UNL     1      -9.617  -6.444   7.795  1.00  0.00     0.035 A 
ATOM      5  N   UNL     1      -8.351  -4.938   6.276  1.00  0.00    -0.360 N 
ATOM      6  N   UNL     1      -6.469  -6.093   6.430  1.00  0.00    -0.360 N 
ATOM      7  C   UNL     1      -8.605  -8.583   8.277  1.00  0.00     0.271 A 
ATOM      8  C   UNL     1      -7.001  -4.779   6.451  1.00  0.00     0.205 C 
ATOM      9  C   UNL     1      -7.400  -8.104   7.675  1.00  0.00     0.113 A 
ATOM     10  H   UNL     1      -9.018  -4.356   5.748  1.00  0.00     0.163 HD
ATOM     11  H   UNL     1      -5.583  -6.407   6.009  1.00  0.00     0.163 HD
ENDROOT
BRANCH   8  12
ATOM     12  C   UNL     1      -6.241  -3.752   5.566  1.00  0.00    -0.003 A 
ATOM     13  C   UNL     1      -6.042  -2.682   3.341  1.00  0.00     0.042 A 
ATOM     14  C   UNL     1      -6.857  -3.119   4.462  1.00  0.00     0.028 A 
ATOM     15  C   UNL     1      -4.638  -2.362   3.623  1.00  0.00     0.041 A 
ATOM     16  C   UNL     1      -4.144  -2.717   4.948  1.00  0.00     0.042 A 
ATOM     17  C   UNL     1      -4.845  -3.546   5.858  1.00  0.00     0.028 A 
ATOM     18  Cl  UNL     1      -6.567  -2.235   1.943  1.00  0.00    -0.084 Cl
ATOM     19  Cl  UNL     1      -2.579  -2.158   5.348  1.00  0.00    -0.084 Cl
ENDBRANCH   8  12
BRANCH   7  20
ATOM     20  N   UNL     1      -8.541  -9.821   8.884  1.00  0.00     0.062 N 
ATOM     21  O   UNL     1      -7.818  -9.999   9.794  1.00  0.00    -0.258 OA
ATOM     22  O   UNL     1      -9.404 -10.774   8.658  1.00  0.00    -0.258 OA
ENDBRANCH   7  20
TORSDOF 2
ENDMDL
MODEL 8
REMARK VINA RESULT:    -3.312      5.944      8.315
REMARK INTER + INTRA:          -4.002
REMARK INTER:                  -3.695
REMARK INTRA:                  -0.307
REMARK UNBOUND:                -0.303
REMARK SMILES O=[N+]([O-])c1ccc2c(c1)N[C@@H](c1cc(Cl)cc(Cl)c1)N2
REMARK SMILES IDX 7 1 8 2 5 3 6 4 20 5 10 6 4 7 11 8 9 9 12 12 14 13 13 14
REMARK SMILES IDX 16 15 17 16 19 17 15 18 18 19 2 20 3 21 1 22
REMARK H PARENT 20 10 10 11
ROOT
ATOM      1  C   UNL     1      -8.387  -1.414   8.691  1.00  0.00     0.060 A 
ATOM      2  C   UNL     1      -8.698  -0.471   7.740  1.00  0.00     0.066 A 
ATOM      3  C   UNL     1     -10.042  -0.586  10.148  1.00  0.00     0.088 A 
ATOM      4  C   UNL     1      -9.164  -1.623   9.731  1.00  0.00     0.035 A 
ATOM      5  N   UNL     1      -7.311  -2.251   8.199  1.00  0.00    -0.360 N 
ATOM      6  N   UNL     1      -7.851  -0.750   6.665  1.00  0.00    -0.360 N 
ATOM      7  C   UNL     1     -10.279   0.469   9.270  1.00  0.00     0.271 A 
ATOM      8  C   UNL     1      -7.471  -2.104   6.846  1.00  0.00     0.205 C 
ATOM      9  C   UNL     1      -9.599   0.508   8.013  1.00  0.00     0.113 A 
ATOM     10  H   UNL     1      -6.617  -2.805   8.722  1.00  0.00     0.163 HD
ATOM     11  H   UNL     1      -7.565  -0.113   5.907  1.00  0.00     0.163 HD
ENDROOT
BRANCH   8  12
ATOM     12  C   UNL     1      -6.348  -2.602   5.894  1.00  0.00    -0.003 A 
ATOM     13  C   UNL     1      -3.917  -2.926   5.551  1.00  0.00     0.042 A 
ATOM     14  C   UNL     1      -5.101  -3.052   6.384  1.00  0.00     0.028 A 
ATOM     15  C   UNL     1      -4.123  -2.916   4.098  1.00  0.00     0.041 A 
ATOM     16  C   UNL     1      -5.504  -2.817   3.638  1.00  0.00     0.042 A 
ATOM     17  C   UNL     1      -6.596  -2.492   4.479  1.00  0.00     0.028 A 
ATOM     18  Cl  UNL     1      -2.441  -3.098   6.020  1.00  0.00    -0.084 Cl
ATOM     19  Cl  UNL     1      -5.759  -3.016   1.959  1.00  0.00    -0.084 Cl
ENDBRANCH   8  12
BRANCH   7  20
ATOM     20  N   UNL     1     -11.222   1.452   9.492  1.00  0.00     0.062 N 
ATOM     21  O   UNL     1     -11.076   2.229  10.362  1.00  0.00    -0.258 OA
ATOM     22  O   UNL     1     -12.181   1.727   8.649  1.00  0.00    -0.258 OA
ENDBRANCH   7  20
TORSDOF 2
ENDMDL
MODEL 9
REMARK VINA RESULT:    -2.766      7.037      9.752
REMARK INTER + INTRA:          -3.393
REMARK INTER:                  -3.085
REMARK INTRA:                  -0.307
REMARK UNBOUND:                -0.303
REMARK SMILES O=[N+]([O-])c1ccc2c(c1)N[C@@H](c1cc(Cl)cc(Cl)c1)N2
REMARK SMILES IDX 7 1 8 2 5 3 6 4 20 5 10 6 4 7 11 8 9 9 12 12 14 13 13 14
REMARK SMILES IDX 16 15 17 16 19 17 15 18 18 19 2 20 3 21 1 22
REMARK H PARENT 20 10 10 11
ROOT
ATOM      1  C   UNL     1      -8.075  -8.110   8.139  1.00  0.00     0.060 A 
ATOM      2  C   UNL     1      -9.322  -7.557   8.303  1.00  0.00     0.066 A 
ATOM      3  C   UNL     1      -8.807 -10.178   8.998  1.00  0.00     0.088 A 
ATOM      4  C   UNL     1      -7.878  -9.406   8.248  1.00  0.00     0.035 A 
ATOM      5  N   UNL     1      -7.182  -7.117   7.575  1.00  0.00    -0.360 N 
ATOM      6  N   UNL     1      -9.207  -6.254   7.810  1.00  0.00    -0.360 N 
ATOM      7  C   UNL     1     -10.037  -9.605   9.312  1.00  0.00     0.271 A 
ATOM      8  C   UNL     1      -8.081  -6.292   6.950  1.00  0.00     0.205 C 
ATOM      9  C   UNL     1     -10.308  -8.255   8.925  1.00  0.00     0.113 A 
ATOM     10  H   UNL     1      -6.156  -7.050   7.628  1.00  0.00     0.163 HD
ATOM     11  H   UNL     1      -9.808  -5.445   8.025  1.00  0.00     0.163 HD
ENDROOT
BRANCH   8  12
ATOM     12  C   UNL     1      -7.602  -4.906   6.436  1.00  0.00    -0.003 A 
ATOM     13  C   UNL     1      -5.900  -3.649   5.149  1.00  0.00     0.042 A 
ATOM     14  C   UNL     1      -6.811  -4.775   5.273  1.00  0.00     0.028 A 
ATOM     15  C   UNL     1      -6.244  -2.429   5.888  1.00  0.00     0.041 A 
ATOM     16  C   UNL     1      -7.345  -2.535   6.840  1.00  0.00     0.042 A 
ATOM     17  C   UNL     1      -7.916  -3.763   7.256  1.00  0.00     0.028 A 
ATOM     18  Cl  UNL     1      -4.765  -3.498   4.091  1.00  0.00    -0.084 Cl
ATOM     19  Cl  UNL     1      -7.881  -1.072   7.544  1.00  0.00    -0.084 Cl
ENDBRANCH   8  12
BRANCH   7  20
ATOM     20  N   UNL     1     -11.077 -10.298   9.898  1.00  0.00     0.062 N 
ATOM     21  O   UNL     1     -11.477  -9.983  10.958  1.00  0.00    -0.258 OA
ATOM     22  O   UNL     1     -11.813 -11.162   9.255  1.00  0.00    -0.258 OA
ENDBRANCH   7  20
TORSDOF 2
ENDMDL
