MODEL 1
REMARK VINA RESULT:    -4.674      0.000      0.000
REMARK INTER + INTRA:          -5.536
REMARK INTER:                  -5.221
REMARK INTRA:                  -0.315
REMARK UNBOUND:                -0.315
REMARK SMILES O=[N+]([O-])c1ccc2c(c1)N[C@@H](c1cc(Cl)cc(Cl)c1)N2
REMARK SMILES IDX 7 1 8 2 5 3 6 4 20 5 10 6 4 7 11 8 9 9 12 12 14 13 13 14
REMARK SMILES IDX 16 15 17 16 19 17 15 18 18 19 2 20 3 21 1 22
REMARK H PARENT 20 10 10 11
ROOT
ATOM      1  C   UNL     1     -10.900   4.105   4.937  1.00  0.00     0.060 A 
ATOM      2  C   UNL     1     -10.576   3.297   6.001  1.00  0.00     0.066 A 
ATOM      3  C   UNL     1     -12.868   4.835   6.006  1.00  0.00     0.088 A 
ATOM      4  C   UNL     1     -11.855   5.005   5.023  1.00  0.00     0.035 A 
ATOM      5  N   UNL     1      -9.876   3.987   3.918  1.00  0.00    -0.360 N 
ATOM      6  N   UNL     1      -9.350   2.721   5.656  1.00  0.00    -0.360 N 
ATOM      7  C   UNL     1     -12.644   3.918   7.031  1.00  0.00     0.271 A 
ATOM      8  C   UNL     1      -8.806   3.590   4.677  1.00  0.00     0.205 C 
ATOM      9  C   UNL     1     -11.441   3.145   7.037  1.00  0.00     0.113 A 
ATOM     10  H   UNL     1      -9.935   4.155   2.904  1.00  0.00     0.163 HD
ATOM     11  H   UNL     1      -8.934   1.857   6.031  1.00  0.00     0.163 HD
ENDROOT
BRANCH   8  12
ATOM     12  C   UNL     1      -7.531   3.057   3.964  1.00  0.00    -0.003 A 
ATOM     13  C   UNL     1      -5.917   3.356   2.111  1.00  0.00     0.042 A 
ATOM     14  C   UNL     1      -6.687   3.906   3.214  1.00  0.00     0.028 A 
ATOM     15  C   UNL     1      -5.573   1.932   2.183  1.00  0.00     0.041 A 
ATOM     16  C   UNL     1      -6.216   1.160   3.241  1.00  0.00     0.042 A 
ATOM     17  C   UNL     1      -7.301   1.635   4.018  1.00  0.00     0.028 A 
ATOM     18  Cl  UNL     1      -5.169   4.175   1.015  1.00  0.00    -0.084 Cl
ATOM     19  Cl  UNL     1      -5.659  -0.441   3.456  1.00  0.00    -0.084 Cl
ENDBRANCH   8  12
BRANCH   7  20
ATOM     20  N   UNL     1     -13.476   3.772   8.122  1.00  0.00     0.062 N 
ATOM     21  O   UNL     1     -13.081   3.262   9.105  1.00  0.00    -0.258 OA
ATOM     22  O   UNL     1     -14.632   4.369   8.225  1.00  0.00    -0.258 OA
ENDBRANCH   7  20
TORSDOF 2
ENDMDL
MODEL 2
REMARK VINA RESULT:    -4.664      0.996      2.658
REMARK INTER + INTRA:          -5.524
REMARK INTER:                  -5.208
REMARK INTRA:                  -0.316
REMARK UNBOUND:                -0.315
REMARK SMILES O=[N+]([O-])c1ccc2c(c1)N[C@@H](c1cc(Cl)cc(Cl)c1)N2
REMARK SMILES IDX 7 1 8 2 5 3 6 4 20 5 10 6 4 7 11 8 9 9 12 12 14 13 13 14
REMARK SMILES IDX 16 15 17 16 19 17 15 18 18 19 2 20 3 21 1 22
REMARK H PARENT 20 10 10 11
ROOT
ATOM      1  C   UNL     1     -10.432   3.078   6.106  1.00  0.00     0.060 A 
ATOM      2  C   UNL     1     -10.869   3.938   5.128  1.00  0.00     0.066 A 
ATOM      3  C   UNL     1     -12.333   3.510   7.428  1.00  0.00     0.088 A 
ATOM      4  C   UNL     1     -11.221   2.694   7.087  1.00  0.00     0.035 A 
ATOM      5  N   UNL     1      -9.165   2.500   5.703  1.00  0.00    -0.360 N 
ATOM      6  N   UNL     1      -9.903   3.861   4.121  1.00  0.00    -0.360 N 
ATOM      7  C   UNL     1     -12.728   4.496   6.527  1.00  0.00     0.271 A 
ATOM      8  C   UNL     1      -9.252   2.621   4.341  1.00  0.00     0.205 C 
ATOM      9  C   UNL     1     -11.981   4.694   5.324  1.00  0.00     0.113 A 
ATOM     10  H   UNL     1      -8.408   2.107   6.281  1.00  0.00     0.163 HD
ATOM     11  H   UNL     1      -9.708   4.552   3.383  1.00  0.00     0.163 HD
ENDROOT
BRANCH   8  12
ATOM     12  C   UNL     1      -7.979   2.389   3.480  1.00  0.00    -0.003 A 
ATOM     13  C   UNL     1      -5.951   1.016   3.110  1.00  0.00     0.042 A 
ATOM     14  C   UNL     1      -7.379   1.114   3.366  1.00  0.00     0.028 A 
ATOM     15  C   UNL     1      -5.321   2.139   2.407  1.00  0.00     0.041 A 
ATOM     16  C   UNL     1      -6.139   3.333   2.225  1.00  0.00     0.042 A 
ATOM     17  C   UNL     1      -7.375   3.552   2.882  1.00  0.00     0.028 A 
ATOM     18  Cl  UNL     1      -5.083  -0.273   3.236  1.00  0.00    -0.084 Cl
ATOM     19  Cl  UNL     1      -5.482   4.556   1.228  1.00  0.00    -0.084 Cl
ENDBRANCH   8  12
BRANCH   7  20
ATOM     20  N   UNL     1     -13.877   5.247   6.669  1.00  0.00     0.062 N 
ATOM     21  O   UNL     1     -14.341   5.803   5.743  1.00  0.00    -0.258 OA
ATOM     22  O   UNL     1     -14.630   5.209   7.735  1.00  0.00    -0.258 OA
ENDBRANCH   7  20
TORSDOF 2
ENDMDL
MODEL 3
REMARK VINA RESULT:    -4.295      0.733      2.142
REMARK INTER + INTRA:          -5.112
REMARK INTER:                  -4.813
REMARK INTRA:                  -0.300
REMARK UNBOUND:                -0.315
REMARK SMILES O=[N+]([O-])c1ccc2c(c1)N[C@@H](c1cc(Cl)cc(Cl)c1)N2
REMARK SMILES IDX 7 1 8 2 5 3 6 4 20 5 10 6 4 7 11 8 9 9 12 12 14 13 13 14
REMARK SMILES IDX 16 15 17 16 19 17 15 18 18 19 2 20 3 21 1 22
REMARK H PARENT 20 10 10 11
ROOT
ATOM      1  C   UNL     1     -11.062   3.666   5.396  1.00  0.00     0.060 A 
ATOM      2  C   UNL     1     -10.482   2.828   6.318  1.00  0.00     0.066 A 
ATOM      3  C   UNL     1     -12.812   4.196   6.881  1.00  0.00     0.088 A 
ATOM      4  C   UNL     1     -12.032   4.490   5.730  1.00  0.00     0.035 A 
ATOM      5  N   UNL     1     -10.260   3.676   4.188  1.00  0.00    -0.360 N 
ATOM      6  N   UNL     1      -9.320   2.360   5.700  1.00  0.00    -0.360 N 
ATOM      7  C   UNL     1     -12.332   3.245   7.778  1.00  0.00     0.271 A 
ATOM      8  C   UNL     1      -9.037   3.316   4.692  1.00  0.00     0.205 C 
ATOM      9  C   UNL     1     -11.109   2.560   7.493  1.00  0.00     0.113 A 
ATOM     10  H   UNL     1     -10.534   3.893   3.220  1.00  0.00     0.163 HD
ATOM     11  H   UNL     1      -8.786   1.508   5.927  1.00  0.00     0.163 HD
ENDROOT
BRANCH   8  12
ATOM     12  C   UNL     1      -7.905   2.914   3.707  1.00  0.00    -0.003 A 
ATOM     13  C   UNL     1      -6.139   1.272   3.141  1.00  0.00     0.042 A 
ATOM     14  C   UNL     1      -7.505   1.568   3.541  1.00  0.00     0.028 A 
ATOM     15  C   UNL     1      -5.433   2.300   2.368  1.00  0.00     0.041 A 
ATOM     16  C   UNL     1      -6.089   3.599   2.263  1.00  0.00     0.042 A 
ATOM     17  C   UNL     1      -7.208   3.985   3.041  1.00  0.00     0.028 A 
ATOM     18  Cl  UNL     1      -5.452  -0.127   3.186  1.00  0.00    -0.084 Cl
ATOM     19  Cl  UNL     1      -5.372   4.725   1.195  1.00  0.00    -0.084 Cl
ENDBRANCH   8  12
BRANCH   7  20
ATOM     20  N   UNL     1     -12.915   2.982   9.000  1.00  0.00     0.062 N 
ATOM     21  O   UNL     1     -12.326   2.382   9.822  1.00  0.00    -0.258 OA
ATOM     22  O   UNL     1     -14.017   3.553   9.405  1.00  0.00    -0.258 OA
ENDBRANCH   7  20
TORSDOF 2
ENDMDL
MODEL 4
REMARK VINA RESULT:    -4.292      1.443      2.104
REMARK INTER + INTRA:          -5.109
REMARK INTER:                  -4.809
REMARK INTRA:                  -0.299
REMARK UNBOUND:                -0.315
REMARK SMILES O=[N+]([O-])c1ccc2c(c1)N[C@@H](c1cc(Cl)cc(Cl)c1)N2
REMARK SMILES IDX 7 1 8 2 5 3 6 4 20 5 10 6 4 7 11 8 9 9 12 12 14 13 13 14
REMARK SMILES IDX 16 15 17 16 19 17 15 18 18 19 2 20 3 21 1 22
REMARK H PARENT 20 10 10 11
ROOT
ATOM      1  C   UNL     1     -10.769   3.734   5.895  1.00  0.00     0.060 A 
ATOM      2  C   UNL     1     -10.994   4.450   4.744  1.00  0.00     0.066 A 
ATOM      3  C   UNL     1     -12.862   4.366   6.774  1.00  0.00     0.088 A 
ATOM      4  C   UNL     1     -11.734   3.501   6.759  1.00  0.00     0.035 A 
ATOM      5  N   UNL     1      -9.471   3.095   5.815  1.00  0.00    -0.360 N 
ATOM      6  N   UNL     1      -9.866   4.223   3.951  1.00  0.00    -0.360 N 
ATOM      7  C   UNL     1     -13.054   5.217   5.688  1.00  0.00     0.271 A 
ATOM      8  C   UNL     1      -9.307   3.021   4.456  1.00  0.00     0.205 C 
ATOM      9  C   UNL     1     -12.097   5.235   4.627  1.00  0.00     0.113 A 
ATOM     10  H   UNL     1      -8.844   2.782   6.570  1.00  0.00     0.163 HD
ATOM     11  H   UNL     1      -9.517   4.800   3.173  1.00  0.00     0.163 HD
ENDROOT
BRANCH   8  12
ATOM     12  C   UNL     1      -7.908   2.659   3.884  1.00  0.00    -0.003 A 
ATOM     13  C   UNL     1      -6.120   3.232   2.269  1.00  0.00     0.042 A 
ATOM     14  C   UNL     1      -7.069   3.632   3.295  1.00  0.00     0.028 A 
ATOM     15  C   UNL     1      -5.644   1.844   2.306  1.00  0.00     0.041 A 
ATOM     16  C   UNL     1      -6.330   0.947   3.230  1.00  0.00     0.042 A 
ATOM     17  C   UNL     1      -7.544   1.265   3.887  1.00  0.00     0.028 A 
ATOM     18  Cl  UNL     1      -5.331   4.188   1.324  1.00  0.00    -0.084 Cl
ATOM     19  Cl  UNL     1      -5.644  -0.607   3.425  1.00  0.00    -0.084 Cl
ENDBRANCH   8  12
BRANCH   7  20
ATOM     20  N   UNL     1     -14.184   5.990   5.513  1.00  0.00     0.062 N 
ATOM     21  O   UNL     1     -14.419   6.467   4.464  1.00  0.00    -0.258 OA
ATOM     22  O   UNL     1     -15.150   6.053   6.388  1.00  0.00    -0.258 OA
ENDBRANCH   7  20
TORSDOF 2
ENDMDL
MODEL 5
REMARK VINA RESULT:    -4.237      5.111      7.580
REMARK INTER + INTRA:          -5.048
REMARK INTER:                  -4.748
REMARK INTRA:                  -0.299
REMARK UNBOUND:                -0.315
REMARK SMILES O=[N+]([O-])c1ccc2c(c1)N[C@@H](c1cc(Cl)cc(Cl)c1)N2
REMARK SMILES IDX 7 1 8 2 5 3 6 4 20 5 10 6 4 7 11 8 9 9 12 12 14 13 13 14
REMARK SMILES IDX 16 15 17 16 19 17 15 18 18 19 2 20 3 21 1 22
REMARK H PARENT 20 10 10 11
ROOT
ATOM      1  C   UNL     1      -7.671   1.886   4.054  1.00  0.00     0.060 A 
ATOM      2  C   UNL     1      -7.820   2.945   3.190  1.00  0.00     0.066 A 
ATOM      3  C   UNL     1      -5.576   1.339   3.127  1.00  0.00     0.088 A 
ATOM      4  C   UNL     1      -6.520   1.264   4.188  1.00  0.00     0.035 A 
ATOM      5  N   UNL     1      -8.831   1.810   4.920  1.00  0.00    -0.360 N 
ATOM      6  N   UNL     1      -9.036   3.533   3.546  1.00  0.00    -0.360 N 
ATOM      7  C   UNL     1      -5.764   2.308   2.145  1.00  0.00     0.271 A 
ATOM      8  C   UNL     1      -9.266   3.109   4.879  1.00  0.00     0.205 C 
ATOM      9  C   UNL     1      -6.915   3.155   2.199  1.00  0.00     0.113 A 
ATOM     10  H   UNL     1      -9.222   1.002   5.427  1.00  0.00     0.163 HD
ATOM     11  H   UNL     1      -9.634   4.141   2.968  1.00  0.00     0.163 HD
ENDROOT
BRANCH   8  12
ATOM     12  C   UNL     1     -10.673   3.452   5.443  1.00  0.00    -0.003 A 
ATOM     13  C   UNL     1     -12.592   5.018   5.408  1.00  0.00     0.042 A 
ATOM     14  C   UNL     1     -11.605   4.216   4.704  1.00  0.00     0.028 A 
ATOM     15  C   UNL     1     -12.979   4.570   6.751  1.00  0.00     0.041 A 
ATOM     16  C   UNL     1     -12.183   3.493   7.332  1.00  0.00     0.042 A 
ATOM     17  C   UNL     1     -10.952   3.043   6.796  1.00  0.00     0.028 A 
ATOM     18  Cl  UNL     1     -13.495   6.123   4.781  1.00  0.00    -0.084 Cl
ATOM     19  Cl  UNL     1     -12.760   2.832   8.799  1.00  0.00    -0.084 Cl
ENDBRANCH   8  12
BRANCH   7  20
ATOM     20  N   UNL     1      -4.844   2.582   1.154  1.00  0.00     0.062 N 
ATOM     21  O   UNL     1      -4.039   1.779   0.854  1.00  0.00    -0.258 OA
ATOM     22  O   UNL     1      -4.938   3.608   0.353  1.00  0.00    -0.258 OA
ENDBRANCH   7  20
TORSDOF 2
ENDMDL
MODEL 6
REMARK VINA RESULT:    -4.180      4.989      7.646
REMARK INTER + INTRA:          -4.983
REMARK INTER:                  -4.684
REMARK INTRA:                  -0.299
REMARK UNBOUND:                -0.315
REMARK SMILES O=[N+]([O-])c1ccc2c(c1)N[C@@H](c1cc(Cl)cc(Cl)c1)N2
REMARK SMILES IDX 7 1 8 2 5 3 6 4 20 5 10 6 4 7 11 8 9 9 12 12 14 13 13 14
REMARK SMILES IDX 16 15 17 16 19 17 15 18 18 19 2 20 3 21 1 22
REMARK H PARENT 20 10 10 11
ROOT
ATOM      1  C   UNL     1      -7.494   3.716   3.408  1.00  0.00     0.060 A 
ATOM      2  C   UNL     1      -7.402   2.504   4.049  1.00  0.00     0.066 A 
ATOM      3  C   UNL     1      -5.702   3.170   1.980  1.00  0.00     0.088 A 
ATOM      4  C   UNL     1      -6.851   3.950   2.284  1.00  0.00     0.035 A 
ATOM      5  N   UNL     1      -8.573   4.486   3.995  1.00  0.00    -0.360 N 
ATOM      6  N   UNL     1      -8.435   2.514   4.991  1.00  0.00    -0.360 N 
ATOM      7  C   UNL     1      -5.489   2.000   2.704  1.00  0.00     0.271 A 
ATOM      8  C   UNL     1      -9.352   3.483   4.510  1.00  0.00     0.205 C 
ATOM      9  C   UNL     1      -6.389   1.647   3.757  1.00  0.00     0.113 A 
ATOM     10  H   UNL     1      -8.716   5.506   4.018  1.00  0.00     0.163 HD
ATOM     11  H   UNL     1      -8.512   1.944   5.845  1.00  0.00     0.163 HD
ENDROOT
BRANCH   8  12
ATOM     12  C   UNL     1     -10.497   3.847   5.496  1.00  0.00    -0.003 A 
ATOM     13  C   UNL     1     -11.801   3.178   7.492  1.00  0.00     0.042 A 
ATOM     14  C   UNL     1     -10.524   3.354   6.820  1.00  0.00     0.028 A 
ATOM     15  C   UNL     1     -12.908   4.034   7.053  1.00  0.00     0.041 A 
ATOM     16  C   UNL     1     -12.682   4.823   5.847  1.00  0.00     0.042 A 
ATOM     17  C   UNL     1     -11.586   4.629   4.970  1.00  0.00     0.028 A 
ATOM     18  Cl  UNL     1     -12.040   2.394   8.818  1.00  0.00    -0.084 Cl
ATOM     19  Cl  UNL     1     -13.885   5.971   5.455  1.00  0.00    -0.084 Cl
ENDBRANCH   8  12
BRANCH   7  20
ATOM     20  N   UNL     1      -4.502   1.084   2.404  1.00  0.00     0.062 N 
ATOM     21  O   UNL     1      -3.695   1.328   1.584  1.00  0.00    -0.258 OA
ATOM     22  O   UNL     1      -4.258   0.029   3.134  1.00  0.00    -0.258 OA
ENDBRANCH   7  20
TORSDOF 2
ENDMDL
MODEL 7
REMARK VINA RESULT:    -4.030      3.196      4.588
REMARK INTER + INTRA:          -4.816
REMARK INTER:                  -4.511
REMARK INTRA:                  -0.305
REMARK UNBOUND:                -0.315
REMARK SMILES O=[N+]([O-])c1ccc2c(c1)N[C@@H](c1cc(Cl)cc(Cl)c1)N2
REMARK SMILES IDX 7 1 8 2 5 3 6 4 20 5 10 6 4 7 11 8 9 9 12 12 14 13 13 14
REMARK SMILES IDX 16 15 17 16 19 17 15 18 18 19 2 20 3 21 1 22
REMARK H PARENT 20 10 10 11
ROOT
ATOM      1  C   UNL     1     -12.376   2.583   8.909  1.00  0.00     0.060 A 
ATOM      2  C   UNL     1     -11.145   2.745   9.499  1.00  0.00     0.066 A 
ATOM      3  C   UNL     1     -13.457   2.621  11.002  1.00  0.00     0.088 A 
ATOM      4  C   UNL     1     -13.491   2.753   9.587  1.00  0.00     0.035 A 
ATOM      5  N   UNL     1     -12.211   2.504   7.472  1.00  0.00    -0.360 N 
ATOM      6  N   UNL     1     -10.240   2.803   8.436  1.00  0.00    -0.360 N 
ATOM      7  C   UNL     1     -12.216   2.637  11.636  1.00  0.00     0.271 A 
ATOM      8  C   UNL     1     -11.025   3.173   7.314  1.00  0.00     0.205 C 
ATOM      9  C   UNL     1     -11.024   2.729  10.852  1.00  0.00     0.113 A 
ATOM     10  H   UNL     1     -12.816   2.066   6.763  1.00  0.00     0.163 HD
ATOM     11  H   UNL     1      -9.228   2.617   8.461  1.00  0.00     0.163 HD
ENDROOT
BRANCH   8  12
ATOM     12  C   UNL     1     -10.291   3.096   5.947  1.00  0.00    -0.003 A 
ATOM     13  C   UNL     1      -9.684   1.694   3.998  1.00  0.00     0.042 A 
ATOM     14  C   UNL     1     -10.675   2.177   4.945  1.00  0.00     0.028 A 
ATOM     15  C   UNL     1      -8.541   2.572   3.724  1.00  0.00     0.041 A 
ATOM     16  C   UNL     1      -8.399   3.741   4.585  1.00  0.00     0.042 A 
ATOM     17  C   UNL     1      -9.132   3.936   5.781  1.00  0.00     0.028 A 
ATOM     18  Cl  UNL     1      -9.854   0.487   3.026  1.00  0.00    -0.084 Cl
ATOM     19  Cl  UNL     1      -7.196   4.870   4.136  1.00  0.00    -0.084 Cl
ENDBRANCH   8  12
BRANCH   7  20
ATOM     20  N   UNL     1     -12.057   2.671  13.006  1.00  0.00     0.062 N 
ATOM     21  O   UNL     1     -11.914   1.674  13.612  1.00  0.00    -0.258 OA
ATOM     22  O   UNL     1     -11.830   3.770  13.673  1.00  0.00    -0.258 OA
ENDBRANCH   7  20
TORSDOF 2
ENDMDL
MODEL 8
REMARK VINA RESULT:    -3.944      3.952      5.708
REMARK INTER + INTRA:          -4.720
REMARK INTER:                  -4.417
REMARK INTRA:                  -0.304
REMARK UNBOUND:                -0.315
REMARK SMILES O=[N+]([O-])c1ccc2c(c1)N[C@@H](c1cc(Cl)cc(Cl)c1)N2
REMARK SMILES IDX 7 1 8 2 5 3 6 4 20 5 10 6 4 7 11 8 9 9 12 12 14 13 13 14
REMARK SMILES IDX 16 15 17 16 19 17 15 18 18 19 2 20 3 21 1 22
REMARK H PARENT 20 10 10 11
ROOT
ATOM      1  C   UNL     1     -11.573   2.920  10.458  1.00  0.00     0.060 A 
ATOM      2  C   UNL     1     -12.873   2.710  10.064  1.00  0.00     0.066 A 
ATOM      3  C   UNL     1     -12.111   2.456  12.704  1.00  0.00     0.088 A 
ATOM      4  C   UNL     1     -11.156   2.580  11.659  1.00  0.00     0.035 A 
ATOM      5  N   UNL     1     -10.772   3.264   9.301  1.00  0.00    -0.360 N 
ATOM      6  N   UNL     1     -12.862   2.885   8.677  1.00  0.00    -0.360 N 
ATOM      7  C   UNL     1     -13.459   2.382  12.360  1.00  0.00     0.271 A 
ATOM      8  C   UNL     1     -11.509   2.688   8.300  1.00  0.00     0.205 C 
ATOM      9  C   UNL     1     -13.844   2.487  10.987  1.00  0.00     0.113 A 
ATOM     10  H   UNL     1      -9.891   3.795   9.245  1.00  0.00     0.163 HD
ATOM     11  H   UNL     1     -13.660   3.108   8.066  1.00  0.00     0.163 HD
ENDROOT
BRANCH   8  12
ATOM     12  C   UNL     1     -11.184   3.043   6.822  1.00  0.00    -0.003 A 
ATOM     13  C   UNL     1      -9.453   3.167   5.055  1.00  0.00     0.042 A 
ATOM     14  C   UNL     1     -10.108   2.441   6.131  1.00  0.00     0.028 A 
ATOM     15  C   UNL     1     -10.254   4.170   4.343  1.00  0.00     0.041 A 
ATOM     16  C   UNL     1     -11.554   4.493   4.921  1.00  0.00     0.042 A 
ATOM     17  C   UNL     1     -11.966   4.091   6.216  1.00  0.00     0.028 A 
ATOM     18  Cl  UNL     1      -8.097   2.789   4.385  1.00  0.00    -0.084 Cl
ATOM     19  Cl  UNL     1     -12.570   5.499   3.985  1.00  0.00    -0.084 Cl
ENDBRANCH   8  12
BRANCH   7  20
ATOM     20  N   UNL     1     -14.465   2.108  13.263  1.00  0.00     0.062 N 
ATOM     21  O   UNL     1     -14.613   1.017  13.673  1.00  0.00    -0.258 OA
ATOM     22  O   UNL     1     -15.145   3.036  13.880  1.00  0.00    -0.258 OA
ENDBRANCH   7  20
TORSDOF 2
ENDMDL
MODEL 9
REMARK VINA RESULT:    -3.500      5.195      7.690
REMARK INTER + INTRA:          -4.224
REMARK INTER:                  -3.927
REMARK INTRA:                  -0.296
REMARK UNBOUND:                -0.315
REMARK SMILES O=[N+]([O-])c1ccc2c(c1)N[C@@H](c1cc(Cl)cc(Cl)c1)N2
REMARK SMILES IDX 7 1 8 2 5 3 6 4 20 5 10 6 4 7 11 8 9 9 12 12 14 13 13 14
REMARK SMILES IDX 16 15 17 16 19 17 15 18 18 19 2 20 3 21 1 22
REMARK H PARENT 20 10 10 11
ROOT
ATOM      1  C   UNL     1     -10.193   2.373   5.074  1.00  0.00     0.060 A 
ATOM      2  C   UNL     1      -9.553   3.541   5.416  1.00  0.00     0.066 A 
ATOM      3  C   UNL     1      -8.881   2.148   3.130  1.00  0.00     0.088 A 
ATOM      4  C   UNL     1      -9.731   1.590   4.123  1.00  0.00     0.035 A 
ATOM      5  N   UNL     1     -11.193   2.064   6.076  1.00  0.00    -0.360 N 
ATOM      6  N   UNL     1     -10.126   3.922   6.633  1.00  0.00    -0.360 N 
ATOM      7  C   UNL     1      -8.319   3.400   3.371  1.00  0.00     0.271 A 
ATOM      8  C   UNL     1     -10.681   2.729   7.160  1.00  0.00     0.205 C 
ATOM      9  C   UNL     1      -8.651   4.103   4.571  1.00  0.00     0.113 A 
ATOM     10  H   UNL     1     -12.051   1.500   5.997  1.00  0.00     0.163 HD
ATOM     11  H   UNL     1     -10.141   4.862   7.053  1.00  0.00     0.163 HD
ENDROOT
BRANCH   8  12
ATOM     12  C   UNL     1     -11.573   2.922   8.418  1.00  0.00    -0.003 A 
ATOM     13  C   UNL     1     -11.813   2.578  10.858  1.00  0.00     0.042 A 
ATOM     14  C   UNL     1     -11.022   3.005   9.716  1.00  0.00     0.028 A 
ATOM     15  C   UNL     1     -13.273   2.654  10.724  1.00  0.00     0.041 A 
ATOM     16  C   UNL     1     -13.788   2.944   9.390  1.00  0.00     0.042 A 
ATOM     17  C   UNL     1     -12.999   2.911   8.213  1.00  0.00     0.028 A 
ATOM     18  Cl  UNL     1     -11.283   2.333  12.303  1.00  0.00    -0.084 Cl
ATOM     19  Cl  UNL     1     -15.468   3.238   9.274  1.00  0.00    -0.084 Cl
ENDBRANCH   8  12
BRANCH   7  20
ATOM     20  N   UNL     1      -7.364   3.979   2.561  1.00  0.00     0.062 N 
ATOM     21  O   UNL     1      -6.591   4.743   3.009  1.00  0.00    -0.258 OA
ATOM     22  O   UNL     1      -7.108   3.567   1.349  1.00  0.00    -0.258 OA
ENDBRANCH   7  20
TORSDOF 2
ENDMDL
