MODEL 1
REMARK VINA RESULT:    -5.129      0.000      0.000
REMARK INTER + INTRA:          -6.041
REMARK INTER:                  -5.729
REMARK INTRA:                  -0.312
REMARK UNBOUND:                -0.312
REMARK SMILES O=[N+]([O-])c1ccc2c(c1)N[C@@H](c1cc(Cl)cc(Cl)c1)N2
REMARK SMILES IDX 7 1 8 2 5 3 6 4 20 5 10 6 4 7 11 8 9 9 12 12 14 13 13 14
REMARK SMILES IDX 16 15 17 16 19 17 15 18 18 19 2 20 3 21 1 22
REMARK H PARENT 20 10 10 11
ROOT
ATOM      1  C   UNL     1       6.223  -0.757 -10.726  1.00  0.00     0.060 A 
ATOM      2  C   UNL     1       5.023  -0.642 -11.385  1.00  0.00     0.066 A 
ATOM      3  C   UNL     1       7.391  -0.987 -12.759  1.00  0.00     0.088 A 
ATOM      4  C   UNL     1       7.369  -0.691 -11.369  1.00  0.00     0.035 A 
ATOM      5  N   UNL     1       5.996  -0.663  -9.298  1.00  0.00    -0.360 N 
ATOM      6  N   UNL     1       4.076  -0.441 -10.377  1.00  0.00    -0.360 N 
ATOM      7  C   UNL     1       6.179  -1.023 -13.444  1.00  0.00     0.271 A 
ATOM      8  C   UNL     1       4.822   0.044  -9.273  1.00  0.00     0.205 C 
ATOM      9  C   UNL     1       4.958  -0.815 -12.731  1.00  0.00     0.113 A 
ATOM     10  H   UNL     1       6.560  -1.026  -8.516  1.00  0.00     0.163 HD
ATOM     11  H   UNL     1       3.061  -0.608 -10.426  1.00  0.00     0.163 HD
ENDROOT
BRANCH   8  12
ATOM     12  C   UNL     1       4.029   0.143  -7.940  1.00  0.00    -0.003 A 
ATOM     13  C   UNL     1       4.106   0.653  -5.518  1.00  0.00     0.042 A 
ATOM     14  C   UNL     1       4.440   0.995  -6.890  1.00  0.00     0.028 A 
ATOM     15  C   UNL     1       2.907  -0.168  -5.309  1.00  0.00     0.041 A 
ATOM     16  C   UNL     1       2.294  -0.738  -6.503  1.00  0.00     0.042 A 
ATOM     17  C   UNL     1       2.908  -0.748  -7.780  1.00  0.00     0.028 A 
ATOM     18  Cl  UNL     1       4.707   1.305  -4.236  1.00  0.00    -0.084 Cl
ATOM     19  Cl  UNL     1       0.787  -1.515  -6.283  1.00  0.00    -0.084 Cl
ENDBRANCH   8  12
BRANCH   7  20
ATOM     20  N   UNL     1       6.079  -1.147 -14.815  1.00  0.00     0.062 N 
ATOM     21  O   UNL     1       5.218  -0.599 -15.399  1.00  0.00    -0.258 OA
ATOM     22  O   UNL     1       7.020  -1.664 -15.557  1.00  0.00    -0.258 OA
ENDBRANCH   7  20
TORSDOF 2
ENDMDL
MODEL 2
REMARK VINA RESULT:    -5.114      1.168      2.750
REMARK INTER + INTRA:          -6.024
REMARK INTER:                  -5.713
REMARK INTRA:                  -0.312
REMARK UNBOUND:                -0.312
REMARK SMILES O=[N+]([O-])c1ccc2c(c1)N[C@@H](c1cc(Cl)cc(Cl)c1)N2
REMARK SMILES IDX 7 1 8 2 5 3 6 4 20 5 10 6 4 7 11 8 9 9 12 12 14 13 13 14
REMARK SMILES IDX 16 15 17 16 19 17 15 18 18 19 2 20 3 21 1 22
REMARK H PARENT 20 10 10 11
ROOT
ATOM      1  C   UNL     1       4.771  -0.797 -11.440  1.00  0.00     0.060 A 
ATOM      2  C   UNL     1       6.002  -0.925 -10.843  1.00  0.00     0.066 A 
ATOM      3  C   UNL     1       5.727  -0.912 -13.590  1.00  0.00     0.088 A 
ATOM      4  C   UNL     1       4.604  -1.019 -12.726  1.00  0.00     0.035 A 
ATOM      5  N   UNL     1       3.752  -0.685 -10.415  1.00  0.00    -0.360 N 
ATOM      6  N   UNL     1       5.739  -0.932  -9.471  1.00  0.00    -0.360 N 
ATOM      7  C   UNL     1       6.998  -0.896 -13.018  1.00  0.00     0.271 A 
ATOM      8  C   UNL     1       4.376  -1.309  -9.367  1.00  0.00     0.205 C 
ATOM      9  C   UNL     1       7.133  -0.930 -11.596  1.00  0.00     0.113 A 
ATOM     10  H   UNL     1       2.817  -0.256 -10.461  1.00  0.00     0.163 HD
ATOM     11  H   UNL     1       6.391  -0.711  -8.705  1.00  0.00     0.163 HD
ENDROOT
BRANCH   8  12
ATOM     12  C   UNL     1       3.768  -1.180  -7.942  1.00  0.00    -0.003 A 
ATOM     13  C   UNL     1       1.738  -1.351  -6.534  1.00  0.00     0.042 A 
ATOM     14  C   UNL     1       2.613  -1.898  -7.557  1.00  0.00     0.028 A 
ATOM     15  C   UNL     1       2.347  -0.448  -5.550  1.00  0.00     0.041 A 
ATOM     16  C   UNL     1       3.715  -0.019  -5.821  1.00  0.00     0.042 A 
ATOM     17  C   UNL     1       4.376  -0.218  -7.058  1.00  0.00     0.028 A 
ATOM     18  Cl  UNL     1       0.301  -1.848  -6.191  1.00  0.00    -0.084 Cl
ATOM     19  Cl  UNL     1       4.494   0.859  -4.578  1.00  0.00    -0.084 Cl
ENDBRANCH   8  12
BRANCH   7  20
ATOM     20  N   UNL     1       8.167  -0.950 -13.750  1.00  0.00     0.062 N 
ATOM     21  O   UNL     1       9.097  -1.539 -13.339  1.00  0.00    -0.258 OA
ATOM     22  O   UNL     1       8.249  -0.570 -14.996  1.00  0.00    -0.258 OA
ENDBRANCH   7  20
TORSDOF 2
ENDMDL
MODEL 3
REMARK VINA RESULT:    -4.947      5.117      7.625
REMARK INTER + INTRA:          -5.838
REMARK INTER:                  -5.539
REMARK INTRA:                  -0.299
REMARK UNBOUND:                -0.312
REMARK SMILES O=[N+]([O-])c1ccc2c(c1)N[C@@H](c1cc(Cl)cc(Cl)c1)N2
REMARK SMILES IDX 7 1 8 2 5 3 6 4 20 5 10 6 4 7 11 8 9 9 12 12 14 13 13 14
REMARK SMILES IDX 16 15 17 16 19 17 15 18 18 19 2 20 3 21 1 22
REMARK H PARENT 20 10 10 11
ROOT
ATOM      1  C   UNL     1       3.137  -0.589  -8.132  1.00  0.00     0.060 A 
ATOM      2  C   UNL     1       4.322  -0.578  -7.436  1.00  0.00     0.066 A 
ATOM      3  C   UNL     1       1.911  -0.099  -6.181  1.00  0.00     0.088 A 
ATOM      4  C   UNL     1       2.021  -0.140  -7.597  1.00  0.00     0.035 A 
ATOM      5  N   UNL     1       3.404  -0.874  -9.528  1.00  0.00    -0.360 N 
ATOM      6  N   UNL     1       5.307  -0.814  -8.398  1.00  0.00    -0.360 N 
ATOM      7  C   UNL     1       3.074  -0.227  -5.425  1.00  0.00     0.271 A 
ATOM      8  C   UNL     1       4.704  -0.451  -9.629  1.00  0.00     0.205 C 
ATOM      9  C   UNL     1       4.324  -0.448  -6.084  1.00  0.00     0.113 A 
ATOM     10  H   UNL     1       2.788  -1.281 -10.246  1.00  0.00     0.163 HD
ATOM     11  H   UNL     1       6.261  -1.173  -8.247  1.00  0.00     0.163 HD
ENDROOT
BRANCH   8  12
ATOM     12  C   UNL     1       5.523  -0.827 -10.896  1.00  0.00    -0.003 A 
ATOM     13  C   UNL     1       7.761  -0.967 -11.948  1.00  0.00     0.042 A 
ATOM     14  C   UNL     1       6.881  -1.212 -10.817  1.00  0.00     0.028 A 
ATOM     15  C   UNL     1       7.138  -0.904 -13.275  1.00  0.00     0.041 A 
ATOM     16  C   UNL     1       5.680  -0.878 -13.309  1.00  0.00     0.042 A 
ATOM     17  C   UNL     1       4.866  -0.668 -12.168  1.00  0.00     0.028 A 
ATOM     18  Cl  UNL     1       9.317  -1.059 -11.938  1.00  0.00    -0.084 Cl
ATOM     19  Cl  UNL     1       4.955  -1.016 -14.850  1.00  0.00    -0.084 Cl
ENDBRANCH   8  12
BRANCH   7  20
ATOM     20  N   UNL     1       3.121  -0.052  -4.057  1.00  0.00     0.062 N 
ATOM     21  O   UNL     1       4.090   0.375  -3.547  1.00  0.00    -0.258 OA
ATOM     22  O   UNL     1       2.067  -0.122  -3.290  1.00  0.00    -0.258 OA
ENDBRANCH   7  20
TORSDOF 2
ENDMDL
MODEL 4
REMARK VINA RESULT:    -4.896      5.005      7.631
REMARK INTER + INTRA:          -5.781
REMARK INTER:                  -5.482
REMARK INTRA:                  -0.299
REMARK UNBOUND:                -0.312
REMARK SMILES O=[N+]([O-])c1ccc2c(c1)N[C@@H](c1cc(Cl)cc(Cl)c1)N2
REMARK SMILES IDX 7 1 8 2 5 3 6 4 20 5 10 6 4 7 11 8 9 9 12 12 14 13 13 14
REMARK SMILES IDX 16 15 17 16 19 17 15 18 18 19 2 20 3 21 1 22
REMARK H PARENT 20 10 10 11
ROOT
ATOM      1  C   UNL     1       4.496  -0.348  -7.545  1.00  0.00     0.060 A 
ATOM      2  C   UNL     1       3.242  -0.482  -8.091  1.00  0.00     0.066 A 
ATOM      3  C   UNL     1       3.630  -0.492  -5.359  1.00  0.00     0.088 A 
ATOM      4  C   UNL     1       4.718  -0.580  -6.269  1.00  0.00     0.035 A 
ATOM      5  N   UNL     1       5.470  -0.218  -8.610  1.00  0.00    -0.360 N 
ATOM      6  N   UNL     1       3.447  -0.474  -9.473  1.00  0.00    -0.360 N 
ATOM      7  C   UNL     1       2.337  -0.481  -5.877  1.00  0.00     0.271 A 
ATOM      8  C   UNL     1       4.808  -0.838  -9.638  1.00  0.00     0.205 C 
ATOM      9  C   UNL     1       2.143  -0.504  -7.293  1.00  0.00     0.113 A 
ATOM     10  H   UNL     1       6.403   0.218  -8.598  1.00  0.00     0.163 HD
ATOM     11  H   UNL     1       2.762  -0.252 -10.210  1.00  0.00     0.163 HD
ENDROOT
BRANCH   8  12
ATOM     12  C   UNL     1       5.355  -0.692 -11.085  1.00  0.00    -0.003 A 
ATOM     13  C   UNL     1       4.865  -0.839 -13.508  1.00  0.00     0.042 A 
ATOM     14  C   UNL     1       4.507  -0.387 -12.174  1.00  0.00     0.028 A 
ATOM     15  C   UNL     1       6.293  -1.043 -13.782  1.00  0.00     0.041 A 
ATOM     16  C   UNL     1       7.190  -0.980 -12.634  1.00  0.00     0.042 A 
ATOM     17  C   UNL     1       6.752  -0.980 -11.286  1.00  0.00     0.028 A 
ATOM     18  Cl  UNL     1       3.933  -0.846 -14.757  1.00  0.00    -0.084 Cl
ATOM     19  Cl  UNL     1       8.864  -1.008 -12.978  1.00  0.00    -0.084 Cl
ENDBRANCH   8  12
BRANCH   7  20
ATOM     20  N   UNL     1       1.200  -0.552  -5.098  1.00  0.00     0.062 N 
ATOM     21  O   UNL     1       1.208  -0.138  -3.997  1.00  0.00    -0.258 OA
ATOM     22  O   UNL     1       0.023  -0.853  -5.575  1.00  0.00    -0.258 OA
ENDBRANCH   7  20
TORSDOF 2
ENDMDL
MODEL 5
REMARK VINA RESULT:    -4.877      5.054      7.472
REMARK INTER + INTRA:          -5.759
REMARK INTER:                  -5.443
REMARK INTRA:                  -0.317
REMARK UNBOUND:                -0.312
REMARK SMILES O=[N+]([O-])c1ccc2c(c1)N[C@@H](c1cc(Cl)cc(Cl)c1)N2
REMARK SMILES IDX 7 1 8 2 5 3 6 4 20 5 10 6 4 7 11 8 9 9 12 12 14 13 13 14
REMARK SMILES IDX 16 15 17 16 19 17 15 18 18 19 2 20 3 21 1 22
REMARK H PARENT 20 10 10 11
ROOT
ATOM      1  C   UNL     1       4.401  -0.168  -7.297  1.00  0.00     0.060 A 
ATOM      2  C   UNL     1       3.177  -0.621  -7.726  1.00  0.00     0.066 A 
ATOM      3  C   UNL     1       3.610   0.077  -5.091  1.00  0.00     0.088 A 
ATOM      4  C   UNL     1       4.681  -0.054  -6.016  1.00  0.00     0.035 A 
ATOM      5  N   UNL     1       5.322  -0.143  -8.416  1.00  0.00    -0.360 N 
ATOM      6  N   UNL     1       3.354  -0.908  -9.083  1.00  0.00    -0.360 N 
ATOM      7  C   UNL     1       2.324  -0.236  -5.525  1.00  0.00     0.271 A 
ATOM      8  C   UNL     1       4.753  -1.084  -9.234  1.00  0.00     0.205 C 
ATOM      9  C   UNL     1       2.111  -0.624  -6.884  1.00  0.00     0.113 A 
ATOM     10  H   UNL     1       6.170   0.423  -8.558  1.00  0.00     0.163 HD
ATOM     11  H   UNL     1       2.629  -0.976  -9.811  1.00  0.00     0.163 HD
ENDROOT
BRANCH   8  12
ATOM     12  C   UNL     1       5.242  -1.201 -10.705  1.00  0.00    -0.003 A 
ATOM     13  C   UNL     1       7.150  -1.018 -12.273  1.00  0.00     0.042 A 
ATOM     14  C   UNL     1       6.588  -1.496 -11.021  1.00  0.00     0.028 A 
ATOM     15  C   UNL     1       6.215  -0.796 -13.382  1.00  0.00     0.041 A 
ATOM     16  C   UNL     1       4.794  -0.869 -13.059  1.00  0.00     0.042 A 
ATOM     17  C   UNL     1       4.285  -0.895 -11.737  1.00  0.00     0.028 A 
ATOM     18  Cl  UNL     1       8.662  -1.000 -12.653  1.00  0.00    -0.084 Cl
ATOM     19  Cl  UNL     1       3.713  -0.819 -14.381  1.00  0.00    -0.084 Cl
ENDBRANCH   8  12
BRANCH   7  20
ATOM     20  N   UNL     1       1.228  -0.297  -4.688  1.00  0.00     0.062 N 
ATOM     21  O   UNL     1       1.315   0.059  -3.571  1.00  0.00    -0.258 OA
ATOM     22  O   UNL     1       0.015  -0.522  -5.113  1.00  0.00    -0.258 OA
ENDBRANCH   7  20
TORSDOF 2
ENDMDL
MODEL 6
REMARK VINA RESULT:    -4.790      1.432      2.085
REMARK INTER + INTRA:          -5.663
REMARK INTER:                  -5.363
REMARK INTRA:                  -0.300
REMARK UNBOUND:                -0.312
REMARK SMILES O=[N+]([O-])c1ccc2c(c1)N[C@@H](c1cc(Cl)cc(Cl)c1)N2
REMARK SMILES IDX 7 1 8 2 5 3 6 4 20 5 10 6 4 7 11 8 9 9 12 12 14 13 13 14
REMARK SMILES IDX 16 15 17 16 19 17 15 18 18 19 2 20 3 21 1 22
REMARK H PARENT 20 10 10 11
ROOT
ATOM      1  C   UNL     1       5.374  -0.532 -11.306  1.00  0.00     0.060 A 
ATOM      2  C   UNL     1       6.493  -0.681 -10.523  1.00  0.00     0.066 A 
ATOM      3  C   UNL     1       6.613  -0.945 -13.267  1.00  0.00     0.088 A 
ATOM      4  C   UNL     1       5.373  -0.879 -12.576  1.00  0.00     0.035 A 
ATOM      5  N   UNL     1       4.234  -0.240 -10.461  1.00  0.00    -0.360 N 
ATOM      6  N   UNL     1       6.039  -0.521  -9.211  1.00  0.00    -0.360 N 
ATOM      7  C   UNL     1       7.786  -0.954 -12.517  1.00  0.00     0.271 A 
ATOM      8  C   UNL     1       4.648  -0.789  -9.276  1.00  0.00     0.205 C 
ATOM      9  C   UNL     1       7.715  -0.845 -11.093  1.00  0.00     0.113 A 
ATOM     10  H   UNL     1       3.354   0.246 -10.688  1.00  0.00     0.163 HD
ATOM     11  H   UNL     1       6.592  -0.264  -8.381  1.00  0.00     0.163 HD
ENDROOT
BRANCH   8  12
ATOM     12  C   UNL     1       3.858  -0.466  -7.977  1.00  0.00    -0.003 A 
ATOM     13  C   UNL     1       3.959   0.348  -5.640  1.00  0.00     0.042 A 
ATOM     14  C   UNL     1       4.320   0.487  -7.041  1.00  0.00     0.028 A 
ATOM     15  C   UNL     1       2.709  -0.360  -5.342  1.00  0.00     0.041 A 
ATOM     16  C   UNL     1       2.063  -1.039  -6.460  1.00  0.00     0.042 A 
ATOM     17  C   UNL     1       2.681  -1.255  -7.717  1.00  0.00     0.028 A 
ATOM     18  Cl  UNL     1       4.596   1.121  -4.446  1.00  0.00    -0.084 Cl
ATOM     19  Cl  UNL     1       0.509  -1.683  -6.160  1.00  0.00    -0.084 Cl
ENDBRANCH   8  12
BRANCH   7  20
ATOM     20  N   UNL     1       9.038  -1.168 -13.057  1.00  0.00     0.062 N 
ATOM     21  O   UNL     1       9.980  -1.246 -12.358  1.00  0.00    -0.258 OA
ATOM     22  O   UNL     1       9.231  -1.517 -14.300  1.00  0.00    -0.258 OA
ENDBRANCH   7  20
TORSDOF 2
ENDMDL
MODEL 7
REMARK VINA RESULT:    -4.775      0.695      2.133
REMARK INTER + INTRA:          -5.645
REMARK INTER:                  -5.346
REMARK INTRA:                  -0.300
REMARK UNBOUND:                -0.312
REMARK SMILES O=[N+]([O-])c1ccc2c(c1)N[C@@H](c1cc(Cl)cc(Cl)c1)N2
REMARK SMILES IDX 7 1 8 2 5 3 6 4 20 5 10 6 4 7 11 8 9 9 12 12 14 13 13 14
REMARK SMILES IDX 16 15 17 16 19 17 15 18 18 19 2 20 3 21 1 22
REMARK H PARENT 20 10 10 11
ROOT
ATOM      1  C   UNL     1       5.759  -0.984 -11.043  1.00  0.00     0.060 A 
ATOM      2  C   UNL     1       4.466  -0.843 -11.490  1.00  0.00     0.066 A 
ATOM      3  C   UNL     1       6.592  -0.958 -13.247  1.00  0.00     0.088 A 
ATOM      4  C   UNL     1       6.786  -0.810 -11.847  1.00  0.00     0.035 A 
ATOM      5  N   UNL     1       5.760  -1.049  -9.595  1.00  0.00    -0.360 N 
ATOM      6  N   UNL     1       3.689  -0.782 -10.330  1.00  0.00    -0.360 N 
ATOM      7  C   UNL     1       5.287  -0.963 -13.734  1.00  0.00     0.271 A 
ATOM      8  C   UNL     1       4.592  -0.391  -9.310  1.00  0.00     0.205 C 
ATOM      9  C   UNL     1       4.191  -0.875 -12.820  1.00  0.00     0.113 A 
ATOM     10  H   UNL     1       6.448  -1.472  -8.957  1.00  0.00     0.163 HD
ATOM     11  H   UNL     1       2.682  -0.979 -10.237  1.00  0.00     0.163 HD
ENDROOT
BRANCH   8  12
ATOM     12  C   UNL     1       4.020  -0.460  -7.867  1.00  0.00    -0.003 A 
ATOM     13  C   UNL     1       2.048  -0.920  -6.441  1.00  0.00     0.042 A 
ATOM     14  C   UNL     1       2.926  -1.292  -7.539  1.00  0.00     0.028 A 
ATOM     15  C   UNL     1       2.626  -0.091  -5.377  1.00  0.00     0.041 A 
ATOM     16  C   UNL     1       3.954   0.457  -5.629  1.00  0.00     0.042 A 
ATOM     17  C   UNL     1       4.590   0.439  -6.896  1.00  0.00     0.028 A 
ATOM     18  Cl  UNL     1       0.657  -1.548  -6.124  1.00  0.00    -0.084 Cl
ATOM     19  Cl  UNL     1       4.711   1.245  -4.315  1.00  0.00    -0.084 Cl
ENDBRANCH   8  12
BRANCH   7  20
ATOM     20  N   UNL     1       4.971  -0.946 -15.077  1.00  0.00     0.062 N 
ATOM     21  O   UNL     1       3.851  -0.865 -15.422  1.00  0.00    -0.258 OA
ATOM     22  O   UNL     1       5.861  -0.788 -16.019  1.00  0.00    -0.258 OA
ENDBRANCH   7  20
TORSDOF 2
ENDMDL
MODEL 8
REMARK VINA RESULT:    -4.238      3.035      4.411
REMARK INTER + INTRA:          -5.046
REMARK INTER:                  -4.742
REMARK INTRA:                  -0.304
REMARK UNBOUND:                -0.312
REMARK SMILES O=[N+]([O-])c1ccc2c(c1)N[C@@H](c1cc(Cl)cc(Cl)c1)N2
REMARK SMILES IDX 7 1 8 2 5 3 6 4 20 5 10 6 4 7 11 8 9 9 12 12 14 13 13 14
REMARK SMILES IDX 16 15 17 16 19 17 15 18 18 19 2 20 3 21 1 22
REMARK H PARENT 20 10 10 11
ROOT
ATOM      1  C   UNL     1       4.333  -0.947 -14.542  1.00  0.00     0.060 A 
ATOM      2  C   UNL     1       3.457   0.086 -14.305  1.00  0.00     0.066 A 
ATOM      3  C   UNL     1       4.169  -0.638 -16.872  1.00  0.00     0.088 A 
ATOM      4  C   UNL     1       4.852  -1.148 -15.734  1.00  0.00     0.035 A 
ATOM      5  N   UNL     1       4.760  -1.512 -13.277  1.00  0.00    -0.360 N 
ATOM      6  N   UNL     1       3.377   0.179 -12.913  1.00  0.00    -0.360 N 
ATOM      7  C   UNL     1       3.170   0.312 -16.670  1.00  0.00     0.271 A 
ATOM      8  C   UNL     1       4.561  -0.444 -12.442  1.00  0.00     0.205 C 
ATOM      9  C   UNL     1       2.825   0.702 -15.338  1.00  0.00     0.113 A 
ATOM     10  H   UNL     1       5.115  -2.455 -13.065  1.00  0.00     0.163 HD
ATOM     11  H   UNL     1       2.625   0.605 -12.354  1.00  0.00     0.163 HD
ENDROOT
BRANCH   8  12
ATOM     12  C   UNL     1       4.615  -0.668 -10.905  1.00  0.00    -0.003 A 
ATOM     13  C   UNL     1       4.006  -2.133  -9.003  1.00  0.00     0.042 A 
ATOM     14  C   UNL     1       4.555  -1.961 -10.338  1.00  0.00     0.028 A 
ATOM     15  C   UNL     1       4.097  -0.986  -8.093  1.00  0.00     0.041 A 
ATOM     16  C   UNL     1       4.531   0.277  -8.680  1.00  0.00     0.042 A 
ATOM     17  C   UNL     1       4.627   0.509 -10.074  1.00  0.00     0.028 A 
ATOM     18  Cl  UNL     1       3.604  -3.486  -8.343  1.00  0.00    -0.084 Cl
ATOM     19  Cl  UNL     1       4.837   1.555  -7.587  1.00  0.00    -0.084 Cl
ENDBRANCH   8  12
BRANCH   7  20
ATOM     20  N   UNL     1       2.543   0.992 -17.693  1.00  0.00     0.062 N 
ATOM     21  O   UNL     1       1.575   0.550 -18.194  1.00  0.00    -0.258 OA
ATOM     22  O   UNL     1       2.824   2.227 -18.009  1.00  0.00    -0.258 OA
ENDBRANCH   7  20
TORSDOF 2
ENDMDL
MODEL 9
REMARK VINA RESULT:    -4.002      3.895      5.627
REMARK INTER + INTRA:          -4.783
REMARK INTER:                  -4.491
REMARK INTRA:                  -0.292
REMARK UNBOUND:                -0.312
REMARK SMILES O=[N+]([O-])c1ccc2c(c1)N[C@@H](c1cc(Cl)cc(Cl)c1)N2
REMARK SMILES IDX 7 1 8 2 5 3 6 4 20 5 10 6 4 7 11 8 9 9 12 12 14 13 13 14
REMARK SMILES IDX 16 15 17 16 19 17 15 18 18 19 2 20 3 21 1 22
REMARK H PARENT 20 10 10 11
ROOT
ATOM      1  C   UNL     1       4.186  -0.765 -15.711  1.00  0.00     0.060 A 
ATOM      2  C   UNL     1       3.419   0.258 -15.207  1.00  0.00     0.066 A 
ATOM      3  C   UNL     1       3.464  -0.313 -17.907  1.00  0.00     0.088 A 
ATOM      4  C   UNL     1       4.393  -0.897 -17.004  1.00  0.00     0.035 A 
ATOM      5  N   UNL     1       4.897  -1.409 -14.624  1.00  0.00    -0.360 N 
ATOM      6  N   UNL     1       3.685   0.267 -13.835  1.00  0.00    -0.360 N 
ATOM      7  C   UNL     1       2.566   0.630 -17.412  1.00  0.00     0.271 A 
ATOM      8  C   UNL     1       4.933  -0.392 -13.706  1.00  0.00     0.205 C 
ATOM      9  C   UNL     1       2.567   0.941 -16.016  1.00  0.00     0.113 A 
ATOM     10  H   UNL     1       5.272  -2.366 -14.560  1.00  0.00     0.163 HD
ATOM     11  H   UNL     1       3.102   0.664 -13.085  1.00  0.00     0.163 HD
ENDROOT
BRANCH   8  12
ATOM     12  C   UNL     1       5.357  -0.710 -12.245  1.00  0.00    -0.003 A 
ATOM     13  C   UNL     1       4.810  -0.504  -9.838  1.00  0.00     0.042 A 
ATOM     14  C   UNL     1       4.411  -0.816 -11.201  1.00  0.00     0.028 A 
ATOM     15  C   UNL     1       6.227  -0.678  -9.503  1.00  0.00     0.041 A 
ATOM     16  C   UNL     1       7.132  -0.939 -10.617  1.00  0.00     0.042 A 
ATOM     17  C   UNL     1       6.771  -0.793 -11.979  1.00  0.00     0.028 A 
ATOM     18  Cl  UNL     1       3.852  -0.291  -8.627  1.00  0.00    -0.084 Cl
ATOM     19  Cl  UNL     1       8.740  -1.348 -10.208  1.00  0.00    -0.084 Cl
ENDBRANCH   8  12
BRANCH   7  20
ATOM     20  N   UNL     1       1.723   1.377 -18.209  1.00  0.00     0.062 N 
ATOM     21  O   UNL     1       0.723   0.910 -18.614  1.00  0.00    -0.258 OA
ATOM     22  O   UNL     1       1.848   2.666 -18.372  1.00  0.00    -0.258 OA
ENDBRANCH   7  20
TORSDOF 2
ENDMDL
