MODEL 1
REMARK VINA RESULT:    -5.787      0.000      0.000
REMARK INTER + INTRA:          -6.759
REMARK INTER:                  -6.463
REMARK INTRA:                  -0.296
REMARK UNBOUND:                -0.296
REMARK SMILES O=[N+]([O-])c1ccc2c(c1)N[C@@H](c1cc(Cl)cc(Cl)c1)N2
REMARK SMILES IDX 7 1 8 2 5 3 6 4 20 5 10 6 4 7 11 8 9 9 12 12 14 13 13 14
REMARK SMILES IDX 16 15 17 16 19 17 15 18 18 19 2 20 3 21 1 22
REMARK H PARENT 20 10 10 11
ROOT
ATOM      1  C   UNL     1       7.706   0.961  -3.955  1.00  0.00     0.060 A 
ATOM      2  C   UNL     1       7.300   2.174  -4.458  1.00  0.00     0.066 A 
ATOM      3  C   UNL     1       5.950   0.949  -2.386  1.00  0.00     0.088 A 
ATOM      4  C   UNL     1       6.946   0.267  -3.135  1.00  0.00     0.035 A 
ATOM      5  N   UNL     1       8.877   0.510  -4.681  1.00  0.00    -0.360 N 
ATOM      6  N   UNL     1       8.186   2.446  -5.503  1.00  0.00    -0.360 N 
ATOM      7  C   UNL     1       5.604   2.242  -2.772  1.00  0.00     0.271 A 
ATOM      8  C   UNL     1       8.716   1.182  -5.865  1.00  0.00     0.205 C 
ATOM      9  C   UNL     1       6.289   2.860  -3.864  1.00  0.00     0.113 A 
ATOM     10  H   UNL     1       9.623  -0.136  -4.389  1.00  0.00     0.163 HD
ATOM     11  H   UNL     1       8.405   3.363  -5.919  1.00  0.00     0.163 HD
ENDROOT
BRANCH   8  12
ATOM     12  C   UNL     1       9.900   1.232  -6.871  1.00  0.00    -0.003 A 
ATOM     13  C   UNL     1      11.895   2.469  -7.662  1.00  0.00     0.042 A 
ATOM     14  C   UNL     1      11.100   1.919  -6.576  1.00  0.00     0.028 A 
ATOM     15  C   UNL     1      11.780   1.815  -8.970  1.00  0.00     0.041 A 
ATOM     16  C   UNL     1      10.723   0.818  -9.107  1.00  0.00     0.042 A 
ATOM     17  C   UNL     1       9.684   0.632  -8.163  1.00  0.00     0.028 A 
ATOM     18  Cl  UNL     1      13.070   3.482  -7.517  1.00  0.00    -0.084 Cl
ATOM     19  Cl  UNL     1      10.722  -0.090 -10.556  1.00  0.00    -0.084 Cl
ENDBRANCH   8  12
BRANCH   7  20
ATOM     20  N   UNL     1       4.552   2.948  -2.225  1.00  0.00     0.062 N 
ATOM     21  O   UNL     1       3.739   3.436  -2.921  1.00  0.00    -0.258 OA
ATOM     22  O   UNL     1       4.263   2.931  -0.952  1.00  0.00    -0.258 OA
ENDBRANCH   7  20
TORSDOF 2
ENDMDL
MODEL 2
REMARK VINA RESULT:    -5.769      2.533      3.566
REMARK INTER + INTRA:          -6.739
REMARK INTER:                  -6.441
REMARK INTRA:                  -0.298
REMARK UNBOUND:                -0.296
REMARK SMILES O=[N+]([O-])c1ccc2c(c1)N[C@@H](c1cc(Cl)cc(Cl)c1)N2
REMARK SMILES IDX 7 1 8 2 5 3 6 4 20 5 10 6 4 7 11 8 9 9 12 12 14 13 13 14
REMARK SMILES IDX 16 15 17 16 19 17 15 18 18 19 2 20 3 21 1 22
REMARK H PARENT 20 10 10 11
ROOT
ATOM      1  C   UNL     1       6.866   1.510  -4.944  1.00  0.00     0.060 A 
ATOM      2  C   UNL     1       7.694   0.447  -4.669  1.00  0.00     0.066 A 
ATOM      3  C   UNL     1       5.085   0.510  -3.771  1.00  0.00     0.088 A 
ATOM      4  C   UNL     1       5.709   1.655  -4.334  1.00  0.00     0.035 A 
ATOM      5  N   UNL     1       7.592   2.491  -5.725  1.00  0.00    -0.360 N 
ATOM      6  N   UNL     1       8.922   0.789  -5.241  1.00  0.00    -0.360 N 
ATOM      7  C   UNL     1       5.849  -0.643  -3.604  1.00  0.00     0.271 A 
ATOM      8  C   UNL     1       8.882   2.201  -5.364  1.00  0.00     0.205 C 
ATOM      9  C   UNL     1       7.209  -0.659  -4.046  1.00  0.00     0.113 A 
ATOM     10  H   UNL     1       7.237   3.209  -6.373  1.00  0.00     0.163 HD
ATOM     11  H   UNL     1       9.687   0.156  -5.513  1.00  0.00     0.163 HD
ENDROOT
BRANCH   8  12
ATOM     12  C   UNL     1      10.051   2.821  -6.179  1.00  0.00    -0.003 A 
ATOM     13  C   UNL     1      11.564   2.598  -8.126  1.00  0.00     0.042 A 
ATOM     14  C   UNL     1      10.230   2.545  -7.553  1.00  0.00     0.028 A 
ATOM     15  C   UNL     1      12.538   3.476  -7.468  1.00  0.00     0.041 A 
ATOM     16  C   UNL     1      12.139   4.043  -6.184  1.00  0.00     0.042 A 
ATOM     17  C   UNL     1      11.008   3.611  -5.447  1.00  0.00     0.028 A 
ATOM     18  Cl  UNL     1      11.985   2.057  -9.526  1.00  0.00    -0.084 Cl
ATOM     19  Cl  UNL     1      13.180   5.225  -5.521  1.00  0.00    -0.084 Cl
ENDBRANCH   8  12
BRANCH   7  20
ATOM     20  N   UNL     1       5.406  -1.764  -2.933  1.00  0.00     0.062 N 
ATOM     21  O   UNL     1       4.308  -2.153  -3.089  1.00  0.00    -0.258 OA
ATOM     22  O   UNL     1       6.202  -2.574  -2.289  1.00  0.00    -0.258 OA
ENDBRANCH   7  20
TORSDOF 2
ENDMDL
MODEL 3
REMARK VINA RESULT:    -5.599      1.508      2.576
REMARK INTER + INTRA:          -6.550
REMARK INTER:                  -6.232
REMARK INTRA:                  -0.319
REMARK UNBOUND:                -0.296
REMARK SMILES O=[N+]([O-])c1ccc2c(c1)N[C@@H](c1cc(Cl)cc(Cl)c1)N2
REMARK SMILES IDX 7 1 8 2 5 3 6 4 20 5 10 6 4 7 11 8 9 9 12 12 14 13 13 14
REMARK SMILES IDX 16 15 17 16 19 17 15 18 18 19 2 20 3 21 1 22
REMARK H PARENT 20 10 10 11
ROOT
ATOM      1  C   UNL     1       7.084   0.621  -4.761  1.00  0.00     0.060 A 
ATOM      2  C   UNL     1       7.138   1.760  -3.994  1.00  0.00     0.066 A 
ATOM      3  C   UNL     1       5.193  -0.157  -3.592  1.00  0.00     0.088 A 
ATOM      4  C   UNL     1       6.039  -0.178  -4.734  1.00  0.00     0.035 A 
ATOM      5  N   UNL     1       8.161   0.647  -5.731  1.00  0.00    -0.360 N 
ATOM      6  N   UNL     1       8.209   2.493  -4.511  1.00  0.00    -0.360 N 
ATOM      7  C   UNL     1       5.310   0.911  -2.705  1.00  0.00     0.271 A 
ATOM      8  C   UNL     1       8.385   1.995  -5.827  1.00  0.00     0.205 C 
ATOM      9  C   UNL     1       6.302   1.915  -2.935  1.00  0.00     0.113 A 
ATOM     10  H   UNL     1       8.629  -0.133  -6.216  1.00  0.00     0.163 HD
ATOM     11  H   UNL     1       8.751   3.232  -4.040  1.00  0.00     0.163 HD
ENDROOT
BRANCH   8  12
ATOM     12  C   UNL     1       9.665   2.498  -6.552  1.00  0.00    -0.003 A 
ATOM     13  C   UNL     1      11.415   2.017  -8.237  1.00  0.00     0.042 A 
ATOM     14  C   UNL     1      10.016   2.047  -7.844  1.00  0.00     0.028 A 
ATOM     15  C   UNL     1      12.313   2.968  -7.573  1.00  0.00     0.041 A 
ATOM     16  C   UNL     1      11.763   3.697  -6.435  1.00  0.00     0.042 A 
ATOM     17  C   UNL     1      10.536   3.371  -5.806  1.00  0.00     0.028 A 
ATOM     18  Cl  UNL     1      12.002   1.298  -9.489  1.00  0.00    -0.084 Cl
ATOM     19  Cl  UNL     1      12.734   4.949  -5.796  1.00  0.00    -0.084 Cl
ENDBRANCH   8  12
BRANCH   7  20
ATOM     20  N   UNL     1       4.448   1.126  -1.649  1.00  0.00     0.062 N 
ATOM     21  O   UNL     1       4.315   2.206  -1.203  1.00  0.00    -0.258 OA
ATOM     22  O   UNL     1       3.582   0.239  -1.240  1.00  0.00    -0.258 OA
ENDBRANCH   7  20
TORSDOF 2
ENDMDL
MODEL 4
REMARK VINA RESULT:    -5.592      1.729      2.009
REMARK INTER + INTRA:          -6.542
REMARK INTER:                  -6.223
REMARK INTRA:                  -0.319
REMARK UNBOUND:                -0.296
REMARK SMILES O=[N+]([O-])c1ccc2c(c1)N[C@@H](c1cc(Cl)cc(Cl)c1)N2
REMARK SMILES IDX 7 1 8 2 5 3 6 4 20 5 10 6 4 7 11 8 9 9 12 12 14 13 13 14
REMARK SMILES IDX 16 15 17 16 19 17 15 18 18 19 2 20 3 21 1 22
REMARK H PARENT 20 10 10 11
ROOT
ATOM      1  C   UNL     1       7.397   1.729  -3.987  1.00  0.00     0.060 A 
ATOM      2  C   UNL     1       7.099   0.519  -4.566  1.00  0.00     0.066 A 
ATOM      3  C   UNL     1       5.734   1.427  -2.346  1.00  0.00     0.088 A 
ATOM      4  C   UNL     1       6.918   2.064  -2.808  1.00  0.00     0.035 A 
ATOM      5  N   UNL     1       8.478   2.357  -4.721  1.00  0.00    -0.360 N 
ATOM      6  N   UNL     1       8.010   0.388  -5.618  1.00  0.00    -0.360 N 
ATOM      7  C   UNL     1       5.312   0.270  -2.996  1.00  0.00     0.271 A 
ATOM      8  C   UNL     1       9.077   1.259  -5.281  1.00  0.00     0.205 C 
ATOM      9  C   UNL     1       6.040  -0.210  -4.129  1.00  0.00     0.113 A 
ATOM     10  H   UNL     1       8.727   3.353  -4.800  1.00  0.00     0.163 HD
ATOM     11  H   UNL     1       7.926  -0.210  -6.452  1.00  0.00     0.163 HD
ENDROOT
BRANCH   8  12
ATOM     12  C   UNL     1      10.133   1.465  -6.403  1.00  0.00    -0.003 A 
ATOM     13  C   UNL     1      11.783   2.995  -7.438  1.00  0.00     0.042 A 
ATOM     14  C   UNL     1      11.207   2.372  -6.258  1.00  0.00     0.028 A 
ATOM     15  C   UNL     1      11.669   2.259  -8.702  1.00  0.00     0.041 A 
ATOM     16  C   UNL     1      10.807   1.082  -8.694  1.00  0.00     0.042 A 
ATOM     17  C   UNL     1       9.912   0.765  -7.643  1.00  0.00     0.028 A 
ATOM     18  Cl  UNL     1      12.760   4.210  -7.451  1.00  0.00    -0.084 Cl
ATOM     19  Cl  UNL     1      10.839   0.110 -10.100  1.00  0.00    -0.084 Cl
ENDBRANCH   8  12
BRANCH   7  20
ATOM     20  N   UNL     1       4.272  -0.521  -2.551  1.00  0.00     0.062 N 
ATOM     21  O   UNL     1       4.213  -1.653  -2.862  1.00  0.00    -0.258 OA
ATOM     22  O   UNL     1       3.445  -0.154  -1.610  1.00  0.00    -0.258 OA
ENDBRANCH   7  20
TORSDOF 2
ENDMDL
MODEL 5
REMARK VINA RESULT:    -5.577      1.134      2.182
REMARK INTER + INTRA:          -6.526
REMARK INTER:                  -6.215
REMARK INTRA:                  -0.311
REMARK UNBOUND:                -0.296
REMARK SMILES O=[N+]([O-])c1ccc2c(c1)N[C@@H](c1cc(Cl)cc(Cl)c1)N2
REMARK SMILES IDX 7 1 8 2 5 3 6 4 20 5 10 6 4 7 11 8 9 9 12 12 14 13 13 14
REMARK SMILES IDX 16 15 17 16 19 17 15 18 18 19 2 20 3 21 1 22
REMARK H PARENT 20 10 10 11
ROOT
ATOM      1  C   UNL     1       7.991   0.599  -4.108  1.00  0.00     0.060 A 
ATOM      2  C   UNL     1       7.359   1.800  -4.328  1.00  0.00     0.066 A 
ATOM      3  C   UNL     1       6.336  -0.064  -2.568  1.00  0.00     0.088 A 
ATOM      4  C   UNL     1       7.400  -0.379  -3.456  1.00  0.00     0.035 A 
ATOM      5  N   UNL     1       9.188   0.532  -4.923  1.00  0.00    -0.360 N 
ATOM      6  N   UNL     1       8.137   2.445  -5.294  1.00  0.00    -0.360 N 
ATOM      7  C   UNL     1       5.755   1.199  -2.658  1.00  0.00     0.271 A 
ATOM      8  C   UNL     1       8.860   1.404  -5.928  1.00  0.00     0.205 C 
ATOM      9  C   UNL     1       6.273   2.150  -3.591  1.00  0.00     0.113 A 
ATOM     10  H   UNL     1      10.047  -0.019  -4.785  1.00  0.00     0.163 HD
ATOM     11  H   UNL     1       8.175   3.453  -5.499  1.00  0.00     0.163 HD
ENDROOT
BRANCH   8  12
ATOM     12  C   UNL     1       9.971   1.880  -6.906  1.00  0.00    -0.003 A 
ATOM     13  C   UNL     1      11.855   1.228  -8.375  1.00  0.00     0.042 A 
ATOM     14  C   UNL     1      10.491   1.033  -7.911  1.00  0.00     0.028 A 
ATOM     15  C   UNL     1      12.412   2.580  -8.257  1.00  0.00     0.041 A 
ATOM     16  C   UNL     1      11.627   3.542  -7.492  1.00  0.00     0.042 A 
ATOM     17  C   UNL     1      10.520   3.192  -6.679  1.00  0.00     0.028 A 
ATOM     18  Cl  UNL     1      12.678   0.235  -9.251  1.00  0.00    -0.084 Cl
ATOM     19  Cl  UNL     1      12.169   5.163  -7.529  1.00  0.00    -0.084 Cl
ENDBRANCH   8  12
BRANCH   7  20
ATOM     20  N   UNL     1       4.623   1.572  -1.962  1.00  0.00     0.062 N 
ATOM     21  O   UNL     1       3.839   0.762  -1.627  1.00  0.00    -0.258 OA
ATOM     22  O   UNL     1       4.460   2.759  -1.444  1.00  0.00    -0.258 OA
ENDBRANCH   7  20
TORSDOF 2
ENDMDL
MODEL 6
REMARK VINA RESULT:    -5.490      2.135      2.608
REMARK INTER + INTRA:          -6.429
REMARK INTER:                  -6.119
REMARK INTRA:                  -0.310
REMARK UNBOUND:                -0.296
REMARK SMILES O=[N+]([O-])c1ccc2c(c1)N[C@@H](c1cc(Cl)cc(Cl)c1)N2
REMARK SMILES IDX 7 1 8 2 5 3 6 4 20 5 10 6 4 7 11 8 9 9 12 12 14 13 13 14
REMARK SMILES IDX 16 15 17 16 19 17 15 18 18 19 2 20 3 21 1 22
REMARK H PARENT 20 10 10 11
ROOT
ATOM      1  C   UNL     1       7.145   1.814  -5.108  1.00  0.00     0.060 A 
ATOM      2  C   UNL     1       7.838   0.743  -4.595  1.00  0.00     0.066 A 
ATOM      3  C   UNL     1       5.218   1.239  -3.881  1.00  0.00     0.088 A 
ATOM      4  C   UNL     1       5.988   2.188  -4.606  1.00  0.00     0.035 A 
ATOM      5  N   UNL     1       8.005   2.552  -6.011  1.00  0.00    -0.360 N 
ATOM      6  N   UNL     1       9.118   0.845  -5.145  1.00  0.00    -0.360 N 
ATOM      7  C   UNL     1       5.843   0.067  -3.460  1.00  0.00     0.271 A 
ATOM      8  C   UNL     1       9.240   2.205  -5.527  1.00  0.00     0.205 C 
ATOM      9  C   UNL     1       7.209  -0.170  -3.810  1.00  0.00     0.113 A 
ATOM     10  H   UNL     1       7.758   3.167  -6.799  1.00  0.00     0.163 HD
ATOM     11  H   UNL     1       9.818   0.097  -5.251  1.00  0.00     0.163 HD
ENDROOT
BRANCH   8  12
ATOM     12  C   UNL     1      10.502   2.538  -6.370  1.00  0.00    -0.003 A 
ATOM     13  C   UNL     1      11.846   4.298  -7.480  1.00  0.00     0.042 A 
ATOM     14  C   UNL     1      11.116   3.810  -6.321  1.00  0.00     0.028 A 
ATOM     15  C   UNL     1      12.421   3.290  -8.377  1.00  0.00     0.041 A 
ATOM     16  C   UNL     1      12.024   1.906  -8.140  1.00  0.00     0.042 A 
ATOM     17  C   UNL     1      10.963   1.524  -7.283  1.00  0.00     0.028 A 
ATOM     18  Cl  UNL     1      12.334   5.760  -7.709  1.00  0.00    -0.084 Cl
ATOM     19  Cl  UNL     1      12.851   0.715  -9.045  1.00  0.00    -0.084 Cl
ENDBRANCH   8  12
BRANCH   7  20
ATOM     20  N   UNL     1       5.252  -0.857  -2.623  1.00  0.00     0.062 N 
ATOM     21  O   UNL     1       4.233  -0.610  -2.091  1.00  0.00    -0.258 OA
ATOM     22  O   UNL     1       5.637  -2.103  -2.547  1.00  0.00    -0.258 OA
ENDBRANCH   7  20
TORSDOF 2
ENDMDL
MODEL 7
REMARK VINA RESULT:    -5.419      4.926      7.404
REMARK INTER + INTRA:          -6.349
REMARK INTER:                  -6.042
REMARK INTRA:                  -0.307
REMARK UNBOUND:                -0.296
REMARK SMILES O=[N+]([O-])c1ccc2c(c1)N[C@@H](c1cc(Cl)cc(Cl)c1)N2
REMARK SMILES IDX 7 1 8 2 5 3 6 4 20 5 10 6 4 7 11 8 9 9 12 12 14 13 13 14
REMARK SMILES IDX 16 15 17 16 19 17 15 18 18 19 2 20 3 21 1 22
REMARK H PARENT 20 10 10 11
ROOT
ATOM      1  C   UNL     1       9.911   1.510  -6.962  1.00  0.00     0.060 A 
ATOM      2  C   UNL     1      10.087   2.659  -6.228  1.00  0.00     0.066 A 
ATOM      3  C   UNL     1      11.591   2.147  -8.485  1.00  0.00     0.088 A 
ATOM      4  C   UNL     1      10.768   1.151  -7.893  1.00  0.00     0.035 A 
ATOM      5  N   UNL     1       8.871   0.707  -6.350  1.00  0.00    -0.360 N 
ATOM      6  N   UNL     1       9.195   2.545  -5.158  1.00  0.00    -0.360 N 
ATOM      7  C   UNL     1      11.690   3.383  -7.850  1.00  0.00     0.271 A 
ATOM      8  C   UNL     1       8.931   1.155  -5.056  1.00  0.00     0.205 C 
ATOM      9  C   UNL     1      10.929   3.631  -6.666  1.00  0.00     0.113 A 
ATOM     10  H   UNL     1       8.256  -0.004  -6.770  1.00  0.00     0.163 HD
ATOM     11  H   UNL     1       8.814   3.302  -4.574  1.00  0.00     0.163 HD
ENDROOT
BRANCH   8  12
ATOM     12  C   UNL     1       7.789   0.777  -4.072  1.00  0.00    -0.003 A 
ATOM     13  C   UNL     1       6.273  -0.998  -3.243  1.00  0.00     0.042 A 
ATOM     14  C   UNL     1       7.603  -0.550  -3.621  1.00  0.00     0.028 A 
ATOM     15  C   UNL     1       5.334   0.027  -2.774  1.00  0.00     0.041 A 
ATOM     16  C   UNL     1       5.752   1.415  -2.936  1.00  0.00     0.042 A 
ATOM     17  C   UNL     1       6.863   1.821  -3.716  1.00  0.00     0.028 A 
ATOM     18  Cl  UNL     1       5.835  -2.474  -3.002  1.00  0.00    -0.084 Cl
ATOM     19  Cl  UNL     1       4.757   2.596  -2.203  1.00  0.00    -0.084 Cl
ENDBRANCH   8  12
BRANCH   7  20
ATOM     20  N   UNL     1      12.569   4.374  -8.237  1.00  0.00     0.062 N 
ATOM     21  O   UNL     1      13.624   4.463  -7.727  1.00  0.00    -0.258 OA
ATOM     22  O   UNL     1      12.398   5.104  -9.306  1.00  0.00    -0.258 OA
ENDBRANCH   7  20
TORSDOF 2
ENDMDL
MODEL 8
REMARK VINA RESULT:    -5.417      5.130      7.518
REMARK INTER + INTRA:          -6.346
REMARK INTER:                  -6.040
REMARK INTRA:                  -0.307
REMARK UNBOUND:                -0.296
REMARK SMILES O=[N+]([O-])c1ccc2c(c1)N[C@@H](c1cc(Cl)cc(Cl)c1)N2
REMARK SMILES IDX 7 1 8 2 5 3 6 4 20 5 10 6 4 7 11 8 9 9 12 12 14 13 13 14
REMARK SMILES IDX 16 15 17 16 19 17 15 18 18 19 2 20 3 21 1 22
REMARK H PARENT 20 10 10 11
ROOT
ATOM      1  C   UNL     1      10.184   2.566  -6.221  1.00  0.00     0.060 A 
ATOM      2  C   UNL     1       9.955   1.398  -6.907  1.00  0.00     0.066 A 
ATOM      3  C   UNL     1      12.091   3.034  -7.523  1.00  0.00     0.088 A 
ATOM      4  C   UNL     1      11.052   3.457  -6.651  1.00  0.00     0.035 A 
ATOM      5  N   UNL     1       9.161   2.735  -5.209  1.00  0.00    -0.360 N 
ATOM      6  N   UNL     1       8.785   0.876  -6.350  1.00  0.00    -0.360 N 
ATOM      7  C   UNL     1      11.971   1.788  -8.135  1.00  0.00     0.271 A 
ATOM      8  C   UNL     1       8.145   1.988  -5.747  1.00  0.00     0.205 C 
ATOM      9  C   UNL     1      10.847   0.958  -7.832  1.00  0.00     0.113 A 
ATOM     10  H   UNL     1       9.188   3.269  -4.329  1.00  0.00     0.163 HD
ATOM     11  H   UNL     1       8.459  -0.101  -6.373  1.00  0.00     0.163 HD
ENDROOT
BRANCH   8  12
ATOM     12  C   UNL     1       6.916   1.637  -4.863  1.00  0.00    -0.003 A 
ATOM     13  C   UNL     1       5.260   2.440  -3.205  1.00  0.00     0.042 A 
ATOM     14  C   UNL     1       5.990   2.621  -4.449  1.00  0.00     0.028 A 
ATOM     15  C   UNL     1       5.047   1.060  -2.753  1.00  0.00     0.041 A 
ATOM     16  C   UNL     1       5.769   0.020  -3.478  1.00  0.00     0.042 A 
ATOM     17  C   UNL     1       6.816   0.277  -4.397  1.00  0.00     0.028 A 
ATOM     18  Cl  UNL     1       4.430   3.528  -2.460  1.00  0.00    -0.084 Cl
ATOM     19  Cl  UNL     1       5.361  -1.595  -3.091  1.00  0.00    -0.084 Cl
ENDBRANCH   8  12
BRANCH   7  20
ATOM     20  N   UNL     1      12.830   1.330  -9.113  1.00  0.00     0.062 N 
ATOM     21  O   UNL     1      12.568   1.480 -10.250  1.00  0.00    -0.258 OA
ATOM     22  O   UNL     1      14.047   0.928  -8.866  1.00  0.00    -0.258 OA
ENDBRANCH   7  20
TORSDOF 2
ENDMDL
MODEL 9
REMARK VINA RESULT:    -5.055      4.882      7.239
REMARK INTER + INTRA:          -5.942
REMARK INTER:                  -5.650
REMARK INTRA:                  -0.292
REMARK UNBOUND:                -0.296
REMARK SMILES O=[N+]([O-])c1ccc2c(c1)N[C@@H](c1cc(Cl)cc(Cl)c1)N2
REMARK SMILES IDX 7 1 8 2 5 3 6 4 20 5 10 6 4 7 11 8 9 9 12 12 14 13 13 14
REMARK SMILES IDX 16 15 17 16 19 17 15 18 18 19 2 20 3 21 1 22
REMARK H PARENT 20 10 10 11
ROOT
ATOM      1  C   UNL     1      10.002   1.755  -6.914  1.00  0.00     0.060 A 
ATOM      2  C   UNL     1      10.031   2.914  -6.177  1.00  0.00     0.066 A 
ATOM      3  C   UNL     1      11.948   2.376  -8.088  1.00  0.00     0.088 A 
ATOM      4  C   UNL     1      11.025   1.385  -7.654  1.00  0.00     0.035 A 
ATOM      5  N   UNL     1       8.863   0.956  -6.506  1.00  0.00    -0.360 N 
ATOM      6  N   UNL     1       8.947   2.812  -5.301  1.00  0.00    -0.360 N 
ATOM      7  C   UNL     1      11.919   3.621  -7.464  1.00  0.00     0.271 A 
ATOM      8  C   UNL     1       8.669   1.423  -5.232  1.00  0.00     0.205 C 
ATOM      9  C   UNL     1      10.941   3.884  -6.456  1.00  0.00     0.113 A 
ATOM     10  H   UNL     1       8.344   0.237  -7.028  1.00  0.00     0.163 HD
ATOM     11  H   UNL     1       8.458   3.576  -4.814  1.00  0.00     0.163 HD
ENDROOT
BRANCH   8  12
ATOM     12  C   UNL     1       7.357   1.054  -4.485  1.00  0.00    -0.003 A 
ATOM     13  C   UNL     1       5.547   1.820  -2.978  1.00  0.00     0.042 A 
ATOM     14  C   UNL     1       6.398   2.032  -4.137  1.00  0.00     0.028 A 
ATOM     15  C   UNL     1       5.285   0.429  -2.589  1.00  0.00     0.041 A 
ATOM     16  C   UNL     1       6.072  -0.595  -3.268  1.00  0.00     0.042 A 
ATOM     17  C   UNL     1       7.206  -0.317  -4.071  1.00  0.00     0.028 A 
ATOM     18  Cl  UNL     1       4.650   2.892  -2.288  1.00  0.00    -0.084 Cl
ATOM     19  Cl  UNL     1       5.622  -2.217  -2.971  1.00  0.00    -0.084 Cl
ENDBRANCH   8  12
BRANCH   7  20
ATOM     20  N   UNL     1      12.856   4.610  -7.687  1.00  0.00     0.062 N 
ATOM     21  O   UNL     1      14.001   4.385  -7.547  1.00  0.00    -0.258 OA
ATOM     22  O   UNL     1      12.574   5.745  -8.267  1.00  0.00    -0.258 OA
ENDBRANCH   7  20
TORSDOF 2
ENDMDL
