MODEL 1
REMARK VINA RESULT:    -4.226      0.000      0.000
REMARK INTER + INTRA:          -5.035
REMARK INTER:                  -4.720
REMARK INTRA:                  -0.315
REMARK UNBOUND:                -0.315
REMARK SMILES O=[N+]([O-])c1ccc2c(c1)N[C@@H](c1cc(Cl)cc(Cl)c1)N2
REMARK SMILES IDX 7 1 8 2 5 3 6 4 20 5 10 6 4 7 11 8 9 9 12 12 14 13 13 14
REMARK SMILES IDX 16 15 17 16 19 17 15 18 18 19 2 20 3 21 1 22
REMARK H PARENT 20 10 10 11
ROOT
ATOM      1  C   UNL     1      -1.088  11.989  -1.408  1.00  0.00     0.060 A 
ATOM      2  C   UNL     1      -2.353  11.780  -1.904  1.00  0.00     0.066 A 
ATOM      3  C   UNL     1      -1.233  14.301  -1.833  1.00  0.00     0.088 A 
ATOM      4  C   UNL     1      -0.639  13.200  -1.159  1.00  0.00     0.035 A 
ATOM      5  N   UNL     1      -0.530  10.724  -0.972  1.00  0.00    -0.360 N 
ATOM      6  N   UNL     1      -2.583  10.412  -1.739  1.00  0.00    -0.360 N 
ATOM      7  C   UNL     1      -2.453  14.101  -2.474  1.00  0.00     0.271 A 
ATOM      8  C   UNL     1      -1.675  10.012  -0.726  1.00  0.00     0.205 C 
ATOM      9  C   UNL     1      -3.041  12.798  -2.484  1.00  0.00     0.113 A 
ATOM     10  H   UNL     1       0.454  10.438  -0.874  1.00  0.00     0.163 HD
ATOM     11  H   UNL     1      -3.263   9.823  -2.242  1.00  0.00     0.163 HD
ENDROOT
BRANCH   8  12
ATOM     12  C   UNL     1      -1.577   8.477  -0.502  1.00  0.00    -0.003 A 
ATOM     13  C   UNL     1      -0.344   6.616   0.568  1.00  0.00     0.042 A 
ATOM     14  C   UNL     1      -0.960   7.930   0.645  1.00  0.00     0.028 A 
ATOM     15  C   UNL     1      -0.875   5.688  -0.437  1.00  0.00     0.041 A 
ATOM     16  C   UNL     1      -1.819   6.244  -1.400  1.00  0.00     0.042 A 
ATOM     17  C   UNL     1      -2.053   7.632  -1.568  1.00  0.00     0.028 A 
ATOM     18  Cl  UNL     1       0.612   5.986   1.626  1.00  0.00    -0.084 Cl
ATOM     19  Cl  UNL     1      -2.595   5.126  -2.434  1.00  0.00    -0.084 Cl
ENDBRANCH   8  12
BRANCH   7  20
ATOM     20  N   UNL     1      -3.201  15.119  -3.030  1.00  0.00     0.062 N 
ATOM     21  O   UNL     1      -4.350  14.969  -3.230  1.00  0.00    -0.258 OA
ATOM     22  O   UNL     1      -2.766  16.344  -3.151  1.00  0.00    -0.258 OA
ENDBRANCH   7  20
TORSDOF 2
ENDMDL
MODEL 2
REMARK VINA RESULT:    -4.207      1.050      2.691
REMARK INTER + INTRA:          -5.014
REMARK INTER:                  -4.698
REMARK INTRA:                  -0.316
REMARK UNBOUND:                -0.315
REMARK SMILES O=[N+]([O-])c1ccc2c(c1)N[C@@H](c1cc(Cl)cc(Cl)c1)N2
REMARK SMILES IDX 7 1 8 2 5 3 6 4 20 5 10 6 4 7 11 8 9 9 12 12 14 13 13 14
REMARK SMILES IDX 16 15 17 16 19 17 15 18 18 19 2 20 3 21 1 22
REMARK H PARENT 20 10 10 11
ROOT
ATOM      1  C   UNL     1      -2.416  11.711  -1.937  1.00  0.00     0.060 A 
ATOM      2  C   UNL     1      -1.167  12.029  -1.460  1.00  0.00     0.066 A 
ATOM      3  C   UNL     1      -2.828  13.951  -2.540  1.00  0.00     0.088 A 
ATOM      4  C   UNL     1      -3.115  12.564  -2.655  1.00  0.00     0.035 A 
ATOM      5  N   UNL     1      -2.644  10.289  -1.770  1.00  0.00    -0.360 N 
ATOM      6  N   UNL     1      -0.620  10.813  -1.041  1.00  0.00    -0.360 N 
ATOM      7  C   UNL     1      -1.632  14.328  -1.932  1.00  0.00     0.271 A 
ATOM      8  C   UNL     1      -1.354   9.826  -1.746  1.00  0.00     0.205 C 
ATOM      9  C   UNL     1      -0.764  13.325  -1.399  1.00  0.00     0.113 A 
ATOM     10  H   UNL     1      -3.530   9.770  -1.692  1.00  0.00     0.163 HD
ATOM     11  H   UNL     1       0.146  10.667  -0.369  1.00  0.00     0.163 HD
ENDROOT
BRANCH   8  12
ATOM     12  C   UNL     1      -1.086   8.363  -1.293  1.00  0.00    -0.003 A 
ATOM     13  C   UNL     1      -1.805   5.996  -1.407  1.00  0.00     0.042 A 
ATOM     14  C   UNL     1      -1.504   7.256  -2.066  1.00  0.00     0.028 A 
ATOM     15  C   UNL     1      -1.124   5.730  -0.134  1.00  0.00     0.041 A 
ATOM     16  C   UNL     1      -0.381   6.842   0.450  1.00  0.00     0.042 A 
ATOM     17  C   UNL     1      -0.481   8.182   0.002  1.00  0.00     0.028 A 
ATOM     18  Cl  UNL     1      -2.537   4.777  -2.045  1.00  0.00    -0.084 Cl
ATOM     19  Cl  UNL     1       0.579   6.476   1.816  1.00  0.00    -0.084 Cl
ENDBRANCH   8  12
BRANCH   7  20
ATOM     20  N   UNL     1      -1.169  15.627  -1.896  1.00  0.00     0.062 N 
ATOM     21  O   UNL     1      -0.026  15.845  -1.726  1.00  0.00    -0.258 OA
ATOM     22  O   UNL     1      -1.888  16.654  -2.262  1.00  0.00    -0.258 OA
ENDBRANCH   7  20
TORSDOF 2
ENDMDL
MODEL 3
REMARK VINA RESULT:    -4.036      3.768      4.835
REMARK INTER + INTRA:          -4.823
REMARK INTER:                  -4.517
REMARK INTRA:                  -0.307
REMARK UNBOUND:                -0.315
REMARK SMILES O=[N+]([O-])c1ccc2c(c1)N[C@@H](c1cc(Cl)cc(Cl)c1)N2
REMARK SMILES IDX 7 1 8 2 5 3 6 4 20 5 10 6 4 7 11 8 9 9 12 12 14 13 13 14
REMARK SMILES IDX 16 15 17 16 19 17 15 18 18 19 2 20 3 21 1 22
REMARK H PARENT 20 10 10 11
ROOT
ATOM      1  C   UNL     1       0.276  15.172  -1.090  1.00  0.00     0.060 A 
ATOM      2  C   UNL     1       1.348  14.531  -1.664  1.00  0.00     0.066 A 
ATOM      3  C   UNL     1       1.296  17.276  -1.379  1.00  0.00     0.088 A 
ATOM      4  C   UNL     1       0.140  16.479  -1.158  1.00  0.00     0.035 A 
ATOM      5  N   UNL     1      -0.721  14.191  -0.711  1.00  0.00    -0.360 N 
ATOM      6  N   UNL     1       0.997  13.179  -1.672  1.00  0.00    -0.360 N 
ATOM      7  C   UNL     1       2.455  16.646  -1.827  1.00  0.00     0.271 A 
ATOM      8  C   UNL     1      -0.418  13.172  -1.576  1.00  0.00     0.205 C 
ATOM      9  C   UNL     1       2.466  15.227  -1.999  1.00  0.00     0.113 A 
ATOM     10  H   UNL     1      -1.455  14.244   0.010  1.00  0.00     0.163 HD
ATOM     11  H   UNL     1       1.627  12.366  -1.734  1.00  0.00     0.163 HD
ENDROOT
BRANCH   8  12
ATOM     12  C   UNL     1      -1.052  11.772  -1.345  1.00  0.00    -0.003 A 
ATOM     13  C   UNL     1      -1.844  10.104   0.305  1.00  0.00     0.042 A 
ATOM     14  C   UNL     1      -1.794  11.473  -0.180  1.00  0.00     0.028 A 
ATOM     15  C   UNL     1      -1.660   9.038  -0.687  1.00  0.00     0.041 A 
ATOM     16  C   UNL     1      -1.234   9.456  -2.018  1.00  0.00     0.042 A 
ATOM     17  C   UNL     1      -0.765  10.757  -2.326  1.00  0.00     0.028 A 
ATOM     18  Cl  UNL     1      -2.362   9.643   1.701  1.00  0.00    -0.084 Cl
ATOM     19  Cl  UNL     1      -1.223   8.245  -3.224  1.00  0.00    -0.084 Cl
ENDBRANCH   8  12
BRANCH   7  20
ATOM     20  N   UNL     1       3.590  17.323  -2.222  1.00  0.00     0.062 N 
ATOM     21  O   UNL     1       4.337  17.748  -1.420  1.00  0.00    -0.258 OA
ATOM     22  O   UNL     1       4.022  17.339  -3.454  1.00  0.00    -0.258 OA
ENDBRANCH   7  20
TORSDOF 2
ENDMDL
MODEL 4
REMARK VINA RESULT:    -4.032      3.123      4.509
REMARK INTER + INTRA:          -4.818
REMARK INTER:                  -4.510
REMARK INTRA:                  -0.308
REMARK UNBOUND:                -0.315
REMARK SMILES O=[N+]([O-])c1ccc2c(c1)N[C@@H](c1cc(Cl)cc(Cl)c1)N2
REMARK SMILES IDX 7 1 8 2 5 3 6 4 20 5 10 6 4 7 11 8 9 9 12 12 14 13 13 14
REMARK SMILES IDX 16 15 17 16 19 17 15 18 18 19 2 20 3 21 1 22
REMARK H PARENT 20 10 10 11
ROOT
ATOM      1  C   UNL     1      -4.422  14.031  -3.461  1.00  0.00     0.060 A 
ATOM      2  C   UNL     1      -5.356  13.473  -2.620  1.00  0.00     0.066 A 
ATOM      3  C   UNL     1      -5.900  15.765  -4.059  1.00  0.00     0.088 A 
ATOM      4  C   UNL     1      -4.585  15.234  -3.967  1.00  0.00     0.035 A 
ATOM      5  N   UNL     1      -3.212  13.235  -3.426  1.00  0.00    -0.360 N 
ATOM      6  N   UNL     1      -4.714  12.372  -2.048  1.00  0.00    -0.360 N 
ATOM      7  C   UNL     1      -6.913  15.144  -3.333  1.00  0.00     0.271 A 
ATOM      8  C   UNL     1      -3.330  12.645  -2.195  1.00  0.00     0.205 C 
ATOM      9  C   UNL     1      -6.618  13.973  -2.567  1.00  0.00     0.113 A 
ATOM     10  H   UNL     1      -2.467  13.139  -4.131  1.00  0.00     0.163 HD
ATOM     11  H   UNL     1      -5.150  11.545  -1.615  1.00  0.00     0.163 HD
ENDROOT
BRANCH   8  12
ATOM     12  C   UNL     1      -2.388  11.464  -1.830  1.00  0.00    -0.003 A 
ATOM     13  C   UNL     1      -1.155   9.473  -2.636  1.00  0.00     0.042 A 
ATOM     14  C   UNL     1      -1.536  10.868  -2.786  1.00  0.00     0.028 A 
ATOM     15  C   UNL     1      -1.150   8.927  -1.274  1.00  0.00     0.041 A 
ATOM     16  C   UNL     1      -1.731   9.769  -0.233  1.00  0.00     0.042 A 
ATOM     17  C   UNL     1      -2.495  10.934  -0.494  1.00  0.00     0.028 A 
ATOM     18  Cl  UNL     1      -0.472   8.585  -3.719  1.00  0.00    -0.084 Cl
ATOM     19  Cl  UNL     1      -1.537   9.227   1.376  1.00  0.00    -0.084 Cl
ENDBRANCH   8  12
BRANCH   7  20
ATOM     20  N   UNL     1      -8.192  15.650  -3.217  1.00  0.00     0.062 N 
ATOM     21  O   UNL     1      -8.872  15.766  -4.168  1.00  0.00    -0.258 OA
ATOM     22  O   UNL     1      -8.797  15.810  -2.071  1.00  0.00    -0.258 OA
ENDBRANCH   7  20
TORSDOF 2
ENDMDL
MODEL 5
REMARK VINA RESULT:    -3.895      5.129      7.592
REMARK INTER + INTRA:          -4.665
REMARK INTER:                  -4.366
REMARK INTRA:                  -0.299
REMARK UNBOUND:                -0.315
REMARK SMILES O=[N+]([O-])c1ccc2c(c1)N[C@@H](c1cc(Cl)cc(Cl)c1)N2
REMARK SMILES IDX 7 1 8 2 5 3 6 4 20 5 10 6 4 7 11 8 9 9 12 12 14 13 13 14
REMARK SMILES IDX 16 15 17 16 19 17 15 18 18 19 2 20 3 21 1 22
REMARK H PARENT 20 10 10 11
ROOT
ATOM      1  C   UNL     1      -1.774   8.008  -1.540  1.00  0.00     0.060 A 
ATOM      2  C   UNL     1      -0.687   8.266  -0.738  1.00  0.00     0.066 A 
ATOM      3  C   UNL     1      -1.773   5.735  -0.920  1.00  0.00     0.088 A 
ATOM      4  C   UNL     1      -2.434   6.873  -1.458  1.00  0.00     0.035 A 
ATOM      5  N   UNL     1      -2.184   9.233  -2.197  1.00  0.00    -0.360 N 
ATOM      6  N   UNL     1      -0.458   9.638  -0.872  1.00  0.00    -0.360 N 
ATOM      7  C   UNL     1      -0.587   5.933  -0.218  1.00  0.00     0.271 A 
ATOM      8  C   UNL     1      -1.693  10.168  -1.324  1.00  0.00     0.205 C 
ATOM      9  C   UNL     1      -0.044   7.251  -0.104  1.00  0.00     0.113 A 
ATOM     10  H   UNL     1      -2.702   9.364  -3.078  1.00  0.00     0.163 HD
ATOM     11  H   UNL     1       0.415  10.151  -0.684  1.00  0.00     0.163 HD
ENDROOT
BRANCH   8  12
ATOM     12  C   UNL     1      -1.645  11.658  -1.762  1.00  0.00    -0.003 A 
ATOM     13  C   UNL     1      -0.620  13.886  -1.417  1.00  0.00     0.042 A 
ATOM     14  C   UNL     1      -0.487  12.449  -1.589  1.00  0.00     0.028 A 
ATOM     15  C   UNL     1      -1.805  14.520  -2.007  1.00  0.00     0.041 A 
ATOM     16  C   UNL     1      -2.836  13.623  -2.518  1.00  0.00     0.042 A 
ATOM     17  C   UNL     1      -2.869  12.230  -2.262  1.00  0.00     0.028 A 
ATOM     18  Cl  UNL     1       0.497  14.861  -0.937  1.00  0.00    -0.084 Cl
ATOM     19  Cl  UNL     1      -4.112  14.355  -3.388  1.00  0.00    -0.084 Cl
ENDBRANCH   8  12
BRANCH   7  20
ATOM     20  N   UNL     1       0.066   4.936   0.478  1.00  0.00     0.062 N 
ATOM     21  O   UNL     1      -0.130   3.806   0.219  1.00  0.00    -0.258 OA
ATOM     22  O   UNL     1       1.074   5.162   1.276  1.00  0.00    -0.258 OA
ENDBRANCH   7  20
TORSDOF 2
ENDMDL
MODEL 6
REMARK VINA RESULT:    -3.834      4.974      7.636
REMARK INTER + INTRA:          -4.597
REMARK INTER:                  -4.298
REMARK INTRA:                  -0.299
REMARK UNBOUND:                -0.315
REMARK SMILES O=[N+]([O-])c1ccc2c(c1)N[C@@H](c1cc(Cl)cc(Cl)c1)N2
REMARK SMILES IDX 7 1 8 2 5 3 6 4 20 5 10 6 4 7 11 8 9 9 12 12 14 13 13 14
REMARK SMILES IDX 16 15 17 16 19 17 15 18 18 19 2 20 3 21 1 22
REMARK H PARENT 20 10 10 11
ROOT
ATOM      1  C   UNL     1      -0.815   8.540  -0.306  1.00  0.00     0.060 A 
ATOM      2  C   UNL     1      -1.924   8.185  -1.037  1.00  0.00     0.066 A 
ATOM      3  C   UNL     1      -0.254   6.282   0.061  1.00  0.00     0.088 A 
ATOM      4  C   UNL     1       0.104   7.657   0.021  1.00  0.00     0.035 A 
ATOM      5  N   UNL     1      -0.723   9.986  -0.249  1.00  0.00    -0.360 N 
ATOM      6  N   UNL     1      -2.483   9.396  -1.455  1.00  0.00    -0.360 N 
ATOM      7  C   UNL     1      -1.446   5.893  -0.546  1.00  0.00     0.271 A 
ATOM      8  C   UNL     1      -1.419  10.330  -1.378  1.00  0.00     0.205 C 
ATOM      9  C   UNL     1      -2.293   6.882  -1.137  1.00  0.00     0.113 A 
ATOM     10  H   UNL     1      -0.261  10.588   0.447  1.00  0.00     0.163 HD
ATOM     11  H   UNL     1      -3.453   9.570  -1.753  1.00  0.00     0.163 HD
ENDROOT
BRANCH   8  12
ATOM     12  C   UNL     1      -1.835  11.814  -1.585  1.00  0.00    -0.003 A 
ATOM     13  C   UNL     1      -3.323  13.401  -2.767  1.00  0.00     0.042 A 
ATOM     14  C   UNL     1      -3.132  12.170  -2.019  1.00  0.00     0.028 A 
ATOM     15  C   UNL     1      -2.353  14.478  -2.538  1.00  0.00     0.041 A 
ATOM     16  C   UNL     1      -1.175  14.135  -1.748  1.00  0.00     0.042 A 
ATOM     17  C   UNL     1      -0.807  12.808  -1.413  1.00  0.00     0.028 A 
ATOM     18  Cl  UNL     1      -4.604  13.806  -3.557  1.00  0.00    -0.084 Cl
ATOM     19  Cl  UNL     1      -0.155  15.433  -1.306  1.00  0.00    -0.084 Cl
ENDBRANCH   8  12
BRANCH   7  20
ATOM     20  N   UNL     1      -1.828   4.577  -0.708  1.00  0.00     0.062 N 
ATOM     21  O   UNL     1      -1.422   3.748   0.020  1.00  0.00    -0.258 OA
ATOM     22  O   UNL     1      -2.802   4.207  -1.494  1.00  0.00    -0.258 OA
ENDBRANCH   7  20
TORSDOF 2
ENDMDL
MODEL 7
REMARK VINA RESULT:    -3.830      1.502      2.146
REMARK INTER + INTRA:          -4.593
REMARK INTER:                  -4.294
REMARK INTRA:                  -0.299
REMARK UNBOUND:                -0.315
REMARK SMILES O=[N+]([O-])c1ccc2c(c1)N[C@@H](c1cc(Cl)cc(Cl)c1)N2
REMARK SMILES IDX 7 1 8 2 5 3 6 4 20 5 10 6 4 7 11 8 9 9 12 12 14 13 13 14
REMARK SMILES IDX 16 15 17 16 19 17 15 18 18 19 2 20 3 21 1 22
REMARK H PARENT 20 10 10 11
ROOT
ATOM      1  C   UNL     1      -2.040  12.110  -1.632  1.00  0.00     0.060 A 
ATOM      2  C   UNL     1      -0.756  12.141  -1.142  1.00  0.00     0.066 A 
ATOM      3  C   UNL     1      -1.960  14.403  -2.167  1.00  0.00     0.088 A 
ATOM      4  C   UNL     1      -2.535  13.112  -2.325  1.00  0.00     0.035 A 
ATOM      5  N   UNL     1      -2.567  10.765  -1.508  1.00  0.00    -0.360 N 
ATOM      6  N   UNL     1      -0.484  10.825  -0.759  1.00  0.00    -0.360 N 
ATOM      7  C   UNL     1      -0.717  14.499  -1.546  1.00  0.00     0.271 A 
ATOM      8  C   UNL     1      -1.406  10.037  -1.495  1.00  0.00     0.205 C 
ATOM      9  C   UNL     1      -0.087  13.319  -1.042  1.00  0.00     0.113 A 
ATOM     10  H   UNL     1      -3.544  10.445  -1.447  1.00  0.00     0.163 HD
ATOM     11  H   UNL     1       0.228  10.499  -0.090  1.00  0.00     0.163 HD
ENDROOT
BRANCH   8  12
ATOM     12  C   UNL     1      -1.459   8.539  -1.086  1.00  0.00    -0.003 A 
ATOM     13  C   UNL     1      -0.478   6.733   0.296  1.00  0.00     0.042 A 
ATOM     14  C   UNL     1      -0.981   8.091   0.166  1.00  0.00     0.028 A 
ATOM     15  C   UNL     1      -1.012   5.733  -0.635  1.00  0.00     0.041 A 
ATOM     16  C   UNL     1      -1.829   6.237  -1.733  1.00  0.00     0.042 A 
ATOM     17  C   UNL     1      -1.927   7.607  -2.081  1.00  0.00     0.028 A 
ATOM     18  Cl  UNL     1       0.337   6.167   1.498  1.00  0.00    -0.084 Cl
ATOM     19  Cl  UNL     1      -2.620   5.063  -2.691  1.00  0.00    -0.084 Cl
ENDBRANCH   8  12
BRANCH   7  20
ATOM     20  N   UNL     1       0.012  15.668  -1.469  1.00  0.00     0.062 N 
ATOM     21  O   UNL     1       1.161  15.635  -1.223  1.00  0.00    -0.258 OA
ATOM     22  O   UNL     1      -0.443  16.822  -1.875  1.00  0.00    -0.258 OA
ENDBRANCH   7  20
TORSDOF 2
ENDMDL
MODEL 8
REMARK VINA RESULT:    -3.809      3.928      5.732
REMARK INTER + INTRA:          -4.570
REMARK INTER:                  -4.258
REMARK INTRA:                  -0.312
REMARK UNBOUND:                -0.315
REMARK SMILES O=[N+]([O-])c1ccc2c(c1)N[C@@H](c1cc(Cl)cc(Cl)c1)N2
REMARK SMILES IDX 7 1 8 2 5 3 6 4 20 5 10 6 4 7 11 8 9 9 12 12 14 13 13 14
REMARK SMILES IDX 16 15 17 16 19 17 15 18 18 19 2 20 3 21 1 22
REMARK H PARENT 20 10 10 11
ROOT
ATOM      1  C   UNL     1      -6.119  14.441  -2.834  1.00  0.00     0.060 A 
ATOM      2  C   UNL     1      -5.292  15.196  -3.630  1.00  0.00     0.066 A 
ATOM      3  C   UNL     1      -8.007  15.677  -3.510  1.00  0.00     0.088 A 
ATOM      4  C   UNL     1      -7.428  14.509  -2.944  1.00  0.00     0.035 A 
ATOM      5  N   UNL     1      -5.333  13.436  -2.146  1.00  0.00    -0.360 N 
ATOM      6  N   UNL     1      -4.021  14.639  -3.462  1.00  0.00    -0.360 N 
ATOM      7  C   UNL     1      -7.177  16.551  -4.209  1.00  0.00     0.271 A 
ATOM      8  C   UNL     1      -4.264  13.322  -2.996  1.00  0.00     0.205 C 
ATOM      9  C   UNL     1      -5.775  16.281  -4.290  1.00  0.00     0.113 A 
ATOM     10  H   UNL     1      -5.525  12.943  -1.262  1.00  0.00     0.163 HD
ATOM     11  H   UNL     1      -3.110  15.086  -3.639  1.00  0.00     0.163 HD
ENDROOT
BRANCH   8  12
ATOM     12  C   UNL     1      -3.001  12.552  -2.521  1.00  0.00    -0.003 A 
ATOM     13  C   UNL     1      -2.092  10.462  -1.551  1.00  0.00     0.042 A 
ATOM     14  C   UNL     1      -2.949  11.140  -2.510  1.00  0.00     0.028 A 
ATOM     15  C   UNL     1      -0.916  11.198  -1.072  1.00  0.00     0.041 A 
ATOM     16  C   UNL     1      -0.839  12.609  -1.437  1.00  0.00     0.042 A 
ATOM     17  C   UNL     1      -1.916  13.341  -1.995  1.00  0.00     0.028 A 
ATOM     18  Cl  UNL     1      -2.121   8.943  -1.206  1.00  0.00    -0.084 Cl
ATOM     19  Cl  UNL     1       0.623  13.410  -1.061  1.00  0.00    -0.084 Cl
ENDBRANCH   8  12
BRANCH   7  20
ATOM     20  N   UNL     1      -7.639  17.633  -4.930  1.00  0.00     0.062 N 
ATOM     21  O   UNL     1      -8.726  18.044  -4.752  1.00  0.00    -0.258 OA
ATOM     22  O   UNL     1      -6.865  18.390  -5.659  1.00  0.00    -0.258 OA
ENDBRANCH   7  20
TORSDOF 2
ENDMDL
MODEL 9
REMARK VINA RESULT:    -3.783      0.998      2.247
REMARK INTER + INTRA:          -4.540
REMARK INTER:                  -4.249
REMARK INTRA:                  -0.291
REMARK UNBOUND:                -0.315
REMARK SMILES O=[N+]([O-])c1ccc2c(c1)N[C@@H](c1cc(Cl)cc(Cl)c1)N2
REMARK SMILES IDX 7 1 8 2 5 3 6 4 20 5 10 6 4 7 11 8 9 9 12 12 14 13 13 14
REMARK SMILES IDX 16 15 17 16 19 17 15 18 18 19 2 20 3 21 1 22
REMARK H PARENT 20 10 10 11
ROOT
ATOM      1  C   UNL     1      -1.745  12.209  -1.953  1.00  0.00     0.060 A 
ATOM      2  C   UNL     1      -2.970  11.684  -2.288  1.00  0.00     0.066 A 
ATOM      3  C   UNL     1      -2.454  14.386  -2.508  1.00  0.00     0.088 A 
ATOM      4  C   UNL     1      -1.563  13.507  -1.835  1.00  0.00     0.035 A 
ATOM      5  N   UNL     1      -0.875  11.141  -1.502  1.00  0.00    -0.360 N 
ATOM      6  N   UNL     1      -2.866  10.318  -2.010  1.00  0.00    -0.360 N 
ATOM      7  C   UNL     1      -3.652  13.866  -2.993  1.00  0.00     0.271 A 
ATOM      8  C   UNL     1      -1.798  10.220  -1.082  1.00  0.00     0.205 C 
ATOM      9  C   UNL     1      -3.925  12.470  -2.851  1.00  0.00     0.113 A 
ATOM     10  H   UNL     1       0.154  11.089  -1.498  1.00  0.00     0.163 HD
ATOM     11  H   UNL     1      -3.438   9.553  -2.393  1.00  0.00     0.163 HD
ENDROOT
BRANCH   8  12
ATOM     12  C   UNL     1      -1.331   8.770  -0.772  1.00  0.00    -0.003 A 
ATOM     13  C   UNL     1      -1.686   6.352  -1.168  1.00  0.00     0.042 A 
ATOM     14  C   UNL     1      -1.554   7.707  -1.676  1.00  0.00     0.028 A 
ATOM     15  C   UNL     1      -1.016   6.048   0.102  1.00  0.00     0.041 A 
ATOM     16  C   UNL     1      -0.466   7.183   0.835  1.00  0.00     0.042 A 
ATOM     17  C   UNL     1      -0.749   8.536   0.525  1.00  0.00     0.028 A 
ATOM     18  Cl  UNL     1      -2.208   5.119  -1.966  1.00  0.00    -0.084 Cl
ATOM     19  Cl  UNL     1       0.492   6.810   2.200  1.00  0.00    -0.084 Cl
ENDBRANCH   8  12
BRANCH   7  20
ATOM     20  N   UNL     1      -4.662  14.641  -3.525  1.00  0.00     0.062 N 
ATOM     21  O   UNL     1      -5.560  14.990  -2.850  1.00  0.00    -0.258 OA
ATOM     22  O   UNL     1      -4.585  15.213  -4.696  1.00  0.00    -0.258 OA
ENDBRANCH   7  20
TORSDOF 2
ENDMDL
