MODEL 1
REMARK VINA RESULT:    -3.944      0.000      0.000
REMARK INTER + INTRA:          -4.710
REMARK INTER:                  -4.405
REMARK INTRA:                  -0.305
REMARK UNBOUND:                -0.305
REMARK SMILES O=[N+]([O-])c1ccc2c(c1)N[C@@H](c1cc(Cl)cc(Cl)c1)N2
REMARK SMILES IDX 7 1 8 2 5 3 6 4 20 5 10 6 4 7 11 8 9 9 12 12 14 13 13 14
REMARK SMILES IDX 16 15 17 16 19 17 15 18 18 19 2 20 3 21 1 22
REMARK H PARENT 20 10 10 11
ROOT
ATOM      1  C   UNL     1       7.155   3.469  12.323  1.00  0.00     0.060 A 
ATOM      2  C   UNL     1       6.044   2.686  12.527  1.00  0.00     0.066 A 
ATOM      3  C   UNL     1       7.479   3.728  14.642  1.00  0.00     0.088 A 
ATOM      4  C   UNL     1       7.971   3.775  13.310  1.00  0.00     0.035 A 
ATOM      5  N   UNL     1       7.386   3.609  10.899  1.00  0.00    -0.360 N 
ATOM      6  N   UNL     1       5.621   2.319  11.247  1.00  0.00    -0.360 N 
ATOM      7  C   UNL     1       6.277   3.064  14.878  1.00  0.00     0.271 A 
ATOM      8  C   UNL     1       6.768   2.480  10.429  1.00  0.00     0.205 C 
ATOM      9  C   UNL     1       5.553   2.503  13.781  1.00  0.00     0.113 A 
ATOM     10  H   UNL     1       7.879   4.352  10.383  1.00  0.00     0.163 HD
ATOM     11  H   UNL     1       4.684   2.002  10.962  1.00  0.00     0.163 HD
ENDROOT
BRANCH   8  12
ATOM     12  C   UNL     1       6.507   2.343   8.903  1.00  0.00    -0.003 A 
ATOM     13  C   UNL     1       5.755   3.456   6.822  1.00  0.00     0.042 A 
ATOM     14  C   UNL     1       6.555   3.458   8.035  1.00  0.00     0.028 A 
ATOM     15  C   UNL     1       5.424   2.148   6.245  1.00  0.00     0.041 A 
ATOM     16  C   UNL     1       5.743   0.979   7.057  1.00  0.00     0.042 A 
ATOM     17  C   UNL     1       6.113   1.043   8.423  1.00  0.00     0.028 A 
ATOM     18  Cl  UNL     1       5.466   4.687   5.911  1.00  0.00    -0.084 Cl
ATOM     19  Cl  UNL     1       5.551  -0.543   6.303  1.00  0.00    -0.084 Cl
ENDBRANCH   8  12
BRANCH   7  20
ATOM     20  N   UNL     1       5.775   2.817  16.139  1.00  0.00     0.062 N 
ATOM     21  O   UNL     1       5.355   3.699  16.794  1.00  0.00    -0.258 OA
ATOM     22  O   UNL     1       5.522   1.617  16.587  1.00  0.00    -0.258 OA
ENDBRANCH   7  20
TORSDOF 2
ENDMDL
MODEL 2
REMARK VINA RESULT:    -3.666      2.763      4.068
REMARK INTER + INTRA:          -4.400
REMARK INTER:                  -4.085
REMARK INTRA:                  -0.315
REMARK UNBOUND:                -0.305
REMARK SMILES O=[N+]([O-])c1ccc2c(c1)N[C@@H](c1cc(Cl)cc(Cl)c1)N2
REMARK SMILES IDX 7 1 8 2 5 3 6 4 20 5 10 6 4 7 11 8 9 9 12 12 14 13 13 14
REMARK SMILES IDX 16 15 17 16 19 17 15 18 18 19 2 20 3 21 1 22
REMARK H PARENT 20 10 10 11
ROOT
ATOM      1  C   UNL     1       7.674   2.187   8.739  1.00  0.00     0.060 A 
ATOM      2  C   UNL     1       6.567   2.443   9.511  1.00  0.00     0.066 A 
ATOM      3  C   UNL     1       9.119   2.644  10.543  1.00  0.00     0.088 A 
ATOM      4  C   UNL     1       8.869   2.056   9.274  1.00  0.00     0.035 A 
ATOM      5  N   UNL     1       7.251   1.821   7.402  1.00  0.00    -0.360 N 
ATOM      6  N   UNL     1       5.477   2.201   8.671  1.00  0.00    -0.360 N 
ATOM      7  C   UNL     1       8.027   3.053  11.306  1.00  0.00     0.271 A 
ATOM      8  C   UNL     1       5.987   1.354   7.654  1.00  0.00     0.205 C 
ATOM      9  C   UNL     1       6.706   2.920  10.776  1.00  0.00     0.113 A 
ATOM     10  H   UNL     1       7.759   1.892   6.509  1.00  0.00     0.163 HD
ATOM     11  H   UNL     1       4.516   2.558   8.769  1.00  0.00     0.163 HD
ENDROOT
BRANCH   8  12
ATOM     12  C   UNL     1       5.021   1.109   6.461  1.00  0.00    -0.003 A 
ATOM     13  C   UNL     1       4.728   0.142   4.200  1.00  0.00     0.042 A 
ATOM     14  C   UNL     1       5.198   0.026   5.571  1.00  0.00     0.028 A 
ATOM     15  C   UNL     1       3.609   1.059   3.955  1.00  0.00     0.041 A 
ATOM     16  C   UNL     1       3.221   1.922   5.066  1.00  0.00     0.042 A 
ATOM     17  C   UNL     1       3.993   2.094   6.241  1.00  0.00     0.028 A 
ATOM     18  Cl  UNL     1       5.083  -0.816   3.023  1.00  0.00    -0.084 Cl
ATOM     19  Cl  UNL     1       1.793   2.836   4.851  1.00  0.00    -0.084 Cl
ENDBRANCH   8  12
BRANCH   7  20
ATOM     20  N   UNL     1       8.126   3.494  12.609  1.00  0.00     0.062 N 
ATOM     21  O   UNL     1       7.163   3.809  13.204  1.00  0.00    -0.258 OA
ATOM     22  O   UNL     1       9.214   3.380  13.323  1.00  0.00    -0.258 OA
ENDBRANCH   7  20
TORSDOF 2
ENDMDL
MODEL 3
REMARK VINA RESULT:    -3.662      3.913      4.847
REMARK INTER + INTRA:          -4.396
REMARK INTER:                  -4.083
REMARK INTRA:                  -0.313
REMARK UNBOUND:                -0.305
REMARK SMILES O=[N+]([O-])c1ccc2c(c1)N[C@@H](c1cc(Cl)cc(Cl)c1)N2
REMARK SMILES IDX 7 1 8 2 5 3 6 4 20 5 10 6 4 7 11 8 9 9 12 12 14 13 13 14
REMARK SMILES IDX 16 15 17 16 19 17 15 18 18 19 2 20 3 21 1 22
REMARK H PARENT 20 10 10 11
ROOT
ATOM      1  C   UNL     1       7.059   2.496   9.206  1.00  0.00     0.060 A 
ATOM      2  C   UNL     1       8.069   2.230   8.312  1.00  0.00     0.066 A 
ATOM      3  C   UNL     1       8.598   2.733  10.974  1.00  0.00     0.088 A 
ATOM      4  C   UNL     1       7.312   2.959  10.411  1.00  0.00     0.035 A 
ATOM      5  N   UNL     1       5.786   2.461   8.514  1.00  0.00    -0.360 N 
ATOM      6  N   UNL     1       7.428   2.073   7.080  1.00  0.00    -0.360 N 
ATOM      7  C   UNL     1       9.625   2.323  10.127  1.00  0.00     0.271 A 
ATOM      8  C   UNL     1       6.185   2.739   7.233  1.00  0.00     0.205 C 
ATOM      9  C   UNL     1       9.350   2.091   8.743  1.00  0.00     0.113 A 
ATOM     10  H   UNL     1       4.842   2.278   8.882  1.00  0.00     0.163 HD
ATOM     11  H   UNL     1       7.780   1.582   6.247  1.00  0.00     0.163 HD
ENDROOT
BRANCH   8  12
ATOM     12  C   UNL     1       5.181   2.526   6.066  1.00  0.00    -0.003 A 
ATOM     13  C   UNL     1       2.885   2.897   5.217  1.00  0.00     0.042 A 
ATOM     14  C   UNL     1       4.091   3.400   5.852  1.00  0.00     0.028 A 
ATOM     15  C   UNL     1       3.035   1.750   4.314  1.00  0.00     0.041 A 
ATOM     16  C   UNL     1       4.338   1.094   4.308  1.00  0.00     0.042 A 
ATOM     17  C   UNL     1       5.350   1.337   5.269  1.00  0.00     0.028 A 
ATOM     18  Cl  UNL     1       1.506   3.623   5.159  1.00  0.00    -0.084 Cl
ATOM     19  Cl  UNL     1       4.578  -0.102   3.111  1.00  0.00    -0.084 Cl
ENDBRANCH   8  12
BRANCH   7  20
ATOM     20  N   UNL     1      10.944   2.219  10.518  1.00  0.00     0.062 N 
ATOM     21  O   UNL     1      11.296   2.674  11.544  1.00  0.00    -0.258 OA
ATOM     22  O   UNL     1      11.809   1.443   9.923  1.00  0.00    -0.258 OA
ENDBRANCH   7  20
TORSDOF 2
ENDMDL
MODEL 4
REMARK VINA RESULT:    -3.597      2.560      3.484
REMARK INTER + INTRA:          -4.323
REMARK INTER:                  -4.023
REMARK INTRA:                  -0.300
REMARK UNBOUND:                -0.305
REMARK SMILES O=[N+]([O-])c1ccc2c(c1)N[C@@H](c1cc(Cl)cc(Cl)c1)N2
REMARK SMILES IDX 7 1 8 2 5 3 6 4 20 5 10 6 4 7 11 8 9 9 12 12 14 13 13 14
REMARK SMILES IDX 16 15 17 16 19 17 15 18 18 19 2 20 3 21 1 22
REMARK H PARENT 20 10 10 11
ROOT
ATOM      1  C   UNL     1       7.634   2.507   8.910  1.00  0.00     0.060 A 
ATOM      2  C   UNL     1       6.441   2.706   9.564  1.00  0.00     0.066 A 
ATOM      3  C   UNL     1       8.850   2.767  10.911  1.00  0.00     0.088 A 
ATOM      4  C   UNL     1       8.754   2.306   9.570  1.00  0.00     0.035 A 
ATOM      5  N   UNL     1       7.374   2.277   7.503  1.00  0.00    -0.360 N 
ATOM      6  N   UNL     1       5.461   2.562   8.579  1.00  0.00    -0.360 N 
ATOM      7  C   UNL     1       7.675   3.118  11.572  1.00  0.00     0.271 A 
ATOM      8  C   UNL     1       6.087   1.808   7.554  1.00  0.00     0.205 C 
ATOM      9  C   UNL     1       6.428   3.057  10.877  1.00  0.00     0.113 A 
ATOM     10  H   UNL     1       7.987   2.425   6.688  1.00  0.00     0.163 HD
ATOM     11  H   UNL     1       4.496   2.923   8.595  1.00  0.00     0.163 HD
ENDROOT
BRANCH   8  12
ATOM     12  C   UNL     1       5.273   1.693   6.236  1.00  0.00    -0.003 A 
ATOM     13  C   UNL     1       3.151   2.197   5.061  1.00  0.00     0.042 A 
ATOM     14  C   UNL     1       4.259   2.619   5.903  1.00  0.00     0.028 A 
ATOM     15  C   UNL     1       3.406   1.091   4.131  1.00  0.00     0.041 A 
ATOM     16  C   UNL     1       4.672   0.384   4.292  1.00  0.00     0.042 A 
ATOM     17  C   UNL     1       5.527   0.539   5.411  1.00  0.00     0.028 A 
ATOM     18  Cl  UNL     1       1.823   2.979   4.830  1.00  0.00    -0.084 Cl
ATOM     19  Cl  UNL     1       5.059  -0.761   3.084  1.00  0.00    -0.084 Cl
ENDBRANCH   8  12
BRANCH   7  20
ATOM     20  N   UNL     1       7.618   3.431  12.915  1.00  0.00     0.062 N 
ATOM     21  O   UNL     1       6.580   3.604  13.440  1.00  0.00    -0.258 OA
ATOM     22  O   UNL     1       8.643   3.335  13.717  1.00  0.00    -0.258 OA
ENDBRANCH   7  20
TORSDOF 2
ENDMDL
MODEL 5
REMARK VINA RESULT:    -3.577      4.096      5.366
REMARK INTER + INTRA:          -4.300
REMARK INTER:                  -4.001
REMARK INTRA:                  -0.300
REMARK UNBOUND:                -0.305
REMARK SMILES O=[N+]([O-])c1ccc2c(c1)N[C@@H](c1cc(Cl)cc(Cl)c1)N2
REMARK SMILES IDX 7 1 8 2 5 3 6 4 20 5 10 6 4 7 11 8 9 9 12 12 14 13 13 14
REMARK SMILES IDX 16 15 17 16 19 17 15 18 18 19 2 20 3 21 1 22
REMARK H PARENT 20 10 10 11
ROOT
ATOM      1  C   UNL     1       7.313   2.226   9.237  1.00  0.00     0.060 A 
ATOM      2  C   UNL     1       8.208   1.947   8.232  1.00  0.00     0.066 A 
ATOM      3  C   UNL     1       9.057   2.655  10.761  1.00  0.00     0.088 A 
ATOM      4  C   UNL     1       7.698   2.781  10.366  1.00  0.00     0.035 A 
ATOM      5  N   UNL     1       5.963   2.085   8.728  1.00  0.00    -0.360 N 
ATOM      6  N   UNL     1       7.419   1.677   7.111  1.00  0.00    -0.360 N 
ATOM      7  C   UNL     1       9.984   2.236   9.809  1.00  0.00     0.271 A 
ATOM      8  C   UNL     1       6.173   2.293   7.390  1.00  0.00     0.205 C 
ATOM      9  C   UNL     1       9.540   1.898   8.493  1.00  0.00     0.113 A 
ATOM     10  H   UNL     1       5.088   1.884   9.232  1.00  0.00     0.163 HD
ATOM     11  H   UNL     1       7.684   1.147   6.269  1.00  0.00     0.163 HD
ENDROOT
BRANCH   8  12
ATOM     12  C   UNL     1       5.036   1.954   6.386  1.00  0.00    -0.003 A 
ATOM     13  C   UNL     1       4.403   0.807   4.284  1.00  0.00     0.042 A 
ATOM     14  C   UNL     1       5.082   0.802   5.569  1.00  0.00     0.028 A 
ATOM     15  C   UNL     1       3.252   1.705   4.143  1.00  0.00     0.041 A 
ATOM     16  C   UNL     1       3.033   2.658   5.226  1.00  0.00     0.042 A 
ATOM     17  C   UNL     1       3.977   2.922   6.249  1.00  0.00     0.028 A 
ATOM     18  Cl  UNL     1       4.580  -0.245   3.148  1.00  0.00    -0.084 Cl
ATOM     19  Cl  UNL     1       1.580   3.556   5.163  1.00  0.00    -0.084 Cl
ENDBRANCH   8  12
BRANCH   7  20
ATOM     20  N   UNL     1      11.347   2.221  10.023  1.00  0.00     0.062 N 
ATOM     21  O   UNL     1      12.085   2.003   9.134  1.00  0.00    -0.258 OA
ATOM     22  O   UNL     1      11.904   2.656  11.121  1.00  0.00    -0.258 OA
ENDBRANCH   7  20
TORSDOF 2
ENDMDL
MODEL 6
REMARK VINA RESULT:    -3.460      5.828      8.383
REMARK INTER + INTRA:          -4.169
REMARK INTER:                  -3.856
REMARK INTRA:                  -0.314
REMARK UNBOUND:                -0.305
REMARK SMILES O=[N+]([O-])c1ccc2c(c1)N[C@@H](c1cc(Cl)cc(Cl)c1)N2
REMARK SMILES IDX 7 1 8 2 5 3 6 4 20 5 10 6 4 7 11 8 9 9 12 12 14 13 13 14
REMARK SMILES IDX 16 15 17 16 19 17 15 18 18 19 2 20 3 21 1 22
REMARK H PARENT 20 10 10 11
ROOT
ATOM      1  C   UNL     1       5.481   0.805   5.571  1.00  0.00     0.060 A 
ATOM      2  C   UNL     1       4.537   1.769   5.835  1.00  0.00     0.066 A 
ATOM      3  C   UNL     1       4.348   0.138   3.616  1.00  0.00     0.088 A 
ATOM      4  C   UNL     1       5.525   0.186   4.411  1.00  0.00     0.035 A 
ATOM      5  N   UNL     1       6.495   0.833   6.606  1.00  0.00    -0.360 N 
ATOM      6  N   UNL     1       4.987   2.406   6.994  1.00  0.00    -0.360 N 
ATOM      7  C   UNL     1       3.302   1.002   3.934  1.00  0.00     0.271 A 
ATOM      8  C   UNL     1       6.376   2.126   7.044  1.00  0.00     0.205 C 
ATOM      9  C   UNL     1       3.419   1.864   5.069  1.00  0.00     0.113 A 
ATOM     10  H   UNL     1       7.131   0.088   6.924  1.00  0.00     0.163 HD
ATOM     11  H   UNL     1       4.432   2.957   7.664  1.00  0.00     0.163 HD
ENDROOT
BRANCH   8  12
ATOM     12  C   UNL     1       7.081   2.543   8.365  1.00  0.00    -0.003 A 
ATOM     13  C   UNL     1       9.126   2.405   9.753  1.00  0.00     0.042 A 
ATOM     14  C   UNL     1       8.488   2.621   8.466  1.00  0.00     0.028 A 
ATOM     15  C   UNL     1       8.333   2.707  10.950  1.00  0.00     0.041 A 
ATOM     16  C   UNL     1       6.917   2.987  10.737  1.00  0.00     0.042 A 
ATOM     17  C   UNL     1       6.239   2.750   9.516  1.00  0.00     0.028 A 
ATOM     18  Cl  UNL     1      10.649   2.172   9.996  1.00  0.00    -0.084 Cl
ATOM     19  Cl  UNL     1       6.042   3.541  12.097  1.00  0.00    -0.084 Cl
ENDBRANCH   8  12
BRANCH   7  20
ATOM     20  N   UNL     1       2.176   1.160   3.154  1.00  0.00     0.062 N 
ATOM     21  O   UNL     1       1.157   1.484   3.642  1.00  0.00    -0.258 OA
ATOM     22  O   UNL     1       2.207   1.188   1.849  1.00  0.00    -0.258 OA
ENDBRANCH   7  20
TORSDOF 2
ENDMDL
MODEL 7
REMARK VINA RESULT:    -3.434      5.140      7.653
REMARK INTER + INTRA:          -4.140
REMARK INTER:                  -3.844
REMARK INTRA:                  -0.296
REMARK UNBOUND:                -0.305
REMARK SMILES O=[N+]([O-])c1ccc2c(c1)N[C@@H](c1cc(Cl)cc(Cl)c1)N2
REMARK SMILES IDX 7 1 8 2 5 3 6 4 20 5 10 6 4 7 11 8 9 9 12 12 14 13 13 14
REMARK SMILES IDX 16 15 17 16 19 17 15 18 18 19 2 20 3 21 1 22
REMARK H PARENT 20 10 10 11
ROOT
ATOM      1  C   UNL     1       6.346   3.122   8.303  1.00  0.00     0.060 A 
ATOM      2  C   UNL     1       6.456   1.761   8.457  1.00  0.00     0.066 A 
ATOM      3  C   UNL     1       5.748   2.883   6.037  1.00  0.00     0.088 A 
ATOM      4  C   UNL     1       5.792   3.650   7.233  1.00  0.00     0.035 A 
ATOM      5  N   UNL     1       6.649   3.772   9.563  1.00  0.00    -0.360 N 
ATOM      6  N   UNL     1       6.784   1.576   9.803  1.00  0.00    -0.360 N 
ATOM      7  C   UNL     1       5.994   1.515   6.123  1.00  0.00     0.271 A 
ATOM      8  C   UNL     1       6.357   2.766  10.445  1.00  0.00     0.205 C 
ATOM      9  C   UNL     1       6.334   0.936   7.385  1.00  0.00     0.113 A 
ATOM     10  H   UNL     1       6.989   4.727   9.745  1.00  0.00     0.163 HD
ATOM     11  H   UNL     1       7.236   0.756  10.233  1.00  0.00     0.163 HD
ENDROOT
BRANCH   8  12
ATOM     12  C   UNL     1       6.805   2.907  11.927  1.00  0.00    -0.003 A 
ATOM     13  C   UNL     1       6.101   3.096  14.294  1.00  0.00     0.042 A 
ATOM     14  C   UNL     1       5.999   2.451  12.995  1.00  0.00     0.028 A 
ATOM     15  C   UNL     1       7.379   3.739  14.620  1.00  0.00     0.041 A 
ATOM     16  C   UNL     1       8.345   3.855  13.533  1.00  0.00     0.042 A 
ATOM     17  C   UNL     1       8.035   3.616  12.171  1.00  0.00     0.028 A 
ATOM     18  Cl  UNL     1       5.111   2.924  15.485  1.00  0.00    -0.084 Cl
ATOM     19  Cl  UNL     1       9.904   4.410  13.960  1.00  0.00    -0.084 Cl
ENDBRANCH   8  12
BRANCH   7  20
ATOM     20  N   UNL     1       5.832   0.641   5.067  1.00  0.00     0.062 N 
ATOM     21  O   UNL     1       5.471  -0.461   5.260  1.00  0.00    -0.258 OA
ATOM     22  O   UNL     1       5.840   1.018   3.818  1.00  0.00    -0.258 OA
ENDBRANCH   7  20
TORSDOF 2
ENDMDL
MODEL 8
REMARK VINA RESULT:    -3.431      5.946      8.282
REMARK INTER + INTRA:          -4.137
REMARK INTER:                  -3.824
REMARK INTRA:                  -0.313
REMARK UNBOUND:                -0.305
REMARK SMILES O=[N+]([O-])c1ccc2c(c1)N[C@@H](c1cc(Cl)cc(Cl)c1)N2
REMARK SMILES IDX 7 1 8 2 5 3 6 4 20 5 10 6 4 7 11 8 9 9 12 12 14 13 13 14
REMARK SMILES IDX 16 15 17 16 19 17 15 18 18 19 2 20 3 21 1 22
REMARK H PARENT 20 10 10 11
ROOT
ATOM      1  C   UNL     1       4.153   2.706   6.258  1.00  0.00     0.060 A 
ATOM      2  C   UNL     1       4.744   1.648   5.609  1.00  0.00     0.066 A 
ATOM      3  C   UNL     1       2.340   2.702   4.755  1.00  0.00     0.088 A 
ATOM      4  C   UNL     1       2.913   3.062   6.005  1.00  0.00     0.035 A 
ATOM      5  N   UNL     1       4.984   3.103   7.378  1.00  0.00    -0.360 N 
ATOM      6  N   UNL     1       5.901   1.374   6.342  1.00  0.00    -0.360 N 
ATOM      7  C   UNL     1       2.983   1.730   3.991  1.00  0.00     0.271 A 
ATOM      8  C   UNL     1       5.658   1.934   7.622  1.00  0.00     0.205 C 
ATOM      9  C   UNL     1       4.214   1.169   4.453  1.00  0.00     0.113 A 
ATOM     10  H   UNL     1       5.050   4.011   7.858  1.00  0.00     0.163 HD
ATOM     11  H   UNL     1       6.744   0.876   6.024  1.00  0.00     0.163 HD
ENDROOT
BRANCH   8  12
ATOM     12  C   UNL     1       6.888   1.957   8.571  1.00  0.00    -0.003 A 
ATOM     13  C   UNL     1       7.840   2.769  10.708  1.00  0.00     0.042 A 
ATOM     14  C   UNL     1       6.751   2.159   9.963  1.00  0.00     0.028 A 
ATOM     15  C   UNL     1       9.193   2.603  10.167  1.00  0.00     0.041 A 
ATOM     16  C   UNL     1       9.292   2.031   8.828  1.00  0.00     0.042 A 
ATOM     17  C   UNL     1       8.188   1.863   7.957  1.00  0.00     0.028 A 
ATOM     18  Cl  UNL     1       7.761   3.321  12.164  1.00  0.00    -0.084 Cl
ATOM     19  Cl  UNL     1      10.865   1.645   8.284  1.00  0.00    -0.084 Cl
ENDBRANCH   8  12
BRANCH   7  20
ATOM     20  N   UNL     1       2.451   1.186   2.840  1.00  0.00     0.062 N 
ATOM     21  O   UNL     1       3.158   0.817   1.977  1.00  0.00    -0.258 OA
ATOM     22  O   UNL     1       1.197   0.842   2.724  1.00  0.00    -0.258 OA
ENDBRANCH   7  20
TORSDOF 2
ENDMDL
MODEL 9
REMARK VINA RESULT:    -3.322      5.011      7.434
REMARK INTER + INTRA:          -4.015
REMARK INTER:                  -3.708
REMARK INTRA:                  -0.307
REMARK UNBOUND:                -0.305
REMARK SMILES O=[N+]([O-])c1ccc2c(c1)N[C@@H](c1cc(Cl)cc(Cl)c1)N2
REMARK SMILES IDX 7 1 8 2 5 3 6 4 20 5 10 6 4 7 11 8 9 9 12 12 14 13 13 14
REMARK SMILES IDX 16 15 17 16 19 17 15 18 18 19 2 20 3 21 1 22
REMARK H PARENT 20 10 10 11
ROOT
ATOM      1  C   UNL     1       6.385   3.126   8.584  1.00  0.00     0.060 A 
ATOM      2  C   UNL     1       6.423   1.795   8.922  1.00  0.00     0.066 A 
ATOM      3  C   UNL     1       5.902   2.609   6.337  1.00  0.00     0.088 A 
ATOM      4  C   UNL     1       5.916   3.527   7.421  1.00  0.00     0.035 A 
ATOM      5  N   UNL     1       6.648   3.927   9.763  1.00  0.00    -0.360 N 
ATOM      6  N   UNL     1       6.667   1.779  10.298  1.00  0.00    -0.360 N 
ATOM      7  C   UNL     1       6.079   1.256   6.616  1.00  0.00     0.271 A 
ATOM      8  C   UNL     1       6.261   3.060  10.751  1.00  0.00     0.205 C 
ATOM      9  C   UNL     1       6.321   0.839   7.962  1.00  0.00     0.113 A 
ATOM     10  H   UNL     1       7.022   4.883   9.838  1.00  0.00     0.163 HD
ATOM     11  H   UNL     1       7.055   1.007  10.858  1.00  0.00     0.163 HD
ENDROOT
BRANCH   8  12
ATOM     12  C   UNL     1       6.633   3.380  12.225  1.00  0.00    -0.003 A 
ATOM     13  C   UNL     1       8.418   4.017  13.819  1.00  0.00     0.042 A 
ATOM     14  C   UNL     1       7.730   4.209  12.554  1.00  0.00     0.028 A 
ATOM     15  C   UNL     1       7.640   3.436  14.920  1.00  0.00     0.041 A 
ATOM     16  C   UNL     1       6.323   2.911  14.578  1.00  0.00     0.042 A 
ATOM     17  C   UNL     1       5.870   2.714  13.250  1.00  0.00     0.028 A 
ATOM     18  Cl  UNL     1       9.795   4.629  14.218  1.00  0.00    -0.084 Cl
ATOM     19  Cl  UNL     1       5.337   2.428  15.888  1.00  0.00    -0.084 Cl
ENDBRANCH   8  12
BRANCH   7  20
ATOM     20  N   UNL     1       5.935   0.255   5.677  1.00  0.00     0.062 N 
ATOM     21  O   UNL     1       5.427  -0.764   5.970  1.00  0.00    -0.258 OA
ATOM     22  O   UNL     1       6.127   0.440   4.399  1.00  0.00    -0.258 OA
ENDBRANCH   7  20
TORSDOF 2
ENDMDL
