MODEL 1
REMARK VINA RESULT:    -4.582      0.000      0.000
REMARK INTER + INTRA:          -5.432
REMARK INTER:                  -5.117
REMARK INTRA:                  -0.314
REMARK UNBOUND:                -0.314
REMARK SMILES O=[N+]([O-])c1ccc2c(c1)N[C@@H](c1cc(Cl)cc(Cl)c1)N2
REMARK SMILES IDX 7 1 8 2 5 3 6 4 20 5 10 6 4 7 11 8 9 9 12 12 14 13 13 14
REMARK SMILES IDX 16 15 17 16 19 17 15 18 18 19 2 20 3 21 1 22
REMARK H PARENT 20 10 10 11
ROOT
ATOM      1  C   UNL     1     -12.597   0.857  -1.337  1.00  0.00     0.060 A 
ATOM      2  C   UNL     1     -12.514  -0.234  -2.168  1.00  0.00     0.066 A 
ATOM      3  C   UNL     1     -14.913   1.056  -1.720  1.00  0.00     0.088 A 
ATOM      4  C   UNL     1     -13.758   1.332  -0.939  1.00  0.00     0.035 A 
ATOM      5  N   UNL     1     -11.283   1.150  -0.800  1.00  0.00    -0.360 N 
ATOM      6  N   UNL     1     -11.176  -0.630  -2.111  1.00  0.00    -0.360 N 
ATOM      7  C   UNL     1     -14.835   0.048  -2.679  1.00  0.00     0.271 A 
ATOM      8  C   UNL     1     -10.688  -0.081  -0.898  1.00  0.00     0.205 C 
ATOM      9  C   UNL     1     -13.596  -0.635  -2.886  1.00  0.00     0.113 A 
ATOM     10  H   UNL     1     -10.902   2.037  -0.442  1.00  0.00     0.163 HD
ATOM     11  H   UNL     1     -10.658  -1.196  -2.798  1.00  0.00     0.163 HD
ENDROOT
BRANCH   8  12
ATOM     12  C   UNL     1      -9.151  -0.194  -0.699  1.00  0.00    -0.003 A 
ATOM     13  C   UNL     1      -7.189   0.436   0.674  1.00  0.00     0.042 A 
ATOM     14  C   UNL     1      -8.552  -0.057   0.573  1.00  0.00     0.028 A 
ATOM     15  C   UNL     1      -6.310   0.206  -0.479  1.00  0.00     0.041 A 
ATOM     16  C   UNL     1      -6.947  -0.300  -1.690  1.00  0.00     0.042 A 
ATOM     17  C   UNL     1      -8.349  -0.345  -1.887  1.00  0.00     0.028 A 
ATOM     18  Cl  UNL     1      -6.478   0.914   1.976  1.00  0.00    -0.084 Cl
ATOM     19  Cl  UNL     1      -5.900  -0.764  -2.959  1.00  0.00    -0.084 Cl
ENDBRANCH   8  12
BRANCH   7  20
ATOM     20  N   UNL     1     -15.922  -0.417  -3.390  1.00  0.00     0.062 N 
ATOM     21  O   UNL     1     -15.885  -1.473  -3.906  1.00  0.00    -0.258 OA
ATOM     22  O   UNL     1     -17.098   0.147  -3.351  1.00  0.00    -0.258 OA
ENDBRANCH   7  20
TORSDOF 2
ENDMDL
MODEL 2
REMARK VINA RESULT:    -4.581      1.060      2.694
REMARK INTER + INTRA:          -5.431
REMARK INTER:                  -5.116
REMARK INTRA:                  -0.315
REMARK UNBOUND:                -0.314
REMARK SMILES O=[N+]([O-])c1ccc2c(c1)N[C@@H](c1cc(Cl)cc(Cl)c1)N2
REMARK SMILES IDX 7 1 8 2 5 3 6 4 20 5 10 6 4 7 11 8 9 9 12 12 14 13 13 14
REMARK SMILES IDX 16 15 17 16 19 17 15 18 18 19 2 20 3 21 1 22
REMARK H PARENT 20 10 10 11
ROOT
ATOM      1  C   UNL     1     -12.368  -0.396  -2.457  1.00  0.00     0.060 A 
ATOM      2  C   UNL     1     -12.559   0.677  -1.620  1.00  0.00     0.066 A 
ATOM      3  C   UNL     1     -14.654  -0.443  -3.026  1.00  0.00     0.088 A 
ATOM      4  C   UNL     1     -13.302  -0.787  -3.298  1.00  0.00     0.035 A 
ATOM      5  N   UNL     1     -10.967  -0.769  -2.444  1.00  0.00    -0.360 N 
ATOM      6  N   UNL     1     -11.287   0.983  -1.130  1.00  0.00    -0.360 N 
ATOM      7  C   UNL     1     -14.904   0.545  -2.076  1.00  0.00     0.271 A 
ATOM      8  C   UNL     1     -10.391   0.418  -2.072  1.00  0.00     0.205 C 
ATOM      9  C   UNL     1     -13.812   1.140  -1.371  1.00  0.00     0.113 A 
ATOM     10  H   UNL     1     -10.526  -1.675  -2.656  1.00  0.00     0.163 HD
ATOM     11  H   UNL     1     -11.052   1.504  -0.273  1.00  0.00     0.163 HD
ENDROOT
BRANCH   8  12
ATOM     12  C   UNL     1      -8.897   0.430  -1.645  1.00  0.00    -0.003 A 
ATOM     13  C   UNL     1      -6.600  -0.359  -2.125  1.00  0.00     0.042 A 
ATOM     14  C   UNL     1      -7.854   0.219  -2.575  1.00  0.00     0.028 A 
ATOM     15  C   UNL     1      -6.236  -0.150  -0.719  1.00  0.00     0.041 A 
ATOM     16  C   UNL     1      -7.264   0.429   0.139  1.00  0.00     0.042 A 
ATOM     17  C   UNL     1      -8.623   0.565  -0.237  1.00  0.00     0.028 A 
ATOM     18  Cl  UNL     1      -5.466  -0.918  -3.037  1.00  0.00    -0.084 Cl
ATOM     19  Cl  UNL     1      -6.776   0.864   1.718  1.00  0.00    -0.084 Cl
ENDBRANCH   8  12
BRANCH   7  20
ATOM     20  N   UNL     1     -16.156   1.073  -1.833  1.00  0.00     0.062 N 
ATOM     21  O   UNL     1     -16.267   2.108  -1.287  1.00  0.00    -0.258 OA
ATOM     22  O   UNL     1     -17.248   0.602  -2.371  1.00  0.00    -0.258 OA
ENDBRANCH   7  20
TORSDOF 2
ENDMDL
MODEL 3
REMARK VINA RESULT:    -4.313      5.116      7.582
REMARK INTER + INTRA:          -5.131
REMARK INTER:                  -4.832
REMARK INTRA:                  -0.299
REMARK UNBOUND:                -0.314
REMARK SMILES O=[N+]([O-])c1ccc2c(c1)N[C@@H](c1cc(Cl)cc(Cl)c1)N2
REMARK SMILES IDX 7 1 8 2 5 3 6 4 20 5 10 6 4 7 11 8 9 9 12 12 14 13 13 14
REMARK SMILES IDX 16 15 17 16 19 17 15 18 18 19 2 20 3 21 1 22
REMARK H PARENT 20 10 10 11
ROOT
ATOM      1  C   UNL     1      -8.707  -0.119  -2.177  1.00  0.00     0.060 A 
ATOM      2  C   UNL     1      -8.833   0.602  -1.014  1.00  0.00     0.066 A 
ATOM      3  C   UNL     1      -6.420  -0.506  -1.767  1.00  0.00     0.088 A 
ATOM      4  C   UNL     1      -7.634  -0.837  -2.428  1.00  0.00     0.035 A 
ATOM      5  N   UNL     1      -9.990  -0.167  -2.851  1.00  0.00    -0.360 N 
ATOM      6  N   UNL     1     -10.183   0.958  -0.954  1.00  0.00    -0.360 N 
ATOM      7  C   UNL     1      -6.481   0.340  -0.662  1.00  0.00     0.271 A 
ATOM      8  C   UNL     1     -10.840   0.023  -1.793  1.00  0.00     0.205 C 
ATOM      9  C   UNL     1      -7.739   0.888  -0.261  1.00  0.00     0.113 A 
ATOM     10  H   UNL     1     -10.204  -0.306  -3.848  1.00  0.00     0.163 HD
ATOM     11  H   UNL     1     -10.607   1.729  -0.419  1.00  0.00     0.163 HD
ENDROOT
BRANCH   8  12
ATOM     12  C   UNL     1     -12.337   0.334  -2.073  1.00  0.00    -0.003 A 
ATOM     13  C   UNL     1     -14.410   1.428  -1.274  1.00  0.00     0.042 A 
ATOM     14  C   UNL     1     -12.978   1.466  -1.523  1.00  0.00     0.028 A 
ATOM     15  C   UNL     1     -15.207   0.523  -2.109  1.00  0.00     0.041 A 
ATOM     16  C   UNL     1     -14.465  -0.403  -2.957  1.00  0.00     0.042 A 
ATOM     17  C   UNL     1     -13.073  -0.640  -2.839  1.00  0.00     0.028 A 
ATOM     18  Cl  UNL     1     -15.222   2.453  -0.426  1.00  0.00    -0.084 Cl
ATOM     19  Cl  UNL     1     -15.384  -1.307  -4.079  1.00  0.00    -0.084 Cl
ENDBRANCH   8  12
BRANCH   7  20
ATOM     20  N   UNL     1      -5.402   0.613   0.153  1.00  0.00     0.062 N 
ATOM     21  O   UNL     1      -4.311   0.351  -0.199  1.00  0.00    -0.258 OA
ATOM     22  O   UNL     1      -5.482   1.358   1.221  1.00  0.00    -0.258 OA
ENDBRANCH   7  20
TORSDOF 2
ENDMDL
MODEL 4
REMARK VINA RESULT:    -4.309      4.987      7.638
REMARK INTER + INTRA:          -5.128
REMARK INTER:                  -4.828
REMARK INTRA:                  -0.300
REMARK UNBOUND:                -0.314
REMARK SMILES O=[N+]([O-])c1ccc2c(c1)N[C@@H](c1cc(Cl)cc(Cl)c1)N2
REMARK SMILES IDX 7 1 8 2 5 3 6 4 20 5 10 6 4 7 11 8 9 9 12 12 14 13 13 14
REMARK SMILES IDX 16 15 17 16 19 17 15 18 18 19 2 20 3 21 1 22
REMARK H PARENT 20 10 10 11
ROOT
ATOM      1  C   UNL     1      -9.076   0.381  -0.433  1.00  0.00     0.060 A 
ATOM      2  C   UNL     1      -8.820  -0.382  -1.547  1.00  0.00     0.066 A 
ATOM      3  C   UNL     1      -6.774   0.644  -0.005  1.00  0.00     0.088 A 
ATOM      4  C   UNL     1      -8.122   1.059   0.169  1.00  0.00     0.035 A 
ATOM      5  N   UNL     1     -10.509   0.518  -0.266  1.00  0.00    -0.360 N 
ATOM      6  N   UNL     1     -10.078  -0.677  -2.079  1.00  0.00    -0.360 N 
ATOM      7  C   UNL     1      -6.486  -0.245  -1.038  1.00  0.00     0.271 A 
ATOM      8  C   UNL     1     -10.935   0.323  -1.554  1.00  0.00     0.205 C 
ATOM      9  C   UNL     1      -7.548  -0.751  -1.851  1.00  0.00     0.113 A 
ATOM     10  H   UNL     1     -11.056   0.710   0.585  1.00  0.00     0.163 HD
ATOM     11  H   UNL     1     -10.328  -1.450  -2.713  1.00  0.00     0.163 HD
ENDROOT
BRANCH   8  12
ATOM     12  C   UNL     1     -12.449   0.095  -1.822  1.00  0.00    -0.003 A 
ATOM     13  C   UNL     1     -14.162  -0.900  -3.308  1.00  0.00     0.042 A 
ATOM     14  C   UNL     1     -12.915  -1.010  -2.570  1.00  0.00     0.028 A 
ATOM     15  C   UNL     1     -15.153   0.056  -2.803  1.00  0.00     0.041 A 
ATOM     16  C   UNL     1     -14.709   0.954  -1.742  1.00  0.00     0.042 A 
ATOM     17  C   UNL     1     -13.354   1.115  -1.359  1.00  0.00     0.028 A 
ATOM     18  Cl  UNL     1     -14.676  -1.892  -4.395  1.00  0.00    -0.084 Cl
ATOM     19  Cl  UNL     1     -15.915   1.919  -1.011  1.00  0.00    -0.084 Cl
ENDBRANCH   8  12
BRANCH   7  20
ATOM     20  N   UNL     1      -5.205  -0.603  -1.405  1.00  0.00     0.062 N 
ATOM     21  O   UNL     1      -4.305  -0.417  -0.672  1.00  0.00    -0.258 OA
ATOM     22  O   UNL     1      -4.940  -1.352  -2.441  1.00  0.00    -0.258 OA
ENDBRANCH   7  20
TORSDOF 2
ENDMDL
MODEL 5
REMARK VINA RESULT:    -4.306      0.825      2.194
REMARK INTER + INTRA:          -5.124
REMARK INTER:                  -4.824
REMARK INTRA:                  -0.300
REMARK UNBOUND:                -0.314
REMARK SMILES O=[N+]([O-])c1ccc2c(c1)N[C@@H](c1cc(Cl)cc(Cl)c1)N2
REMARK SMILES IDX 7 1 8 2 5 3 6 4 20 5 10 6 4 7 11 8 9 9 12 12 14 13 13 14
REMARK SMILES IDX 16 15 17 16 19 17 15 18 18 19 2 20 3 21 1 22
REMARK H PARENT 20 10 10 11
ROOT
ATOM      1  C   UNL     1     -12.728   0.451  -2.088  1.00  0.00     0.060 A 
ATOM      2  C   UNL     1     -12.377  -0.658  -2.820  1.00  0.00     0.066 A 
ATOM      3  C   UNL     1     -15.008   0.144  -2.593  1.00  0.00     0.088 A 
ATOM      4  C   UNL     1     -13.983   0.706  -1.785  1.00  0.00     0.035 A 
ATOM      5  N   UNL     1     -11.535   1.043  -1.516  1.00  0.00    -0.360 N 
ATOM      6  N   UNL     1     -10.992  -0.767  -2.668  1.00  0.00    -0.360 N 
ATOM      7  C   UNL     1     -14.670  -0.893  -3.460  1.00  0.00     0.271 A 
ATOM      8  C   UNL     1     -10.701  -0.044  -1.484  1.00  0.00     0.205 C 
ATOM      9  C   UNL     1     -13.309  -1.322  -3.552  1.00  0.00     0.113 A 
ATOM     10  H   UNL     1     -11.362   2.013  -1.216  1.00  0.00     0.163 HD
ATOM     11  H   UNL     1     -10.330  -1.264  -3.281  1.00  0.00     0.163 HD
ENDROOT
BRANCH   8  12
ATOM     12  C   UNL     1      -9.188   0.174  -1.205  1.00  0.00    -0.003 A 
ATOM     13  C   UNL     1      -6.864  -0.240  -1.954  1.00  0.00     0.042 A 
ATOM     14  C   UNL     1      -8.230   0.163  -2.244  1.00  0.00     0.028 A 
ATOM     15  C   UNL     1      -6.388  -0.040  -0.580  1.00  0.00     0.041 A 
ATOM     16  C   UNL     1      -7.392   0.340   0.407  1.00  0.00     0.042 A 
ATOM     17  C   UNL     1      -8.789   0.287   0.175  1.00  0.00     0.028 A 
ATOM     18  Cl  UNL     1      -5.764  -0.581  -3.004  1.00  0.00    -0.084 Cl
ATOM     19  Cl  UNL     1      -6.808   0.774   1.954  1.00  0.00    -0.084 Cl
ENDBRANCH   8  12
BRANCH   7  20
ATOM     20  N   UNL     1     -15.596  -1.621  -4.180  1.00  0.00     0.062 N 
ATOM     21  O   UNL     1     -15.275  -2.609  -4.730  1.00  0.00    -0.258 OA
ATOM     22  O   UNL     1     -16.882  -1.407  -4.114  1.00  0.00    -0.258 OA
ENDBRANCH   7  20
TORSDOF 2
ENDMDL
MODEL 6
REMARK VINA RESULT:    -4.284      1.597      2.216
REMARK INTER + INTRA:          -5.099
REMARK INTER:                  -4.800
REMARK INTRA:                  -0.300
REMARK UNBOUND:                -0.314
REMARK SMILES O=[N+]([O-])c1ccc2c(c1)N[C@@H](c1cc(Cl)cc(Cl)c1)N2
REMARK SMILES IDX 7 1 8 2 5 3 6 4 20 5 10 6 4 7 11 8 9 9 12 12 14 13 13 14
REMARK SMILES IDX 16 15 17 16 19 17 15 18 18 19 2 20 3 21 1 22
REMARK H PARENT 20 10 10 11
ROOT
ATOM      1  C   UNL     1     -12.788   0.064  -1.826  1.00  0.00     0.060 A 
ATOM      2  C   UNL     1     -12.636   1.173  -1.028  1.00  0.00     0.066 A 
ATOM      3  C   UNL     1     -15.073   0.532  -2.154  1.00  0.00     0.088 A 
ATOM      4  C   UNL     1     -13.873  -0.121  -2.546  1.00  0.00     0.035 A 
ATOM      5  N   UNL     1     -11.515  -0.622  -1.938  1.00  0.00    -0.360 N 
ATOM      6  N   UNL     1     -11.281   1.189  -0.686  1.00  0.00    -0.360 N 
ATOM      7  C   UNL     1     -14.986   1.574  -1.234  1.00  0.00     0.271 A 
ATOM      8  C   UNL     1     -10.648   0.409  -1.686  1.00  0.00     0.205 C 
ATOM      9  C   UNL     1     -13.716   1.919  -0.675  1.00  0.00     0.113 A 
ATOM     10  H   UNL     1     -11.318  -1.610  -2.149  1.00  0.00     0.163 HD
ATOM     11  H   UNL     1     -10.841   1.663   0.116  1.00  0.00     0.163 HD
ENDROOT
BRANCH   8  12
ATOM     12  C   UNL     1      -9.152   0.087  -1.414  1.00  0.00    -0.003 A 
ATOM     13  C   UNL     1      -7.221   0.351   0.113  1.00  0.00     0.042 A 
ATOM     14  C   UNL     1      -8.625   0.044  -0.104  1.00  0.00     0.028 A 
ATOM     15  C   UNL     1      -6.304   0.105  -1.006  1.00  0.00     0.041 A 
ATOM     16  C   UNL     1      -6.917  -0.217  -2.290  1.00  0.00     0.042 A 
ATOM     17  C   UNL     1      -8.299  -0.068  -2.565  1.00  0.00     0.028 A 
ATOM     18  Cl  UNL     1      -6.544   0.629   1.490  1.00  0.00    -0.084 Cl
ATOM     19  Cl  UNL     1      -5.854  -0.706  -3.535  1.00  0.00    -0.084 Cl
ENDBRANCH   8  12
BRANCH   7  20
ATOM     20  N   UNL     1     -16.050   2.383  -0.891  1.00  0.00     0.062 N 
ATOM     21  O   UNL     1     -15.873   3.361  -0.264  1.00  0.00    -0.258 OA
ATOM     22  O   UNL     1     -17.242   2.255  -1.408  1.00  0.00    -0.258 OA
ENDBRANCH   7  20
TORSDOF 2
ENDMDL
MODEL 7
REMARK VINA RESULT:    -4.131      3.040      4.397
REMARK INTER + INTRA:          -4.929
REMARK INTER:                  -4.624
REMARK INTRA:                  -0.305
REMARK UNBOUND:                -0.314
REMARK SMILES O=[N+]([O-])c1ccc2c(c1)N[C@@H](c1cc(Cl)cc(Cl)c1)N2
REMARK SMILES IDX 7 1 8 2 5 3 6 4 20 5 10 6 4 7 11 8 9 9 12 12 14 13 13 14
REMARK SMILES IDX 16 15 17 16 19 17 15 18 18 19 2 20 3 21 1 22
REMARK H PARENT 20 10 10 11
ROOT
ATOM      1  C   UNL     1     -14.787  -1.551  -4.111  1.00  0.00     0.060 A 
ATOM      2  C   UNL     1     -14.224  -2.739  -3.711  1.00  0.00     0.066 A 
ATOM      3  C   UNL     1     -16.685  -2.659  -4.957  1.00  0.00     0.088 A 
ATOM      4  C   UNL     1     -16.044  -1.479  -4.491  1.00  0.00     0.035 A 
ATOM      5  N   UNL     1     -13.897  -0.460  -3.765  1.00  0.00    -0.360 N 
ATOM      6  N   UNL     1     -13.022  -2.380  -3.094  1.00  0.00    -0.360 N 
ATOM      7  C   UNL     1     -16.077  -3.885  -4.699  1.00  0.00     0.271 A 
ATOM      8  C   UNL     1     -13.197  -1.021  -2.729  1.00  0.00     0.205 C 
ATOM      9  C   UNL     1     -14.815  -3.921  -4.028  1.00  0.00     0.113 A 
ATOM     10  H   UNL     1     -13.813   0.478  -4.182  1.00  0.00     0.163 HD
ATOM     11  H   UNL     1     -12.194  -2.972  -2.939  1.00  0.00     0.163 HD
ENDROOT
BRANCH   8  12
ATOM     12  C   UNL     1     -11.913  -0.312  -2.214  1.00  0.00    -0.003 A 
ATOM     13  C   UNL     1      -9.840   0.906  -2.808  1.00  0.00     0.042 A 
ATOM     14  C   UNL     1     -11.271   0.702  -2.961  1.00  0.00     0.028 A 
ATOM     15  C   UNL     1      -9.244   0.514  -1.526  1.00  0.00     0.041 A 
ATOM     16  C   UNL     1     -10.100  -0.238  -0.614  1.00  0.00     0.042 A 
ATOM     17  C   UNL     1     -11.345  -0.804  -0.984  1.00  0.00     0.028 A 
ATOM     18  Cl  UNL     1      -8.931   1.764  -3.738  1.00  0.00    -0.084 Cl
ATOM     19  Cl  UNL     1      -9.480  -0.513   0.955  1.00  0.00    -0.084 Cl
ENDBRANCH   8  12
BRANCH   7  20
ATOM     20  N   UNL     1     -16.669  -5.104  -4.962  1.00  0.00     0.062 N 
ATOM     21  O   UNL     1     -16.746  -5.499  -6.066  1.00  0.00    -0.258 OA
ATOM     22  O   UNL     1     -16.963  -5.972  -4.033  1.00  0.00    -0.258 OA
ENDBRANCH   7  20
TORSDOF 2
ENDMDL
MODEL 8
REMARK VINA RESULT:    -4.085      3.608      4.582
REMARK INTER + INTRA:          -4.877
REMARK INTER:                  -4.572
REMARK INTRA:                  -0.305
REMARK UNBOUND:                -0.314
REMARK SMILES O=[N+]([O-])c1ccc2c(c1)N[C@@H](c1cc(Cl)cc(Cl)c1)N2
REMARK SMILES IDX 7 1 8 2 5 3 6 4 20 5 10 6 4 7 11 8 9 9 12 12 14 13 13 14
REMARK SMILES IDX 16 15 17 16 19 17 15 18 18 19 2 20 3 21 1 22
REMARK H PARENT 20 10 10 11
ROOT
ATOM      1  C   UNL     1     -15.247   2.246  -0.624  1.00  0.00     0.060 A 
ATOM      2  C   UNL     1     -14.500   3.376  -0.854  1.00  0.00     0.066 A 
ATOM      3  C   UNL     1     -17.232   3.507  -0.487  1.00  0.00     0.088 A 
ATOM      4  C   UNL     1     -16.562   2.268  -0.677  1.00  0.00     0.035 A 
ATOM      5  N   UNL     1     -14.375   1.088  -0.622  1.00  0.00    -0.360 N 
ATOM      6  N   UNL     1     -13.193   2.915  -1.029  1.00  0.00    -0.360 N 
ATOM      7  C   UNL     1     -16.486   4.680  -0.569  1.00  0.00     0.271 A 
ATOM      8  C   UNL     1     -13.336   1.551  -1.387  1.00  0.00     0.205 C 
ATOM      9  C   UNL     1     -15.075   4.605  -0.787  1.00  0.00     0.113 A 
ATOM     10  H   UNL     1     -14.500   0.171  -0.170  1.00  0.00     0.163 HD
ATOM     11  H   UNL     1     -12.318   3.449  -0.921  1.00  0.00     0.163 HD
ENDROOT
BRANCH   8  12
ATOM     12  C   UNL     1     -12.010   0.742  -1.428  1.00  0.00    -0.003 A 
ATOM     13  C   UNL     1     -10.372  -0.614  -0.158  1.00  0.00     0.042 A 
ATOM     14  C   UNL     1     -11.746  -0.303  -0.513  1.00  0.00     0.028 A 
ATOM     15  C   UNL     1      -9.338  -0.288  -1.147  1.00  0.00     0.041 A 
ATOM     16  C   UNL     1      -9.763   0.509  -2.293  1.00  0.00     0.042 A 
ATOM     17  C   UNL     1     -11.013   1.170  -2.376  1.00  0.00     0.028 A 
ATOM     18  Cl  UNL     1      -9.911  -1.521   1.023  1.00  0.00    -0.084 Cl
ATOM     19  Cl  UNL     1      -8.615   0.712  -3.542  1.00  0.00    -0.084 Cl
ENDBRANCH   8  12
BRANCH   7  20
ATOM     20  N   UNL     1     -17.042   5.943  -0.555  1.00  0.00     0.062 N 
ATOM     21  O   UNL     1     -17.350   6.444   0.463  1.00  0.00    -0.258 OA
ATOM     22  O   UNL     1     -17.050   6.733  -1.595  1.00  0.00    -0.258 OA
ENDBRANCH   7  20
TORSDOF 2
ENDMDL
MODEL 9
REMARK VINA RESULT:    -3.795      3.877      5.635
REMARK INTER + INTRA:          -4.553
REMARK INTER:                  -4.261
REMARK INTRA:                  -0.292
REMARK UNBOUND:                -0.314
REMARK SMILES O=[N+]([O-])c1ccc2c(c1)N[C@@H](c1cc(Cl)cc(Cl)c1)N2
REMARK SMILES IDX 7 1 8 2 5 3 6 4 20 5 10 6 4 7 11 8 9 9 12 12 14 13 13 14
REMARK SMILES IDX 16 15 17 16 19 17 15 18 18 19 2 20 3 21 1 22
REMARK H PARENT 20 10 10 11
ROOT
ATOM      1  C   UNL     1     -15.784  -2.154  -4.619  1.00  0.00     0.060 A 
ATOM      2  C   UNL     1     -15.060  -3.197  -4.093  1.00  0.00     0.066 A 
ATOM      3  C   UNL     1     -17.350  -3.634  -5.572  1.00  0.00     0.088 A 
ATOM      4  C   UNL     1     -16.986  -2.336  -5.122  1.00  0.00     0.035 A 
ATOM      5  N   UNL     1     -15.148  -0.902  -4.260  1.00  0.00    -0.360 N 
ATOM      6  N   UNL     1     -14.016  -2.593  -3.388  1.00  0.00    -0.360 N 
ATOM      7  C   UNL     1     -16.560  -4.713  -5.180  1.00  0.00     0.271 A 
ATOM      8  C   UNL     1     -14.472  -1.276  -3.128  1.00  0.00     0.205 C 
ATOM      9  C   UNL     1     -15.391  -4.481  -4.390  1.00  0.00     0.113 A 
ATOM     10  H   UNL     1     -15.192   0.015  -4.726  1.00  0.00     0.163 HD
ATOM     11  H   UNL     1     -13.115  -3.012  -3.118  1.00  0.00     0.163 HD
ENDROOT
BRANCH   8  12
ATOM     12  C   UNL     1     -13.400  -0.317  -2.538  1.00  0.00    -0.003 A 
ATOM     13  C   UNL     1     -11.043  -0.027  -1.837  1.00  0.00     0.042 A 
ATOM     14  C   UNL     1     -12.023  -0.483  -2.809  1.00  0.00     0.028 A 
ATOM     15  C   UNL     1     -11.443   1.072  -0.952  1.00  0.00     0.041 A 
ATOM     16  C   UNL     1     -12.851   1.455  -0.986  1.00  0.00     0.042 A 
ATOM     17  C   UNL     1     -13.862   0.691  -1.618  1.00  0.00     0.028 A 
ATOM     18  Cl  UNL     1      -9.523  -0.376  -1.832  1.00  0.00    -0.084 Cl
ATOM     19  Cl  UNL     1     -13.274   2.864  -0.117  1.00  0.00    -0.084 Cl
ENDBRANCH   8  12
BRANCH   7  20
ATOM     20  N   UNL     1     -16.890  -6.031  -5.421  1.00  0.00     0.062 N 
ATOM     21  O   UNL     1     -16.624  -6.530  -6.451  1.00  0.00    -0.258 OA
ATOM     22  O   UNL     1     -17.291  -6.850  -4.487  1.00  0.00    -0.258 OA
ENDBRANCH   7  20
TORSDOF 2
ENDMDL
