MODEL 1
REMARK VINA RESULT:    -4.761      0.000      0.000
REMARK INTER + INTRA:          -5.632
REMARK INTER:                  -5.317
REMARK INTRA:                  -0.315
REMARK UNBOUND:                -0.315
REMARK SMILES O=[N+]([O-])c1ccc2c(c1)N[C@@H](c1cc(Cl)cc(Cl)c1)N2
REMARK SMILES IDX 7 1 8 2 5 3 6 4 20 5 10 6 4 7 11 8 9 9 12 12 14 13 13 14
REMARK SMILES IDX 16 15 17 16 19 17 15 18 18 19 2 20 3 21 1 22
REMARK H PARENT 20 10 10 11
ROOT
ATOM      1  C   UNL     1     -10.899   4.696   1.131  1.00  0.00     0.060 A 
ATOM      2  C   UNL     1     -10.522   5.892   0.568  1.00  0.00     0.066 A 
ATOM      3  C   UNL     1     -13.139   5.406   1.299  1.00  0.00     0.088 A 
ATOM      4  C   UNL     1     -12.167   4.370   1.269  1.00  0.00     0.035 A 
ATOM      5  N   UNL     1      -9.740   3.833   1.242  1.00  0.00    -0.360 N 
ATOM      6  N   UNL     1      -9.158   5.751   0.301  1.00  0.00    -0.360 N 
ATOM      7  C   UNL     1     -12.762   6.677   0.870  1.00  0.00     0.271 A 
ATOM      8  C   UNL     1      -8.943   4.350   0.254  1.00  0.00     0.205 C 
ATOM      9  C   UNL     1     -11.411   6.914   0.466  1.00  0.00     0.113 A 
ATOM     10  H   UNL     1      -9.564   3.048   1.884  1.00  0.00     0.163 HD
ATOM     11  H   UNL     1      -8.463   6.499   0.168  1.00  0.00     0.163 HD
ENDROOT
BRANCH   8  12
ATOM     12  C   UNL     1      -7.451   3.919   0.185  1.00  0.00    -0.003 A 
ATOM     13  C   UNL     1      -5.832   2.046   0.256  1.00  0.00     0.042 A 
ATOM     14  C   UNL     1      -7.069   2.626  -0.241  1.00  0.00     0.028 A 
ATOM     15  C   UNL     1      -4.774   2.979   0.662  1.00  0.00     0.041 A 
ATOM     16  C   UNL     1      -5.142   4.389   0.731  1.00  0.00     0.042 A 
ATOM     17  C   UNL     1      -6.477   4.862   0.671  1.00  0.00     0.028 A 
ATOM     18  Cl  UNL     1      -5.400   0.554   0.125  1.00  0.00    -0.084 Cl
ATOM     19  Cl  UNL     1      -3.865   5.493   0.998  1.00  0.00    -0.084 Cl
ENDBRANCH   8  12
BRANCH   7  20
ATOM     20  N   UNL     1     -13.647   7.723   0.707  1.00  0.00     0.062 N 
ATOM     21  O   UNL     1     -13.366   8.637   0.022  1.00  0.00    -0.258 OA
ATOM     22  O   UNL     1     -14.893   7.673   1.092  1.00  0.00    -0.258 OA
ENDBRANCH   7  20
TORSDOF 2
ENDMDL
MODEL 2
REMARK VINA RESULT:    -4.754      1.040      2.686
REMARK INTER + INTRA:          -5.625
REMARK INTER:                  -5.311
REMARK INTRA:                  -0.314
REMARK UNBOUND:                -0.315
REMARK SMILES O=[N+]([O-])c1ccc2c(c1)N[C@@H](c1cc(Cl)cc(Cl)c1)N2
REMARK SMILES IDX 7 1 8 2 5 3 6 4 20 5 10 6 4 7 11 8 9 9 12 12 14 13 13 14
REMARK SMILES IDX 16 15 17 16 19 17 15 18 18 19 2 20 3 21 1 22
REMARK H PARENT 20 10 10 11
ROOT
ATOM      1  C   UNL     1     -10.392   6.018   0.540  1.00  0.00     0.060 A 
ATOM      2  C   UNL     1     -10.872   4.868   1.117  1.00  0.00     0.066 A 
ATOM      3  C   UNL     1     -12.521   7.024   0.617  1.00  0.00     0.088 A 
ATOM      4  C   UNL     1     -11.107   7.122   0.509  1.00  0.00     0.035 A 
ATOM      5  N   UNL     1      -8.973   5.867   0.281  1.00  0.00    -0.360 N 
ATOM      6  N   UNL     1      -9.757   4.036   1.248  1.00  0.00    -0.360 N 
ATOM      7  C   UNL     1     -13.065   5.823   1.065  1.00  0.00     0.271 A 
ATOM      8  C   UNL     1      -8.645   4.916   1.211  1.00  0.00     0.205 C 
ATOM      9  C   UNL     1     -12.203   4.719   1.349  1.00  0.00     0.113 A 
ATOM     10  H   UNL     1      -8.377   6.344  -0.410  1.00  0.00     0.163 HD
ATOM     11  H   UNL     1      -9.745   3.011   1.348  1.00  0.00     0.163 HD
ENDROOT
BRANCH   8  12
ATOM     12  C   UNL     1      -7.260   4.217   1.119  1.00  0.00    -0.003 A 
ATOM     13  C   UNL     1      -4.815   4.495   0.842  1.00  0.00     0.042 A 
ATOM     14  C   UNL     1      -6.065   4.882   1.474  1.00  0.00     0.028 A 
ATOM     15  C   UNL     1      -4.715   3.115   0.353  1.00  0.00     0.041 A 
ATOM     16  C   UNL     1      -5.948   2.334   0.354  1.00  0.00     0.042 A 
ATOM     17  C   UNL     1      -7.235   2.890   0.559  1.00  0.00     0.028 A 
ATOM     18  Cl  UNL     1      -3.475   5.289   0.894  1.00  0.00    -0.084 Cl
ATOM     19  Cl  UNL     1      -5.793   0.673  -0.016  1.00  0.00    -0.084 Cl
ENDBRANCH   8  12
BRANCH   7  20
ATOM     20  N   UNL     1     -14.403   5.651   1.357  1.00  0.00     0.062 N 
ATOM     21  O   UNL     1     -14.746   4.793   2.084  1.00  0.00    -0.258 OA
ATOM     22  O   UNL     1     -15.320   6.528   1.053  1.00  0.00    -0.258 OA
ENDBRANCH   7  20
TORSDOF 2
ENDMDL
MODEL 3
REMARK VINA RESULT:    -4.420      5.124      7.587
REMARK INTER + INTRA:          -5.251
REMARK INTER:                  -4.951
REMARK INTRA:                  -0.299
REMARK UNBOUND:                -0.315
REMARK SMILES O=[N+]([O-])c1ccc2c(c1)N[C@@H](c1cc(Cl)cc(Cl)c1)N2
REMARK SMILES IDX 7 1 8 2 5 3 6 4 20 5 10 6 4 7 11 8 9 9 12 12 14 13 13 14
REMARK SMILES IDX 16 15 17 16 19 17 15 18 18 19 2 20 3 21 1 22
REMARK H PARENT 20 10 10 11
ROOT
ATOM      1  C   UNL     1      -6.905   4.816   0.830  1.00  0.00     0.060 A 
ATOM      2  C   UNL     1      -7.341   3.522   0.983  1.00  0.00     0.066 A 
ATOM      3  C   UNL     1      -4.701   4.093   0.418  1.00  0.00     0.088 A 
ATOM      4  C   UNL     1      -5.714   5.086   0.338  1.00  0.00     0.035 A 
ATOM      5  N   UNL     1      -8.022   5.721   1.008  1.00  0.00    -0.360 N 
ATOM      6  N   UNL     1      -8.715   3.629   1.213  1.00  0.00    -0.360 N 
ATOM      7  C   UNL     1      -5.081   2.786   0.713  1.00  0.00     0.271 A 
ATOM      8  C   UNL     1      -9.070   4.898   0.690  1.00  0.00     0.205 C 
ATOM      9  C   UNL     1      -6.455   2.492   0.977  1.00  0.00     0.113 A 
ATOM     10  H   UNL     1      -8.028   6.711   1.293  1.00  0.00     0.163 HD
ATOM     11  H   UNL     1      -9.333   2.939   1.664  1.00  0.00     0.163 HD
ENDROOT
BRANCH   8  12
ATOM     12  C   UNL     1     -10.518   5.359   1.016  1.00  0.00    -0.003 A 
ATOM     13  C   UNL     1     -12.849   4.676   1.502  1.00  0.00     0.042 A 
ATOM     14  C   UNL     1     -11.420   4.535   1.728  1.00  0.00     0.028 A 
ATOM     15  C   UNL     1     -13.326   5.987   1.049  1.00  0.00     0.041 A 
ATOM     16  C   UNL     1     -12.303   6.953   0.663  1.00  0.00     0.042 A 
ATOM     17  C   UNL     1     -10.937   6.626   0.473  1.00  0.00     0.028 A 
ATOM     18  Cl  UNL     1     -13.955   3.682   1.971  1.00  0.00    -0.084 Cl
ATOM     19  Cl  UNL     1     -12.845   8.541   0.337  1.00  0.00    -0.084 Cl
ENDBRANCH   8  12
BRANCH   7  20
ATOM     20  N   UNL     1      -4.218   1.710   0.668  1.00  0.00     0.062 N 
ATOM     21  O   UNL     1      -3.055   1.882   0.663  1.00  0.00    -0.258 OA
ATOM     22  O   UNL     1      -4.602   0.476   0.857  1.00  0.00    -0.258 OA
ENDBRANCH   7  20
TORSDOF 2
ENDMDL
MODEL 4
REMARK VINA RESULT:    -4.361      1.411      2.082
REMARK INTER + INTRA:          -5.185
REMARK INTER:                  -4.885
REMARK INTRA:                  -0.300
REMARK UNBOUND:                -0.315
REMARK SMILES O=[N+]([O-])c1ccc2c(c1)N[C@@H](c1cc(Cl)cc(Cl)c1)N2
REMARK SMILES IDX 7 1 8 2 5 3 6 4 20 5 10 6 4 7 11 8 9 9 12 12 14 13 13 14
REMARK SMILES IDX 16 15 17 16 19 17 15 18 18 19 2 20 3 21 1 22
REMARK H PARENT 20 10 10 11
ROOT
ATOM      1  C   UNL     1     -10.772   5.627   0.563  1.00  0.00     0.060 A 
ATOM      2  C   UNL     1     -10.998   4.399   1.136  1.00  0.00     0.066 A 
ATOM      3  C   UNL     1     -12.998   6.291   0.949  1.00  0.00     0.088 A 
ATOM      4  C   UNL     1     -11.641   6.609   0.675  1.00  0.00     0.035 A 
ATOM      5  N   UNL     1      -9.392   5.704   0.126  1.00  0.00    -0.360 N 
ATOM      6  N   UNL     1      -9.765   3.744   1.087  1.00  0.00    -0.360 N 
ATOM      7  C   UNL     1     -13.297   5.007   1.400  1.00  0.00     0.271 A 
ATOM      8  C   UNL     1      -8.810   4.785   0.960  1.00  0.00     0.205 C 
ATOM      9  C   UNL     1     -12.251   4.040   1.520  1.00  0.00     0.113 A 
ATOM     10  H   UNL     1      -8.966   6.287  -0.608  1.00  0.00     0.163 HD
ATOM     11  H   UNL     1      -9.588   2.731   1.133  1.00  0.00     0.163 HD
ENDROOT
BRANCH   8  12
ATOM     12  C   UNL     1      -7.359   4.310   0.665  1.00  0.00    -0.003 A 
ATOM     13  C   UNL     1      -5.829   2.384   0.382  1.00  0.00     0.042 A 
ATOM     14  C   UNL     1      -7.091   3.044   0.096  1.00  0.00     0.028 A 
ATOM     15  C   UNL     1      -4.688   3.244   0.717  1.00  0.00     0.041 A 
ATOM     16  C   UNL     1      -4.981   4.655   0.940  1.00  0.00     0.042 A 
ATOM     17  C   UNL     1      -6.290   5.177   1.090  1.00  0.00     0.028 A 
ATOM     18  Cl  UNL     1      -5.483   0.893   0.084  1.00  0.00    -0.084 Cl
ATOM     19  Cl  UNL     1      -3.633   5.690   1.123  1.00  0.00    -0.084 Cl
ENDBRANCH   8  12
BRANCH   7  20
ATOM     20  N   UNL     1     -14.546   4.624   1.844  1.00  0.00     0.062 N 
ATOM     21  O   UNL     1     -14.682   3.615   2.432  1.00  0.00    -0.258 OA
ATOM     22  O   UNL     1     -15.579   5.421   1.851  1.00  0.00    -0.258 OA
ENDBRANCH   7  20
TORSDOF 2
ENDMDL
MODEL 5
REMARK VINA RESULT:    -4.355      5.122      7.793
REMARK INTER + INTRA:          -5.179
REMARK INTER:                  -4.861
REMARK INTRA:                  -0.318
REMARK UNBOUND:                -0.315
REMARK SMILES O=[N+]([O-])c1ccc2c(c1)N[C@@H](c1cc(Cl)cc(Cl)c1)N2
REMARK SMILES IDX 7 1 8 2 5 3 6 4 20 5 10 6 4 7 11 8 9 9 12 12 14 13 13 14
REMARK SMILES IDX 16 15 17 16 19 17 15 18 18 19 2 20 3 21 1 22
REMARK H PARENT 20 10 10 11
ROOT
ATOM      1  C   UNL     1      -6.803   4.763   0.651  1.00  0.00     0.060 A 
ATOM      2  C   UNL     1      -7.213   3.452   0.674  1.00  0.00     0.066 A 
ATOM      3  C   UNL     1      -4.540   4.122   0.524  1.00  0.00     0.088 A 
ATOM      4  C   UNL     1      -5.565   5.091   0.351  1.00  0.00     0.035 A 
ATOM      5  N   UNL     1      -7.965   5.628   0.712  1.00  0.00    -0.360 N 
ATOM      6  N   UNL     1      -8.609   3.510   0.710  1.00  0.00    -0.360 N 
ATOM      7  C   UNL     1      -4.914   2.791   0.695  1.00  0.00     0.271 A 
ATOM      8  C   UNL     1      -8.929   4.797   0.206  1.00  0.00     0.205 C 
ATOM      9  C   UNL     1      -6.301   2.447   0.744  1.00  0.00     0.113 A 
ATOM     10  H   UNL     1      -8.044   6.600   1.044  1.00  0.00     0.163 HD
ATOM     11  H   UNL     1      -9.261   2.781   1.031  1.00  0.00     0.163 HD
ENDROOT
BRANCH   8  12
ATOM     12  C   UNL     1     -10.423   5.201   0.344  1.00  0.00    -0.003 A 
ATOM     13  C   UNL     1     -12.063   7.051   0.484  1.00  0.00     0.042 A 
ATOM     14  C   UNL     1     -10.910   6.433  -0.149  1.00  0.00     0.028 A 
ATOM     15  C   UNL     1     -13.010   6.158   1.162  1.00  0.00     0.041 A 
ATOM     16  C   UNL     1     -12.593   4.769   1.321  1.00  0.00     0.042 A 
ATOM     17  C   UNL     1     -11.274   4.307   1.088  1.00  0.00     0.028 A 
ATOM     18  Cl  UNL     1     -12.555   8.514   0.267  1.00  0.00    -0.084 Cl
ATOM     19  Cl  UNL     1     -13.774   3.688   1.919  1.00  0.00    -0.084 Cl
ENDBRANCH   8  12
BRANCH   7  20
ATOM     20  N   UNL     1      -4.018   1.742   0.720  1.00  0.00     0.062 N 
ATOM     21  O   UNL     1      -2.861   1.949   0.699  1.00  0.00    -0.258 OA
ATOM     22  O   UNL     1      -4.363   0.513   0.992  1.00  0.00    -0.258 OA
ENDBRANCH   7  20
TORSDOF 2
ENDMDL
MODEL 6
REMARK VINA RESULT:    -4.338      0.669      2.113
REMARK INTER + INTRA:          -5.159
REMARK INTER:                  -4.860
REMARK INTRA:                  -0.300
REMARK UNBOUND:                -0.315
REMARK SMILES O=[N+]([O-])c1ccc2c(c1)N[C@@H](c1cc(Cl)cc(Cl)c1)N2
REMARK SMILES IDX 7 1 8 2 5 3 6 4 20 5 10 6 4 7 11 8 9 9 12 12 14 13 13 14
REMARK SMILES IDX 16 15 17 16 19 17 15 18 18 19 2 20 3 21 1 22
REMARK H PARENT 20 10 10 11
ROOT
ATOM      1  C   UNL     1     -10.865   5.221   1.134  1.00  0.00     0.060 A 
ATOM      2  C   UNL     1     -10.245   6.305   0.560  1.00  0.00     0.066 A 
ATOM      3  C   UNL     1     -12.971   6.267   0.989  1.00  0.00     0.088 A 
ATOM      4  C   UNL     1     -12.175   5.098   1.132  1.00  0.00     0.035 A 
ATOM      5  N   UNL     1      -9.875   4.205   1.431  1.00  0.00    -0.360 N 
ATOM      6  N   UNL     1      -8.898   5.943   0.470  1.00  0.00    -0.360 N 
ATOM      7  C   UNL     1     -12.354   7.434   0.544  1.00  0.00     0.271 A 
ATOM      8  C   UNL     1      -8.901   4.526   0.523  1.00  0.00     0.205 C 
ATOM      9  C   UNL     1     -10.946   7.438   0.297  1.00  0.00     0.113 A 
ATOM     10  H   UNL     1      -9.898   3.449   2.130  1.00  0.00     0.163 HD
ATOM     11  H   UNL     1      -8.084   6.568   0.384  1.00  0.00     0.163 HD
ENDROOT
BRANCH   8  12
ATOM     12  C   UNL     1      -7.497   3.874   0.659  1.00  0.00    -0.003 A 
ATOM     13  C   UNL     1      -5.045   4.224   0.698  1.00  0.00     0.042 A 
ATOM     14  C   UNL     1      -6.380   4.600   1.132  1.00  0.00     0.028 A 
ATOM     15  C   UNL     1      -4.841   2.824   0.308  1.00  0.00     0.041 A 
ATOM     16  C   UNL     1      -6.039   2.001   0.189  1.00  0.00     0.042 A 
ATOM     17  C   UNL     1      -7.358   2.520   0.186  1.00  0.00     0.028 A 
ATOM     18  Cl  UNL     1      -3.748   5.068   0.883  1.00  0.00    -0.084 Cl
ATOM     19  Cl  UNL     1      -5.788   0.329  -0.059  1.00  0.00    -0.084 Cl
ENDBRANCH   8  12
BRANCH   7  20
ATOM     20  N   UNL     1     -13.040   8.586   0.220  1.00  0.00     0.062 N 
ATOM     21  O   UNL     1     -12.492   9.468  -0.331  1.00  0.00    -0.258 OA
ATOM     22  O   UNL     1     -14.340   8.688   0.285  1.00  0.00    -0.258 OA
ENDBRANCH   7  20
TORSDOF 2
ENDMDL
MODEL 7
REMARK VINA RESULT:    -4.301      5.003      7.655
REMARK INTER + INTRA:          -5.119
REMARK INTER:                  -4.820
REMARK INTRA:                  -0.299
REMARK UNBOUND:                -0.315
REMARK SMILES O=[N+]([O-])c1ccc2c(c1)N[C@@H](c1cc(Cl)cc(Cl)c1)N2
REMARK SMILES IDX 7 1 8 2 5 3 6 4 20 5 10 6 4 7 11 8 9 9 12 12 14 13 13 14
REMARK SMILES IDX 16 15 17 16 19 17 15 18 18 19 2 20 3 21 1 22
REMARK H PARENT 20 10 10 11
ROOT
ATOM      1  C   UNL     1      -7.542   3.057   0.194  1.00  0.00     0.060 A 
ATOM      2  C   UNL     1      -6.981   4.308   0.292  1.00  0.00     0.066 A 
ATOM      3  C   UNL     1      -5.424   2.029   0.284  1.00  0.00     0.088 A 
ATOM      4  C   UNL     1      -6.838   1.968   0.420  1.00  0.00     0.035 A 
ATOM      5  N   UNL     1      -8.983   3.184   0.109  1.00  0.00    -0.360 N 
ATOM      6  N   UNL     1      -8.066   5.189   0.306  1.00  0.00    -0.360 N 
ATOM      7  C   UNL     1      -4.820   3.283   0.236  1.00  0.00     0.271 A 
ATOM      8  C   UNL     1      -9.168   4.398   0.717  1.00  0.00     0.205 C 
ATOM      9  C   UNL     1      -5.632   4.460   0.268  1.00  0.00     0.113 A 
ATOM     10  H   UNL     1      -9.678   2.540  -0.296  1.00  0.00     0.163 HD
ATOM     11  H   UNL     1      -8.064   6.192   0.069  1.00  0.00     0.163 HD
ENDROOT
BRANCH   8  12
ATOM     12  C   UNL     1     -10.553   5.096   0.605  1.00  0.00    -0.003 A 
ATOM     13  C   UNL     1     -11.781   7.233   0.369  1.00  0.00     0.042 A 
ATOM     14  C   UNL     1     -10.708   6.342  -0.042  1.00  0.00     0.028 A 
ATOM     15  C   UNL     1     -12.970   6.613   0.965  1.00  0.00     0.041 A 
ATOM     16  C   UNL     1     -12.872   5.193   1.283  1.00  0.00     0.042 A 
ATOM     17  C   UNL     1     -11.658   4.464   1.280  1.00  0.00     0.028 A 
ATOM     18  Cl  UNL     1     -11.930   8.734  -0.024  1.00  0.00    -0.084 Cl
ATOM     19  Cl  UNL     1     -14.317   4.427   1.780  1.00  0.00    -0.084 Cl
ENDBRANCH   8  12
BRANCH   7  20
ATOM     20  N   UNL     1      -3.454   3.476   0.260  1.00  0.00     0.062 N 
ATOM     21  O   UNL     1      -2.726   2.555   0.327  1.00  0.00    -0.258 OA
ATOM     22  O   UNL     1      -2.888   4.620  -0.014  1.00  0.00    -0.258 OA
ENDBRANCH   7  20
TORSDOF 2
ENDMDL
MODEL 8
REMARK VINA RESULT:    -4.087      2.954      4.273
REMARK INTER + INTRA:          -4.880
REMARK INTER:                  -4.573
REMARK INTRA:                  -0.307
REMARK UNBOUND:                -0.315
REMARK SMILES O=[N+]([O-])c1ccc2c(c1)N[C@@H](c1cc(Cl)cc(Cl)c1)N2
REMARK SMILES IDX 7 1 8 2 5 3 6 4 20 5 10 6 4 7 11 8 9 9 12 12 14 13 13 14
REMARK SMILES IDX 16 15 17 16 19 17 15 18 18 19 2 20 3 21 1 22
REMARK H PARENT 20 10 10 11
ROOT
ATOM      1  C   UNL     1     -12.128   8.486   0.112  1.00  0.00     0.060 A 
ATOM      2  C   UNL     1     -11.506   8.506  -1.114  1.00  0.00     0.066 A 
ATOM      3  C   UNL     1     -13.672  10.129  -0.572  1.00  0.00     0.088 A 
ATOM      4  C   UNL     1     -13.288   9.077   0.304  1.00  0.00     0.035 A 
ATOM      5  N   UNL     1     -11.467   7.522   0.968  1.00  0.00    -0.360 N 
ATOM      6  N   UNL     1     -10.501   7.539  -1.024  1.00  0.00    -0.360 N 
ATOM      7  C   UNL     1     -12.974  10.278  -1.769  1.00  0.00     0.271 A 
ATOM      8  C   UNL     1     -10.914   6.687   0.032  1.00  0.00     0.205 C 
ATOM      9  C   UNL     1     -11.871   9.416  -2.055  1.00  0.00     0.113 A 
ATOM     10  H   UNL     1     -11.424   7.475   1.996  1.00  0.00     0.163 HD
ATOM     11  H   UNL     1      -9.650   7.462  -1.598  1.00  0.00     0.163 HD
ENDROOT
BRANCH   8  12
ATOM     12  C   UNL     1      -9.854   5.644   0.483  1.00  0.00    -0.003 A 
ATOM     13  C   UNL     1      -7.924   5.157   1.957  1.00  0.00     0.042 A 
ATOM     14  C   UNL     1      -9.263   5.689   1.766  1.00  0.00     0.028 A 
ATOM     15  C   UNL     1      -7.489   4.101   1.035  1.00  0.00     0.041 A 
ATOM     16  C   UNL     1      -8.355   3.840  -0.110  1.00  0.00     0.042 A 
ATOM     17  C   UNL     1      -9.423   4.685  -0.502  1.00  0.00     0.028 A 
ATOM     18  Cl  UNL     1      -7.019   5.374   3.207  1.00  0.00    -0.084 Cl
ATOM     19  Cl  UNL     1      -7.960   2.478  -1.063  1.00  0.00    -0.084 Cl
ENDBRANCH   8  12
BRANCH   7  20
ATOM     20  N   UNL     1     -13.345  11.156  -2.766  1.00  0.00     0.062 N 
ATOM     21  O   UNL     1     -13.310  12.316  -2.579  1.00  0.00    -0.258 OA
ATOM     22  O   UNL     1     -13.529  10.794  -4.007  1.00  0.00    -0.258 OA
ENDBRANCH   7  20
TORSDOF 2
ENDMDL
MODEL 9
REMARK VINA RESULT:    -3.908      4.037      5.828
REMARK INTER + INTRA:          -4.679
REMARK INTER:                  -4.388
REMARK INTRA:                  -0.292
REMARK UNBOUND:                -0.315
REMARK SMILES O=[N+]([O-])c1ccc2c(c1)N[C@@H](c1cc(Cl)cc(Cl)c1)N2
REMARK SMILES IDX 7 1 8 2 5 3 6 4 20 5 10 6 4 7 11 8 9 9 12 12 14 13 13 14
REMARK SMILES IDX 16 15 17 16 19 17 15 18 18 19 2 20 3 21 1 22
REMARK H PARENT 20 10 10 11
ROOT
ATOM      1  C   UNL     1     -13.182   9.668  -0.413  1.00  0.00     0.060 A 
ATOM      2  C   UNL     1     -12.325   9.525  -1.478  1.00  0.00     0.066 A 
ATOM      3  C   UNL     1     -14.294  11.460  -1.464  1.00  0.00     0.088 A 
ATOM      4  C   UNL     1     -14.257  10.423  -0.492  1.00  0.00     0.035 A 
ATOM      5  N   UNL     1     -12.861   8.678   0.596  1.00  0.00    -0.360 N 
ATOM      6  N   UNL     1     -11.514   8.437  -1.144  1.00  0.00    -0.360 N 
ATOM      7  C   UNL     1     -13.350  11.436  -2.488  1.00  0.00     0.271 A 
ATOM      8  C   UNL     1     -12.256   7.719  -0.173  1.00  0.00     0.205 C 
ATOM      9  C   UNL     1     -12.350  10.415  -2.504  1.00  0.00     0.113 A 
ATOM     10  H   UNL     1     -13.039   8.691   1.610  1.00  0.00     0.163 HD
ATOM     11  H   UNL     1     -10.583   8.209  -1.521  1.00  0.00     0.163 HD
ENDROOT
BRANCH   8  12
ATOM     12  C   UNL     1     -11.477   6.570   0.528  1.00  0.00    -0.003 A 
ATOM     13  C   UNL     1      -9.366   5.282   0.664  1.00  0.00     0.042 A 
ATOM     14  C   UNL     1     -10.065   6.554   0.585  1.00  0.00     0.028 A 
ATOM     15  C   UNL     1     -10.093   4.160   1.270  1.00  0.00     0.041 A 
ATOM     16  C   UNL     1     -11.512   4.371   1.534  1.00  0.00     0.042 A 
ATOM     17  C   UNL     1     -12.255   5.467   1.032  1.00  0.00     0.028 A 
ATOM     18  Cl  UNL     1      -7.839   5.058   0.450  1.00  0.00    -0.084 Cl
ATOM     19  Cl  UNL     1     -12.306   3.148   2.426  1.00  0.00    -0.084 Cl
ENDBRANCH   8  12
BRANCH   7  20
ATOM     20  N   UNL     1     -13.374  12.292  -3.570  1.00  0.00     0.062 N 
ATOM     21  O   UNL     1     -12.799  13.317  -3.529  1.00  0.00    -0.258 OA
ATOM     22  O   UNL     1     -13.818  11.945  -4.748  1.00  0.00    -0.258 OA
ENDBRANCH   7  20
TORSDOF 2
ENDMDL
