MODEL 1
REMARK VINA RESULT:    -4.717      0.000      0.000
REMARK INTER + INTRA:          -5.564
REMARK INTER:                  -5.268
REMARK INTRA:                  -0.296
REMARK UNBOUND:                -0.296
REMARK SMILES O=[N+]([O-])c1ccc2c(c1)N[C@@H](c1cc(Cl)cc(Cl)c1)N2
REMARK SMILES IDX 7 1 8 2 5 3 6 4 20 5 10 6 4 7 11 8 9 9 12 12 14 13 13 14
REMARK SMILES IDX 16 15 17 16 19 17 15 18 18 19 2 20 3 21 1 22
REMARK H PARENT 20 10 10 11
ROOT
ATOM      1  C   UNL     1      -3.027   0.073   1.718  1.00  0.00     0.060 A 
ATOM      2  C   UNL     1      -1.771  -0.319   2.117  1.00  0.00     0.066 A 
ATOM      3  C   UNL     1      -3.536   0.868   3.877  1.00  0.00     0.088 A 
ATOM      4  C   UNL     1      -3.782   0.838   2.477  1.00  0.00     0.035 A 
ATOM      5  N   UNL     1      -3.201  -0.238   0.314  1.00  0.00    -0.360 N 
ATOM      6  N   UNL     1      -1.169  -0.828   0.964  1.00  0.00    -0.360 N 
ATOM      7  C   UNL     1      -2.331   0.349   4.345  1.00  0.00     0.271 A 
ATOM      8  C   UNL     1      -1.897  -0.252  -0.108  1.00  0.00     0.205 C 
ATOM      9  C   UNL     1      -1.409  -0.239   3.424  1.00  0.00     0.113 A 
ATOM     10  H   UNL     1      -4.066  -0.403  -0.221  1.00  0.00     0.163 HD
ATOM     11  H   UNL     1      -0.372  -1.478   0.905  1.00  0.00     0.163 HD
ENDROOT
BRANCH   8  12
ATOM     12  C   UNL     1      -1.564  -0.830  -1.512  1.00  0.00    -0.003 A 
ATOM     13  C   UNL     1       0.207  -1.510  -3.103  1.00  0.00     0.042 A 
ATOM     14  C   UNL     1      -0.358  -1.523  -1.764  1.00  0.00     0.028 A 
ATOM     15  C   UNL     1      -0.726  -1.323  -4.219  1.00  0.00     0.041 A 
ATOM     16  C   UNL     1      -2.094  -0.954  -3.868  1.00  0.00     0.042 A 
ATOM     17  C   UNL     1      -2.493  -0.540  -2.574  1.00  0.00     0.028 A 
ATOM     18  Cl  UNL     1       1.645  -1.967  -3.497  1.00  0.00    -0.084 Cl
ATOM     19  Cl  UNL     1      -3.227  -0.941  -5.148  1.00  0.00    -0.084 Cl
ENDBRANCH   8  12
BRANCH   7  20
ATOM     20  N   UNL     1      -1.909   0.456   5.655  1.00  0.00     0.062 N 
ATOM     21  O   UNL     1      -0.827   0.845   5.900  1.00  0.00    -0.258 OA
ATOM     22  O   UNL     1      -2.717   0.364   6.677  1.00  0.00    -0.258 OA
ENDBRANCH   7  20
TORSDOF 2
ENDMDL
MODEL 2
REMARK VINA RESULT:    -4.266      1.056      2.696
REMARK INTER + INTRA:          -5.061
REMARK INTER:                  -4.762
REMARK INTRA:                  -0.299
REMARK UNBOUND:                -0.296
REMARK SMILES O=[N+]([O-])c1ccc2c(c1)N[C@@H](c1cc(Cl)cc(Cl)c1)N2
REMARK SMILES IDX 7 1 8 2 5 3 6 4 20 5 10 6 4 7 11 8 9 9 12 12 14 13 13 14
REMARK SMILES IDX 16 15 17 16 19 17 15 18 18 19 2 20 3 21 1 22
REMARK H PARENT 20 10 10 11
ROOT
ATOM      1  C   UNL     1      -1.498  -0.271   1.991  1.00  0.00     0.060 A 
ATOM      2  C   UNL     1      -2.786   0.054   1.639  1.00  0.00     0.066 A 
ATOM      3  C   UNL     1      -2.014  -0.112   4.284  1.00  0.00     0.088 A 
ATOM      4  C   UNL     1      -1.180  -0.576   3.230  1.00  0.00     0.035 A 
ATOM      5  N   UNL     1      -0.716  -0.490   0.790  1.00  0.00    -0.360 N 
ATOM      6  N   UNL     1      -2.805  -0.001   0.243  1.00  0.00    -0.360 N 
ATOM      7  C   UNL     1      -3.283   0.363   3.959  1.00  0.00     0.271 A 
ATOM      8  C   UNL     1      -1.703  -0.826  -0.099  1.00  0.00     0.205 C 
ATOM      9  C   UNL     1      -3.686   0.420   2.589  1.00  0.00     0.113 A 
ATOM     10  H   UNL     1       0.301  -0.414   0.645  1.00  0.00     0.163 HD
ATOM     11  H   UNL     1      -3.471   0.456  -0.396  1.00  0.00     0.163 HD
ENDROOT
BRANCH   8  12
ATOM     12  C   UNL     1      -1.368  -0.873  -1.616  1.00  0.00    -0.003 A 
ATOM     13  C   UNL     1      -2.246  -1.019  -3.927  1.00  0.00     0.042 A 
ATOM     14  C   UNL     1      -2.287  -0.436  -2.596  1.00  0.00     0.028 A 
ATOM     15  C   UNL     1      -0.957  -1.552  -4.382  1.00  0.00     0.041 A 
ATOM     16  C   UNL     1       0.100  -1.640  -3.380  1.00  0.00     0.042 A 
ATOM     17  C   UNL     1      -0.115  -1.479  -1.988  1.00  0.00     0.028 A 
ATOM     18  Cl  UNL     1      -3.340  -0.872  -5.028  1.00  0.00    -0.084 Cl
ATOM     19  Cl  UNL     1       1.654  -2.061  -3.952  1.00  0.00    -0.084 Cl
ENDBRANCH   8  12
BRANCH   7  20
ATOM     20  N   UNL     1      -4.238   0.696   4.898  1.00  0.00     0.062 N 
ATOM     21  O   UNL     1      -5.381   0.585   4.646  1.00  0.00    -0.258 OA
ATOM     22  O   UNL     1      -3.959   0.925   6.153  1.00  0.00    -0.258 OA
ENDBRANCH   7  20
TORSDOF 2
ENDMDL
MODEL 3
REMARK VINA RESULT:    -3.998     10.699     11.478
REMARK INTER + INTRA:          -4.762
REMARK INTER:                  -4.446
REMARK INTRA:                  -0.316
REMARK UNBOUND:                -0.296
REMARK SMILES O=[N+]([O-])c1ccc2c(c1)N[C@@H](c1cc(Cl)cc(Cl)c1)N2
REMARK SMILES IDX 7 1 8 2 5 3 6 4 20 5 10 6 4 7 11 8 9 9 12 12 14 13 13 14
REMARK SMILES IDX 16 15 17 16 19 17 15 18 18 19 2 20 3 21 1 22
REMARK H PARENT 20 10 10 11
ROOT
ATOM      1  C   UNL     1      -1.855 -11.726   2.699  1.00  0.00     0.060 A 
ATOM      2  C   UNL     1      -1.135 -11.457   3.839  1.00  0.00     0.066 A 
ATOM      3  C   UNL     1      -1.811 -14.040   3.138  1.00  0.00     0.088 A 
ATOM      4  C   UNL     1      -2.375 -12.914   2.479  1.00  0.00     0.035 A 
ATOM      5  N   UNL     1      -2.154 -10.481   2.019  1.00  0.00    -0.360 N 
ATOM      6  N   UNL     1      -1.027 -10.065   3.878  1.00  0.00    -0.360 N 
ATOM      7  C   UNL     1      -0.957 -13.813   4.215  1.00  0.00     0.271 A 
ATOM      8  C   UNL     1      -2.090  -9.597   3.064  1.00  0.00     0.205 C 
ATOM      9  C   UNL     1      -0.633 -12.472   4.590  1.00  0.00     0.113 A 
ATOM     10  H   UNL     1      -2.359 -10.308   1.024  1.00  0.00     0.163 HD
ATOM     11  H   UNL     1      -0.329  -9.502   4.386  1.00  0.00     0.163 HD
ENDROOT
BRANCH   8  12
ATOM     12  C   UNL     1      -2.063  -8.073   2.763  1.00  0.00    -0.003 A 
ATOM     13  C   UNL     1      -2.951  -6.219   1.383  1.00  0.00     0.042 A 
ATOM     14  C   UNL     1      -3.170  -7.407   2.191  1.00  0.00     0.028 A 
ATOM     15  C   UNL     1      -1.746  -5.432   1.668  1.00  0.00     0.041 A 
ATOM     16  C   UNL     1      -0.780  -6.030   2.582  1.00  0.00     0.042 A 
ATOM     17  C   UNL     1      -0.820  -7.384   3.000  1.00  0.00     0.028 A 
ATOM     18  Cl  UNL     1      -3.999  -5.533   0.456  1.00  0.00    -0.084 Cl
ATOM     19  Cl  UNL     1       0.516  -5.031   3.076  1.00  0.00    -0.084 Cl
ENDBRANCH   8  12
BRANCH   7  20
ATOM     20  N   UNL     1      -0.470 -14.816   5.029  1.00  0.00     0.062 N 
ATOM     21  O   UNL     1      -0.065 -14.563   6.104  1.00  0.00    -0.258 OA
ATOM     22  O   UNL     1      -0.629 -16.086   4.774  1.00  0.00    -0.258 OA
ENDBRANCH   7  20
TORSDOF 2
ENDMDL
MODEL 4
REMARK VINA RESULT:    -3.987     10.834     11.520
REMARK INTER + INTRA:          -4.750
REMARK INTER:                  -4.434
REMARK INTRA:                  -0.316
REMARK UNBOUND:                -0.296
REMARK SMILES O=[N+]([O-])c1ccc2c(c1)N[C@@H](c1cc(Cl)cc(Cl)c1)N2
REMARK SMILES IDX 7 1 8 2 5 3 6 4 20 5 10 6 4 7 11 8 9 9 12 12 14 13 13 14
REMARK SMILES IDX 16 15 17 16 19 17 15 18 18 19 2 20 3 21 1 22
REMARK H PARENT 20 10 10 11
ROOT
ATOM      1  C   UNL     1      -0.964 -11.407   3.903  1.00  0.00     0.060 A 
ATOM      2  C   UNL     1      -1.695 -11.747   2.790  1.00  0.00     0.066 A 
ATOM      3  C   UNL     1      -0.768 -13.665   4.545  1.00  0.00     0.088 A 
ATOM      4  C   UNL     1      -0.328 -12.315   4.612  1.00  0.00     0.035 A 
ATOM      5  N   UNL     1      -0.800  -9.967   3.946  1.00  0.00    -0.360 N 
ATOM      6  N   UNL     1      -1.943 -10.536   2.138  1.00  0.00    -0.360 N 
ATOM      7  C   UNL     1      -1.628 -14.027   3.511  1.00  0.00     0.271 A 
ATOM      8  C   UNL     1      -0.942  -9.655   2.619  1.00  0.00     0.205 C 
ATOM      9  C   UNL     1      -2.083 -13.033   2.589  1.00  0.00     0.113 A 
ATOM     10  H   UNL     1      -0.624  -9.349   4.751  1.00  0.00     0.163 HD
ATOM     11  H   UNL     1      -2.689 -10.329   1.458  1.00  0.00     0.163 HD
ENDROOT
BRANCH   8  12
ATOM     12  C   UNL     1      -1.127  -8.167   2.209  1.00  0.00    -0.003 A 
ATOM     13  C   UNL     1      -0.457  -5.815   2.596  1.00  0.00     0.042 A 
ATOM     14  C   UNL     1      -0.104  -7.210   2.397  1.00  0.00     0.028 A 
ATOM     15  C   UNL     1      -1.728  -5.360   2.019  1.00  0.00     0.041 A 
ATOM     16  C   UNL     1      -2.610  -6.396   1.492  1.00  0.00     0.042 A 
ATOM     17  C   UNL     1      -2.426  -7.782   1.721  1.00  0.00     0.028 A 
ATOM     18  Cl  UNL     1       0.497  -4.687   3.094  1.00  0.00    -0.084 Cl
ATOM     19  Cl  UNL     1      -3.986  -5.855   0.636  1.00  0.00    -0.084 Cl
ENDBRANCH   8  12
BRANCH   7  20
ATOM     20  N   UNL     1      -2.003 -15.329   3.248  1.00  0.00     0.062 N 
ATOM     21  O   UNL     1      -2.423 -15.623   2.190  1.00  0.00    -0.258 OA
ATOM     22  O   UNL     1      -1.715 -16.330   4.035  1.00  0.00    -0.258 OA
ENDBRANCH   7  20
TORSDOF 2
ENDMDL
MODEL 5
REMARK VINA RESULT:    -3.961     14.400     15.074
REMARK INTER + INTRA:          -4.720
REMARK INTER:                  -4.409
REMARK INTRA:                  -0.311
REMARK UNBOUND:                -0.296
REMARK SMILES O=[N+]([O-])c1ccc2c(c1)N[C@@H](c1cc(Cl)cc(Cl)c1)N2
REMARK SMILES IDX 7 1 8 2 5 3 6 4 20 5 10 6 4 7 11 8 9 9 12 12 14 13 13 14
REMARK SMILES IDX 16 15 17 16 19 17 15 18 18 19 2 20 3 21 1 22
REMARK H PARENT 20 10 10 11
ROOT
ATOM      1  C   UNL     1      -0.038 -13.880   7.781  1.00  0.00     0.060 A 
ATOM      2  C   UNL     1       0.458 -14.865   6.961  1.00  0.00     0.066 A 
ATOM      3  C   UNL     1       0.716 -15.010   9.705  1.00  0.00     0.088 A 
ATOM      4  C   UNL     1       0.278 -13.823   9.057  1.00  0.00     0.035 A 
ATOM      5  N   UNL     1      -0.659 -12.851   6.970  1.00  0.00    -0.360 N 
ATOM      6  N   UNL     1       0.180 -14.428   5.663  1.00  0.00    -0.360 N 
ATOM      7  C   UNL     1       1.097 -16.091   8.913  1.00  0.00     0.271 A 
ATOM      8  C   UNL     1       0.004 -13.026   5.784  1.00  0.00     0.205 C 
ATOM      9  C   UNL     1       0.986 -15.999   7.491  1.00  0.00     0.113 A 
ATOM     10  H   UNL     1      -1.396 -12.174   7.217  1.00  0.00     0.163 HD
ATOM     11  H   UNL     1       0.116 -14.999   4.808  1.00  0.00     0.163 HD
ENDROOT
BRANCH   8  12
ATOM     12  C   UNL     1      -0.534 -12.322   4.507  1.00  0.00    -0.003 A 
ATOM     13  C   UNL     1      -1.199 -10.185   3.446  1.00  0.00     0.042 A 
ATOM     14  C   UNL     1      -0.257 -10.963   4.234  1.00  0.00     0.028 A 
ATOM     15  C   UNL     1      -2.039 -10.921   2.495  1.00  0.00     0.041 A 
ATOM     16  C   UNL     1      -2.002 -12.377   2.586  1.00  0.00     0.042 A 
ATOM     17  C   UNL     1      -1.413 -13.087   3.661  1.00  0.00     0.028 A 
ATOM     18  Cl  UNL     1      -1.204  -8.634   3.288  1.00  0.00    -0.084 Cl
ATOM     19  Cl  UNL     1      -2.813 -13.234   1.350  1.00  0.00    -0.084 Cl
ENDBRANCH   8  12
BRANCH   7  20
ATOM     20  N   UNL     1       1.682 -17.237   9.413  1.00  0.00     0.062 N 
ATOM     21  O   UNL     1       1.563 -17.516  10.549  1.00  0.00    -0.258 OA
ATOM     22  O   UNL     1       2.187 -18.172   8.655  1.00  0.00    -0.258 OA
ENDBRANCH   7  20
TORSDOF 2
ENDMDL
MODEL 6
REMARK VINA RESULT:    -3.899     12.942     13.617
REMARK INTER + INTRA:          -4.652
REMARK INTER:                  -4.346
REMARK INTRA:                  -0.306
REMARK UNBOUND:                -0.296
REMARK SMILES O=[N+]([O-])c1ccc2c(c1)N[C@@H](c1cc(Cl)cc(Cl)c1)N2
REMARK SMILES IDX 7 1 8 2 5 3 6 4 20 5 10 6 4 7 11 8 9 9 12 12 14 13 13 14
REMARK SMILES IDX 16 15 17 16 19 17 15 18 18 19 2 20 3 21 1 22
REMARK H PARENT 20 10 10 11
ROOT
ATOM      1  C   UNL     1       0.425 -13.920   6.099  1.00  0.00     0.060 A 
ATOM      2  C   UNL     1      -0.116 -13.064   7.028  1.00  0.00     0.066 A 
ATOM      3  C   UNL     1       0.894 -15.527   7.756  1.00  0.00     0.088 A 
ATOM      4  C   UNL     1       0.695 -15.174   6.394  1.00  0.00     0.035 A 
ATOM      5  N   UNL     1       0.352 -13.310   4.786  1.00  0.00    -0.360 N 
ATOM      6  N   UNL     1      -0.550 -11.959   6.291  1.00  0.00    -0.360 N 
ATOM      7  C   UNL     1       0.490 -14.625   8.737  1.00  0.00     0.271 A 
ATOM      8  C   UNL     1      -0.695 -12.444   4.966  1.00  0.00     0.205 C 
ATOM      9  C   UNL     1      -0.058 -13.362   8.352  1.00  0.00     0.113 A 
ATOM     10  H   UNL     1       0.928 -13.479   3.949  1.00  0.00     0.163 HD
ATOM     11  H   UNL     1      -0.726 -11.004   6.634  1.00  0.00     0.163 HD
ENDROOT
BRANCH   8  12
ATOM     12  C   UNL     1      -0.963 -11.351   3.894  1.00  0.00    -0.003 A 
ATOM     13  C   UNL     1       0.018  -9.735   2.294  1.00  0.00     0.042 A 
ATOM     14  C   UNL     1      -0.033 -11.070   2.868  1.00  0.00     0.028 A 
ATOM     15  C   UNL     1      -1.215  -8.942   2.342  1.00  0.00     0.041 A 
ATOM     16  C   UNL     1      -2.305  -9.482   3.147  1.00  0.00     0.042 A 
ATOM     17  C   UNL     1      -2.159 -10.563   4.052  1.00  0.00     0.028 A 
ATOM     18  Cl  UNL     1       1.145  -9.173   1.376  1.00  0.00    -0.084 Cl
ATOM     19  Cl  UNL     1      -3.805  -8.670   3.035  1.00  0.00    -0.084 Cl
ENDBRANCH   8  12
BRANCH   7  20
ATOM     20  N   UNL     1       0.488 -14.912  10.087  1.00  0.00     0.062 N 
ATOM     21  O   UNL     1       1.496 -14.928  10.691  1.00  0.00    -0.258 OA
ATOM     22  O   UNL     1      -0.599 -14.953  10.809  1.00  0.00    -0.258 OA
ENDBRANCH   7  20
TORSDOF 2
ENDMDL
MODEL 7
REMARK VINA RESULT:    -3.872     13.619     14.715
REMARK INTER + INTRA:          -4.621
REMARK INTER:                  -4.315
REMARK INTRA:                  -0.306
REMARK UNBOUND:                -0.296
REMARK SMILES O=[N+]([O-])c1ccc2c(c1)N[C@@H](c1cc(Cl)cc(Cl)c1)N2
REMARK SMILES IDX 7 1 8 2 5 3 6 4 20 5 10 6 4 7 11 8 9 9 12 12 14 13 13 14
REMARK SMILES IDX 16 15 17 16 19 17 15 18 18 19 2 20 3 21 1 22
REMARK H PARENT 20 10 10 11
ROOT
ATOM      1  C   UNL     1      -2.901 -14.981   1.908  1.00  0.00     0.060 A 
ATOM      2  C   UNL     1      -2.443 -14.586   0.674  1.00  0.00     0.066 A 
ATOM      3  C   UNL     1      -3.181 -17.199   1.167  1.00  0.00     0.088 A 
ATOM      4  C   UNL     1      -3.034 -16.253   2.217  1.00  0.00     0.035 A 
ATOM      5  N   UNL     1      -2.906 -13.841   2.804  1.00  0.00    -0.360 N 
ATOM      6  N   UNL     1      -2.135 -13.231   0.820  1.00  0.00    -0.360 N 
ATOM      7  C   UNL     1      -2.863 -16.800  -0.130  1.00  0.00     0.271 A 
ATOM      8  C   UNL     1      -1.954 -13.051   2.215  1.00  0.00     0.205 C 
ATOM      9  C   UNL     1      -2.455 -15.451  -0.373  1.00  0.00     0.113 A 
ATOM     10  H   UNL     1      -3.469 -13.672   3.649  1.00  0.00     0.163 HD
ATOM     11  H   UNL     1      -2.056 -12.520   0.079  1.00  0.00     0.163 HD
ENDROOT
BRANCH   8  12
ATOM     12  C   UNL     1      -1.813 -11.572   2.671  1.00  0.00    -0.003 A 
ATOM     13  C   UNL     1      -2.977  -9.507   3.390  1.00  0.00     0.042 A 
ATOM     14  C   UNL     1      -2.789 -10.945   3.479  1.00  0.00     0.028 A 
ATOM     15  C   UNL     1      -1.821  -8.709   2.963  1.00  0.00     0.041 A 
ATOM     16  C   UNL     1      -0.667  -9.451   2.466  1.00  0.00     0.042 A 
ATOM     17  C   UNL     1      -0.691 -10.832   2.151  1.00  0.00     0.028 A 
ATOM     18  Cl  UNL     1      -4.172  -8.698   3.978  1.00  0.00    -0.084 Cl
ATOM     19  Cl  UNL     1       0.748  -8.540   2.168  1.00  0.00    -0.084 Cl
ENDBRANCH   8  12
BRANCH   7  20
ATOM     20  N   UNL     1      -2.817 -17.662  -1.206  1.00  0.00     0.062 N 
ATOM     21  O   UNL     1      -3.810 -18.102  -1.657  1.00  0.00    -0.258 OA
ATOM     22  O   UNL     1      -1.741 -17.860  -1.919  1.00  0.00    -0.258 OA
ENDBRANCH   7  20
TORSDOF 2
ENDMDL
MODEL 8
REMARK VINA RESULT:    -3.746      9.825     10.679
REMARK INTER + INTRA:          -4.480
REMARK INTER:                  -4.163
REMARK INTRA:                  -0.317
REMARK UNBOUND:                -0.296
REMARK SMILES O=[N+]([O-])c1ccc2c(c1)N[C@@H](c1cc(Cl)cc(Cl)c1)N2
REMARK SMILES IDX 7 1 8 2 5 3 6 4 20 5 10 6 4 7 11 8 9 9 12 12 14 13 13 14
REMARK SMILES IDX 16 15 17 16 19 17 15 18 18 19 2 20 3 21 1 22
REMARK H PARENT 20 10 10 11
ROOT
ATOM      1  C   UNL     1      -2.576  -8.113   2.032  1.00  0.00     0.060 A 
ATOM      2  C   UNL     1      -1.408  -7.692   2.622  1.00  0.00     0.066 A 
ATOM      3  C   UNL     1      -3.054  -5.936   1.269  1.00  0.00     0.088 A 
ATOM      4  C   UNL     1      -3.243  -7.343   1.199  1.00  0.00     0.035 A 
ATOM      5  N   UNL     1      -2.735  -9.537   2.251  1.00  0.00    -0.360 N 
ATOM      6  N   UNL     1      -0.839  -8.848   3.161  1.00  0.00    -0.360 N 
ATOM      7  C   UNL     1      -1.957  -5.453   1.980  1.00  0.00     0.271 A 
ATOM      8  C   UNL     1      -1.430  -9.914   2.437  1.00  0.00     0.205 C 
ATOM      9  C   UNL     1      -1.093  -6.371   2.655  1.00  0.00     0.113 A 
ATOM     10  H   UNL     1      -3.591 -10.109   2.263  1.00  0.00     0.163 HD
ATOM     11  H   UNL     1      -0.143  -8.912   3.918  1.00  0.00     0.163 HD
ENDROOT
BRANCH   8  12
ATOM     12  C   UNL     1      -1.126 -11.332   2.994  1.00  0.00    -0.003 A 
ATOM     13  C   UNL     1      -1.783 -13.719   3.052  1.00  0.00     0.042 A 
ATOM     14  C   UNL     1      -1.514 -12.503   2.303  1.00  0.00     0.028 A 
ATOM     15  C   UNL     1      -1.098 -13.875   4.340  1.00  0.00     0.041 A 
ATOM     16  C   UNL     1      -0.385 -12.705   4.842  1.00  0.00     0.042 A 
ATOM     17  C   UNL     1      -0.518 -11.404   4.298  1.00  0.00     0.028 A 
ATOM     18  Cl  UNL     1      -2.484 -14.999   2.503  1.00  0.00    -0.084 Cl
ATOM     19  Cl  UNL     1       0.583 -12.947   6.230  1.00  0.00    -0.084 Cl
ENDBRANCH   8  12
BRANCH   7  20
ATOM     20  N   UNL     1      -1.580  -4.126   1.994  1.00  0.00     0.062 N 
ATOM     21  O   UNL     1      -0.820  -3.735   2.802  1.00  0.00    -0.258 OA
ATOM     22  O   UNL     1      -1.841  -3.297   1.021  1.00  0.00    -0.258 OA
ENDBRANCH   7  20
TORSDOF 2
ENDMDL
MODEL 9
REMARK VINA RESULT:    -3.636     10.841     11.420
REMARK INTER + INTRA:          -4.357
REMARK INTER:                  -4.067
REMARK INTRA:                  -0.291
REMARK UNBOUND:                -0.296
REMARK SMILES O=[N+]([O-])c1ccc2c(c1)N[C@@H](c1cc(Cl)cc(Cl)c1)N2
REMARK SMILES IDX 7 1 8 2 5 3 6 4 20 5 10 6 4 7 11 8 9 9 12 12 14 13 13 14
REMARK SMILES IDX 16 15 17 16 19 17 15 18 18 19 2 20 3 21 1 22
REMARK H PARENT 20 10 10 11
ROOT
ATOM      1  C   UNL     1      -1.232 -12.010   3.300  1.00  0.00     0.060 A 
ATOM      2  C   UNL     1      -0.596 -11.425   4.369  1.00  0.00     0.066 A 
ATOM      3  C   UNL     1      -0.991 -14.154   4.245  1.00  0.00     0.088 A 
ATOM      4  C   UNL     1      -1.626 -13.265   3.337  1.00  0.00     0.035 A 
ATOM      5  N   UNL     1      -1.615 -10.984   2.351  1.00  0.00    -0.360 N 
ATOM      6  N   UNL     1      -0.622 -10.055   4.098  1.00  0.00    -0.360 N 
ATOM      7  C   UNL     1      -0.215 -13.610   5.267  1.00  0.00     0.271 A 
ATOM      8  C   UNL     1      -1.685  -9.890   3.173  1.00  0.00     0.205 C 
ATOM      9  C   UNL     1      -0.038 -12.193   5.340  1.00  0.00     0.113 A 
ATOM     10  H   UNL     1      -1.787 -11.056   1.338  1.00  0.00     0.163 HD
ATOM     11  H   UNL     1      -0.006  -9.326   4.485  1.00  0.00     0.163 HD
ENDROOT
BRANCH   8  12
ATOM     12  C   UNL     1      -1.788  -8.474   2.540  1.00  0.00    -0.003 A 
ATOM     13  C   UNL     1      -0.895  -6.165   2.475  1.00  0.00     0.042 A 
ATOM     14  C   UNL     1      -0.677  -7.602   2.481  1.00  0.00     0.028 A 
ATOM     15  C   UNL     1      -2.175  -5.688   1.939  1.00  0.00     0.041 A 
ATOM     16  C   UNL     1      -3.185  -6.704   1.666  1.00  0.00     0.042 A 
ATOM     17  C   UNL     1      -3.093  -8.048   2.105  1.00  0.00     0.028 A 
ATOM     18  Cl  UNL     1       0.192  -5.071   2.697  1.00  0.00    -0.084 Cl
ATOM     19  Cl  UNL     1      -4.591  -6.175   0.851  1.00  0.00    -0.084 Cl
ENDBRANCH   8  12
BRANCH   7  20
ATOM     20  N   UNL     1       0.326 -14.353   6.296  1.00  0.00     0.062 N 
ATOM     21  O   UNL     1      -0.256 -14.472   7.311  1.00  0.00    -0.258 OA
ATOM     22  O   UNL     1       1.361 -15.135   6.147  1.00  0.00    -0.258 OA
ENDBRANCH   7  20
TORSDOF 2
ENDMDL
