MODEL 1
REMARK VINA RESULT:    -3.975      0.000      0.000
REMARK INTER + INTRA:          -4.755
REMARK INTER:                  -4.440
REMARK INTRA:                  -0.315
REMARK UNBOUND:                -0.315
REMARK SMILES O=[N+]([O-])c1ccc2c(c1)N[C@@H](c1cc(Cl)cc(Cl)c1)N2
REMARK SMILES IDX 7 1 8 2 5 3 6 4 20 5 10 6 4 7 11 8 9 9 12 12 14 13 13 14
REMARK SMILES IDX 16 15 17 16 19 17 15 18 18 19 2 20 3 21 1 22
REMARK H PARENT 20 10 10 11
ROOT
ATOM      1  C   UNL     1       2.246   3.797   9.539  1.00  0.00     0.060 A 
ATOM      2  C   UNL     1       3.594   3.531   9.520  1.00  0.00     0.066 A 
ATOM      3  C   UNL     1       2.401   4.773  11.677  1.00  0.00     0.088 A 
ATOM      4  C   UNL     1       1.713   4.585  10.448  1.00  0.00     0.035 A 
ATOM      5  N   UNL     1       1.650   3.333   8.301  1.00  0.00    -0.360 N 
ATOM      6  N   UNL     1       3.830   2.947   8.273  1.00  0.00    -0.360 N 
ATOM      7  C   UNL     1       3.737   4.385  11.751  1.00  0.00     0.271 A 
ATOM      8  C   UNL     1       2.738   3.362   7.469  1.00  0.00     0.205 C 
ATOM      9  C   UNL     1       4.356   3.767  10.620  1.00  0.00     0.113 A 
ATOM     10  H   UNL     1       0.678   3.058   8.102  1.00  0.00     0.163 HD
ATOM     11  H   UNL     1       4.621   2.348   7.999  1.00  0.00     0.163 HD
ENDROOT
BRANCH   8  12
ATOM     12  C   UNL     1       2.646   2.666   6.082  1.00  0.00    -0.003 A 
ATOM     13  C   UNL     1       1.284   2.268   4.052  1.00  0.00     0.042 A 
ATOM     14  C   UNL     1       1.831   3.177   5.045  1.00  0.00     0.028 A 
ATOM     15  C   UNL     1       2.033   1.033   3.794  1.00  0.00     0.041 A 
ATOM     16  C   UNL     1       3.132   0.736   4.707  1.00  0.00     0.042 A 
ATOM     17  C   UNL     1       3.350   1.419   5.930  1.00  0.00     0.028 A 
ATOM     18  Cl  UNL     1       0.158   2.598   3.026  1.00  0.00    -0.084 Cl
ATOM     19  Cl  UNL     1       4.131  -0.585   4.286  1.00  0.00    -0.084 Cl
ENDBRANCH   8  12
BRANCH   7  20
ATOM     20  N   UNL     1       4.553   4.653  12.831  1.00  0.00     0.062 N 
ATOM     21  O   UNL     1       5.722   4.620  12.713  1.00  0.00    -0.258 OA
ATOM     22  O   UNL     1       4.115   5.167  13.948  1.00  0.00    -0.258 OA
ENDBRANCH   7  20
TORSDOF 2
ENDMDL
MODEL 2
REMARK VINA RESULT:    -3.966      0.954      2.627
REMARK INTER + INTRA:          -4.746
REMARK INTER:                  -4.431
REMARK INTRA:                  -0.315
REMARK UNBOUND:                -0.315
REMARK SMILES O=[N+]([O-])c1ccc2c(c1)N[C@@H](c1cc(Cl)cc(Cl)c1)N2
REMARK SMILES IDX 7 1 8 2 5 3 6 4 20 5 10 6 4 7 11 8 9 9 12 12 14 13 13 14
REMARK SMILES IDX 16 15 17 16 19 17 15 18 18 19 2 20 3 21 1 22
REMARK H PARENT 20 10 10 11
ROOT
ATOM      1  C   UNL     1       3.867   3.486   9.365  1.00  0.00     0.060 A 
ATOM      2  C   UNL     1       2.547   3.788   9.602  1.00  0.00     0.066 A 
ATOM      3  C   UNL     1       4.486   4.204  11.522  1.00  0.00     0.088 A 
ATOM      4  C   UNL     1       4.752   3.463  10.339  1.00  0.00     0.035 A 
ATOM      5  N   UNL     1       4.002   2.952   8.025  1.00  0.00    -0.360 N 
ATOM      6  N   UNL     1       1.875   3.409   8.437  1.00  0.00    -0.360 N 
ATOM      7  C   UNL     1       3.187   4.657  11.738  1.00  0.00     0.271 A 
ATOM      8  C   UNL     1       2.736   2.470   7.814  1.00  0.00     0.205 C 
ATOM      9  C   UNL     1       2.181   4.414  10.751  1.00  0.00     0.113 A 
ATOM     10  H   UNL     1       4.822   2.937   7.402  1.00  0.00     0.163 HD
ATOM     11  H   UNL     1       0.958   3.738   8.105  1.00  0.00     0.163 HD
ENDROOT
BRANCH   8  12
ATOM     12  C   UNL     1       2.317   2.051   6.377  1.00  0.00    -0.003 A 
ATOM     13  C   UNL     1       2.932   0.823   4.316  1.00  0.00     0.042 A 
ATOM     14  C   UNL     1       2.824   0.883   5.765  1.00  0.00     0.028 A 
ATOM     15  C   UNL     1       2.007   1.660   3.544  1.00  0.00     0.041 A 
ATOM     16  C   UNL     1       1.218   2.626   4.301  1.00  0.00     0.042 A 
ATOM     17  C   UNL     1       1.466   2.962   5.655  1.00  0.00     0.028 A 
ATOM     18  Cl  UNL     1       3.716  -0.246   3.497  1.00  0.00    -0.084 Cl
ATOM     19  Cl  UNL     1      -0.004   3.450   3.435  1.00  0.00    -0.084 Cl
ENDBRANCH   8  12
BRANCH   7  20
ATOM     20  N   UNL     1       2.769   5.251  12.911  1.00  0.00     0.062 N 
ATOM     21  O   UNL     1       1.623   5.322  13.164  1.00  0.00    -0.258 OA
ATOM     22  O   UNL     1       3.579   5.552  13.889  1.00  0.00    -0.258 OA
ENDBRANCH   7  20
TORSDOF 2
ENDMDL
MODEL 3
REMARK VINA RESULT:    -3.964      4.161      5.640
REMARK INTER + INTRA:          -4.743
REMARK INTER:                  -4.435
REMARK INTRA:                  -0.308
REMARK UNBOUND:                -0.315
REMARK SMILES O=[N+]([O-])c1ccc2c(c1)N[C@@H](c1cc(Cl)cc(Cl)c1)N2
REMARK SMILES IDX 7 1 8 2 5 3 6 4 20 5 10 6 4 7 11 8 9 9 12 12 14 13 13 14
REMARK SMILES IDX 16 15 17 16 19 17 15 18 18 19 2 20 3 21 1 22
REMARK H PARENT 20 10 10 11
ROOT
ATOM      1  C   UNL     1      -0.345   4.696  13.139  1.00  0.00     0.060 A 
ATOM      2  C   UNL     1       0.531   5.712  13.437  1.00  0.00     0.066 A 
ATOM      3  C   UNL     1      -1.817   5.375  14.849  1.00  0.00     0.088 A 
ATOM      4  C   UNL     1      -1.559   4.665  13.645  1.00  0.00     0.035 A 
ATOM      5  N   UNL     1       0.180   3.922  12.032  1.00  0.00    -0.360 N 
ATOM      6  N   UNL     1       1.560   5.588  12.500  1.00  0.00    -0.360 N 
ATOM      7  C   UNL     1      -0.883   6.320  15.269  1.00  0.00     0.271 A 
ATOM      8  C   UNL     1       0.988   4.852  11.432  1.00  0.00     0.205 C 
ATOM      9  C   UNL     1       0.318   6.508  14.517  1.00  0.00     0.113 A 
ATOM     10  H   UNL     1      -0.004   2.944  11.767  1.00  0.00     0.163 HD
ATOM     11  H   UNL     1       2.522   5.951  12.570  1.00  0.00     0.163 HD
ENDROOT
BRANCH   8  12
ATOM     12  C   UNL     1       1.996   4.386  10.344  1.00  0.00    -0.003 A 
ATOM     13  C   UNL     1       2.323   3.192   8.199  1.00  0.00     0.042 A 
ATOM     14  C   UNL     1       1.597   4.157   9.008  1.00  0.00     0.028 A 
ATOM     15  C   UNL     1       3.728   2.952   8.549  1.00  0.00     0.041 A 
ATOM     16  C   UNL     1       4.196   3.540   9.800  1.00  0.00     0.042 A 
ATOM     17  C   UNL     1       3.339   4.099  10.780  1.00  0.00     0.028 A 
ATOM     18  Cl  UNL     1       1.862   2.610   6.829  1.00  0.00    -0.084 Cl
ATOM     19  Cl  UNL     1       5.875   3.439  10.103  1.00  0.00    -0.084 Cl
ENDBRANCH   8  12
BRANCH   7  20
ATOM     20  N   UNL     1      -1.087   7.178  16.330  1.00  0.00     0.062 N 
ATOM     21  O   UNL     1      -2.175   7.525  16.611  1.00  0.00    -0.258 OA
ATOM     22  O   UNL     1      -0.162   7.468  17.204  1.00  0.00    -0.258 OA
ENDBRANCH   7  20
TORSDOF 2
ENDMDL
MODEL 4
REMARK VINA RESULT:    -3.956      3.678      4.781
REMARK INTER + INTRA:          -4.734
REMARK INTER:                  -4.430
REMARK INTRA:                  -0.305
REMARK UNBOUND:                -0.315
REMARK SMILES O=[N+]([O-])c1ccc2c(c1)N[C@@H](c1cc(Cl)cc(Cl)c1)N2
REMARK SMILES IDX 7 1 8 2 5 3 6 4 20 5 10 6 4 7 11 8 9 9 12 12 14 13 13 14
REMARK SMILES IDX 16 15 17 16 19 17 15 18 18 19 2 20 3 21 1 22
REMARK H PARENT 20 10 10 11
ROOT
ATOM      1  C   UNL     1       0.958   5.493  12.301  1.00  0.00     0.060 A 
ATOM      2  C   UNL     1       0.005   4.516  12.136  1.00  0.00     0.066 A 
ATOM      3  C   UNL     1       0.022   6.149  14.361  1.00  0.00     0.088 A 
ATOM      4  C   UNL     1       1.113   6.115  13.451  1.00  0.00     0.035 A 
ATOM      5  N   UNL     1       1.862   5.476  11.168  1.00  0.00    -0.360 N 
ATOM      6  N   UNL     1       0.342   3.883  10.937  1.00  0.00    -0.360 N 
ATOM      7  C   UNL     1      -1.039   5.271  14.152  1.00  0.00     0.271 A 
ATOM      8  C   UNL     1       1.715   4.180  10.745  1.00  0.00     0.205 C 
ATOM      9  C   UNL     1      -1.028   4.409  13.012  1.00  0.00     0.113 A 
ATOM     10  H   UNL     1       2.452   6.228  10.787  1.00  0.00     0.163 HD
ATOM     11  H   UNL     1      -0.271   3.323  10.327  1.00  0.00     0.163 HD
ENDROOT
BRANCH   8  12
ATOM     12  C   UNL     1       2.287   3.770   9.359  1.00  0.00    -0.003 A 
ATOM     13  C   UNL     1       2.669   4.422   7.001  1.00  0.00     0.042 A 
ATOM     14  C   UNL     1       2.726   4.730   8.421  1.00  0.00     0.028 A 
ATOM     15  C   UNL     1       2.742   3.006   6.623  1.00  0.00     0.041 A 
ATOM     16  C   UNL     1       2.648   2.038   7.710  1.00  0.00     0.042 A 
ATOM     17  C   UNL     1       2.256   2.367   9.031  1.00  0.00     0.028 A 
ATOM     18  Cl  UNL     1       2.837   5.440   5.833  1.00  0.00    -0.084 Cl
ATOM     19  Cl  UNL     1       2.942   0.405   7.298  1.00  0.00    -0.084 Cl
ENDBRANCH   8  12
BRANCH   7  20
ATOM     20  N   UNL     1      -2.078   5.101  15.043  1.00  0.00     0.062 N 
ATOM     21  O   UNL     1      -3.073   5.715  14.919  1.00  0.00    -0.258 OA
ATOM     22  O   UNL     1      -2.126   4.125  15.909  1.00  0.00    -0.258 OA
ENDBRANCH   7  20
TORSDOF 2
ENDMDL
MODEL 5
REMARK VINA RESULT:    -3.768      1.372      2.053
REMARK INTER + INTRA:          -4.524
REMARK INTER:                  -4.224
REMARK INTRA:                  -0.300
REMARK UNBOUND:                -0.315
REMARK SMILES O=[N+]([O-])c1ccc2c(c1)N[C@@H](c1cc(Cl)cc(Cl)c1)N2
REMARK SMILES IDX 7 1 8 2 5 3 6 4 20 5 10 6 4 7 11 8 9 9 12 12 14 13 13 14
REMARK SMILES IDX 16 15 17 16 19 17 15 18 18 19 2 20 3 21 1 22
REMARK H PARENT 20 10 10 11
ROOT
ATOM      1  C   UNL     1       3.333   3.866   9.623  1.00  0.00     0.060 A 
ATOM      2  C   UNL     1       1.965   3.989   9.574  1.00  0.00     0.066 A 
ATOM      3  C   UNL     1       3.388   4.619  11.854  1.00  0.00     0.088 A 
ATOM      4  C   UNL     1       3.990   3.941  10.760  1.00  0.00     0.035 A 
ATOM      5  N   UNL     1       3.815   3.379   8.345  1.00  0.00    -0.360 N 
ATOM      6  N   UNL     1       1.608   3.546   8.298  1.00  0.00    -0.360 N 
ATOM      7  C   UNL     1       2.023   4.894  11.788  1.00  0.00     0.271 A 
ATOM      8  C   UNL     1       2.697   2.740   7.878  1.00  0.00     0.205 C 
ATOM      9  C   UNL     1       1.287   4.539  10.615  1.00  0.00     0.113 A 
ATOM     10  H   UNL     1       4.742   3.483   7.909  1.00  0.00     0.163 HD
ATOM     11  H   UNL     1       0.746   3.759   7.777  1.00  0.00     0.163 HD
ENDROOT
BRANCH   8  12
ATOM     12  C   UNL     1       2.647   2.296   6.389  1.00  0.00    -0.003 A 
ATOM     13  C   UNL     1       1.381   2.325   4.261  1.00  0.00     0.042 A 
ATOM     14  C   UNL     1       1.916   3.020   5.421  1.00  0.00     0.028 A 
ATOM     15  C   UNL     1       2.083   1.111   3.829  1.00  0.00     0.041 A 
ATOM     16  C   UNL     1       3.115   0.603   4.727  1.00  0.00     0.042 A 
ATOM     17  C   UNL     1       3.298   1.055   6.057  1.00  0.00     0.028 A 
ATOM     18  Cl  UNL     1       0.329   2.887   3.258  1.00  0.00    -0.084 Cl
ATOM     19  Cl  UNL     1       4.072  -0.681   4.130  1.00  0.00    -0.084 Cl
ENDBRANCH   8  12
BRANCH   7  20
ATOM     20  N   UNL     1       1.294   5.406  12.842  1.00  0.00     0.062 N 
ATOM     21  O   UNL     1       0.128   5.525  12.753  1.00  0.00    -0.258 OA
ATOM     22  O   UNL     1       1.786   5.569  14.040  1.00  0.00    -0.258 OA
ENDBRANCH   7  20
TORSDOF 2
ENDMDL
MODEL 6
REMARK VINA RESULT:    -3.745      3.002      4.335
REMARK INTER + INTRA:          -4.498
REMARK INTER:                  -4.190
REMARK INTRA:                  -0.308
REMARK UNBOUND:                -0.315
REMARK SMILES O=[N+]([O-])c1ccc2c(c1)N[C@@H](c1cc(Cl)cc(Cl)c1)N2
REMARK SMILES IDX 7 1 8 2 5 3 6 4 20 5 10 6 4 7 11 8 9 9 12 12 14 13 13 14
REMARK SMILES IDX 16 15 17 16 19 17 15 18 18 19 2 20 3 21 1 22
REMARK H PARENT 20 10 10 11
ROOT
ATOM      1  C   UNL     1       5.762   3.819  11.816  1.00  0.00     0.060 A 
ATOM      2  C   UNL     1       6.598   4.254  10.816  1.00  0.00     0.066 A 
ATOM      3  C   UNL     1       7.268   4.539  13.479  1.00  0.00     0.088 A 
ATOM      4  C   UNL     1       5.962   4.153  13.073  1.00  0.00     0.035 A 
ATOM      5  N   UNL     1       4.571   3.241  11.226  1.00  0.00    -0.360 N 
ATOM      6  N   UNL     1       5.913   3.983   9.629  1.00  0.00    -0.360 N 
ATOM      7  C   UNL     1       8.199   4.854  12.491  1.00  0.00     0.271 A 
ATOM      8  C   UNL     1       4.552   3.880  10.014  1.00  0.00     0.205 C 
ATOM      9  C   UNL     1       7.836   4.731  11.114  1.00  0.00     0.113 A 
ATOM     10  H   UNL     1       3.919   2.543  11.611  1.00  0.00     0.163 HD
ATOM     11  H   UNL     1       6.309   3.880   8.684  1.00  0.00     0.163 HD
ENDROOT
BRANCH   8  12
ATOM     12  C   UNL     1       3.595   3.363   8.903  1.00  0.00    -0.003 A 
ATOM     13  C   UNL     1       2.650   1.395   7.735  1.00  0.00     0.042 A 
ATOM     14  C   UNL     1       3.004   2.081   8.966  1.00  0.00     0.028 A 
ATOM     15  C   UNL     1       2.357   2.232   6.566  1.00  0.00     0.041 A 
ATOM     16  C   UNL     1       2.656   3.654   6.693  1.00  0.00     0.042 A 
ATOM     17  C   UNL     1       3.416   4.211   7.752  1.00  0.00     0.028 A 
ATOM     18  Cl  UNL     1       2.263  -0.109   7.601  1.00  0.00    -0.084 Cl
ATOM     19  Cl  UNL     1       2.122   4.657   5.417  1.00  0.00    -0.084 Cl
ENDBRANCH   8  12
BRANCH   7  20
ATOM     20  N   UNL     1       9.444   5.385  12.755  1.00  0.00     0.062 N 
ATOM     21  O   UNL     1      10.139   4.893  13.565  1.00  0.00    -0.258 OA
ATOM     22  O   UNL     1      10.013   6.285  12.000  1.00  0.00    -0.258 OA
ENDBRANCH   7  20
TORSDOF 2
ENDMDL
MODEL 7
REMARK VINA RESULT:    -3.708      5.089      7.818
REMARK INTER + INTRA:          -4.457
REMARK INTER:                  -4.138
REMARK INTRA:                  -0.318
REMARK UNBOUND:                -0.315
REMARK SMILES O=[N+]([O-])c1ccc2c(c1)N[C@@H](c1cc(Cl)cc(Cl)c1)N2
REMARK SMILES IDX 7 1 8 2 5 3 6 4 20 5 10 6 4 7 11 8 9 9 12 12 14 13 13 14
REMARK SMILES IDX 16 15 17 16 19 17 15 18 18 19 2 20 3 21 1 22
REMARK H PARENT 20 10 10 11
ROOT
ATOM      1  C   UNL     1       3.113   1.700   6.167  1.00  0.00     0.060 A 
ATOM      2  C   UNL     1       1.976   2.438   5.942  1.00  0.00     0.066 A 
ATOM      3  C   UNL     1       2.946   0.677   4.052  1.00  0.00     0.088 A 
ATOM      4  C   UNL     1       3.707   1.038   5.197  1.00  0.00     0.035 A 
ATOM      5  N   UNL     1       3.639   2.019   7.479  1.00  0.00    -0.360 N 
ATOM      6  N   UNL     1       1.828   3.229   7.084  1.00  0.00    -0.360 N 
ATOM      7  C   UNL     1       1.715   1.298   3.855  1.00  0.00     0.271 A 
ATOM      8  C   UNL     1       3.122   3.275   7.662  1.00  0.00     0.205 C 
ATOM      9  C   UNL     1       1.231   2.230   4.825  1.00  0.00     0.113 A 
ATOM     10  H   UNL     1       4.237   1.459   8.103  1.00  0.00     0.163 HD
ATOM     11  H   UNL     1       0.968   3.679   7.431  1.00  0.00     0.163 HD
ENDROOT
BRANCH   8  12
ATOM     12  C   UNL     1       3.186   3.920   9.074  1.00  0.00    -0.003 A 
ATOM     13  C   UNL     1       4.446   4.140  11.195  1.00  0.00     0.042 A 
ATOM     14  C   UNL     1       4.414   4.131   9.742  1.00  0.00     0.028 A 
ATOM     15  C   UNL     1       3.211   4.526  11.887  1.00  0.00     0.041 A 
ATOM     16  C   UNL     1       2.016   4.655  11.060  1.00  0.00     0.042 A 
ATOM     17  C   UNL     1       1.930   4.203   9.720  1.00  0.00     0.028 A 
ATOM     18  Cl  UNL     1       5.723   4.072  12.086  1.00  0.00    -0.084 Cl
ATOM     19  Cl  UNL     1       0.632   5.305  11.824  1.00  0.00    -0.084 Cl
ENDBRANCH   8  12
BRANCH   7  20
ATOM     20  N   UNL     1       0.956   1.148   2.712  1.00  0.00     0.062 N 
ATOM     21  O   UNL     1      -0.058   1.731   2.593  1.00  0.00    -0.258 OA
ATOM     22  O   UNL     1       1.397   0.562   1.632  1.00  0.00    -0.258 OA
ENDBRANCH   7  20
TORSDOF 2
ENDMDL
MODEL 8
REMARK VINA RESULT:    -3.674      5.015      7.437
REMARK INTER + INTRA:          -4.419
REMARK INTER:                  -4.100
REMARK INTRA:                  -0.318
REMARK UNBOUND:                -0.315
REMARK SMILES O=[N+]([O-])c1ccc2c(c1)N[C@@H](c1cc(Cl)cc(Cl)c1)N2
REMARK SMILES IDX 7 1 8 2 5 3 6 4 20 5 10 6 4 7 11 8 9 9 12 12 14 13 13 14
REMARK SMILES IDX 16 15 17 16 19 17 15 18 18 19 2 20 3 21 1 22
REMARK H PARENT 20 10 10 11
ROOT
ATOM      1  C   UNL     1       1.770   2.844   5.896  1.00  0.00     0.060 A 
ATOM      2  C   UNL     1       2.883   2.039   5.883  1.00  0.00     0.066 A 
ATOM      3  C   UNL     1       1.176   2.169   3.718  1.00  0.00     0.088 A 
ATOM      4  C   UNL     1       0.836   2.741   4.974  1.00  0.00     0.035 A 
ATOM      5  N   UNL     1       1.695   3.537   7.167  1.00  0.00    -0.360 N 
ATOM      6  N   UNL     1       3.463   2.204   7.144  1.00  0.00    -0.360 N 
ATOM      7  C   UNL     1       2.371   1.459   3.619  1.00  0.00     0.271 A 
ATOM      8  C   UNL     1       2.410   2.682   7.965  1.00  0.00     0.205 C 
ATOM      9  C   UNL     1       3.237   1.373   4.753  1.00  0.00     0.113 A 
ATOM     10  H   UNL     1       1.232   4.425   7.405  1.00  0.00     0.163 HD
ATOM     11  H   UNL     1       4.439   2.020   7.417  1.00  0.00     0.163 HD
ENDROOT
BRANCH   8  12
ATOM     12  C   UNL     1       2.846   3.157   9.379  1.00  0.00    -0.003 A 
ATOM     13  C   UNL     1       2.319   4.572  11.342  1.00  0.00     0.042 A 
ATOM     14  C   UNL     1       1.908   3.608  10.335  1.00  0.00     0.028 A 
ATOM     15  C   UNL     1       3.740   4.586  11.710  1.00  0.00     0.041 A 
ATOM     16  C   UNL     1       4.634   3.785  10.882  1.00  0.00     0.042 A 
ATOM     17  C   UNL     1       4.261   3.213   9.640  1.00  0.00     0.028 A 
ATOM     18  Cl  UNL     1       1.373   5.383  12.278  1.00  0.00    -0.084 Cl
ATOM     19  Cl  UNL     1       6.245   3.634  11.433  1.00  0.00    -0.084 Cl
ENDBRANCH   8  12
BRANCH   7  20
ATOM     20  N   UNL     1       2.739   0.732   2.506  1.00  0.00     0.062 N 
ATOM     21  O   UNL     1       3.727   0.096   2.513  1.00  0.00    -0.258 OA
ATOM     22  O   UNL     1       1.940   0.517   1.496  1.00  0.00    -0.258 OA
ENDBRANCH   7  20
TORSDOF 2
ENDMDL
MODEL 9
REMARK VINA RESULT:    -3.602      3.838      5.562
REMARK INTER + INTRA:          -4.339
REMARK INTER:                  -4.026
REMARK INTRA:                  -0.313
REMARK UNBOUND:                -0.315
REMARK SMILES O=[N+]([O-])c1ccc2c(c1)N[C@@H](c1cc(Cl)cc(Cl)c1)N2
REMARK SMILES IDX 7 1 8 2 5 3 6 4 20 5 10 6 4 7 11 8 9 9 12 12 14 13 13 14
REMARK SMILES IDX 16 15 17 16 19 17 15 18 18 19 2 20 3 21 1 22
REMARK H PARENT 20 10 10 11
ROOT
ATOM      1  C   UNL     1       7.455   4.823  11.580  1.00  0.00     0.060 A 
ATOM      2  C   UNL     1       6.754   4.549  12.730  1.00  0.00     0.066 A 
ATOM      3  C   UNL     1       9.408   5.302  12.806  1.00  0.00     0.088 A 
ATOM      4  C   UNL     1       8.764   4.955  11.587  1.00  0.00     0.035 A 
ATOM      5  N   UNL     1       6.584   4.643  10.435  1.00  0.00    -0.360 N 
ATOM      6  N   UNL     1       5.481   4.169  12.296  1.00  0.00    -0.360 N 
ATOM      7  C   UNL     1       8.688   5.176  13.991  1.00  0.00     0.271 A 
ATOM      8  C   UNL     1       5.666   3.765  10.949  1.00  0.00     0.205 C 
ATOM      9  C   UNL     1       7.321   4.759  13.946  1.00  0.00     0.113 A 
ATOM     10  H   UNL     1       6.639   5.059   9.495  1.00  0.00     0.163 HD
ATOM     11  H   UNL     1       4.604   4.181  12.834  1.00  0.00     0.163 HD
ENDROOT
BRANCH   8  12
ATOM     12  C   UNL     1       4.354   3.497  10.161  1.00  0.00    -0.003 A 
ATOM     13  C   UNL     1       3.326   2.957   7.973  1.00  0.00     0.042 A 
ATOM     14  C   UNL     1       4.337   2.710   8.987  1.00  0.00     0.028 A 
ATOM     15  C   UNL     1       2.060   3.547   8.424  1.00  0.00     0.041 A 
ATOM     16  C   UNL     1       2.020   4.023   9.803  1.00  0.00     0.042 A 
ATOM     17  C   UNL     1       3.167   4.170  10.622  1.00  0.00     0.028 A 
ATOM     18  Cl  UNL     1       3.326   2.396   6.519  1.00  0.00    -0.084 Cl
ATOM     19  Cl  UNL     1       0.492   4.515  10.390  1.00  0.00    -0.084 Cl
ENDBRANCH   8  12
BRANCH   7  20
ATOM     20  N   UNL     1       9.244   5.334  15.244  1.00  0.00     0.062 N 
ATOM     21  O   UNL     1      10.140   6.077  15.407  1.00  0.00    -0.258 OA
ATOM     22  O   UNL     1       8.694   4.871  16.334  1.00  0.00    -0.258 OA
ENDBRANCH   7  20
TORSDOF 2
ENDMDL
