MODEL 1
REMARK VINA RESULT:    -4.470      0.000      0.000
REMARK INTER + INTRA:          -5.289
REMARK INTER:                  -4.992
REMARK INTRA:                  -0.296
REMARK UNBOUND:                -0.296
REMARK SMILES O=[N+]([O-])c1ccc2c(c1)N[C@@H](c1cc(Cl)cc(Cl)c1)N2
REMARK SMILES IDX 7 1 8 2 5 3 6 4 20 5 10 6 4 7 11 8 9 9 12 12 14 13 13 14
REMARK SMILES IDX 16 15 17 16 19 17 15 18 18 19 2 20 3 21 1 22
REMARK H PARENT 20 10 10 11
ROOT
ATOM      1  C   UNL     1       0.246   0.083  -0.740  1.00  0.00     0.060 A 
ATOM      2  C   UNL     1       1.403   0.332  -1.438  1.00  0.00     0.066 A 
ATOM      3  C   UNL     1      -0.835  -0.698  -2.682  1.00  0.00     0.088 A 
ATOM      4  C   UNL     1      -0.738  -0.614  -1.266  1.00  0.00     0.035 A 
ATOM      5  N   UNL     1       0.440   0.439   0.651  1.00  0.00    -0.360 N 
ATOM      6  N   UNL     1       2.308   0.799  -0.481  1.00  0.00    -0.360 N 
ATOM      7  C   UNL     1       0.269  -0.319  -3.442  1.00  0.00     0.271 A 
ATOM      8  C   UNL     1       1.802   0.325   0.755  1.00  0.00     0.205 C 
ATOM      9  C   UNL     1       1.435   0.188  -2.789  1.00  0.00     0.113 A 
ATOM     10  H   UNL     1      -0.253   0.705   1.366  1.00  0.00     0.163 HD
ATOM     11  H   UNL     1       3.155   1.363  -0.640  1.00  0.00     0.163 HD
ENDROOT
BRANCH   8  12
ATOM     12  C   UNL     1       2.514   0.893   2.015  1.00  0.00    -0.003 A 
ATOM     13  C   UNL     1       4.669   1.376   3.134  1.00  0.00     0.042 A 
ATOM     14  C   UNL     1       3.821   1.426   1.955  1.00  0.00     0.028 A 
ATOM     15  C   UNL     1       3.996   1.347   4.438  1.00  0.00     0.041 A 
ATOM     16  C   UNL     1       2.550   1.155   4.419  1.00  0.00     0.042 A 
ATOM     17  C   UNL     1       1.820   0.761   3.271  1.00  0.00     0.028 A 
ATOM     18  Cl  UNL     1       6.204   1.647   3.175  1.00  0.00    -0.084 Cl
ATOM     19  Cl  UNL     1       1.743   1.330   5.916  1.00  0.00    -0.084 Cl
ENDBRANCH   8  12
BRANCH   7  20
ATOM     20  N   UNL     1       0.355  -0.496  -4.807  1.00  0.00     0.062 N 
ATOM     21  O   UNL     1       1.314  -0.983  -5.283  1.00  0.00    -0.258 OA
ATOM     22  O   UNL     1      -0.664  -0.361  -5.613  1.00  0.00    -0.258 OA
ENDBRANCH   7  20
TORSDOF 2
ENDMDL
MODEL 2
REMARK VINA RESULT:    -4.334     10.873     11.555
REMARK INTER + INTRA:          -5.137
REMARK INTER:                  -4.821
REMARK INTRA:                  -0.315
REMARK UNBOUND:                -0.296
REMARK SMILES O=[N+]([O-])c1ccc2c(c1)N[C@@H](c1cc(Cl)cc(Cl)c1)N2
REMARK SMILES IDX 7 1 8 2 5 3 6 4 20 5 10 6 4 7 11 8 9 9 12 12 14 13 13 14
REMARK SMILES IDX 16 15 17 16 19 17 15 18 18 19 2 20 3 21 1 22
REMARK H PARENT 20 10 10 11
ROOT
ATOM      1  C   UNL     1       2.974  11.250  -3.829  1.00  0.00     0.060 A 
ATOM      2  C   UNL     1       2.579  11.706  -2.595  1.00  0.00     0.066 A 
ATOM      3  C   UNL     1       3.301  13.449  -4.609  1.00  0.00     0.088 A 
ATOM      4  C   UNL     1       3.535  12.051  -4.710  1.00  0.00     0.035 A 
ATOM      5  N   UNL     1       2.937   9.801  -3.839  1.00  0.00    -0.360 N 
ATOM      6  N   UNL     1       2.339  10.552  -1.844  1.00  0.00    -0.360 N 
ATOM      7  C   UNL     1       2.765  13.943  -3.421  1.00  0.00     0.271 A 
ATOM      8  C   UNL     1       3.075   9.534  -2.502  1.00  0.00     0.205 C 
ATOM      9  C   UNL     1       2.419  13.036  -2.372  1.00  0.00     0.113 A 
ATOM     10  H   UNL     1       2.835   9.151  -4.631  1.00  0.00     0.163 HD
ATOM     11  H   UNL     1       1.756  10.461  -1.000  1.00  0.00     0.163 HD
ENDROOT
BRANCH   8  12
ATOM     12  C   UNL     1       2.803   8.093  -1.988  1.00  0.00    -0.003 A 
ATOM     13  C   UNL     1       3.113   5.666  -2.369  1.00  0.00     0.042 A 
ATOM     14  C   UNL     1       3.655   7.013  -2.312  1.00  0.00     0.028 A 
ATOM     15  C   UNL     1       1.932   5.387  -1.544  1.00  0.00     0.041 A 
ATOM     16  C   UNL     1       1.291   6.538  -0.917  1.00  0.00     0.042 A 
ATOM     17  C   UNL     1       1.585   7.884  -1.247  1.00  0.00     0.028 A 
ATOM     18  Cl  UNL     1       3.819   4.416  -2.976  1.00  0.00    -0.084 Cl
ATOM     19  Cl  UNL     1       0.049   6.195   0.207  1.00  0.00    -0.084 Cl
ENDBRANCH   8  12
BRANCH   7  20
ATOM     20  N   UNL     1       2.635  15.288  -3.142  1.00  0.00     0.062 N 
ATOM     21  O   UNL     1       2.549  15.657  -2.029  1.00  0.00    -0.258 OA
ATOM     22  O   UNL     1       2.823  16.225  -4.031  1.00  0.00    -0.258 OA
ENDBRANCH   7  20
TORSDOF 2
ENDMDL
MODEL 3
REMARK VINA RESULT:    -4.329     10.691     11.473
REMARK INTER + INTRA:          -5.131
REMARK INTER:                  -4.815
REMARK INTRA:                  -0.316
REMARK UNBOUND:                -0.296
REMARK SMILES O=[N+]([O-])c1ccc2c(c1)N[C@@H](c1cc(Cl)cc(Cl)c1)N2
REMARK SMILES IDX 7 1 8 2 5 3 6 4 20 5 10 6 4 7 11 8 9 9 12 12 14 13 13 14
REMARK SMILES IDX 16 15 17 16 19 17 15 18 18 19 2 20 3 21 1 22
REMARK H PARENT 20 10 10 11
ROOT
ATOM      1  C   UNL     1       2.539  11.620  -2.594  1.00  0.00     0.060 A 
ATOM      2  C   UNL     1       2.955  11.242  -3.848  1.00  0.00     0.066 A 
ATOM      3  C   UNL     1       2.728  13.902  -3.148  1.00  0.00     0.088 A 
ATOM      4  C   UNL     1       2.209  12.865  -2.326  1.00  0.00     0.035 A 
ATOM      5  N   UNL     1       2.269  10.436  -1.803  1.00  0.00    -0.360 N 
ATOM      6  N   UNL     1       2.905   9.846  -3.840  1.00  0.00    -0.360 N 
ATOM      7  C   UNL     1       3.292  13.552  -4.373  1.00  0.00     0.271 A 
ATOM      8  C   UNL     1       2.006   9.524  -2.792  1.00  0.00     0.205 C 
ATOM      9  C   UNL     1       3.381  12.174  -4.741  1.00  0.00     0.113 A 
ATOM     10  H   UNL     1       2.274  10.313  -0.781  1.00  0.00     0.163 HD
ATOM     11  H   UNL     1       3.409   9.195  -4.459  1.00  0.00     0.163 HD
ENDROOT
BRANCH   8  12
ATOM     12  C   UNL     1       1.939   8.015  -2.427  1.00  0.00    -0.003 A 
ATOM     13  C   UNL     1       1.183   6.309  -0.799  1.00  0.00     0.042 A 
ATOM     14  C   UNL     1       0.919   7.493  -1.600  1.00  0.00     0.028 A 
ATOM     15  C   UNL     1       2.208   5.384  -1.294  1.00  0.00     0.041 A 
ATOM     16  C   UNL     1       3.010   5.846  -2.422  1.00  0.00     0.042 A 
ATOM     17  C   UNL     1       3.022   7.184  -2.888  1.00  0.00     0.028 A 
ATOM     18  Cl  UNL     1       0.294   5.770   0.363  1.00  0.00    -0.084 Cl
ATOM     19  Cl  UNL     1       4.056   4.694  -3.129  1.00  0.00    -0.084 Cl
ENDBRANCH   8  12
BRANCH   7  20
ATOM     20  N   UNL     1       3.689  14.471  -5.322  1.00  0.00     0.062 N 
ATOM     21  O   UNL     1       3.802  14.150  -6.448  1.00  0.00    -0.258 OA
ATOM     22  O   UNL     1       3.740  15.756  -5.098  1.00  0.00    -0.258 OA
ENDBRANCH   7  20
TORSDOF 2
ENDMDL
MODEL 4
REMARK VINA RESULT:    -4.030     12.767     13.435
REMARK INTER + INTRA:          -4.798
REMARK INTER:                  -4.492
REMARK INTRA:                  -0.306
REMARK UNBOUND:                -0.296
REMARK SMILES O=[N+]([O-])c1ccc2c(c1)N[C@@H](c1cc(Cl)cc(Cl)c1)N2
REMARK SMILES IDX 7 1 8 2 5 3 6 4 20 5 10 6 4 7 11 8 9 9 12 12 14 13 13 14
REMARK SMILES IDX 16 15 17 16 19 17 15 18 18 19 2 20 3 21 1 22
REMARK H PARENT 20 10 10 11
ROOT
ATOM      1  C   UNL     1       4.054  13.343  -6.310  1.00  0.00     0.060 A 
ATOM      2  C   UNL     1       3.253  12.532  -7.078  1.00  0.00     0.066 A 
ATOM      3  C   UNL     1       4.318  14.871  -8.084  1.00  0.00     0.088 A 
ATOM      4  C   UNL     1       4.374  14.559  -6.698  1.00  0.00     0.035 A 
ATOM      5  N   UNL     1       4.198  12.762  -4.990  1.00  0.00    -0.360 N 
ATOM      6  N   UNL     1       2.879  11.487  -6.229  1.00  0.00    -0.360 N 
ATOM      7  C   UNL     1       3.634  13.999  -8.928  1.00  0.00     0.271 A 
ATOM      8  C   UNL     1       3.059  12.003  -4.921  1.00  0.00     0.205 C 
ATOM      9  C   UNL     1       3.061  12.803  -8.395  1.00  0.00     0.113 A 
ATOM     10  H   UNL     1       4.948  12.885  -4.296  1.00  0.00     0.163 HD
ATOM     11  H   UNL     1       2.545  10.549  -6.495  1.00  0.00     0.163 HD
ENDROOT
BRANCH   8  12
ATOM     12  C   UNL     1       2.917  10.957  -3.779  1.00  0.00    -0.003 A 
ATOM     13  C   UNL     1       4.048   9.262  -2.372  1.00  0.00     0.042 A 
ATOM     14  C   UNL     1       4.014  10.587  -2.968  1.00  0.00     0.028 A 
ATOM     15  C   UNL     1       2.758   8.608  -2.127  1.00  0.00     0.041 A 
ATOM     16  C   UNL     1       1.582   9.255  -2.698  1.00  0.00     0.042 A 
ATOM     17  C   UNL     1       1.640  10.303  -3.649  1.00  0.00     0.028 A 
ATOM     18  Cl  UNL     1       5.283   8.590  -1.699  1.00  0.00    -0.084 Cl
ATOM     19  Cl  UNL     1       0.066   8.613  -2.239  1.00  0.00    -0.084 Cl
ENDBRANCH   8  12
BRANCH   7  20
ATOM     20  N   UNL     1       3.379  14.265 -10.258  1.00  0.00     0.062 N 
ATOM     21  O   UNL     1       4.254  14.259 -11.043  1.00  0.00    -0.258 OA
ATOM     22  O   UNL     1       2.175  14.310 -10.761  1.00  0.00    -0.258 OA
ENDBRANCH   7  20
TORSDOF 2
ENDMDL
MODEL 5
REMARK VINA RESULT:    -4.023      9.938     10.644
REMARK INTER + INTRA:          -4.790
REMARK INTER:                  -4.490
REMARK INTRA:                  -0.299
REMARK UNBOUND:                -0.296
REMARK SMILES O=[N+]([O-])c1ccc2c(c1)N[C@@H](c1cc(Cl)cc(Cl)c1)N2
REMARK SMILES IDX 7 1 8 2 5 3 6 4 20 5 10 6 4 7 11 8 9 9 12 12 14 13 13 14
REMARK SMILES IDX 16 15 17 16 19 17 15 18 18 19 2 20 3 21 1 22
REMARK H PARENT 20 10 10 11
ROOT
ATOM      1  C   UNL     1       1.570   8.137  -1.668  1.00  0.00     0.060 A 
ATOM      2  C   UNL     1       2.398   7.691  -2.670  1.00  0.00     0.066 A 
ATOM      3  C   UNL     1       1.413   5.975  -0.746  1.00  0.00     0.088 A 
ATOM      4  C   UNL     1       1.285   7.385  -0.626  1.00  0.00     0.035 A 
ATOM      5  N   UNL     1       1.353   9.562  -1.824  1.00  0.00    -0.360 N 
ATOM      6  N   UNL     1       2.716   8.834  -3.410  1.00  0.00    -0.360 N 
ATOM      7  C   UNL     1       2.127   5.468  -1.830  1.00  0.00     0.271 A 
ATOM      8  C   UNL     1       2.478   9.915  -2.524  1.00  0.00     0.205 C 
ATOM      9  C   UNL     1       2.657   6.365  -2.809  1.00  0.00     0.113 A 
ATOM     10  H   UNL     1       0.571  10.148  -1.499  1.00  0.00     0.163 HD
ATOM     11  H   UNL     1       3.050   8.880  -4.383  1.00  0.00     0.163 HD
ENDROOT
BRANCH   8  12
ATOM     12  C   UNL     1       2.549  11.324  -3.176  1.00  0.00    -0.003 A 
ATOM     13  C   UNL     1       3.466  12.712  -5.011  1.00  0.00     0.042 A 
ATOM     14  C   UNL     1       2.817  11.494  -4.553  1.00  0.00     0.028 A 
ATOM     15  C   UNL     1       3.279  13.915  -4.192  1.00  0.00     0.041 A 
ATOM     16  C   UNL     1       2.644  13.724  -2.892  1.00  0.00     0.042 A 
ATOM     17  C   UNL     1       2.431  12.457  -2.295  1.00  0.00     0.028 A 
ATOM     18  Cl  UNL     1       4.086  12.947  -6.422  1.00  0.00    -0.084 Cl
ATOM     19  Cl  UNL     1       2.239  15.144  -2.032  1.00  0.00    -0.084 Cl
ENDBRANCH   8  12
BRANCH   7  20
ATOM     20  N   UNL     1       2.450   4.134  -1.977  1.00  0.00     0.062 N 
ATOM     21  O   UNL     1       1.919   3.319  -1.318  1.00  0.00    -0.258 OA
ATOM     22  O   UNL     1       3.163   3.676  -2.970  1.00  0.00    -0.258 OA
ENDBRANCH   7  20
TORSDOF 2
ENDMDL
MODEL 6
REMARK VINA RESULT:    -4.020     13.573     14.666
REMARK INTER + INTRA:          -4.786
REMARK INTER:                  -4.481
REMARK INTRA:                  -0.305
REMARK UNBOUND:                -0.296
REMARK SMILES O=[N+]([O-])c1ccc2c(c1)N[C@@H](c1cc(Cl)cc(Cl)c1)N2
REMARK SMILES IDX 7 1 8 2 5 3 6 4 20 5 10 6 4 7 11 8 9 9 12 12 14 13 13 14
REMARK SMILES IDX 16 15 17 16 19 17 15 18 18 19 2 20 3 21 1 22
REMARK H PARENT 20 10 10 11
ROOT
ATOM      1  C   UNL     1       2.111  14.962  -1.750  1.00  0.00     0.060 A 
ATOM      2  C   UNL     1       2.770  14.539  -0.620  1.00  0.00     0.066 A 
ATOM      3  C   UNL     1       2.287  17.216  -1.088  1.00  0.00     0.088 A 
ATOM      4  C   UNL     1       2.080  16.232  -2.092  1.00  0.00     0.035 A 
ATOM      5  N   UNL     1       1.765  13.811  -2.560  1.00  0.00    -0.360 N 
ATOM      6  N   UNL     1       2.861  13.151  -0.753  1.00  0.00    -0.360 N 
ATOM      7  C   UNL     1       2.823  16.810   0.132  1.00  0.00     0.271 A 
ATOM      8  C   UNL     1       2.712  12.912  -2.143  1.00  0.00     0.205 C 
ATOM      9  C   UNL     1       3.096  15.425   0.358  1.00  0.00     0.113 A 
ATOM     10  H   UNL     1       1.016  13.700  -3.258  1.00  0.00     0.163 HD
ATOM     11  H   UNL     1       3.005  12.456  -0.007  1.00  0.00     0.163 HD
ENDROOT
BRANCH   8  12
ATOM     12  C   UNL     1       2.558  11.417  -2.537  1.00  0.00    -0.003 A 
ATOM     13  C   UNL     1       1.009   9.516  -2.885  1.00  0.00     0.042 A 
ATOM     14  C   UNL     1       1.359  10.912  -3.090  1.00  0.00     0.028 A 
ATOM     15  C   UNL     1       2.115   8.577  -2.665  1.00  0.00     0.041 A 
ATOM     16  C   UNL     1       3.435   9.164  -2.459  1.00  0.00     0.042 A 
ATOM     17  C   UNL     1       3.659  10.543  -2.221  1.00  0.00     0.028 A 
ATOM     18  Cl  UNL     1      -0.380   8.866  -3.167  1.00  0.00    -0.084 Cl
ATOM     19  Cl  UNL     1       4.750   8.073  -2.412  1.00  0.00    -0.084 Cl
ENDBRANCH   8  12
BRANCH   7  20
ATOM     20  N   UNL     1       3.212  17.684   1.126  1.00  0.00     0.062 N 
ATOM     21  O   UNL     1       2.407  18.200   1.810  1.00  0.00    -0.258 OA
ATOM     22  O   UNL     1       4.450  17.818   1.519  1.00  0.00    -0.258 OA
ENDBRANCH   7  20
TORSDOF 2
ENDMDL
MODEL 7
REMARK VINA RESULT:    -4.000     10.015     10.917
REMARK INTER + INTRA:          -4.765
REMARK INTER:                  -4.465
REMARK INTRA:                  -0.300
REMARK UNBOUND:                -0.296
REMARK SMILES O=[N+]([O-])c1ccc2c(c1)N[C@@H](c1cc(Cl)cc(Cl)c1)N2
REMARK SMILES IDX 7 1 8 2 5 3 6 4 20 5 10 6 4 7 11 8 9 9 12 12 14 13 13 14
REMARK SMILES IDX 16 15 17 16 19 17 15 18 18 19 2 20 3 21 1 22
REMARK H PARENT 20 10 10 11
ROOT
ATOM      1  C   UNL     1       3.147   7.622  -2.704  1.00  0.00     0.060 A 
ATOM      2  C   UNL     1       2.347   7.974  -1.642  1.00  0.00     0.066 A 
ATOM      3  C   UNL     1       2.784   5.329  -2.301  1.00  0.00     0.088 A 
ATOM      4  C   UNL     1       3.176   6.389  -3.163  1.00  0.00     0.035 A 
ATOM      5  N   UNL     1       3.654   8.822  -3.338  1.00  0.00    -0.360 N 
ATOM      6  N   UNL     1       2.333   9.371  -1.649  1.00  0.00    -0.360 N 
ATOM      7  C   UNL     1       2.092   5.649  -1.135  1.00  0.00     0.271 A 
ATOM      8  C   UNL     1       2.694   9.729  -2.973  1.00  0.00     0.205 C 
ATOM      9  C   UNL     1       1.845   7.021  -0.815  1.00  0.00     0.113 A 
ATOM     10  H   UNL     1       4.502   8.956  -3.907  1.00  0.00     0.163 HD
ATOM     11  H   UNL     1       2.110  10.001  -0.866  1.00  0.00     0.163 HD
ENDROOT
BRANCH   8  12
ATOM     12  C   UNL     1       2.965  11.244  -3.190  1.00  0.00    -0.003 A 
ATOM     13  C   UNL     1       2.490  13.559  -2.452  1.00  0.00     0.042 A 
ATOM     14  C   UNL     1       2.835  12.182  -2.141  1.00  0.00     0.028 A 
ATOM     15  C   UNL     1       2.868  14.058  -3.779  1.00  0.00     0.041 A 
ATOM     16  C   UNL     1       3.357  13.067  -4.731  1.00  0.00     0.042 A 
ATOM     17  C   UNL     1       3.258  11.667  -4.536  1.00  0.00     0.028 A 
ATOM     18  Cl  UNL     1       2.032  14.644  -1.430  1.00  0.00    -0.084 Cl
ATOM     19  Cl  UNL     1       3.992  13.674  -6.197  1.00  0.00    -0.084 Cl
ENDBRANCH   8  12
BRANCH   7  20
ATOM     20  N   UNL     1       1.526   4.709  -0.299  1.00  0.00     0.062 N 
ATOM     21  O   UNL     1       1.847   3.581  -0.372  1.00  0.00    -0.258 OA
ATOM     22  O   UNL     1       0.803   5.021   0.743  1.00  0.00    -0.258 OA
ENDBRANCH   7  20
TORSDOF 2
ENDMDL
MODEL 8
REMARK VINA RESULT:    -3.972     11.007     11.888
REMARK INTER + INTRA:          -4.733
REMARK INTER:                  -4.433
REMARK INTRA:                  -0.300
REMARK UNBOUND:                -0.296
REMARK SMILES O=[N+]([O-])c1ccc2c(c1)N[C@@H](c1cc(Cl)cc(Cl)c1)N2
REMARK SMILES IDX 7 1 8 2 5 3 6 4 20 5 10 6 4 7 11 8 9 9 12 12 14 13 13 14
REMARK SMILES IDX 16 15 17 16 19 17 15 18 18 19 2 20 3 21 1 22
REMARK H PARENT 20 10 10 11
ROOT
ATOM      1  C   UNL     1       2.729  11.616  -3.582  1.00  0.00     0.060 A 
ATOM      2  C   UNL     1       2.315  11.812  -2.286  1.00  0.00     0.066 A 
ATOM      3  C   UNL     1       3.030  13.929  -3.906  1.00  0.00     0.088 A 
ATOM      4  C   UNL     1       3.285  12.582  -4.280  1.00  0.00     0.035 A 
ATOM      5  N   UNL     1       2.713  10.197  -3.879  1.00  0.00    -0.360 N 
ATOM      6  N   UNL     1       2.085  10.529  -1.782  1.00  0.00    -0.360 N 
ATOM      7  C   UNL     1       2.476  14.171  -2.651  1.00  0.00     0.271 A 
ATOM      8  C   UNL     1       2.843   9.672  -2.620  1.00  0.00     0.205 C 
ATOM      9  C   UNL     1       2.133  13.070  -1.806  1.00  0.00     0.113 A 
ATOM     10  H   UNL     1       2.628   9.716  -4.785  1.00  0.00     0.163 HD
ATOM     11  H   UNL     1       1.496  10.265  -0.979  1.00  0.00     0.163 HD
ENDROOT
BRANCH   8  12
ATOM     12  C   UNL     1       2.587   8.154  -2.405  1.00  0.00    -0.003 A 
ATOM     13  C   UNL     1       1.495   6.413  -1.023  1.00  0.00     0.042 A 
ATOM     14  C   UNL     1       1.437   7.680  -1.734  1.00  0.00     0.028 A 
ATOM     15  C   UNL     1       2.471   5.426  -1.497  1.00  0.00     0.041 A 
ATOM     16  C   UNL     1       3.432   5.889  -2.493  1.00  0.00     0.042 A 
ATOM     17  C   UNL     1       3.627   7.251  -2.831  1.00  0.00     0.028 A 
ATOM     18  Cl  UNL     1       0.437   5.881  -0.009  1.00  0.00    -0.084 Cl
ATOM     19  Cl  UNL     1       4.430   4.693  -3.196  1.00  0.00    -0.084 Cl
ENDBRANCH   8  12
BRANCH   7  20
ATOM     20  N   UNL     1       2.323  15.432  -2.113  1.00  0.00     0.062 N 
ATOM     21  O   UNL     1       2.167  15.568  -0.955  1.00  0.00    -0.258 OA
ATOM     22  O   UNL     1       2.562  16.529  -2.779  1.00  0.00    -0.258 OA
ENDBRANCH   7  20
TORSDOF 2
ENDMDL
MODEL 9
REMARK VINA RESULT:    -3.936     10.742     11.319
REMARK INTER + INTRA:          -4.692
REMARK INTER:                  -4.393
REMARK INTRA:                  -0.300
REMARK UNBOUND:                -0.296
REMARK SMILES O=[N+]([O-])c1ccc2c(c1)N[C@@H](c1cc(Cl)cc(Cl)c1)N2
REMARK SMILES IDX 7 1 8 2 5 3 6 4 20 5 10 6 4 7 11 8 9 9 12 12 14 13 13 14
REMARK SMILES IDX 16 15 17 16 19 17 15 18 18 19 2 20 3 21 1 22
REMARK H PARENT 20 10 10 11
ROOT
ATOM      1  C   UNL     1       2.960  11.753  -3.142  1.00  0.00     0.060 A 
ATOM      2  C   UNL     1       3.240  11.107  -4.323  1.00  0.00     0.066 A 
ATOM      3  C   UNL     1       3.182  13.862  -4.167  1.00  0.00     0.088 A 
ATOM      4  C   UNL     1       2.705  13.043  -3.108  1.00  0.00     0.035 A 
ATOM      5  N   UNL     1       2.722  10.769  -2.104  1.00  0.00    -0.360 N 
ATOM      6  N   UNL     1       3.138   9.746  -4.023  1.00  0.00    -0.360 N 
ATOM      7  C   UNL     1       3.612  13.242  -5.337  1.00  0.00     0.271 A 
ATOM      8  C   UNL     1       2.331   9.693  -2.858  1.00  0.00     0.205 C 
ATOM      9  C   UNL     1       3.614  11.815  -5.421  1.00  0.00     0.113 A 
ATOM     10  H   UNL     1       2.820  10.855  -1.083  1.00  0.00     0.163 HD
ATOM     11  H   UNL     1       3.555   8.957  -4.536  1.00  0.00     0.163 HD
ENDROOT
BRANCH   8  12
ATOM     12  C   UNL     1       2.242   8.294  -2.187  1.00  0.00    -0.003 A 
ATOM     13  C   UNL     1       2.863   5.900  -2.301  1.00  0.00     0.042 A 
ATOM     14  C   UNL     1       3.228   7.304  -2.396  1.00  0.00     0.028 A 
ATOM     15  C   UNL     1       1.721   5.565  -1.442  1.00  0.00     0.041 A 
ATOM     16  C   UNL     1       0.934   6.686  -0.941  1.00  0.00     0.042 A 
ATOM     17  C   UNL     1       1.055   8.014  -1.420  1.00  0.00     0.028 A 
ATOM     18  Cl  UNL     1       3.729   4.692  -2.771  1.00  0.00    -0.084 Cl
ATOM     19  Cl  UNL     1      -0.263   6.312   0.221  1.00  0.00    -0.084 Cl
ENDBRANCH   8  12
BRANCH   7  20
ATOM     20  N   UNL     1       3.952  13.927  -6.486  1.00  0.00     0.062 N 
ATOM     21  O   UNL     1       4.014  13.364  -7.516  1.00  0.00    -0.258 OA
ATOM     22  O   UNL     1       3.997  15.230  -6.556  1.00  0.00    -0.258 OA
ENDBRANCH   7  20
TORSDOF 2
ENDMDL
