MODEL 1
REMARK VINA RESULT:    -4.668      0.000      0.000
REMARK INTER + INTRA:          -5.529
REMARK INTER:                  -5.214
REMARK INTRA:                  -0.315
REMARK UNBOUND:                -0.315
REMARK SMILES O=[N+]([O-])c1ccc2c(c1)N[C@@H](c1cc(Cl)cc(Cl)c1)N2
REMARK SMILES IDX 7 1 8 2 5 3 6 4 20 5 10 6 4 7 11 8 9 9 12 12 14 13 13 14
REMARK SMILES IDX 16 15 17 16 19 17 15 18 18 19 2 20 3 21 1 22
REMARK H PARENT 20 10 10 11
ROOT
ATOM      1  C   UNL     1      -1.705  11.210  -4.022  1.00  0.00     0.060 A 
ATOM      2  C   UNL     1      -2.697  10.481  -4.632  1.00  0.00     0.066 A 
ATOM      3  C   UNL     1      -2.614  13.233  -4.815  1.00  0.00     0.088 A 
ATOM      4  C   UNL     1      -1.784  12.518  -3.910  1.00  0.00     0.035 A 
ATOM      5  N   UNL     1      -0.806  10.308  -3.330  1.00  0.00    -0.360 N 
ATOM      6  N   UNL     1      -2.433   9.153  -4.287  1.00  0.00    -0.360 N 
ATOM      7  C   UNL     1      -3.544  12.515  -5.564  1.00  0.00     0.271 A 
ATOM      8  C   UNL     1      -1.633   9.236  -3.119  1.00  0.00     0.205 C 
ATOM      9  C   UNL     1      -3.599  11.092  -5.444  1.00  0.00     0.113 A 
ATOM     10  H   UNL     1       0.182  10.437  -3.067  1.00  0.00     0.163 HD
ATOM     11  H   UNL     1      -2.750   8.302  -4.773  1.00  0.00     0.163 HD
ENDROOT
BRANCH   8  12
ATOM     12  C   UNL     1      -1.017   7.888  -2.650  1.00  0.00    -0.003 A 
ATOM     13  C   UNL     1       0.601   6.761  -1.152  1.00  0.00     0.042 A 
ATOM     14  C   UNL     1      -0.460   7.733  -1.361  1.00  0.00     0.028 A 
ATOM     15  C   UNL     1       0.640   5.611  -2.062  1.00  0.00     0.041 A 
ATOM     16  C   UNL     1      -0.253   5.664  -3.215  1.00  0.00     0.042 A 
ATOM     17  C   UNL     1      -0.947   6.829  -3.625  1.00  0.00     0.028 A 
ATOM     18  Cl  UNL     1       1.514   6.654   0.107  1.00  0.00    -0.084 Cl
ATOM     19  Cl  UNL     1      -0.360   4.241  -4.156  1.00  0.00    -0.084 Cl
ENDBRANCH   8  12
BRANCH   7  20
ATOM     20  N   UNL     1      -4.505  13.105  -6.359  1.00  0.00     0.062 N 
ATOM     21  O   UNL     1      -5.487  12.520  -6.634  1.00  0.00    -0.258 OA
ATOM     22  O   UNL     1      -4.507  14.376  -6.656  1.00  0.00    -0.258 OA
ENDBRANCH   7  20
TORSDOF 2
ENDMDL
MODEL 2
REMARK VINA RESULT:    -4.660      1.071      2.702
REMARK INTER + INTRA:          -5.519
REMARK INTER:                  -5.204
REMARK INTRA:                  -0.315
REMARK UNBOUND:                -0.315
REMARK SMILES O=[N+]([O-])c1ccc2c(c1)N[C@@H](c1cc(Cl)cc(Cl)c1)N2
REMARK SMILES IDX 7 1 8 2 5 3 6 4 20 5 10 6 4 7 11 8 9 9 12 12 14 13 13 14
REMARK SMILES IDX 16 15 17 16 19 17 15 18 18 19 2 20 3 21 1 22
REMARK H PARENT 20 10 10 11
ROOT
ATOM      1  C   UNL     1      -2.721  10.384  -4.723  1.00  0.00     0.060 A 
ATOM      2  C   UNL     1      -1.773  11.192  -4.141  1.00  0.00     0.066 A 
ATOM      3  C   UNL     1      -3.816  12.241  -5.671  1.00  0.00     0.088 A 
ATOM      4  C   UNL     1      -3.553  10.845  -5.632  1.00  0.00     0.035 A 
ATOM      5  N   UNL     1      -2.438   9.001  -4.393  1.00  0.00    -0.360 N 
ATOM      6  N   UNL     1      -0.898  10.315  -3.495  1.00  0.00    -0.360 N 
ATOM      7  C   UNL     1      -2.961  13.093  -4.976  1.00  0.00     0.271 A 
ATOM      8  C   UNL     1      -1.092   9.069  -4.145  1.00  0.00     0.205 C 
ATOM      9  C   UNL     1      -1.888  12.544  -4.207  1.00  0.00     0.113 A 
ATOM     10  H   UNL     1      -3.072   8.191  -4.356  1.00  0.00     0.163 HD
ATOM     11  H   UNL     1      -0.255  10.526  -2.718  1.00  0.00     0.163 HD
ENDROOT
BRANCH   8  12
ATOM     12  C   UNL     1      -0.387   7.861  -3.467  1.00  0.00    -0.003 A 
ATOM     13  C   UNL     1      -0.152   5.398  -3.354  1.00  0.00     0.042 A 
ATOM     14  C   UNL     1      -0.226   6.624  -4.131  1.00  0.00     0.028 A 
ATOM     15  C   UNL     1       0.346   5.511  -1.978  1.00  0.00     0.041 A 
ATOM     16  C   UNL     1       0.513   6.863  -1.456  1.00  0.00     0.042 A 
ATOM     17  C   UNL     1       0.006   8.024  -2.090  1.00  0.00     0.028 A 
ATOM     18  Cl  UNL     1      -0.261   3.947  -3.914  1.00  0.00    -0.084 Cl
ATOM     19  Cl  UNL     1       1.287   6.998   0.062  1.00  0.00    -0.084 Cl
ENDBRANCH   8  12
BRANCH   7  20
ATOM     20  N   UNL     1      -3.018  14.470  -5.059  1.00  0.00     0.062 N 
ATOM     21  O   UNL     1      -2.082  15.120  -4.771  1.00  0.00    -0.258 OA
ATOM     22  O   UNL     1      -3.984  15.111  -5.658  1.00  0.00    -0.258 OA
ENDBRANCH   7  20
TORSDOF 2
ENDMDL
MODEL 3
REMARK VINA RESULT:    -4.219      1.507      2.151
REMARK INTER + INTRA:          -5.028
REMARK INTER:                  -4.728
REMARK INTRA:                  -0.300
REMARK UNBOUND:                -0.315
REMARK SMILES O=[N+]([O-])c1ccc2c(c1)N[C@@H](c1cc(Cl)cc(Cl)c1)N2
REMARK SMILES IDX 7 1 8 2 5 3 6 4 20 5 10 6 4 7 11 8 9 9 12 12 14 13 13 14
REMARK SMILES IDX 16 15 17 16 19 17 15 18 18 19 2 20 3 21 1 22
REMARK H PARENT 20 10 10 11
ROOT
ATOM      1  C   UNL     1      -2.569  10.934  -4.369  1.00  0.00     0.060 A 
ATOM      2  C   UNL     1      -1.496  11.505  -3.727  1.00  0.00     0.066 A 
ATOM      3  C   UNL     1      -3.238  13.016  -5.244  1.00  0.00     0.088 A 
ATOM      4  C   UNL     1      -3.263  11.595  -5.270  1.00  0.00     0.035 A 
ATOM      5  N   UNL     1      -2.581   9.509  -4.104  1.00  0.00    -0.360 N 
ATOM      6  N   UNL     1      -0.836  10.440  -3.109  1.00  0.00    -0.360 N 
ATOM      7  C   UNL     1      -2.250  13.644  -4.489  1.00  0.00     0.271 A 
ATOM      8  C   UNL     1      -1.257   9.291  -3.825  1.00  0.00     0.205 C 
ATOM      9  C   UNL     1      -1.334  12.854  -3.727  1.00  0.00     0.113 A 
ATOM     10  H   UNL     1      -3.367   8.843  -4.122  1.00  0.00     0.163 HD
ATOM     11  H   UNL     1      -0.188  10.480  -2.310  1.00  0.00     0.163 HD
ENDROOT
BRANCH   8  12
ATOM     12  C   UNL     1      -0.832   7.935  -3.196  1.00  0.00    -0.003 A 
ATOM     13  C   UNL     1       0.468   6.791  -1.425  1.00  0.00     0.042 A 
ATOM     14  C   UNL     1      -0.464   7.828  -1.835  1.00  0.00     0.028 A 
ATOM     15  C   UNL     1       0.522   5.579  -2.250  1.00  0.00     0.041 A 
ATOM     16  C   UNL     1      -0.204   5.621  -3.515  1.00  0.00     0.042 A 
ATOM     17  C   UNL     1      -0.731   6.806  -4.085  1.00  0.00     0.028 A 
ATOM     18  Cl  UNL     1       1.195   6.702  -0.049  1.00  0.00    -0.084 Cl
ATOM     19  Cl  UNL     1      -0.315   4.147  -4.373  1.00  0.00    -0.084 Cl
ENDBRANCH   8  12
BRANCH   7  20
ATOM     20  N   UNL     1      -2.026  15.006  -4.504  1.00  0.00     0.062 N 
ATOM     21  O   UNL     1      -1.023  15.446  -4.077  1.00  0.00    -0.258 OA
ATOM     22  O   UNL     1      -2.768  15.846  -5.172  1.00  0.00    -0.258 OA
ENDBRANCH   7  20
TORSDOF 2
ENDMDL
MODEL 4
REMARK VINA RESULT:    -4.206      0.980      2.242
REMARK INTER + INTRA:          -5.013
REMARK INTER:                  -4.722
REMARK INTRA:                  -0.290
REMARK UNBOUND:                -0.315
REMARK SMILES O=[N+]([O-])c1ccc2c(c1)N[C@@H](c1cc(Cl)cc(Cl)c1)N2
REMARK SMILES IDX 7 1 8 2 5 3 6 4 20 5 10 6 4 7 11 8 9 9 12 12 14 13 13 14
REMARK SMILES IDX 16 15 17 16 19 17 15 18 18 19 2 20 3 21 1 22
REMARK H PARENT 20 10 10 11
ROOT
ATOM      1  C   UNL     1      -2.286  11.108  -4.718  1.00  0.00     0.060 A 
ATOM      2  C   UNL     1      -3.145  10.131  -5.160  1.00  0.00     0.066 A 
ATOM      3  C   UNL     1      -3.641  12.804  -5.632  1.00  0.00     0.088 A 
ATOM      4  C   UNL     1      -2.624  12.380  -4.735  1.00  0.00     0.035 A 
ATOM      5  N   UNL     1      -1.178  10.490  -4.017  1.00  0.00    -0.360 N 
ATOM      6  N   UNL     1      -2.592   8.931  -4.703  1.00  0.00    -0.360 N 
ATOM      7  C   UNL     1      -4.450  11.833  -6.219  1.00  0.00     0.271 A 
ATOM      8  C   UNL     1      -1.751   9.309  -3.626  1.00  0.00     0.205 C 
ATOM      9  C   UNL     1      -4.204  10.451  -5.947  1.00  0.00     0.113 A 
ATOM     10  H   UNL     1      -0.223  10.841  -3.857  1.00  0.00     0.163 HD
ATOM     11  H   UNL     1      -2.758   7.983  -5.069  1.00  0.00     0.163 HD
ENDROOT
BRANCH   8  12
ATOM     12  C   UNL     1      -0.842   8.174  -3.076  1.00  0.00    -0.003 A 
ATOM     13  C   UNL     1      -0.205   5.785  -3.207  1.00  0.00     0.042 A 
ATOM     14  C   UNL     1      -0.497   7.050  -3.860  1.00  0.00     0.028 A 
ATOM     15  C   UNL     1       0.301   5.846  -1.831  1.00  0.00     0.041 A 
ATOM     16  C   UNL     1       0.258   7.151  -1.180  1.00  0.00     0.042 A 
ATOM     17  C   UNL     1      -0.448   8.268  -1.693  1.00  0.00     0.028 A 
ATOM     18  Cl  UNL     1      -0.089   4.397  -3.906  1.00  0.00    -0.084 Cl
ATOM     19  Cl  UNL     1       1.035   7.267   0.338  1.00  0.00    -0.084 Cl
ENDBRANCH   8  12
BRANCH   7  20
ATOM     20  N   UNL     1      -5.562  12.123  -6.983  1.00  0.00     0.062 N 
ATOM     21  O   UNL     1      -6.604  12.301  -6.469  1.00  0.00    -0.258 OA
ATOM     22  O   UNL     1      -5.499  12.438  -8.248  1.00  0.00    -0.258 OA
ENDBRANCH   7  20
TORSDOF 2
ENDMDL
MODEL 5
REMARK VINA RESULT:    -4.086      5.115      7.578
REMARK INTER + INTRA:          -4.879
REMARK INTER:                  -4.580
REMARK INTRA:                  -0.300
REMARK UNBOUND:                -0.315
REMARK SMILES O=[N+]([O-])c1ccc2c(c1)N[C@@H](c1cc(Cl)cc(Cl)c1)N2
REMARK SMILES IDX 7 1 8 2 5 3 6 4 20 5 10 6 4 7 11 8 9 9 12 12 14 13 13 14
REMARK SMILES IDX 16 15 17 16 19 17 15 18 18 19 2 20 3 21 1 22
REMARK H PARENT 20 10 10 11
ROOT
ATOM      1  C   UNL     1      -0.810   7.301  -3.865  1.00  0.00     0.060 A 
ATOM      2  C   UNL     1      -0.166   8.002  -2.873  1.00  0.00     0.066 A 
ATOM      3  C   UNL     1      -0.085   5.245  -2.973  1.00  0.00     0.088 A 
ATOM      4  C   UNL     1      -0.970   5.997  -3.792  1.00  0.00     0.035 A 
ATOM      5  N   UNL     1      -1.476   8.233  -4.753  1.00  0.00    -0.360 N 
ATOM      6  N   UNL     1      -0.465   9.344  -3.127  1.00  0.00    -0.360 N 
ATOM      7  C   UNL     1       0.697   5.930  -2.046  1.00  0.00     0.271 A 
ATOM      8  C   UNL     1      -1.641   9.308  -3.919  1.00  0.00     0.205 C 
ATOM      9  C   UNL     1       0.630   7.357  -1.981  1.00  0.00     0.113 A 
ATOM     10  H   UNL     1      -1.751   8.119  -5.739  1.00  0.00     0.163 HD
ATOM     11  H   UNL     1       0.054  10.174  -2.809  1.00  0.00     0.163 HD
ENDROOT
BRANCH   8  12
ATOM     12  C   UNL     1      -2.065  10.675  -4.523  1.00  0.00    -0.003 A 
ATOM     13  C   UNL     1      -1.966  13.142  -4.335  1.00  0.00     0.042 A 
ATOM     14  C   UNL     1      -1.304  11.848  -4.318  1.00  0.00     0.028 A 
ATOM     15  C   UNL     1      -3.199  13.250  -5.123  1.00  0.00     0.041 A 
ATOM     16  C   UNL     1      -3.755  12.002  -5.634  1.00  0.00     0.042 A 
ATOM     17  C   UNL     1      -3.326  10.717  -5.220  1.00  0.00     0.028 A 
ATOM     18  Cl  UNL     1      -1.354  14.493  -3.854  1.00  0.00    -0.084 Cl
ATOM     19  Cl  UNL     1      -5.067  12.146  -6.721  1.00  0.00    -0.084 Cl
ENDBRANCH   8  12
BRANCH   7  20
ATOM     20  N   UNL     1       1.478   5.306  -1.094  1.00  0.00     0.062 N 
ATOM     21  O   UNL     1       1.685   4.151  -1.161  1.00  0.00    -0.258 OA
ATOM     22  O   UNL     1       2.201   5.957  -0.223  1.00  0.00    -0.258 OA
ENDBRANCH   7  20
TORSDOF 2
ENDMDL
MODEL 6
REMARK VINA RESULT:    -4.074      4.975      7.639
REMARK INTER + INTRA:          -4.866
REMARK INTER:                  -4.566
REMARK INTRA:                  -0.300
REMARK UNBOUND:                -0.315
REMARK SMILES O=[N+]([O-])c1ccc2c(c1)N[C@@H](c1cc(Cl)cc(Cl)c1)N2
REMARK SMILES IDX 7 1 8 2 5 3 6 4 20 5 10 6 4 7 11 8 9 9 12 12 14 13 13 14
REMARK SMILES IDX 16 15 17 16 19 17 15 18 18 19 2 20 3 21 1 22
REMARK H PARENT 20 10 10 11
ROOT
ATOM      1  C   UNL     1      -0.431   8.249  -2.209  1.00  0.00     0.060 A 
ATOM      2  C   UNL     1      -1.070   7.441  -3.119  1.00  0.00     0.066 A 
ATOM      3  C   UNL     1       0.839   6.440  -1.395  1.00  0.00     0.088 A 
ATOM      4  C   UNL     1       0.630   7.837  -1.550  1.00  0.00     0.035 A 
ATOM      5  N   UNL     1      -0.927   9.605  -2.342  1.00  0.00    -0.360 N 
ATOM      6  N   UNL     1      -1.918   8.296  -3.828  1.00  0.00    -0.360 N 
ATOM      7  C   UNL     1       0.106   5.571  -2.201  1.00  0.00     0.271 A 
ATOM      8  C   UNL     1      -1.366   9.589  -3.641  1.00  0.00     0.205 C 
ATOM      9  C   UNL     1      -0.861   6.099  -3.111  1.00  0.00     0.113 A 
ATOM     10  H   UNL     1      -0.945  10.369  -1.653  1.00  0.00     0.163 HD
ATOM     11  H   UNL     1      -2.758   8.043  -4.367  1.00  0.00     0.163 HD
ENDROOT
BRANCH   8  12
ATOM     12  C   UNL     1      -2.250  10.759  -4.153  1.00  0.00    -0.003 A 
ATOM     13  C   UNL     1      -3.996  11.489  -5.751  1.00  0.00     0.042 A 
ATOM     14  C   UNL     1      -3.498  10.532  -4.777  1.00  0.00     0.028 A 
ATOM     15  C   UNL     1      -3.535  12.876  -5.618  1.00  0.00     0.041 A 
ATOM     16  C   UNL     1      -2.460  13.115  -4.660  1.00  0.00     0.042 A 
ATOM     17  C   UNL     1      -1.697  12.086  -4.056  1.00  0.00     0.028 A 
ATOM     18  Cl  UNL     1      -5.188  11.268  -6.731  1.00  0.00    -0.084 Cl
ATOM     19  Cl  UNL     1      -2.069  14.750  -4.353  1.00  0.00    -0.084 Cl
ENDBRANCH   8  12
BRANCH   7  20
ATOM     20  N   UNL     1       0.325   4.210  -2.255  1.00  0.00     0.062 N 
ATOM     21  O   UNL     1       0.960   3.677  -1.421  1.00  0.00    -0.258 OA
ATOM     22  O   UNL     1      -0.318   3.413  -3.065  1.00  0.00    -0.258 OA
ENDBRANCH   7  20
TORSDOF 2
ENDMDL
MODEL 7
REMARK VINA RESULT:    -4.062      3.711      4.745
REMARK INTER + INTRA:          -4.852
REMARK INTER:                  -4.547
REMARK INTRA:                  -0.306
REMARK UNBOUND:                -0.315
REMARK SMILES O=[N+]([O-])c1ccc2c(c1)N[C@@H](c1cc(Cl)cc(Cl)c1)N2
REMARK SMILES IDX 7 1 8 2 5 3 6 4 20 5 10 6 4 7 11 8 9 9 12 12 14 13 13 14
REMARK SMILES IDX 16 15 17 16 19 17 15 18 18 19 2 20 3 21 1 22
REMARK H PARENT 20 10 10 11
ROOT
ATOM      1  C   UNL     1      -1.656  14.555  -4.004  1.00  0.00     0.060 A 
ATOM      2  C   UNL     1      -0.336  14.340  -4.321  1.00  0.00     0.066 A 
ATOM      3  C   UNL     1      -1.460  16.857  -4.462  1.00  0.00     0.088 A 
ATOM      4  C   UNL     1      -2.255  15.692  -4.286  1.00  0.00     0.035 A 
ATOM      5  N   UNL     1      -2.267  13.297  -3.622  1.00  0.00    -0.360 N 
ATOM      6  N   UNL     1      -0.149  12.964  -4.173  1.00  0.00    -0.360 N 
ATOM      7  C   UNL     1      -0.088  16.698  -4.646  1.00  0.00     0.271 A 
ATOM      8  C   UNL     1      -1.450  12.410  -4.274  1.00  0.00     0.205 C 
ATOM      9  C   UNL     1       0.483  15.388  -4.599  1.00  0.00     0.113 A 
ATOM     10  H   UNL     1      -3.088  13.118  -3.027  1.00  0.00     0.163 HD
ATOM     11  H   UNL     1       0.738  12.462  -4.024  1.00  0.00     0.163 HD
ENDROOT
BRANCH   8  12
ATOM     12  C   UNL     1      -1.547  10.898  -3.925  1.00  0.00    -0.003 A 
ATOM     13  C   UNL     1      -1.919   9.200  -2.161  1.00  0.00     0.042 A 
ATOM     14  C   UNL     1      -2.303  10.435  -2.824  1.00  0.00     0.028 A 
ATOM     15  C   UNL     1      -1.195   8.209  -2.965  1.00  0.00     0.041 A 
ATOM     16  C   UNL     1      -0.744   8.645  -4.282  1.00  0.00     0.042 A 
ATOM     17  C   UNL     1      -0.749   9.995  -4.713  1.00  0.00     0.028 A 
ATOM     18  Cl  UNL     1      -2.448   8.694  -0.784  1.00  0.00    -0.084 Cl
ATOM     19  Cl  UNL     1      -0.089   7.435  -5.297  1.00  0.00    -0.084 Cl
ENDBRANCH   8  12
BRANCH   7  20
ATOM     20  N   UNL     1       0.765  17.731  -4.977  1.00  0.00     0.062 N 
ATOM     21  O   UNL     1       1.180  18.447  -4.144  1.00  0.00    -0.258 OA
ATOM     22  O   UNL     1       1.333  17.842  -6.148  1.00  0.00    -0.258 OA
ENDBRANCH   7  20
TORSDOF 2
ENDMDL
MODEL 8
REMARK VINA RESULT:    -3.370      5.146      7.497
REMARK INTER + INTRA:          -4.079
REMARK INTER:                  -3.784
REMARK INTRA:                  -0.295
REMARK UNBOUND:                -0.315
REMARK SMILES O=[N+]([O-])c1ccc2c(c1)N[C@@H](c1cc(Cl)cc(Cl)c1)N2
REMARK SMILES IDX 7 1 8 2 5 3 6 4 20 5 10 6 4 7 11 8 9 9 12 12 14 13 13 14
REMARK SMILES IDX 16 15 17 16 19 17 15 18 18 19 2 20 3 21 1 22
REMARK H PARENT 20 10 10 11
ROOT
ATOM      1  C   UNL     1      -1.880  10.442  -3.085  1.00  0.00     0.060 A 
ATOM      2  C   UNL     1      -1.251  10.172  -4.276  1.00  0.00     0.066 A 
ATOM      3  C   UNL     1      -1.812   8.173  -2.458  1.00  0.00     0.088 A 
ATOM      4  C   UNL     1      -1.945   9.547  -2.122  1.00  0.00     0.035 A 
ATOM      5  N   UNL     1      -2.153  11.863  -3.000  1.00  0.00    -0.360 N 
ATOM      6  N   UNL     1      -1.104  11.415  -4.897  1.00  0.00    -0.360 N 
ATOM      7  C   UNL     1      -1.309   7.847  -3.715  1.00  0.00     0.271 A 
ATOM      8  C   UNL     1      -1.191  12.358  -3.842  1.00  0.00     0.205 C 
ATOM      9  C   UNL     1      -0.994   8.889  -4.642  1.00  0.00     0.113 A 
ATOM     10  H   UNL     1      -2.871  12.364  -2.457  1.00  0.00     0.163 HD
ATOM     11  H   UNL     1      -0.963  11.604  -5.900  1.00  0.00     0.163 HD
ENDROOT
BRANCH   8  12
ATOM     12  C   UNL     1      -1.275  13.842  -4.295  1.00  0.00    -0.003 A 
ATOM     13  C   UNL     1      -0.128  16.032  -4.437  1.00  0.00     0.042 A 
ATOM     14  C   UNL     1      -0.120  14.590  -4.616  1.00  0.00     0.028 A 
ATOM     15  C   UNL     1      -1.429  16.706  -4.519  1.00  0.00     0.041 A 
ATOM     16  C   UNL     1      -2.606  15.845  -4.556  1.00  0.00     0.042 A 
ATOM     17  C   UNL     1      -2.578  14.456  -4.278  1.00  0.00     0.028 A 
ATOM     18  Cl  UNL     1       1.118  16.968  -4.465  1.00  0.00    -0.084 Cl
ATOM     19  Cl  UNL     1      -4.100  16.617  -4.861  1.00  0.00    -0.084 Cl
ENDBRANCH   8  12
BRANCH   7  20
ATOM     20  N   UNL     1      -0.991   6.561  -4.102  1.00  0.00     0.062 N 
ATOM     21  O   UNL     1      -1.635   5.652  -3.727  1.00  0.00    -0.258 OA
ATOM     22  O   UNL     1      -0.138   6.290  -5.053  1.00  0.00    -0.258 OA
ENDBRANCH   7  20
TORSDOF 2
ENDMDL
MODEL 9
REMARK VINA RESULT:    -3.349      5.368      8.183
REMARK INTER + INTRA:          -4.056
REMARK INTER:                  -3.748
REMARK INTRA:                  -0.308
REMARK UNBOUND:                -0.315
REMARK SMILES O=[N+]([O-])c1ccc2c(c1)N[C@@H](c1cc(Cl)cc(Cl)c1)N2
REMARK SMILES IDX 7 1 8 2 5 3 6 4 20 5 10 6 4 7 11 8 9 9 12 12 14 13 13 14
REMARK SMILES IDX 16 15 17 16 19 17 15 18 18 19 2 20 3 21 1 22
REMARK H PARENT 20 10 10 11
ROOT
ATOM      1  C   UNL     1      -2.625  11.969  -4.805  1.00  0.00     0.060 A 
ATOM      2  C   UNL     1      -1.453  11.830  -4.102  1.00  0.00     0.066 A 
ATOM      3  C   UNL     1      -3.001   9.644  -4.765  1.00  0.00     0.088 A 
ATOM      4  C   UNL     1      -3.477  10.973  -4.924  1.00  0.00     0.035 A 
ATOM      5  N   UNL     1      -2.849  13.372  -5.088  1.00  0.00    -0.360 N 
ATOM      6  N   UNL     1      -0.983  13.134  -3.922  1.00  0.00    -0.360 N 
ATOM      7  C   UNL     1      -1.749   9.457  -4.184  1.00  0.00     0.271 A 
ATOM      8  C   UNL     1      -2.128  13.954  -4.079  1.00  0.00     0.205 C 
ATOM      9  C   UNL     1      -0.964  10.595  -3.817  1.00  0.00     0.113 A 
ATOM     10  H   UNL     1      -3.399  13.812  -5.841  1.00  0.00     0.163 HD
ATOM     11  H   UNL     1      -0.018  13.432  -3.721  1.00  0.00     0.163 HD
ENDROOT
BRANCH   8  12
ATOM     12  C   UNL     1      -1.837  15.480  -4.141  1.00  0.00    -0.003 A 
ATOM     13  C   UNL     1      -2.738  17.743  -4.585  1.00  0.00     0.042 A 
ATOM     14  C   UNL     1      -2.855  16.441  -3.951  1.00  0.00     0.028 A 
ATOM     15  C   UNL     1      -1.382  18.225  -4.874  1.00  0.00     0.041 A 
ATOM     16  C   UNL     1      -0.300  17.263  -4.694  1.00  0.00     0.042 A 
ATOM     17  C   UNL     1      -0.499  15.874  -4.504  1.00  0.00     0.028 A 
ATOM     18  Cl  UNL     1      -3.872  18.804  -4.721  1.00  0.00    -0.084 Cl
ATOM     19  Cl  UNL     1       1.289  17.879  -4.827  1.00  0.00    -0.084 Cl
ENDBRANCH   8  12
BRANCH   7  20
ATOM     20  N   UNL     1      -1.243   8.221  -3.837  1.00  0.00     0.062 N 
ATOM     21  O   UNL     1      -1.885   7.477  -3.192  1.00  0.00    -0.258 OA
ATOM     22  O   UNL     1      -0.162   7.716  -4.367  1.00  0.00    -0.258 OA
ENDBRANCH   7  20
TORSDOF 2
ENDMDL
