MODEL 1
REMARK VINA RESULT:    -4.995      0.000      0.000
REMARK INTER + INTRA:          -5.894
REMARK INTER:                  -5.579
REMARK INTRA:                  -0.315
REMARK UNBOUND:                -0.315
REMARK SMILES O=[N+]([O-])c1ccc2c(c1)N[C@@H](c1cc(Cl)cc(Cl)c1)N2
REMARK SMILES IDX 7 1 8 2 5 3 6 4 20 5 10 6 4 7 11 8 9 9 12 12 14 13 13 14
REMARK SMILES IDX 16 15 17 16 19 17 15 18 18 19 2 20 3 21 1 22
REMARK H PARENT 20 10 10 11
ROOT
ATOM      1  C   UNL     1      -8.180   7.630   0.415  1.00  0.00     0.060 A 
ATOM      2  C   UNL     1      -9.202   6.716   0.309  1.00  0.00     0.066 A 
ATOM      3  C   UNL     1      -9.692   9.358   0.941  1.00  0.00     0.088 A 
ATOM      4  C   UNL     1      -8.376   8.822   0.935  1.00  0.00     0.035 A 
ATOM      5  N   UNL     1      -6.918   6.968   0.153  1.00  0.00    -0.360 N 
ATOM      6  N   UNL     1      -8.572   5.502   0.024  1.00  0.00    -0.360 N 
ATOM      7  C   UNL     1     -10.757   8.493   0.696  1.00  0.00     0.271 A 
ATOM      8  C   UNL     1      -7.238   5.674   0.472  1.00  0.00     0.205 C 
ATOM      9  C   UNL     1     -10.496   7.120   0.396  1.00  0.00     0.113 A 
ATOM     10  H   UNL     1      -6.026   7.360  -0.181  1.00  0.00     0.163 HD
ATOM     11  H   UNL     1      -8.985   4.667  -0.415  1.00  0.00     0.163 HD
ENDROOT
BRANCH   8  12
ATOM     12  C   UNL     1      -6.260   4.534   0.071  1.00  0.00    -0.003 A 
ATOM     13  C   UNL     1      -3.910   3.758  -0.021  1.00  0.00     0.042 A 
ATOM     14  C   UNL     1      -5.011   4.365   0.709  1.00  0.00     0.028 A 
ATOM     15  C   UNL     1      -4.260   2.833  -1.105  1.00  0.00     0.041 A 
ATOM     16  C   UNL     1      -5.668   2.779  -1.485  1.00  0.00     0.042 A 
ATOM     17  C   UNL     1      -6.640   3.714  -1.051  1.00  0.00     0.028 A 
ATOM     18  Cl  UNL     1      -2.413   3.752   0.413  1.00  0.00    -0.084 Cl
ATOM     19  Cl  UNL     1      -6.106   1.558  -2.597  1.00  0.00    -0.084 Cl
ENDBRANCH   8  12
BRANCH   7  20
ATOM     20  N   UNL     1     -12.082   8.855   0.824  1.00  0.00     0.062 N 
ATOM     21  O   UNL     1     -12.913   8.032   0.939  1.00  0.00    -0.258 OA
ATOM     22  O   UNL     1     -12.470  10.081   1.052  1.00  0.00    -0.258 OA
ENDBRANCH   7  20
TORSDOF 2
ENDMDL
MODEL 2
REMARK VINA RESULT:    -4.915      0.967      2.630
REMARK INTER + INTRA:          -5.805
REMARK INTER:                  -5.492
REMARK INTRA:                  -0.313
REMARK UNBOUND:                -0.315
REMARK SMILES O=[N+]([O-])c1ccc2c(c1)N[C@@H](c1cc(Cl)cc(Cl)c1)N2
REMARK SMILES IDX 7 1 8 2 5 3 6 4 20 5 10 6 4 7 11 8 9 9 12 12 14 13 13 14
REMARK SMILES IDX 16 15 17 16 19 17 15 18 18 19 2 20 3 21 1 22
REMARK H PARENT 20 10 10 11
ROOT
ATOM      1  C   UNL     1      -9.445   6.458   0.266  1.00  0.00     0.060 A 
ATOM      2  C   UNL     1      -8.564   7.506   0.386  1.00  0.00     0.066 A 
ATOM      3  C   UNL     1     -11.287   7.877   0.644  1.00  0.00     0.088 A 
ATOM      4  C   UNL     1     -10.741   6.658   0.158  1.00  0.00     0.035 A 
ATOM      5  N   UNL     1      -8.706   5.241  -0.003  1.00  0.00    -0.360 N 
ATOM      6  N   UNL     1      -7.305   6.947   0.156  1.00  0.00    -0.360 N 
ATOM      7  C   UNL     1     -10.414   8.928   0.917  1.00  0.00     0.271 A 
ATOM      8  C   UNL     1      -7.566   5.754  -0.564  1.00  0.00     0.205 C 
ATOM      9  C   UNL     1      -9.006   8.737   0.755  1.00  0.00     0.113 A 
ATOM     10  H   UNL     1      -8.966   4.260   0.177  1.00  0.00     0.163 HD
ATOM     11  H   UNL     1      -6.389   7.319   0.446  1.00  0.00     0.163 HD
ENDROOT
BRANCH   8  12
ATOM     12  C   UNL     1      -6.336   4.824  -0.759  1.00  0.00    -0.003 A 
ATOM     13  C   UNL     1      -5.499   2.641  -1.577  1.00  0.00     0.042 A 
ATOM     14  C   UNL     1      -6.299   3.839  -1.771  1.00  0.00     0.028 A 
ATOM     15  C   UNL     1      -4.341   2.752  -0.682  1.00  0.00     0.041 A 
ATOM     16  C   UNL     1      -4.232   3.985   0.090  1.00  0.00     0.042 A 
ATOM     17  C   UNL     1      -5.271   4.941   0.205  1.00  0.00     0.028 A 
ATOM     18  Cl  UNL     1      -5.561   1.344  -2.439  1.00  0.00    -0.084 Cl
ATOM     19  Cl  UNL     1      -2.782   4.202   0.969  1.00  0.00    -0.084 Cl
ENDBRANCH   8  12
BRANCH   7  20
ATOM     20  N   UNL     1     -10.829  10.202   1.245  1.00  0.00     0.062 N 
ATOM     21  O   UNL     1     -10.187  11.135   0.929  1.00  0.00    -0.258 OA
ATOM     22  O   UNL     1     -12.022  10.471   1.703  1.00  0.00    -0.258 OA
ENDBRANCH   7  20
TORSDOF 2
ENDMDL
MODEL 3
REMARK VINA RESULT:    -4.903      5.092      7.608
REMARK INTER + INTRA:          -5.791
REMARK INTER:                  -5.492
REMARK INTRA:                  -0.299
REMARK UNBOUND:                -0.315
REMARK SMILES O=[N+]([O-])c1ccc2c(c1)N[C@@H](c1cc(Cl)cc(Cl)c1)N2
REMARK SMILES IDX 7 1 8 2 5 3 6 4 20 5 10 6 4 7 11 8 9 9 12 12 14 13 13 14
REMARK SMILES IDX 16 15 17 16 19 17 15 18 18 19 2 20 3 21 1 22
REMARK H PARENT 20 10 10 11
ROOT
ATOM      1  C   UNL     1      -6.726   4.123  -0.475  1.00  0.00     0.060 A 
ATOM      2  C   UNL     1      -5.737   5.058  -0.283  1.00  0.00     0.066 A 
ATOM      3  C   UNL     1      -5.147   2.380  -0.593  1.00  0.00     0.088 A 
ATOM      4  C   UNL     1      -6.479   2.834  -0.393  1.00  0.00     0.035 A 
ATOM      5  N   UNL     1      -8.016   4.785  -0.474  1.00  0.00    -0.360 N 
ATOM      6  N   UNL     1      -6.412   6.272  -0.128  1.00  0.00    -0.360 N 
ATOM      7  C   UNL     1      -4.118   3.317  -0.550  1.00  0.00     0.271 A 
ATOM      8  C   UNL     1      -7.726   5.906   0.260  1.00  0.00     0.205 C 
ATOM      9  C   UNL     1      -4.429   4.700  -0.361  1.00  0.00     0.113 A 
ATOM     10  H   UNL     1      -8.905   4.494  -0.904  1.00  0.00     0.163 HD
ATOM     11  H   UNL     1      -6.038   7.221  -0.265  1.00  0.00     0.163 HD
ENDROOT
BRANCH   8  12
ATOM     12  C   UNL     1      -8.750   7.076   0.287  1.00  0.00    -0.003 A 
ATOM     13  C   UNL     1      -9.171   9.445   0.871  1.00  0.00     0.042 A 
ATOM     14  C   UNL     1      -8.338   8.427   0.253  1.00  0.00     0.028 A 
ATOM     15  C   UNL     1     -10.609   9.166   0.960  1.00  0.00     0.041 A 
ATOM     16  C   UNL     1     -11.030   7.812   0.618  1.00  0.00     0.042 A 
ATOM     17  C   UNL     1     -10.137   6.724   0.451  1.00  0.00     0.028 A 
ATOM     18  Cl  UNL     1      -8.751  10.915   1.177  1.00  0.00    -0.084 Cl
ATOM     19  Cl  UNL     1     -12.715   7.545   0.519  1.00  0.00    -0.084 Cl
ENDBRANCH   8  12
BRANCH   7  20
ATOM     20  N   UNL     1      -2.779   2.985  -0.576  1.00  0.00     0.062 N 
ATOM     21  O   UNL     1      -1.993   3.641   0.002  1.00  0.00    -0.258 OA
ATOM     22  O   UNL     1      -2.333   1.843  -1.026  1.00  0.00    -0.258 OA
ENDBRANCH   7  20
TORSDOF 2
ENDMDL
MODEL 4
REMARK VINA RESULT:    -4.851      5.029      7.647
REMARK INTER + INTRA:          -5.733
REMARK INTER:                  -5.435
REMARK INTRA:                  -0.298
REMARK UNBOUND:                -0.315
REMARK SMILES O=[N+]([O-])c1ccc2c(c1)N[C@@H](c1cc(Cl)cc(Cl)c1)N2
REMARK SMILES IDX 7 1 8 2 5 3 6 4 20 5 10 6 4 7 11 8 9 9 12 12 14 13 13 14
REMARK SMILES IDX 16 15 17 16 19 17 15 18 18 19 2 20 3 21 1 22
REMARK H PARENT 20 10 10 11
ROOT
ATOM      1  C   UNL     1      -5.617   5.199  -0.134  1.00  0.00     0.060 A 
ATOM      2  C   UNL     1      -6.484   4.145  -0.299  1.00  0.00     0.066 A 
ATOM      3  C   UNL     1      -3.787   3.888  -0.829  1.00  0.00     0.088 A 
ATOM      4  C   UNL     1      -4.387   5.156  -0.598  1.00  0.00     0.035 A 
ATOM      5  N   UNL     1      -6.355   6.357   0.328  1.00  0.00    -0.360 N 
ATOM      6  N   UNL     1      -7.743   4.660   0.021  1.00  0.00    -0.360 N 
ATOM      7  C   UNL     1      -4.612   2.766  -0.864  1.00  0.00     0.271 A 
ATOM      8  C   UNL     1      -7.610   6.063  -0.138  1.00  0.00     0.205 C 
ATOM      9  C   UNL     1      -6.013   2.911  -0.615  1.00  0.00     0.113 A 
ATOM     10  H   UNL     1      -6.028   7.176   0.860  1.00  0.00     0.163 HD
ATOM     11  H   UNL     1      -8.582   4.136   0.308  1.00  0.00     0.163 HD
ENDROOT
BRANCH   8  12
ATOM     12  C   UNL     1      -8.819   6.897   0.369  1.00  0.00    -0.003 A 
ATOM     13  C   UNL     1     -11.283   7.114   0.481  1.00  0.00     0.042 A 
ATOM     14  C   UNL     1     -10.081   6.308   0.611  1.00  0.00     0.028 A 
ATOM     15  C   UNL     1     -11.145   8.558   0.698  1.00  0.00     0.041 A 
ATOM     16  C   UNL     1      -9.783   9.071   0.810  1.00  0.00     0.042 A 
ATOM     17  C   UNL     1      -8.626   8.320   0.486  1.00  0.00     0.028 A 
ATOM     18  Cl  UNL     1     -12.746   6.578   0.430  1.00  0.00    -0.084 Cl
ATOM     19  Cl  UNL     1      -9.626  10.710   1.269  1.00  0.00    -0.084 Cl
ENDBRANCH   8  12
BRANCH   7  20
ATOM     20  N   UNL     1      -4.178   1.508  -1.228  1.00  0.00     0.062 N 
ATOM     21  O   UNL     1      -3.096   1.148  -0.943  1.00  0.00    -0.258 OA
ATOM     22  O   UNL     1      -4.974   0.581  -1.689  1.00  0.00    -0.258 OA
ENDBRANCH   7  20
TORSDOF 2
ENDMDL
MODEL 5
REMARK VINA RESULT:    -4.777      5.124      7.795
REMARK INTER + INTRA:          -5.650
REMARK INTER:                  -5.333
REMARK INTRA:                  -0.318
REMARK UNBOUND:                -0.315
REMARK SMILES O=[N+]([O-])c1ccc2c(c1)N[C@@H](c1cc(Cl)cc(Cl)c1)N2
REMARK SMILES IDX 7 1 8 2 5 3 6 4 20 5 10 6 4 7 11 8 9 9 12 12 14 13 13 14
REMARK SMILES IDX 16 15 17 16 19 17 15 18 18 19 2 20 3 21 1 22
REMARK H PARENT 20 10 10 11
ROOT
ATOM      1  C   UNL     1      -6.540   3.996  -0.591  1.00  0.00     0.060 A 
ATOM      2  C   UNL     1      -5.564   4.783  -0.028  1.00  0.00     0.066 A 
ATOM      3  C   UNL     1      -4.987   2.287  -1.056  1.00  0.00     0.088 A 
ATOM      4  C   UNL     1      -6.326   2.729  -0.871  1.00  0.00     0.035 A 
ATOM      5  N   UNL     1      -7.810   4.693  -0.529  1.00  0.00    -0.360 N 
ATOM      6  N   UNL     1      -6.232   5.930   0.409  1.00  0.00    -0.360 N 
ATOM      7  C   UNL     1      -3.954   3.118  -0.628  1.00  0.00     0.271 A 
ATOM      8  C   UNL     1      -7.588   5.533   0.530  1.00  0.00     0.205 C 
ATOM      9  C   UNL     1      -4.262   4.398  -0.071  1.00  0.00     0.113 A 
ATOM     10  H   UNL     1      -8.648   4.586  -1.118  1.00  0.00     0.163 HD
ATOM     11  H   UNL     1      -5.828   6.858   0.600  1.00  0.00     0.163 HD
ENDROOT
BRANCH   8  12
ATOM     12  C   UNL     1      -8.588   6.693   0.796  1.00  0.00    -0.003 A 
ATOM     13  C   UNL     1     -10.927   7.488   0.633  1.00  0.00     0.042 A 
ATOM     14  C   UNL     1      -9.967   6.457   0.991  1.00  0.00     0.028 A 
ATOM     15  C   UNL     1     -10.455   8.878   0.663  1.00  0.00     0.041 A 
ATOM     16  C   UNL     1      -9.020   9.073   0.838  1.00  0.00     0.042 A 
ATOM     17  C   UNL     1      -8.062   8.033   0.736  1.00  0.00     0.028 A 
ATOM     18  Cl  UNL     1     -12.470   7.304   0.511  1.00  0.00    -0.084 Cl
ATOM     19  Cl  UNL     1      -8.499  10.682   1.082  1.00  0.00    -0.084 Cl
ENDBRANCH   8  12
BRANCH   7  20
ATOM     20  N   UNL     1      -2.627   2.741  -0.611  1.00  0.00     0.062 N 
ATOM     21  O   UNL     1      -2.285   1.749  -1.141  1.00  0.00    -0.258 OA
ATOM     22  O   UNL     1      -1.663   3.534  -0.229  1.00  0.00    -0.258 OA
ENDBRANCH   7  20
TORSDOF 2
ENDMDL
MODEL 6
REMARK VINA RESULT:    -4.773      5.047      7.452
REMARK INTER + INTRA:          -5.646
REMARK INTER:                  -5.329
REMARK INTRA:                  -0.317
REMARK UNBOUND:                -0.315
REMARK SMILES O=[N+]([O-])c1ccc2c(c1)N[C@@H](c1cc(Cl)cc(Cl)c1)N2
REMARK SMILES IDX 7 1 8 2 5 3 6 4 20 5 10 6 4 7 11 8 9 9 12 12 14 13 13 14
REMARK SMILES IDX 16 15 17 16 19 17 15 18 18 19 2 20 3 21 1 22
REMARK H PARENT 20 10 10 11
ROOT
ATOM      1  C   UNL     1      -5.497   5.000   0.075  1.00  0.00     0.060 A 
ATOM      2  C   UNL     1      -6.314   4.075  -0.530  1.00  0.00     0.066 A 
ATOM      3  C   UNL     1      -3.608   3.627  -0.229  1.00  0.00     0.088 A 
ATOM      4  C   UNL     1      -4.187   4.901   0.018  1.00  0.00     0.035 A 
ATOM      5  N   UNL     1      -6.288   6.147   0.476  1.00  0.00    -0.360 N 
ATOM      6  N   UNL     1      -7.582   4.663  -0.536  1.00  0.00    -0.360 N 
ATOM      7  C   UNL     1      -4.430   2.612  -0.712  1.00  0.00     0.271 A 
ATOM      8  C   UNL     1      -7.336   6.053  -0.402  1.00  0.00     0.205 C 
ATOM      9  C   UNL     1      -5.827   2.860  -0.891  1.00  0.00     0.113 A 
ATOM     10  H   UNL     1      -6.112   6.841   1.216  1.00  0.00     0.163 HD
ATOM     11  H   UNL     1      -8.494   4.190  -0.619  1.00  0.00     0.163 HD
ENDROOT
BRANCH   8  12
ATOM     12  C   UNL     1      -8.602   6.921  -0.162  1.00  0.00    -0.003 A 
ATOM     13  C   UNL     1      -9.519   9.044   0.724  1.00  0.00     0.042 A 
ATOM     14  C   UNL     1      -8.533   8.330  -0.069  1.00  0.00     0.028 A 
ATOM     15  C   UNL     1     -10.831   8.408   0.887  1.00  0.00     0.041 A 
ATOM     16  C   UNL     1     -10.947   7.030   0.422  1.00  0.00     0.042 A 
ATOM     17  C   UNL     1      -9.841   6.220   0.064  1.00  0.00     0.028 A 
ATOM     18  Cl  UNL     1      -9.436  10.536   1.167  1.00  0.00    -0.084 Cl
ATOM     19  Cl  UNL     1     -12.520   6.361   0.419  1.00  0.00    -0.084 Cl
ENDBRANCH   8  12
BRANCH   7  20
ATOM     20  N   UNL     1      -3.963   1.384  -1.133  1.00  0.00     0.062 N 
ATOM     21  O   UNL     1      -2.852   1.066  -0.919  1.00  0.00    -0.258 OA
ATOM     22  O   UNL     1      -4.743   0.433  -1.572  1.00  0.00    -0.258 OA
ENDBRANCH   7  20
TORSDOF 2
ENDMDL
MODEL 7
REMARK VINA RESULT:    -4.589      1.239      1.959
REMARK INTER + INTRA:          -5.441
REMARK INTER:                  -5.141
REMARK INTRA:                  -0.300
REMARK UNBOUND:                -0.315
REMARK SMILES O=[N+]([O-])c1ccc2c(c1)N[C@@H](c1cc(Cl)cc(Cl)c1)N2
REMARK SMILES IDX 7 1 8 2 5 3 6 4 20 5 10 6 4 7 11 8 9 9 12 12 14 13 13 14
REMARK SMILES IDX 16 15 17 16 19 17 15 18 18 19 2 20 3 21 1 22
REMARK H PARENT 20 10 10 11
ROOT
ATOM      1  C   UNL     1      -9.191   6.882   0.545  1.00  0.00     0.060 A 
ATOM      2  C   UNL     1      -8.134   7.760   0.569  1.00  0.00     0.066 A 
ATOM      3  C   UNL     1     -10.740   8.637   0.807  1.00  0.00     0.088 A 
ATOM      4  C   UNL     1     -10.432   7.303   0.426  1.00  0.00     0.035 A 
ATOM      5  N   UNL     1      -8.688   5.533   0.379  1.00  0.00    -0.360 N 
ATOM      6  N   UNL     1      -7.000   6.965   0.382  1.00  0.00    -0.360 N 
ATOM      7  C   UNL     1      -9.687   9.532   0.983  1.00  0.00     0.271 A 
ATOM      8  C   UNL     1      -7.486   5.782  -0.230  1.00  0.00     0.205 C 
ATOM      9  C   UNL     1      -8.340   9.077   0.831  1.00  0.00     0.113 A 
ATOM     10  H   UNL     1      -9.116   4.634   0.645  1.00  0.00     0.163 HD
ATOM     11  H   UNL     1      -6.027   7.189   0.633  1.00  0.00     0.163 HD
ENDROOT
BRANCH   8  12
ATOM     12  C   UNL     1      -6.447   4.632  -0.349  1.00  0.00    -0.003 A 
ATOM     13  C   UNL     1      -4.107   3.911   0.015  1.00  0.00     0.042 A 
ATOM     14  C   UNL     1      -5.315   4.561   0.493  1.00  0.00     0.028 A 
ATOM     15  C   UNL     1      -4.270   2.871  -1.009  1.00  0.00     0.041 A 
ATOM     16  C   UNL     1      -5.598   2.743  -1.599  1.00  0.00     0.042 A 
ATOM     17  C   UNL     1      -6.635   3.693  -1.426  1.00  0.00     0.028 A 
ATOM     18  Cl  UNL     1      -2.698   3.987   0.678  1.00  0.00    -0.084 Cl
ATOM     19  Cl  UNL     1      -5.841   1.404  -2.632  1.00  0.00    -0.084 Cl
ENDBRANCH   8  12
BRANCH   7  20
ATOM     20  N   UNL     1      -9.860  10.884   1.201  1.00  0.00     0.062 N 
ATOM     21  O   UNL     1      -8.930  11.603   1.233  1.00  0.00    -0.258 OA
ATOM     22  O   UNL     1     -11.024  11.473   1.157  1.00  0.00    -0.258 OA
ENDBRANCH   7  20
TORSDOF 2
ENDMDL
MODEL 8
REMARK VINA RESULT:    -4.588      0.903      2.230
REMARK INTER + INTRA:          -5.439
REMARK INTER:                  -5.140
REMARK INTRA:                  -0.299
REMARK UNBOUND:                -0.315
REMARK SMILES O=[N+]([O-])c1ccc2c(c1)N[C@@H](c1cc(Cl)cc(Cl)c1)N2
REMARK SMILES IDX 7 1 8 2 5 3 6 4 20 5 10 6 4 7 11 8 9 9 12 12 14 13 13 14
REMARK SMILES IDX 16 15 17 16 19 17 15 18 18 19 2 20 3 21 1 22
REMARK H PARENT 20 10 10 11
ROOT
ATOM      1  C   UNL     1      -8.922   7.341   0.229  1.00  0.00     0.060 A 
ATOM      2  C   UNL     1      -9.652   6.177   0.206  1.00  0.00     0.066 A 
ATOM      3  C   UNL     1     -10.839   8.611   0.738  1.00  0.00     0.088 A 
ATOM      4  C   UNL     1      -9.427   8.460   0.702  1.00  0.00     0.035 A 
ATOM      5  N   UNL     1      -7.533   7.040  -0.055  1.00  0.00    -0.360 N 
ATOM      6  N   UNL     1      -8.718   5.170  -0.050  1.00  0.00    -0.360 N 
ATOM      7  C   UNL     1     -11.628   7.474   0.577  1.00  0.00     0.271 A 
ATOM      8  C   UNL     1      -7.472   5.727   0.335  1.00  0.00     0.205 C 
ATOM      9  C   UNL     1     -11.004   6.211   0.329  1.00  0.00     0.113 A 
ATOM     10  H   UNL     1      -6.795   7.645  -0.443  1.00  0.00     0.163 HD
ATOM     11  H   UNL     1      -8.895   4.230  -0.433  1.00  0.00     0.163 HD
ENDROOT
BRANCH   8  12
ATOM     12  C   UNL     1      -6.228   4.881  -0.054  1.00  0.00    -0.003 A 
ATOM     13  C   UNL     1      -5.380   2.830  -1.154  1.00  0.00     0.042 A 
ATOM     14  C   UNL     1      -6.242   4.001  -1.160  1.00  0.00     0.028 A 
ATOM     15  C   UNL     1      -4.153   2.911  -0.353  1.00  0.00     0.041 A 
ATOM     16  C   UNL     1      -4.025   4.068   0.526  1.00  0.00     0.042 A 
ATOM     17  C   UNL     1      -5.087   4.957   0.823  1.00  0.00     0.028 A 
ATOM     18  Cl  UNL     1      -5.467   1.620  -2.132  1.00  0.00    -0.084 Cl
ATOM     19  Cl  UNL     1      -2.513   4.270   1.297  1.00  0.00    -0.084 Cl
ENDBRANCH   8  12
BRANCH   7  20
ATOM     20  N   UNL     1     -12.998   7.463   0.744  1.00  0.00     0.062 N 
ATOM     21  O   UNL     1     -13.583   6.444   0.779  1.00  0.00    -0.258 OA
ATOM     22  O   UNL     1     -13.685   8.516   1.093  1.00  0.00    -0.258 OA
ENDBRANCH   7  20
TORSDOF 2
ENDMDL
MODEL 9
REMARK VINA RESULT:    -4.128      3.386      4.365
REMARK INTER + INTRA:          -4.925
REMARK INTER:                  -4.620
REMARK INTRA:                  -0.305
REMARK UNBOUND:                -0.315
REMARK SMILES O=[N+]([O-])c1ccc2c(c1)N[C@@H](c1cc(Cl)cc(Cl)c1)N2
REMARK SMILES IDX 7 1 8 2 5 3 6 4 20 5 10 6 4 7 11 8 9 9 12 12 14 13 13 14
REMARK SMILES IDX 16 15 17 16 19 17 15 18 18 19 2 20 3 21 1 22
REMARK H PARENT 20 10 10 11
ROOT
ATOM      1  C   UNL     1      -9.010  10.428   1.142  1.00  0.00     0.060 A 
ATOM      2  C   UNL     1      -8.139  10.705   0.116  1.00  0.00     0.066 A 
ATOM      3  C   UNL     1      -9.737  12.667   1.217  1.00  0.00     0.088 A 
ATOM      4  C   UNL     1      -9.931  11.291   1.514  1.00  0.00     0.035 A 
ATOM      5  N   UNL     1      -8.917   9.022   1.482  1.00  0.00    -0.360 N 
ATOM      6  N   UNL     1      -7.548   9.478  -0.197  1.00  0.00    -0.360 N 
ATOM      7  C   UNL     1      -8.762  13.009   0.282  1.00  0.00     0.271 A 
ATOM      8  C   UNL     1      -8.451   8.505   0.301  1.00  0.00     0.205 C 
ATOM      9  C   UNL     1      -7.957  11.984  -0.305  1.00  0.00     0.113 A 
ATOM     10  H   UNL     1      -9.140   8.543   2.365  1.00  0.00     0.163 HD
ATOM     11  H   UNL     1      -6.654   9.317  -0.682  1.00  0.00     0.163 HD
ENDROOT
BRANCH   8  12
ATOM     12  C   UNL     1      -7.921   7.045   0.273  1.00  0.00    -0.003 A 
ATOM     13  C   UNL     1      -6.671   5.273   1.470  1.00  0.00     0.042 A 
ATOM     14  C   UNL     1      -7.683   6.316   1.461  1.00  0.00     0.028 A 
ATOM     15  C   UNL     1      -6.378   4.618   0.190  1.00  0.00     0.041 A 
ATOM     16  C   UNL     1      -6.969   5.221  -1.000  1.00  0.00     0.042 A 
ATOM     17  C   UNL     1      -7.584   6.497  -1.016  1.00  0.00     0.028 A 
ATOM     18  Cl  UNL     1      -6.083   4.574   2.733  1.00  0.00    -0.084 Cl
ATOM     19  Cl  UNL     1      -6.801   4.344  -2.457  1.00  0.00    -0.084 Cl
ENDBRANCH   8  12
BRANCH   7  20
ATOM     20  N   UNL     1      -8.583  14.288  -0.203  1.00  0.00     0.062 N 
ATOM     21  O   UNL     1      -7.949  15.069   0.404  1.00  0.00    -0.258 OA
ATOM     22  O   UNL     1      -8.889  14.640  -1.423  1.00  0.00    -0.258 OA
ENDBRANCH   7  20
TORSDOF 2
ENDMDL
