MODEL 1
REMARK VINA RESULT:    -5.775      0.000      0.000
REMARK INTER + INTRA:          -6.747
REMARK INTER:                  -6.450
REMARK INTRA:                  -0.297
REMARK UNBOUND:                -0.297
REMARK SMILES O=[N+]([O-])c1ccc2c(c1)N[C@@H](c1cc(Cl)cc(Cl)c1)N2
REMARK SMILES IDX 7 1 8 2 5 3 6 4 20 5 10 6 4 7 11 8 9 9 12 12 14 13 13 14
REMARK SMILES IDX 16 15 17 16 19 17 15 18 18 19 2 20 3 21 1 22
REMARK H PARENT 20 10 10 11
ROOT
ATOM      1  C   UNL     1      -0.508  -7.958  -4.046  1.00  0.00     0.060 A 
ATOM      2  C   UNL     1      -0.249  -8.673  -2.902  1.00  0.00     0.066 A 
ATOM      3  C   UNL     1       0.372  -5.991  -3.095  1.00  0.00     0.088 A 
ATOM      4  C   UNL     1      -0.013  -6.753  -4.231  1.00  0.00     0.035 A 
ATOM      5  N   UNL     1      -1.113  -8.834  -5.030  1.00  0.00    -0.360 N 
ATOM      6  N   UNL     1      -0.653  -9.979  -3.192  1.00  0.00    -0.360 N 
ATOM      7  C   UNL     1       0.510  -6.650  -1.875  1.00  0.00     0.271 A 
ATOM      8  C   UNL     1      -0.647 -10.052  -4.609  1.00  0.00     0.205 C 
ATOM      9  C   UNL     1       0.213  -8.046  -1.789  1.00  0.00     0.113 A 
ATOM     10  H   UNL     1      -1.724  -8.605  -5.827  1.00  0.00     0.163 HD
ATOM     11  H   UNL     1      -0.901 -10.724  -2.525  1.00  0.00     0.163 HD
ENDROOT
BRANCH   8  12
ATOM     12  C   UNL     1      -1.272 -11.345  -5.200  1.00  0.00    -0.003 A 
ATOM     13  C   UNL     1      -1.422 -13.815  -5.082  1.00  0.00     0.042 A 
ATOM     14  C   UNL     1      -1.431 -12.517  -4.427  1.00  0.00     0.028 A 
ATOM     15  C   UNL     1      -1.843 -13.855  -6.487  1.00  0.00     0.041 A 
ATOM     16  C   UNL     1      -2.023 -12.567  -7.148  1.00  0.00     0.042 A 
ATOM     17  C   UNL     1      -1.591 -11.332  -6.605  1.00  0.00     0.028 A 
ATOM     18  Cl  UNL     1      -1.298 -15.199  -4.376  1.00  0.00    -0.084 Cl
ATOM     19  Cl  UNL     1      -2.713 -12.608  -8.712  1.00  0.00    -0.084 Cl
ENDBRANCH   8  12
BRANCH   7  20
ATOM     20  N   UNL     1       1.022  -6.057  -0.739  1.00  0.00     0.062 N 
ATOM     21  O   UNL     1       1.812  -6.624  -0.079  1.00  0.00    -0.258 OA
ATOM     22  O   UNL     1       0.855  -4.794  -0.454  1.00  0.00    -0.258 OA
ENDBRANCH   7  20
TORSDOF 2
ENDMDL
MODEL 2
REMARK VINA RESULT:    -5.752      1.060      2.696
REMARK INTER + INTRA:          -6.722
REMARK INTER:                  -6.425
REMARK INTRA:                  -0.297
REMARK UNBOUND:                -0.297
REMARK SMILES O=[N+]([O-])c1ccc2c(c1)N[C@@H](c1cc(Cl)cc(Cl)c1)N2
REMARK SMILES IDX 7 1 8 2 5 3 6 4 20 5 10 6 4 7 11 8 9 9 12 12 14 13 13 14
REMARK SMILES IDX 16 15 17 16 19 17 15 18 18 19 2 20 3 21 1 22
REMARK H PARENT 20 10 10 11
ROOT
ATOM      1  C   UNL     1      -0.260  -8.735  -2.833  1.00  0.00     0.060 A 
ATOM      2  C   UNL     1      -0.480  -7.872  -3.880  1.00  0.00     0.066 A 
ATOM      3  C   UNL     1       0.039  -6.943  -1.334  1.00  0.00     0.088 A 
ATOM      4  C   UNL     1      -0.242  -8.313  -1.587  1.00  0.00     0.035 A 
ATOM      5  N   UNL     1      -0.356 -10.100  -3.311  1.00  0.00    -0.360 N 
ATOM      6  N   UNL     1      -0.745  -8.696  -4.978  1.00  0.00    -0.360 N 
ATOM      7  C   UNL     1      -0.032  -6.048  -2.398  1.00  0.00     0.271 A 
ATOM      8  C   UNL     1      -1.155  -9.930  -4.412  1.00  0.00     0.205 C 
ATOM      9  C   UNL     1      -0.329  -6.533  -3.710  1.00  0.00     0.113 A 
ATOM     10  H   UNL     1       0.061 -10.961  -2.929  1.00  0.00     0.163 HD
ATOM     11  H   UNL     1      -0.661  -8.459  -5.976  1.00  0.00     0.163 HD
ENDROOT
BRANCH   8  12
ATOM     12  C   UNL     1      -1.302 -11.098  -5.426  1.00  0.00    -0.003 A 
ATOM     13  C   UNL     1      -2.165 -11.832  -7.628  1.00  0.00     0.042 A 
ATOM     14  C   UNL     1      -1.446 -10.867  -6.813  1.00  0.00     0.028 A 
ATOM     15  C   UNL     1      -2.184 -13.221  -7.156  1.00  0.00     0.041 A 
ATOM     16  C   UNL     1      -1.667 -13.458  -5.812  1.00  0.00     0.042 A 
ATOM     17  C   UNL     1      -1.388 -12.429  -4.879  1.00  0.00     0.028 A 
ATOM     18  Cl  UNL     1      -2.661 -11.611  -9.089  1.00  0.00    -0.084 Cl
ATOM     19  Cl  UNL     1      -1.495 -15.093  -5.344  1.00  0.00    -0.084 Cl
ENDBRANCH   8  12
BRANCH   7  20
ATOM     20  N   UNL     1       0.068  -4.679  -2.255  1.00  0.00     0.062 N 
ATOM     21  O   UNL     1      -0.655  -3.966  -2.848  1.00  0.00    -0.258 OA
ATOM     22  O   UNL     1       0.778  -4.107  -1.321  1.00  0.00    -0.258 OA
ENDBRANCH   7  20
TORSDOF 2
ENDMDL
MODEL 3
REMARK VINA RESULT:    -5.441      1.079      1.827
REMARK INTER + INTRA:          -6.375
REMARK INTER:                  -6.056
REMARK INTRA:                  -0.319
REMARK UNBOUND:                -0.297
REMARK SMILES O=[N+]([O-])c1ccc2c(c1)N[C@@H](c1cc(Cl)cc(Cl)c1)N2
REMARK SMILES IDX 7 1 8 2 5 3 6 4 20 5 10 6 4 7 11 8 9 9 12 12 14 13 13 14
REMARK SMILES IDX 16 15 17 16 19 17 15 18 18 19 2 20 3 21 1 22
REMARK H PARENT 20 10 10 11
ROOT
ATOM      1  C   UNL     1      -0.228  -8.667  -2.745  1.00  0.00     0.060 A 
ATOM      2  C   UNL     1      -0.682  -7.794  -3.704  1.00  0.00     0.066 A 
ATOM      3  C   UNL     1       0.378  -6.891  -1.322  1.00  0.00     0.088 A 
ATOM      4  C   UNL     1       0.061  -8.261  -1.527  1.00  0.00     0.035 A 
ATOM      5  N   UNL     1      -0.414 -10.027  -3.210  1.00  0.00    -0.360 N 
ATOM      6  N   UNL     1      -1.175  -8.607  -4.728  1.00  0.00    -0.360 N 
ATOM      7  C   UNL     1       0.064  -5.983  -2.331  1.00  0.00     0.271 A 
ATOM      8  C   UNL     1      -1.438  -9.853  -4.104  1.00  0.00     0.205 C 
ATOM      9  C   UNL     1      -0.510  -6.455  -3.552  1.00  0.00     0.113 A 
ATOM     10  H   UNL     1       0.086 -10.888  -2.942  1.00  0.00     0.163 HD
ATOM     11  H   UNL     1      -1.317  -8.357  -5.717  1.00  0.00     0.163 HD
ENDROOT
BRANCH   8  12
ATOM     12  C   UNL     1      -1.795 -11.011  -5.078  1.00  0.00    -0.003 A 
ATOM     13  C   UNL     1      -1.598 -13.428  -5.581  1.00  0.00     0.042 A 
ATOM     14  C   UNL     1      -1.873 -12.353  -4.642  1.00  0.00     0.028 A 
ATOM     15  C   UNL     1      -1.840 -13.149  -7.002  1.00  0.00     0.041 A 
ATOM     16  C   UNL     1      -2.124 -11.762  -7.353  1.00  0.00     0.042 A 
ATOM     17  C   UNL     1      -1.943 -10.670  -6.469  1.00  0.00     0.028 A 
ATOM     18  Cl  UNL     1      -1.361 -14.925  -5.220  1.00  0.00    -0.084 Cl
ATOM     19  Cl  UNL     1      -2.610 -11.474  -8.966  1.00  0.00    -0.084 Cl
ENDBRANCH   8  12
BRANCH   7  20
ATOM     20  N   UNL     1       0.180  -4.615  -2.193  1.00  0.00     0.062 N 
ATOM     21  O   UNL     1      -0.534  -3.896  -2.789  1.00  0.00    -0.258 OA
ATOM     22  O   UNL     1       0.896  -4.048  -1.260  1.00  0.00    -0.258 OA
ENDBRANCH   7  20
TORSDOF 2
ENDMDL
MODEL 4
REMARK VINA RESULT:    -5.389      5.105      7.650
REMARK INTER + INTRA:          -6.316
REMARK INTER:                  -6.010
REMARK INTRA:                  -0.306
REMARK UNBOUND:                -0.297
REMARK SMILES O=[N+]([O-])c1ccc2c(c1)N[C@@H](c1cc(Cl)cc(Cl)c1)N2
REMARK SMILES IDX 7 1 8 2 5 3 6 4 20 5 10 6 4 7 11 8 9 9 12 12 14 13 13 14
REMARK SMILES IDX 16 15 17 16 19 17 15 18 18 19 2 20 3 21 1 22
REMARK H PARENT 20 10 10 11
ROOT
ATOM      1  C   UNL     1      -1.532 -10.899  -6.017  1.00  0.00     0.060 A 
ATOM      2  C   UNL     1      -1.264 -11.764  -4.983  1.00  0.00     0.066 A 
ATOM      3  C   UNL     1      -2.170 -12.676  -7.426  1.00  0.00     0.088 A 
ATOM      4  C   UNL     1      -2.176 -11.294  -7.094  1.00  0.00     0.035 A 
ATOM      5  N   UNL     1      -1.266  -9.541  -5.585  1.00  0.00    -0.360 N 
ATOM      6  N   UNL     1      -0.875 -10.946  -3.919  1.00  0.00    -0.360 N 
ATOM      7  C   UNL     1      -1.768 -13.585  -6.451  1.00  0.00     0.271 A 
ATOM      8  C   UNL     1      -1.414  -9.671  -4.229  1.00  0.00     0.205 C 
ATOM      9  C   UNL     1      -1.325 -13.107  -5.178  1.00  0.00     0.113 A 
ATOM     10  H   UNL     1      -1.031  -8.708  -6.143  1.00  0.00     0.163 HD
ATOM     11  H   UNL     1      -0.320 -11.210  -3.093  1.00  0.00     0.163 HD
ENDROOT
BRANCH   8  12
ATOM     12  C   UNL     1      -0.939  -8.517  -3.303  1.00  0.00    -0.003 A 
ATOM     13  C   UNL     1      -1.124  -6.116  -2.726  1.00  0.00     0.042 A 
ATOM     14  C   UNL     1      -1.749  -7.389  -3.043  1.00  0.00     0.028 A 
ATOM     15  C   UNL     1       0.209  -6.163  -2.113  1.00  0.00     0.041 A 
ATOM     16  C   UNL     1       0.863  -7.466  -2.078  1.00  0.00     0.042 A 
ATOM     17  C   UNL     1       0.408  -8.598  -2.799  1.00  0.00     0.028 A 
ATOM     18  Cl  UNL     1      -1.831  -4.727  -2.694  1.00  0.00    -0.084 Cl
ATOM     19  Cl  UNL     1       2.315  -7.562  -1.182  1.00  0.00    -0.084 Cl
ENDBRANCH   8  12
BRANCH   7  20
ATOM     20  N   UNL     1      -1.862 -14.954  -6.596  1.00  0.00     0.062 N 
ATOM     21  O   UNL     1      -2.530 -15.584  -5.861  1.00  0.00    -0.258 OA
ATOM     22  O   UNL     1      -1.429 -15.594  -7.648  1.00  0.00    -0.258 OA
ENDBRANCH   7  20
TORSDOF 2
ENDMDL
MODEL 5
REMARK VINA RESULT:    -5.387      5.183      7.651
REMARK INTER + INTRA:          -6.314
REMARK INTER:                  -6.008
REMARK INTRA:                  -0.306
REMARK UNBOUND:                -0.297
REMARK SMILES O=[N+]([O-])c1ccc2c(c1)N[C@@H](c1cc(Cl)cc(Cl)c1)N2
REMARK SMILES IDX 7 1 8 2 5 3 6 4 20 5 10 6 4 7 11 8 9 9 12 12 14 13 13 14
REMARK SMILES IDX 16 15 17 16 19 17 15 18 18 19 2 20 3 21 1 22
REMARK H PARENT 20 10 10 11
ROOT
ATOM      1  C   UNL     1      -1.156 -11.848  -4.826  1.00  0.00     0.060 A 
ATOM      2  C   UNL     1      -1.466 -11.115  -5.947  1.00  0.00     0.066 A 
ATOM      3  C   UNL     1      -1.722 -13.863  -5.906  1.00  0.00     0.088 A 
ATOM      4  C   UNL     1      -1.054 -13.159  -4.868  1.00  0.00     0.035 A 
ATOM      5  N   UNL     1      -0.707 -10.952  -3.778  1.00  0.00    -0.360 N 
ATOM      6  N   UNL     1      -1.175  -9.792  -5.605  1.00  0.00    -0.360 N 
ATOM      7  C   UNL     1      -2.183 -13.139  -7.003  1.00  0.00     0.271 A 
ATOM      8  C   UNL     1      -0.263  -9.891  -4.524  1.00  0.00     0.205 C 
ATOM      9  C   UNL     1      -2.022 -11.719  -7.030  1.00  0.00     0.113 A 
ATOM     10  H   UNL     1      -0.718 -11.078  -2.756  1.00  0.00     0.163 HD
ATOM     11  H   UNL     1      -1.542  -8.935  -6.042  1.00  0.00     0.163 HD
ENDROOT
BRANCH   8  12
ATOM     12  C   UNL     1       0.054  -8.548  -3.810  1.00  0.00    -0.003 A 
ATOM     13  C   UNL     1       1.382  -7.391  -2.068  1.00  0.00     0.042 A 
ATOM     14  C   UNL     1       1.303  -8.309  -3.193  1.00  0.00     0.028 A 
ATOM     15  C   UNL     1       0.366  -6.335  -1.997  1.00  0.00     0.041 A 
ATOM     16  C   UNL     1      -0.746  -6.438  -2.937  1.00  0.00     0.042 A 
ATOM     17  C   UNL     1      -1.018  -7.590  -3.716  1.00  0.00     0.028 A 
ATOM     18  Cl  UNL     1       2.593  -7.226  -1.101  1.00  0.00    -0.084 Cl
ATOM     19  Cl  UNL     1      -1.813  -5.105  -2.997  1.00  0.00    -0.084 Cl
ENDBRANCH   8  12
BRANCH   7  20
ATOM     20  N   UNL     1      -2.707 -13.721  -8.139  1.00  0.00     0.062 N 
ATOM     21  O   UNL     1      -2.174 -13.581  -9.177  1.00  0.00    -0.258 OA
ATOM     22  O   UNL     1      -3.654 -14.620  -8.111  1.00  0.00    -0.258 OA
ENDBRANCH   7  20
TORSDOF 2
ENDMDL
MODEL 6
REMARK VINA RESULT:    -5.033      5.152      7.812
REMARK INTER + INTRA:          -5.918
REMARK INTER:                  -5.619
REMARK INTRA:                  -0.299
REMARK UNBOUND:                -0.297
REMARK SMILES O=[N+]([O-])c1ccc2c(c1)N[C@@H](c1cc(Cl)cc(Cl)c1)N2
REMARK SMILES IDX 7 1 8 2 5 3 6 4 20 5 10 6 4 7 11 8 9 9 12 12 14 13 13 14
REMARK SMILES IDX 16 15 17 16 19 17 15 18 18 19 2 20 3 21 1 22
REMARK H PARENT 20 10 10 11
ROOT
ATOM      1  C   UNL     1      -1.560 -11.596  -5.167  1.00  0.00     0.060 A 
ATOM      2  C   UNL     1      -1.610 -10.671  -6.181  1.00  0.00     0.066 A 
ATOM      3  C   UNL     1      -1.972 -13.363  -6.670  1.00  0.00     0.088 A 
ATOM      4  C   UNL     1      -1.502 -12.887  -5.416  1.00  0.00     0.035 A 
ATOM      5  N   UNL     1      -1.298 -10.918  -3.913  1.00  0.00    -0.360 N 
ATOM      6  N   UNL     1      -1.343  -9.445  -5.565  1.00  0.00    -0.360 N 
ATOM      7  C   UNL     1      -2.174 -12.438  -7.692  1.00  0.00     0.271 A 
ATOM      8  C   UNL     1      -0.673  -9.784  -4.362  1.00  0.00     0.205 C 
ATOM      9  C   UNL     1      -1.958 -11.047  -7.439  1.00  0.00     0.113 A 
ATOM     10  H   UNL     1      -1.520 -11.207  -2.950  1.00  0.00     0.163 HD
ATOM     11  H   UNL     1      -1.582  -8.504  -5.908  1.00  0.00     0.163 HD
ENDROOT
BRANCH   8  12
ATOM     12  C   UNL     1      -0.456  -8.601  -3.378  1.00  0.00    -0.003 A 
ATOM     13  C   UNL     1      -1.047  -6.273  -2.776  1.00  0.00     0.042 A 
ATOM     14  C   UNL     1      -1.445  -7.615  -3.169  1.00  0.00     0.028 A 
ATOM     15  C   UNL     1       0.222  -6.141  -2.050  1.00  0.00     0.041 A 
ATOM     16  C   UNL     1       1.060  -7.333  -1.983  1.00  0.00     0.042 A 
ATOM     17  C   UNL     1       0.842  -8.497  -2.761  1.00  0.00     0.028 A 
ATOM     18  Cl  UNL     1      -1.956  -5.007  -2.779  1.00  0.00    -0.084 Cl
ATOM     19  Cl  UNL     1       2.430  -7.239  -0.966  1.00  0.00    -0.084 Cl
ENDBRANCH   8  12
BRANCH   7  20
ATOM     20  N   UNL     1      -2.480 -12.788  -8.991  1.00  0.00     0.062 N 
ATOM     21  O   UNL     1      -2.743 -11.959  -9.783  1.00  0.00    -0.258 OA
ATOM     22  O   UNL     1      -2.281 -13.984  -9.476  1.00  0.00    -0.258 OA
ENDBRANCH   7  20
TORSDOF 2
ENDMDL
MODEL 7
REMARK VINA RESULT:    -5.029      1.972      2.887
REMARK INTER + INTRA:          -5.914
REMARK INTER:                  -5.611
REMARK INTRA:                  -0.303
REMARK UNBOUND:                -0.297
REMARK SMILES O=[N+]([O-])c1ccc2c(c1)N[C@@H](c1cc(Cl)cc(Cl)c1)N2
REMARK SMILES IDX 7 1 8 2 5 3 6 4 20 5 10 6 4 7 11 8 9 9 12 12 14 13 13 14
REMARK SMILES IDX 16 15 17 16 19 17 15 18 18 19 2 20 3 21 1 22
REMARK H PARENT 20 10 10 11
ROOT
ATOM      1  C   UNL     1      -0.027  -8.466  -4.161  1.00  0.00     0.060 A 
ATOM      2  C   UNL     1      -1.349  -8.418  -3.789  1.00  0.00     0.066 A 
ATOM      3  C   UNL     1       0.296  -6.214  -3.551  1.00  0.00     0.088 A 
ATOM      4  C   UNL     1       0.814  -7.506  -3.841  1.00  0.00     0.035 A 
ATOM      5  N   UNL     1       0.283  -9.794  -4.653  1.00  0.00    -0.360 N 
ATOM      6  N   UNL     1      -1.835  -9.709  -4.012  1.00  0.00    -0.360 N 
ATOM      7  C   UNL     1      -1.069  -6.091  -3.305  1.00  0.00     0.271 A 
ATOM      8  C   UNL     1      -0.680 -10.532  -4.016  1.00  0.00     0.205 C 
ATOM      9  C   UNL     1      -1.911  -7.243  -3.403  1.00  0.00     0.113 A 
ATOM     10  H   UNL     1       1.022 -10.100  -5.301  1.00  0.00     0.163 HD
ATOM     11  H   UNL     1      -2.814  -9.998  -4.144  1.00  0.00     0.163 HD
ENDROOT
BRANCH   8  12
ATOM     12  C   UNL     1      -0.925 -12.001  -4.463  1.00  0.00    -0.003 A 
ATOM     13  C   UNL     1      -1.805 -13.511  -6.217  1.00  0.00     0.042 A 
ATOM     14  C   UNL     1      -1.009 -12.359  -5.827  1.00  0.00     0.028 A 
ATOM     15  C   UNL     1      -1.983 -14.568  -5.215  1.00  0.00     0.041 A 
ATOM     16  C   UNL     1      -1.528 -14.265  -3.862  1.00  0.00     0.042 A 
ATOM     17  C   UNL     1      -1.166 -12.968  -3.422  1.00  0.00     0.028 A 
ATOM     18  Cl  UNL     1      -2.238 -13.880  -7.668  1.00  0.00    -0.084 Cl
ATOM     19  Cl  UNL     1      -1.543 -15.562  -2.749  1.00  0.00    -0.084 Cl
ENDBRANCH   8  12
BRANCH   7  20
ATOM     20  N   UNL     1      -1.666  -4.927  -2.864  1.00  0.00     0.062 N 
ATOM     21  O   UNL     1      -2.629  -4.972  -2.192  1.00  0.00    -0.258 OA
ATOM     22  O   UNL     1      -1.101  -3.754  -2.959  1.00  0.00    -0.258 OA
ENDBRANCH   7  20
TORSDOF 2
ENDMDL
MODEL 8
REMARK VINA RESULT:    -5.029      4.963      7.410
REMARK INTER + INTRA:          -5.914
REMARK INTER:                  -5.615
REMARK INTRA:                  -0.299
REMARK UNBOUND:                -0.297
REMARK SMILES O=[N+]([O-])c1ccc2c(c1)N[C@@H](c1cc(Cl)cc(Cl)c1)N2
REMARK SMILES IDX 7 1 8 2 5 3 6 4 20 5 10 6 4 7 11 8 9 9 12 12 14 13 13 14
REMARK SMILES IDX 16 15 17 16 19 17 15 18 18 19 2 20 3 21 1 22
REMARK H PARENT 20 10 10 11
ROOT
ATOM      1  C   UNL     1      -1.253 -11.179  -5.843  1.00  0.00     0.060 A 
ATOM      2  C   UNL     1      -1.040 -11.838  -4.656  1.00  0.00     0.066 A 
ATOM      3  C   UNL     1      -2.028 -13.151  -6.873  1.00  0.00     0.088 A 
ATOM      4  C   UNL     1      -1.932 -11.734  -6.824  1.00  0.00     0.035 A 
ATOM      5  N   UNL     1      -0.887  -9.786  -5.690  1.00  0.00    -0.360 N 
ATOM      6  N   UNL     1      -0.585 -10.854  -3.774  1.00  0.00    -0.360 N 
ATOM      7  C   UNL     1      -1.684 -13.875  -5.733  1.00  0.00     0.271 A 
ATOM      8  C   UNL     1      -1.034  -9.631  -4.336  1.00  0.00     0.205 C 
ATOM      9  C   UNL     1      -1.199 -13.185  -4.578  1.00  0.00     0.113 A 
ATOM     10  H   UNL     1      -0.596  -9.100  -6.401  1.00  0.00     0.163 HD
ATOM     11  H   UNL     1      -0.044 -10.987  -2.908  1.00  0.00     0.163 HD
ENDROOT
BRANCH   8  12
ATOM     12  C   UNL     1      -0.469  -8.353  -3.656  1.00  0.00    -0.003 A 
ATOM     13  C   UNL     1       1.115  -7.416  -1.999  1.00  0.00     0.042 A 
ATOM     14  C   UNL     1       0.832  -8.314  -3.106  1.00  0.00     0.028 A 
ATOM     15  C   UNL     1       0.285  -6.211  -1.890  1.00  0.00     0.041 A 
ATOM     16  C   UNL     1      -0.876  -6.139  -2.770  1.00  0.00     0.042 A 
ATOM     17  C   UNL     1      -1.369  -7.236  -3.520  1.00  0.00     0.028 A 
ATOM     18  Cl  UNL     1       2.385  -7.442  -1.096  1.00  0.00    -0.084 Cl
ATOM     19  Cl  UNL     1      -1.719  -4.652  -2.793  1.00  0.00    -0.084 Cl
ENDBRANCH   8  12
BRANCH   7  20
ATOM     20  N   UNL     1      -1.879 -15.234  -5.602  1.00  0.00     0.062 N 
ATOM     21  O   UNL     1      -1.450 -15.808  -4.669  1.00  0.00    -0.258 OA
ATOM     22  O   UNL     1      -2.711 -15.913  -6.344  1.00  0.00    -0.258 OA
ENDBRANCH   7  20
TORSDOF 2
ENDMDL
MODEL 9
REMARK VINA RESULT:    -4.288      7.081      8.919
REMARK INTER + INTRA:          -5.087
REMARK INTER:                  -4.771
REMARK INTRA:                  -0.315
REMARK UNBOUND:                -0.297
REMARK SMILES O=[N+]([O-])c1ccc2c(c1)N[C@@H](c1cc(Cl)cc(Cl)c1)N2
REMARK SMILES IDX 7 1 8 2 5 3 6 4 20 5 10 6 4 7 11 8 9 9 12 12 14 13 13 14
REMARK SMILES IDX 16 15 17 16 19 17 15 18 18 19 2 20 3 21 1 22
REMARK H PARENT 20 10 10 11
ROOT
ATOM      1  C   UNL     1      -3.104 -15.132  -9.158  1.00  0.00     0.060 A 
ATOM      2  C   UNL     1      -2.915 -13.802  -8.868  1.00  0.00     0.066 A 
ATOM      3  C   UNL     1      -3.553 -14.643 -11.418  1.00  0.00     0.088 A 
ATOM      4  C   UNL     1      -3.179 -15.561 -10.400  1.00  0.00     0.035 A 
ATOM      5  N   UNL     1      -2.910 -15.916  -7.955  1.00  0.00    -0.360 N 
ATOM      6  N   UNL     1      -2.572 -13.773  -7.514  1.00  0.00    -0.360 N 
ATOM      7  C   UNL     1      -3.514 -13.281 -11.125  1.00  0.00     0.271 A 
ATOM      8  C   UNL     1      -2.097 -15.080  -7.234  1.00  0.00     0.205 C 
ATOM      9  C   UNL     1      -3.156 -12.852  -9.809  1.00  0.00     0.113 A 
ATOM     10  H   UNL     1      -3.279 -16.845  -7.708  1.00  0.00     0.163 HD
ATOM     11  H   UNL     1      -2.647 -12.978  -6.863  1.00  0.00     0.163 HD
ENDROOT
BRANCH   8  12
ATOM     12  C   UNL     1      -1.851 -15.379  -5.729  1.00  0.00    -0.003 A 
ATOM     13  C   UNL     1      -2.457 -16.762  -3.767  1.00  0.00     0.042 A 
ATOM     14  C   UNL     1      -2.102 -16.653  -5.172  1.00  0.00     0.028 A 
ATOM     15  C   UNL     1      -1.975 -15.703  -2.873  1.00  0.00     0.041 A 
ATOM     16  C   UNL     1      -1.374 -14.537  -3.512  1.00  0.00     0.042 A 
ATOM     17  C   UNL     1      -1.451 -14.269  -4.901  1.00  0.00     0.028 A 
ATOM     18  Cl  UNL     1      -3.036 -18.026  -3.061  1.00  0.00    -0.084 Cl
ATOM     19  Cl  UNL     1      -0.627 -13.404  -2.472  1.00  0.00    -0.084 Cl
ENDBRANCH   8  12
BRANCH   7  20
ATOM     20  N   UNL     1      -3.705 -12.290 -12.066  1.00  0.00     0.062 N 
ATOM     21  O   UNL     1      -2.936 -11.406 -12.160  1.00  0.00    -0.258 OA
ATOM     22  O   UNL     1      -4.579 -12.379 -13.032  1.00  0.00    -0.258 OA
ENDBRANCH   7  20
TORSDOF 2
ENDMDL
