MODEL 1
REMARK VINA RESULT:    -5.157      0.000      0.000
REMARK INTER + INTRA:          -6.074
REMARK INTER:                  -5.759
REMARK INTRA:                  -0.315
REMARK UNBOUND:                -0.315
REMARK SMILES O=[N+]([O-])c1ccc2c(c1)N[C@@H](c1cc(Cl)cc(Cl)c1)N2
REMARK SMILES IDX 7 1 8 2 5 3 6 4 20 5 10 6 4 7 11 8 9 9 12 12 14 13 13 14
REMARK SMILES IDX 16 15 17 16 19 17 15 18 18 19 2 20 3 21 1 22
REMARK H PARENT 20 10 10 11
ROOT
ATOM      1  C   UNL     1     -10.858  -4.410   3.943  1.00  0.00     0.060 A 
ATOM      2  C   UNL     1     -10.317  -5.179   4.945  1.00  0.00     0.066 A 
ATOM      3  C   UNL     1     -13.029  -5.183   4.431  1.00  0.00     0.088 A 
ATOM      4  C   UNL     1     -12.157  -4.229   3.841  1.00  0.00     0.035 A 
ATOM      5  N   UNL     1      -9.800  -3.668   3.285  1.00  0.00    -0.360 N 
ATOM      6  N   UNL     1      -8.951  -4.885   4.928  1.00  0.00    -0.360 N 
ATOM      7  C   UNL     1     -12.495  -6.082   5.352  1.00  0.00     0.271 A 
ATOM      8  C   UNL     1      -8.861  -3.626   4.283  1.00  0.00     0.205 C 
ATOM      9  C   UNL     1     -11.094  -6.056   5.633  1.00  0.00     0.113 A 
ATOM     10  H   UNL     1      -9.764  -3.280   2.332  1.00  0.00     0.163 HD
ATOM     11  H   UNL     1      -8.180  -5.457   5.302  1.00  0.00     0.163 HD
ENDROOT
BRANCH   8  12
ATOM     12  C   UNL     1      -7.416  -3.168   3.940  1.00  0.00    -0.003 A 
ATOM     13  C   UNL     1      -5.991  -1.514   2.771  1.00  0.00     0.042 A 
ATOM     14  C   UNL     1      -7.113  -1.820   3.643  1.00  0.00     0.028 A 
ATOM     15  C   UNL     1      -4.898  -2.492   2.723  1.00  0.00     0.041 A 
ATOM     16  C   UNL     1      -5.140  -3.770   3.385  1.00  0.00     0.042 A 
ATOM     17  C   UNL     1      -6.413  -4.196   3.838  1.00  0.00     0.028 A 
ATOM     18  Cl  UNL     1      -5.687  -0.133   2.115  1.00  0.00    -0.084 Cl
ATOM     19  Cl  UNL     1      -3.801  -4.823   3.510  1.00  0.00    -0.084 Cl
ENDBRANCH   8  12
BRANCH   7  20
ATOM     20  N   UNL     1     -13.259  -6.952   6.104  1.00  0.00     0.062 N 
ATOM     21  O   UNL     1     -12.822  -7.427   7.086  1.00  0.00    -0.258 OA
ATOM     22  O   UNL     1     -14.540  -7.121   5.921  1.00  0.00    -0.258 OA
ENDBRANCH   7  20
TORSDOF 2
ENDMDL
MODEL 2
REMARK VINA RESULT:    -5.138      0.949      2.621
REMARK INTER + INTRA:          -6.054
REMARK INTER:                  -5.739
REMARK INTRA:                  -0.315
REMARK UNBOUND:                -0.315
REMARK SMILES O=[N+]([O-])c1ccc2c(c1)N[C@@H](c1cc(Cl)cc(Cl)c1)N2
REMARK SMILES IDX 7 1 8 2 5 3 6 4 20 5 10 6 4 7 11 8 9 9 12 12 14 13 13 14
REMARK SMILES IDX 16 15 17 16 19 17 15 18 18 19 2 20 3 21 1 22
REMARK H PARENT 20 10 10 11
ROOT
ATOM      1  C   UNL     1     -10.063  -5.274   5.164  1.00  0.00     0.060 A 
ATOM      2  C   UNL     1     -10.808  -4.597   4.228  1.00  0.00     0.066 A 
ATOM      3  C   UNL     1     -11.952  -6.476   5.895  1.00  0.00     0.088 A 
ATOM      4  C   UNL     1     -10.542  -6.323   5.797  1.00  0.00     0.035 A 
ATOM      5  N   UNL     1      -8.684  -4.832   5.088  1.00  0.00    -0.360 N 
ATOM      6  N   UNL     1      -9.893  -3.779   3.561  1.00  0.00    -0.360 N 
ATOM      7  C   UNL     1     -12.758  -5.704   5.062  1.00  0.00     0.271 A 
ATOM      8  C   UNL     1      -8.632  -4.384   3.794  1.00  0.00     0.205 C 
ATOM      9  C   UNL     1     -12.157  -4.752   4.182  1.00  0.00     0.113 A 
ATOM     10  H   UNL     1      -7.947  -4.850   5.807  1.00  0.00     0.163 HD
ATOM     11  H   UNL     1     -10.090  -2.926   3.019  1.00  0.00     0.163 HD
ENDROOT
BRANCH   8  12
ATOM     12  C   UNL     1      -7.407  -3.544   3.335  1.00  0.00    -0.003 A 
ATOM     13  C   UNL     1      -4.943  -3.298   3.346  1.00  0.00     0.042 A 
ATOM     14  C   UNL     1      -6.128  -4.121   3.168  1.00  0.00     0.028 A 
ATOM     15  C   UNL     1      -5.087  -1.859   3.097  1.00  0.00     0.041 A 
ATOM     16  C   UNL     1      -6.447  -1.365   2.906  1.00  0.00     0.042 A 
ATOM     17  C   UNL     1      -7.610  -2.125   3.184  1.00  0.00     0.028 A 
ATOM     18  Cl  UNL     1      -3.479  -3.814   3.481  1.00  0.00    -0.084 Cl
ATOM     19  Cl  UNL     1      -6.599   0.264   2.412  1.00  0.00    -0.084 Cl
ENDBRANCH   8  12
BRANCH   7  20
ATOM     20  N   UNL     1     -14.124  -5.868   4.953  1.00  0.00     0.062 N 
ATOM     21  O   UNL     1     -14.698  -5.453   4.015  1.00  0.00    -0.258 OA
ATOM     22  O   UNL     1     -14.814  -6.660   5.728  1.00  0.00    -0.258 OA
ENDBRANCH   7  20
TORSDOF 2
ENDMDL
MODEL 3
REMARK VINA RESULT:    -4.901      5.098      7.613
REMARK INTER + INTRA:          -5.789
REMARK INTER:                  -5.490
REMARK INTRA:                  -0.299
REMARK UNBOUND:                -0.315
REMARK SMILES O=[N+]([O-])c1ccc2c(c1)N[C@@H](c1cc(Cl)cc(Cl)c1)N2
REMARK SMILES IDX 7 1 8 2 5 3 6 4 20 5 10 6 4 7 11 8 9 9 12 12 14 13 13 14
REMARK SMILES IDX 16 15 17 16 19 17 15 18 18 19 2 20 3 21 1 22
REMARK H PARENT 20 10 10 11
ROOT
ATOM      1  C   UNL     1      -6.984  -3.905   4.009  1.00  0.00     0.060 A 
ATOM      2  C   UNL     1      -7.574  -3.053   3.105  1.00  0.00     0.066 A 
ATOM      3  C   UNL     1      -4.898  -2.841   3.748  1.00  0.00     0.088 A 
ATOM      4  C   UNL     1      -5.782  -3.670   4.490  1.00  0.00     0.035 A 
ATOM      5  N   UNL     1      -7.975  -4.840   4.502  1.00  0.00    -0.360 N 
ATOM      6  N   UNL     1      -8.918  -3.435   3.074  1.00  0.00    -0.360 N 
ATOM      7  C   UNL     1      -5.431  -2.062   2.723  1.00  0.00     0.271 A 
ATOM      8  C   UNL     1      -9.125  -4.124   4.296  1.00  0.00     0.205 C 
ATOM      9  C   UNL     1      -6.823  -2.157   2.414  1.00  0.00     0.113 A 
ATOM     10  H   UNL     1      -7.850  -5.782   4.899  1.00  0.00     0.163 HD
ATOM     11  H   UNL     1      -9.605  -3.257   2.328  1.00  0.00     0.163 HD
ENDROOT
BRANCH   8  12
ATOM     12  C   UNL     1     -10.496  -4.847   4.415  1.00  0.00    -0.003 A 
ATOM     13  C   UNL     1     -12.927  -4.767   3.950  1.00  0.00     0.042 A 
ATOM     14  C   UNL     1     -11.552  -4.595   3.511  1.00  0.00     0.028 A 
ATOM     15  C   UNL     1     -13.165  -5.723   5.038  1.00  0.00     0.041 A 
ATOM     16  C   UNL     1     -11.982  -6.246   5.714  1.00  0.00     0.042 A 
ATOM     17  C   UNL     1     -10.679  -5.714   5.551  1.00  0.00     0.028 A 
ATOM     18  Cl  UNL     1     -14.200  -4.271   3.200  1.00  0.00    -0.084 Cl
ATOM     19  Cl  UNL     1     -12.247  -7.511   6.832  1.00  0.00    -0.084 Cl
ENDBRANCH   8  12
BRANCH   7  20
ATOM     20  N   UNL     1      -4.710  -1.108   2.034  1.00  0.00     0.062 N 
ATOM     21  O   UNL     1      -5.247  -0.153   1.607  1.00  0.00    -0.258 OA
ATOM     22  O   UNL     1      -3.405  -1.077   2.008  1.00  0.00    -0.258 OA
ENDBRANCH   7  20
TORSDOF 2
ENDMDL
MODEL 4
REMARK VINA RESULT:    -4.838      5.020      7.647
REMARK INTER + INTRA:          -5.719
REMARK INTER:                  -5.419
REMARK INTRA:                  -0.299
REMARK UNBOUND:                -0.315
REMARK SMILES O=[N+]([O-])c1ccc2c(c1)N[C@@H](c1cc(Cl)cc(Cl)c1)N2
REMARK SMILES IDX 7 1 8 2 5 3 6 4 20 5 10 6 4 7 11 8 9 9 12 12 14 13 13 14
REMARK SMILES IDX 16 15 17 16 19 17 15 18 18 19 2 20 3 21 1 22
REMARK H PARENT 20 10 10 11
ROOT
ATOM      1  C   UNL     1      -7.747  -2.590   3.351  1.00  0.00     0.060 A 
ATOM      2  C   UNL     1      -6.995  -3.521   4.027  1.00  0.00     0.066 A 
ATOM      3  C   UNL     1      -5.819  -1.632   2.395  1.00  0.00     0.088 A 
ATOM      4  C   UNL     1      -7.224  -1.842   2.403  1.00  0.00     0.035 A 
ATOM      5  N   UNL     1      -9.150  -2.799   3.650  1.00  0.00    -0.360 N 
ATOM      6  N   UNL     1      -7.926  -4.316   4.701  1.00  0.00    -0.360 N 
ATOM      7  C   UNL     1      -5.023  -2.464   3.179  1.00  0.00     0.271 A 
ATOM      8  C   UNL     1      -9.141  -4.125   3.995  1.00  0.00     0.205 C 
ATOM      9  C   UNL     1      -5.638  -3.459   4.002  1.00  0.00     0.113 A 
ATOM     10  H   UNL     1      -9.936  -2.135   3.613  1.00  0.00     0.163 HD
ATOM     11  H   UNL     1      -7.766  -4.908   5.528  1.00  0.00     0.163 HD
ENDROOT
BRANCH   8  12
ATOM     12  C   UNL     1     -10.397  -4.736   4.677  1.00  0.00    -0.003 A 
ATOM     13  C   UNL     1     -11.296  -6.509   6.154  1.00  0.00     0.042 A 
ATOM     14  C   UNL     1     -10.307  -5.481   5.874  1.00  0.00     0.028 A 
ATOM     15  C   UNL     1     -12.620  -6.343   5.545  1.00  0.00     0.041 A 
ATOM     16  C   UNL     1     -12.750  -5.284   4.550  1.00  0.00     0.042 A 
ATOM     17  C   UNL     1     -11.650  -4.596   3.980  1.00  0.00     0.028 A 
ATOM     18  Cl  UNL     1     -11.196  -7.602   7.261  1.00  0.00    -0.084 Cl
ATOM     19  Cl  UNL     1     -14.333  -4.955   3.996  1.00  0.00    -0.084 Cl
ENDBRANCH   8  12
BRANCH   7  20
ATOM     20  N   UNL     1      -3.644  -2.462   3.142  1.00  0.00     0.062 N 
ATOM     21  O   UNL     1      -3.063  -1.527   2.730  1.00  0.00    -0.258 OA
ATOM     22  O   UNL     1      -2.910  -3.357   3.747  1.00  0.00    -0.258 OA
ENDBRANCH   7  20
TORSDOF 2
ENDMDL
MODEL 5
REMARK VINA RESULT:    -4.837      5.095      7.814
REMARK INTER + INTRA:          -5.717
REMARK INTER:                  -5.399
REMARK INTRA:                  -0.319
REMARK UNBOUND:                -0.315
REMARK SMILES O=[N+]([O-])c1ccc2c(c1)N[C@@H](c1cc(Cl)cc(Cl)c1)N2
REMARK SMILES IDX 7 1 8 2 5 3 6 4 20 5 10 6 4 7 11 8 9 9 12 12 14 13 13 14
REMARK SMILES IDX 16 15 17 16 19 17 15 18 18 19 2 20 3 21 1 22
REMARK H PARENT 20 10 10 11
ROOT
ATOM      1  C   UNL     1      -6.877  -3.872   3.944  1.00  0.00     0.060 A 
ATOM      2  C   UNL     1      -7.466  -2.823   3.279  1.00  0.00     0.066 A 
ATOM      3  C   UNL     1      -4.722  -3.060   3.450  1.00  0.00     0.088 A 
ATOM      4  C   UNL     1      -5.592  -3.872   4.227  1.00  0.00     0.035 A 
ATOM      5  N   UNL     1      -7.909  -4.735   4.484  1.00  0.00    -0.360 N 
ATOM      6  N   UNL     1      -8.840  -3.019   3.441  1.00  0.00    -0.360 N 
ATOM      7  C   UNL     1      -5.285  -2.071   2.647  1.00  0.00     0.271 A 
ATOM      8  C   UNL     1      -8.953  -3.853   4.582  1.00  0.00     0.205 C 
ATOM      9  C   UNL     1      -6.706  -1.936   2.584  1.00  0.00     0.113 A 
ATOM     10  H   UNL     1      -7.868  -5.735   4.727  1.00  0.00     0.163 HD
ATOM     11  H   UNL     1      -9.602  -2.640   2.861  1.00  0.00     0.163 HD
ENDROOT
BRANCH   8  12
ATOM     12  C   UNL     1     -10.382  -4.403   4.852  1.00  0.00    -0.003 A 
ATOM     13  C   UNL     1     -11.751  -6.211   5.847  1.00  0.00     0.042 A 
ATOM     14  C   UNL     1     -10.657  -5.259   5.942  1.00  0.00     0.028 A 
ATOM     15  C   UNL     1     -12.857  -5.866   4.946  1.00  0.00     0.041 A 
ATOM     16  C   UNL     1     -12.652  -4.713   4.076  1.00  0.00     0.042 A 
ATOM     17  C   UNL     1     -11.398  -4.082   3.882  1.00  0.00     0.028 A 
ATOM     18  Cl  UNL     1     -12.017  -7.405   6.812  1.00  0.00    -0.084 Cl
ATOM     19  Cl  UNL     1     -14.010  -4.186   3.182  1.00  0.00    -0.084 Cl
ENDBRANCH   8  12
BRANCH   7  20
ATOM     20  N   UNL     1      -4.545  -1.124   1.968  1.00  0.00     0.062 N 
ATOM     21  O   UNL     1      -5.073  -0.185   1.497  1.00  0.00    -0.258 OA
ATOM     22  O   UNL     1      -3.241  -1.078   1.997  1.00  0.00    -0.258 OA
ENDBRANCH   7  20
TORSDOF 2
ENDMDL
MODEL 6
REMARK VINA RESULT:    -4.705      1.304      2.006
REMARK INTER + INTRA:          -5.570
REMARK INTER:                  -5.270
REMARK INTRA:                  -0.300
REMARK UNBOUND:                -0.315
REMARK SMILES O=[N+]([O-])c1ccc2c(c1)N[C@@H](c1cc(Cl)cc(Cl)c1)N2
REMARK SMILES IDX 7 1 8 2 5 3 6 4 20 5 10 6 4 7 11 8 9 9 12 12 14 13 13 14
REMARK SMILES IDX 16 15 17 16 19 17 15 18 18 19 2 20 3 21 1 22
REMARK H PARENT 20 10 10 11
ROOT
ATOM      1  C   UNL     1     -10.592  -4.965   4.940  1.00  0.00     0.060 A 
ATOM      2  C   UNL     1     -11.038  -4.212   3.881  1.00  0.00     0.066 A 
ATOM      3  C   UNL     1     -12.724  -5.919   5.245  1.00  0.00     0.088 A 
ATOM      4  C   UNL     1     -11.317  -5.941   5.444  1.00  0.00     0.035 A 
ATOM      5  N   UNL     1      -9.184  -4.697   5.158  1.00  0.00    -0.360 N 
ATOM      6  N   UNL     1      -9.911  -3.519   3.430  1.00  0.00    -0.360 N 
ATOM      7  C   UNL     1     -13.240  -5.062   4.276  1.00  0.00     0.271 A 
ATOM      8  C   UNL     1      -8.810  -4.272   3.910  1.00  0.00     0.205 C 
ATOM      9  C   UNL     1     -12.357  -4.200   3.554  1.00  0.00     0.113 A 
ATOM     10  H   UNL     1      -8.620  -4.798   6.014  1.00  0.00     0.163 HD
ATOM     11  H   UNL     1      -9.887  -2.654   2.873  1.00  0.00     0.163 HD
ENDROOT
BRANCH   8  12
ATOM     12  C   UNL     1      -7.424  -3.593   3.728  1.00  0.00    -0.003 A 
ATOM     13  C   UNL     1      -6.171  -1.648   2.846  1.00  0.00     0.042 A 
ATOM     14  C   UNL     1      -7.292  -2.193   3.593  1.00  0.00     0.028 A 
ATOM     15  C   UNL     1      -4.952  -2.463   2.784  1.00  0.00     0.041 A 
ATOM     16  C   UNL     1      -5.056  -3.826   3.292  1.00  0.00     0.042 A 
ATOM     17  C   UNL     1      -6.283  -4.464   3.601  1.00  0.00     0.028 A 
ATOM     18  Cl  UNL     1      -6.021  -0.174   2.359  1.00  0.00    -0.084 Cl
ATOM     19  Cl  UNL     1      -3.593  -4.703   3.413  1.00  0.00    -0.084 Cl
ENDBRANCH   8  12
BRANCH   7  20
ATOM     20  N   UNL     1     -14.563  -5.057   3.883  1.00  0.00     0.062 N 
ATOM     21  O   UNL     1     -14.905  -4.416   2.960  1.00  0.00    -0.258 OA
ATOM     22  O   UNL     1     -15.447  -5.904   4.338  1.00  0.00    -0.258 OA
ENDBRANCH   7  20
TORSDOF 2
ENDMDL
MODEL 7
REMARK VINA RESULT:    -4.696      0.779      2.162
REMARK INTER + INTRA:          -5.559
REMARK INTER:                  -5.260
REMARK INTRA:                  -0.300
REMARK UNBOUND:                -0.315
REMARK SMILES O=[N+]([O-])c1ccc2c(c1)N[C@@H](c1cc(Cl)cc(Cl)c1)N2
REMARK SMILES IDX 7 1 8 2 5 3 6 4 20 5 10 6 4 7 11 8 9 9 12 12 14 13 13 14
REMARK SMILES IDX 16 15 17 16 19 17 15 18 18 19 2 20 3 21 1 22
REMARK H PARENT 20 10 10 11
ROOT
ATOM      1  C   UNL     1     -10.803  -4.920   4.289  1.00  0.00     0.060 A 
ATOM      2  C   UNL     1      -9.998  -5.507   5.235  1.00  0.00     0.066 A 
ATOM      3  C   UNL     1     -12.724  -5.935   5.200  1.00  0.00     0.088 A 
ATOM      4  C   UNL     1     -12.114  -4.931   4.400  1.00  0.00     0.035 A 
ATOM      5  N   UNL     1      -9.990  -4.106   3.407  1.00  0.00    -0.360 N 
ATOM      6  N   UNL     1      -8.713  -5.030   4.961  1.00  0.00    -0.360 N 
ATOM      7  C   UNL     1     -11.919  -6.659   6.076  1.00  0.00     0.271 A 
ATOM      8  C   UNL     1      -8.921  -3.839   4.221  1.00  0.00     0.205 C 
ATOM      9  C   UNL     1     -10.511  -6.412   6.109  1.00  0.00     0.113 A 
ATOM     10  H   UNL     1     -10.167  -3.810   2.437  1.00  0.00     0.163 HD
ATOM     11  H   UNL     1      -7.814  -5.451   5.237  1.00  0.00     0.163 HD
ENDROOT
BRANCH   8  12
ATOM     12  C   UNL     1      -7.637  -3.220   3.602  1.00  0.00    -0.003 A 
ATOM     13  C   UNL     1      -5.175  -3.361   3.370  1.00  0.00     0.042 A 
ATOM     14  C   UNL     1      -6.482  -3.996   3.352  1.00  0.00     0.028 A 
ATOM     15  C   UNL     1      -5.125  -1.930   3.050  1.00  0.00     0.041 A 
ATOM     16  C   UNL     1      -6.407  -1.240   2.957  1.00  0.00     0.042 A 
ATOM     17  C   UNL     1      -7.638  -1.796   3.386  1.00  0.00     0.028 A 
ATOM     18  Cl  UNL     1      -3.799  -4.092   3.400  1.00  0.00    -0.084 Cl
ATOM     19  Cl  UNL     1      -6.361   0.369   2.382  1.00  0.00    -0.084 Cl
ENDBRANCH   8  12
BRANCH   7  20
ATOM     20  N   UNL     1     -12.410  -7.549   7.009  1.00  0.00     0.062 N 
ATOM     21  O   UNL     1     -11.691  -8.033   7.804  1.00  0.00    -0.258 OA
ATOM     22  O   UNL     1     -13.685  -7.732   7.222  1.00  0.00    -0.258 OA
ENDBRANCH   7  20
TORSDOF 2
ENDMDL
MODEL 8
REMARK VINA RESULT:    -4.255      4.016      5.728
REMARK INTER + INTRA:          -5.067
REMARK INTER:                  -4.763
REMARK INTRA:                  -0.304
REMARK UNBOUND:                -0.315
REMARK SMILES O=[N+]([O-])c1ccc2c(c1)N[C@@H](c1cc(Cl)cc(Cl)c1)N2
REMARK SMILES IDX 7 1 8 2 5 3 6 4 20 5 10 6 4 7 11 8 9 9 12 12 14 13 13 14
REMARK SMILES IDX 16 15 17 16 19 17 15 18 18 19 2 20 3 21 1 22
REMARK H PARENT 20 10 10 11
ROOT
ATOM      1  C   UNL     1     -11.500  -7.304   8.818  1.00  0.00     0.060 A 
ATOM      2  C   UNL     1     -12.289  -8.098   8.020  1.00  0.00     0.066 A 
ATOM      3  C   UNL     1     -11.950  -8.639  10.705  1.00  0.00     0.088 A 
ATOM      4  C   UNL     1     -11.150  -7.678  10.029  1.00  0.00     0.035 A 
ATOM      5  N   UNL     1     -10.939  -6.232   8.019  1.00  0.00    -0.360 N 
ATOM      6  N   UNL     1     -12.183  -7.544   6.742  1.00  0.00    -0.360 N 
ATOM      7  C   UNL     1     -12.870  -9.373   9.959  1.00  0.00     0.271 A 
ATOM      8  C   UNL     1     -10.979  -6.796   6.771  1.00  0.00     0.205 C 
ATOM      9  C   UNL     1     -13.021  -9.105   8.563  1.00  0.00     0.113 A 
ATOM     10  H   UNL     1     -10.603  -5.302   8.309  1.00  0.00     0.163 HD
ATOM     11  H   UNL     1     -12.836  -7.654   5.953  1.00  0.00     0.163 HD
ENDROOT
BRANCH   8  12
ATOM     12  C   UNL     1     -10.736  -5.897   5.527  1.00  0.00    -0.003 A 
ATOM     13  C   UNL     1      -9.278  -4.214   4.442  1.00  0.00     0.042 A 
ATOM     14  C   UNL     1      -9.440  -5.467   5.160  1.00  0.00     0.028 A 
ATOM     15  C   UNL     1     -10.411  -3.763   3.624  1.00  0.00     0.041 A 
ATOM     16  C   UNL     1     -11.660  -4.501   3.781  1.00  0.00     0.042 A 
ATOM     17  C   UNL     1     -11.902  -5.433   4.820  1.00  0.00     0.028 A 
ATOM     18  Cl  UNL     1      -7.937  -3.455   4.210  1.00  0.00    -0.084 Cl
ATOM     19  Cl  UNL     1     -12.912  -4.113   2.684  1.00  0.00    -0.084 Cl
ENDBRANCH   8  12
BRANCH   7  20
ATOM     20  N   UNL     1     -13.593 -10.434  10.465  1.00  0.00     0.062 N 
ATOM     21  O   UNL     1     -13.081 -11.481  10.619  1.00  0.00    -0.258 OA
ATOM     22  O   UNL     1     -14.774 -10.302  11.005  1.00  0.00    -0.258 OA
ENDBRANCH   7  20
TORSDOF 2
ENDMDL
MODEL 9
REMARK VINA RESULT:    -4.254      2.900      4.179
REMARK INTER + INTRA:          -5.066
REMARK INTER:                  -4.761
REMARK INTRA:                  -0.305
REMARK UNBOUND:                -0.315
REMARK SMILES O=[N+]([O-])c1ccc2c(c1)N[C@@H](c1cc(Cl)cc(Cl)c1)N2
REMARK SMILES IDX 7 1 8 2 5 3 6 4 20 5 10 6 4 7 11 8 9 9 12 12 14 13 13 14
REMARK SMILES IDX 16 15 17 16 19 17 15 18 18 19 2 20 3 21 1 22
REMARK H PARENT 20 10 10 11
ROOT
ATOM      1  C   UNL     1     -11.506  -7.222   6.683  1.00  0.00     0.060 A 
ATOM      2  C   UNL     1     -10.720  -6.707   7.686  1.00  0.00     0.066 A 
ATOM      3  C   UNL     1     -12.783  -8.458   8.229  1.00  0.00     0.088 A 
ATOM      4  C   UNL     1     -12.622  -7.866   6.947  1.00  0.00     0.035 A 
ATOM      5  N   UNL     1     -11.062  -6.694   5.409  1.00  0.00    -0.360 N 
ATOM      6  N   UNL     1      -9.830  -5.845   7.040  1.00  0.00    -0.360 N 
ATOM      7  C   UNL     1     -11.914  -8.071   9.247  1.00  0.00     0.271 A 
ATOM      8  C   UNL     1     -10.462  -5.529   5.811  1.00  0.00     0.205 C 
ATOM      9  C   UNL     1     -10.864  -7.143   8.965  1.00  0.00     0.113 A 
ATOM     10  H   UNL     1     -11.168  -7.085   4.462  1.00  0.00     0.163 HD
ATOM     11  H   UNL     1      -8.917  -5.512   7.382  1.00  0.00     0.163 HD
ENDROOT
BRANCH   8  12
ATOM     12  C   UNL     1      -9.575  -4.749   4.801  1.00  0.00    -0.003 A 
ATOM     13  C   UNL     1      -7.846  -4.878   3.033  1.00  0.00     0.042 A 
ATOM     14  C   UNL     1      -9.091  -5.348   3.616  1.00  0.00     0.028 A 
ATOM     15  C   UNL     1      -7.465  -3.487   3.305  1.00  0.00     0.041 A 
ATOM     16  C   UNL     1      -8.259  -2.781   4.305  1.00  0.00     0.042 A 
ATOM     17  C   UNL     1      -9.182  -3.414   5.174  1.00  0.00     0.028 A 
ATOM     18  Cl  UNL     1      -7.027  -5.593   1.915  1.00  0.00    -0.084 Cl
ATOM     19  Cl  UNL     1      -7.953  -1.107   4.471  1.00  0.00    -0.084 Cl
ENDBRANCH   8  12
BRANCH   7  20
ATOM     20  N   UNL     1     -12.060  -8.455  10.565  1.00  0.00     0.062 N 
ATOM     21  O   UNL     1     -11.910  -9.578  10.876  1.00  0.00    -0.258 OA
ATOM     22  O   UNL     1     -12.139  -7.605  11.553  1.00  0.00    -0.258 OA
ENDBRANCH   7  20
TORSDOF 2
ENDMDL
