MODEL 1
REMARK VINA RESULT:    -4.404      0.000      0.000
REMARK INTER + INTRA:          -5.234
REMARK INTER:                  -4.919
REMARK INTRA:                  -0.315
REMARK UNBOUND:                -0.315
REMARK SMILES O=[N+]([O-])c1ccc2c(c1)N[C@@H](c1cc(Cl)cc(Cl)c1)N2
REMARK SMILES IDX 7 1 8 2 5 3 6 4 20 5 10 6 4 7 11 8 9 9 12 12 14 13 13 14
REMARK SMILES IDX 16 15 17 16 19 17 15 18 18 19 2 20 3 21 1 22
REMARK H PARENT 20 10 10 11
ROOT
ATOM      1  C   UNL     1      -7.504  -0.137   7.378  1.00  0.00     0.060 A 
ATOM      2  C   UNL     1      -6.942   0.953   7.998  1.00  0.00     0.066 A 
ATOM      3  C   UNL     1      -9.401  -0.032   8.771  1.00  0.00     0.088 A 
ATOM      4  C   UNL     1      -8.761  -0.469   7.579  1.00  0.00     0.035 A 
ATOM      5  N   UNL     1      -6.615  -0.604   6.333  1.00  0.00    -0.360 N 
ATOM      6  N   UNL     1      -5.742   1.176   7.318  1.00  0.00    -0.360 N 
ATOM      7  C   UNL     1      -8.793   0.978   9.513  1.00  0.00     0.271 A 
ATOM      8  C   UNL     1      -5.917   0.543   6.061  1.00  0.00     0.205 C 
ATOM      9  C   UNL     1      -7.532   1.503   9.091  1.00  0.00     0.113 A 
ATOM     10  H   UNL     1      -6.531  -1.540   5.911  1.00  0.00     0.163 HD
ATOM     11  H   UNL     1      -4.913   1.686   7.655  1.00  0.00     0.163 HD
ENDROOT
BRANCH   8  12
ATOM     12  C   UNL     1      -4.634   0.457   5.187  1.00  0.00    -0.003 A 
ATOM     13  C   UNL     1      -3.561  -0.508   3.175  1.00  0.00     0.042 A 
ATOM     14  C   UNL     1      -4.691   0.150   3.809  1.00  0.00     0.028 A 
ATOM     15  C   UNL     1      -2.241  -0.294   3.779  1.00  0.00     0.041 A 
ATOM     16  C   UNL     1      -2.219   0.378   5.074  1.00  0.00     0.042 A 
ATOM     17  C   UNL     1      -3.372   0.604   5.866  1.00  0.00     0.028 A 
ATOM     18  Cl  UNL     1      -3.556  -1.168   1.763  1.00  0.00    -0.084 Cl
ATOM     19  Cl  UNL     1      -0.680   0.812   5.676  1.00  0.00    -0.084 Cl
ENDBRANCH   8  12
BRANCH   7  20
ATOM     20  N   UNL     1      -9.385   1.592  10.598  1.00  0.00     0.062 N 
ATOM     21  O   UNL     1      -8.977   2.622  10.992  1.00  0.00    -0.258 OA
ATOM     22  O   UNL     1     -10.530   1.214  11.098  1.00  0.00    -0.258 OA
ENDBRANCH   7  20
TORSDOF 2
ENDMDL
MODEL 2
REMARK VINA RESULT:    -4.383      1.016      2.669
REMARK INTER + INTRA:          -5.211
REMARK INTER:                  -4.896
REMARK INTRA:                  -0.315
REMARK UNBOUND:                -0.315
REMARK SMILES O=[N+]([O-])c1ccc2c(c1)N[C@@H](c1cc(Cl)cc(Cl)c1)N2
REMARK SMILES IDX 7 1 8 2 5 3 6 4 20 5 10 6 4 7 11 8 9 9 12 12 14 13 13 14
REMARK SMILES IDX 16 15 17 16 19 17 15 18 18 19 2 20 3 21 1 22
REMARK H PARENT 20 10 10 11
ROOT
ATOM      1  C   UNL     1      -6.749   1.137   8.123  1.00  0.00     0.060 A 
ATOM      2  C   UNL     1      -7.396   0.037   7.613  1.00  0.00     0.066 A 
ATOM      3  C   UNL     1      -8.468   1.504   9.690  1.00  0.00     0.088 A 
ATOM      4  C   UNL     1      -7.131   1.699   9.249  1.00  0.00     0.035 A 
ATOM      5  N   UNL     1      -5.504   1.334   7.406  1.00  0.00    -0.360 N 
ATOM      6  N   UNL     1      -6.543  -0.458   6.623  1.00  0.00    -0.360 N 
ATOM      7  C   UNL     1      -9.216   0.488   9.099  1.00  0.00     0.271 A 
ATOM      8  C   UNL     1      -5.266   0.061   6.955  1.00  0.00     0.205 C 
ATOM      9  C   UNL     1      -8.644  -0.287   8.042  1.00  0.00     0.113 A 
ATOM     10  H   UNL     1      -4.951   2.192   7.272  1.00  0.00     0.163 HD
ATOM     11  H   UNL     1      -6.788  -1.065   5.827  1.00  0.00     0.163 HD
ENDROOT
BRANCH   8  12
ATOM     12  C   UNL     1      -4.167  -0.165   5.879  1.00  0.00    -0.003 A 
ATOM     13  C   UNL     1      -1.865   0.354   5.131  1.00  0.00     0.042 A 
ATOM     14  C   UNL     1      -2.793  -0.034   6.180  1.00  0.00     0.028 A 
ATOM     15  C   UNL     1      -2.239   0.020   3.752  1.00  0.00     0.041 A 
ATOM     16  C   UNL     1      -3.597  -0.474   3.549  1.00  0.00     0.042 A 
ATOM     17  C   UNL     1      -4.615  -0.415   4.533  1.00  0.00     0.028 A 
ATOM     18  Cl  UNL     1      -0.390   0.817   5.334  1.00  0.00    -0.084 Cl
ATOM     19  Cl  UNL     1      -3.965  -1.059   1.986  1.00  0.00    -0.084 Cl
ENDBRANCH   8  12
BRANCH   7  20
ATOM     20  N   UNL     1     -10.464   0.101   9.541  1.00  0.00     0.062 N 
ATOM     21  O   UNL     1     -10.898  -0.951   9.245  1.00  0.00    -0.258 OA
ATOM     22  O   UNL     1     -11.127   0.741  10.466  1.00  0.00    -0.258 OA
ENDBRANCH   7  20
TORSDOF 2
ENDMDL
MODEL 3
REMARK VINA RESULT:    -4.134      5.106      7.576
REMARK INTER + INTRA:          -4.932
REMARK INTER:                  -4.633
REMARK INTRA:                  -0.299
REMARK UNBOUND:                -0.315
REMARK SMILES O=[N+]([O-])c1ccc2c(c1)N[C@@H](c1cc(Cl)cc(Cl)c1)N2
REMARK SMILES IDX 7 1 8 2 5 3 6 4 20 5 10 6 4 7 11 8 9 9 12 12 14 13 13 14
REMARK SMILES IDX 16 15 17 16 19 17 15 18 18 19 2 20 3 21 1 22
REMARK H PARENT 20 10 10 11
ROOT
ATOM      1  C   UNL     1      -3.890   0.537   5.921  1.00  0.00     0.060 A 
ATOM      2  C   UNL     1      -4.598  -0.351   5.146  1.00  0.00     0.066 A 
ATOM      3  C   UNL     1      -2.148   0.631   4.338  1.00  0.00     0.088 A 
ATOM      4  C   UNL     1      -2.845   1.181   5.448  1.00  0.00     0.035 A 
ATOM      5  N   UNL     1      -4.638   0.818   7.130  1.00  0.00    -0.360 N 
ATOM      6  N   UNL     1      -5.782  -0.581   5.852  1.00  0.00    -0.360 N 
ATOM      7  C   UNL     1      -2.769  -0.376   3.603  1.00  0.00     0.271 A 
ATOM      8  C   UNL     1      -5.913   0.539   6.712  1.00  0.00     0.205 C 
ATOM      9  C   UNL     1      -4.051  -0.861   4.012  1.00  0.00     0.113 A 
ATOM     10  H   UNL     1      -4.305   1.140   8.050  1.00  0.00     0.163 HD
ATOM     11  H   UNL     1      -6.418  -1.386   5.766  1.00  0.00     0.163 HD
ENDROOT
BRANCH   8  12
ATOM     12  C   UNL     1      -7.046   0.423   7.769  1.00  0.00    -0.003 A 
ATOM     13  C   UNL     1      -9.298  -0.459   8.302  1.00  0.00     0.042 A 
ATOM     14  C   UNL     1      -7.962  -0.654   7.764  1.00  0.00     0.028 A 
ATOM     15  C   UNL     1      -9.458   0.577   9.329  1.00  0.00     0.041 A 
ATOM     16  C   UNL     1      -8.313   1.453   9.553  1.00  0.00     0.042 A 
ATOM     17  C   UNL     1      -7.186   1.516   8.697  1.00  0.00     0.028 A 
ATOM     18  Cl  UNL     1     -10.509  -1.424   8.125  1.00  0.00    -0.084 Cl
ATOM     19  Cl  UNL     1      -8.424   2.518  10.885  1.00  0.00    -0.084 Cl
ENDBRANCH   8  12
BRANCH   7  20
ATOM     20  N   UNL     1      -2.267  -0.882   2.422  1.00  0.00     0.062 N 
ATOM     21  O   UNL     1      -1.121  -0.789   2.176  1.00  0.00    -0.258 OA
ATOM     22  O   UNL     1      -2.948  -1.670   1.634  1.00  0.00    -0.258 OA
ENDBRANCH   7  20
TORSDOF 2
ENDMDL
MODEL 4
REMARK VINA RESULT:    -4.099      5.004      7.647
REMARK INTER + INTRA:          -4.893
REMARK INTER:                  -4.594
REMARK INTRA:                  -0.299
REMARK UNBOUND:                -0.315
REMARK SMILES O=[N+]([O-])c1ccc2c(c1)N[C@@H](c1cc(Cl)cc(Cl)c1)N2
REMARK SMILES IDX 7 1 8 2 5 3 6 4 20 5 10 6 4 7 11 8 9 9 12 12 14 13 13 14
REMARK SMILES IDX 16 15 17 16 19 17 15 18 18 19 2 20 3 21 1 22
REMARK H PARENT 20 10 10 11
ROOT
ATOM      1  C   UNL     1      -4.903  -0.349   4.822  1.00  0.00     0.060 A 
ATOM      2  C   UNL     1      -4.129   0.597   5.451  1.00  0.00     0.066 A 
ATOM      3  C   UNL     1      -3.133  -0.933   3.381  1.00  0.00     0.088 A 
ATOM      4  C   UNL     1      -4.377  -1.232   4.001  1.00  0.00     0.035 A 
ATOM      5  N   UNL     1      -6.221  -0.367   5.426  1.00  0.00    -0.360 N 
ATOM      6  N   UNL     1      -4.948   1.125   6.453  1.00  0.00    -0.360 N 
ATOM      7  C   UNL     1      -2.375   0.115   3.898  1.00  0.00     0.271 A 
ATOM      8  C   UNL     1      -5.938   0.133   6.670  1.00  0.00     0.205 C 
ATOM      9  C   UNL     1      -2.885   0.886   4.988  1.00  0.00     0.113 A 
ATOM     10  H   UNL     1      -7.121  -0.672   5.030  1.00  0.00     0.163 HD
ATOM     11  H   UNL     1      -4.853   2.034   6.928  1.00  0.00     0.163 HD
ENDROOT
BRANCH   8  12
ATOM     12  C   UNL     1      -7.110   0.569   7.593  1.00  0.00    -0.003 A 
ATOM     13  C   UNL     1      -7.804   1.865   9.586  1.00  0.00     0.042 A 
ATOM     14  C   UNL     1      -7.064   1.769   8.338  1.00  0.00     0.028 A 
ATOM     15  C   UNL     1      -8.991   1.013   9.724  1.00  0.00     0.041 A 
ATOM     16  C   UNL     1      -9.189   0.001   8.691  1.00  0.00     0.042 A 
ATOM     17  C   UNL     1      -8.206  -0.355   7.735  1.00  0.00     0.028 A 
ATOM     18  Cl  UNL     1      -7.648   2.980  10.663  1.00  0.00    -0.084 Cl
ATOM     19  Cl  UNL     1     -10.672  -0.847   8.735  1.00  0.00    -0.084 Cl
ENDBRANCH   8  12
BRANCH   7  20
ATOM     20  N   UNL     1      -1.090   0.405   3.486  1.00  0.00     0.062 N 
ATOM     21  O   UNL     1      -0.733   0.110   2.405  1.00  0.00    -0.258 OA
ATOM     22  O   UNL     1      -0.289   1.197   4.145  1.00  0.00    -0.258 OA
ENDBRANCH   7  20
TORSDOF 2
ENDMDL
MODEL 5
REMARK VINA RESULT:    -4.082      1.385      2.063
REMARK INTER + INTRA:          -4.875
REMARK INTER:                  -4.576
REMARK INTRA:                  -0.299
REMARK UNBOUND:                -0.315
REMARK SMILES O=[N+]([O-])c1ccc2c(c1)N[C@@H](c1cc(Cl)cc(Cl)c1)N2
REMARK SMILES IDX 7 1 8 2 5 3 6 4 20 5 10 6 4 7 11 8 9 9 12 12 14 13 13 14
REMARK SMILES IDX 16 15 17 16 19 17 15 18 18 19 2 20 3 21 1 22
REMARK H PARENT 20 10 10 11
ROOT
ATOM      1  C   UNL     1      -7.288   0.826   7.842  1.00  0.00     0.060 A 
ATOM      2  C   UNL     1      -7.716  -0.301   7.181  1.00  0.00     0.066 A 
ATOM      3  C   UNL     1      -9.107   0.723   9.335  1.00  0.00     0.088 A 
ATOM      4  C   UNL     1      -7.806   1.185   8.997  1.00  0.00     0.035 A 
ATOM      5  N   UNL     1      -6.067   1.306   7.225  1.00  0.00    -0.360 N 
ATOM      6  N   UNL     1      -6.752  -0.531   6.197  1.00  0.00    -0.360 N 
ATOM      7  C   UNL     1      -9.645  -0.329   8.597  1.00  0.00     0.271 A 
ATOM      8  C   UNL     1      -5.597   0.151   6.657  1.00  0.00     0.205 C 
ATOM      9  C   UNL     1      -8.907  -0.873   7.500  1.00  0.00     0.113 A 
ATOM     10  H   UNL     1      -5.664   2.254   7.216  1.00  0.00     0.163 HD
ATOM     11  H   UNL     1      -6.857  -1.075   5.329  1.00  0.00     0.163 HD
ENDROOT
BRANCH   8  12
ATOM     12  C   UNL     1      -4.433   0.234   5.631  1.00  0.00    -0.003 A 
ATOM     13  C   UNL     1      -3.576  -0.457   3.412  1.00  0.00     0.042 A 
ATOM     14  C   UNL     1      -4.649   0.062   4.245  1.00  0.00     0.028 A 
ATOM     15  C   UNL     1      -2.202  -0.219   3.871  1.00  0.00     0.041 A 
ATOM     16  C   UNL     1      -2.051   0.322   5.218  1.00  0.00     0.042 A 
ATOM     17  C   UNL     1      -3.104   0.394   6.163  1.00  0.00     0.028 A 
ATOM     18  Cl  UNL     1      -3.716  -0.972   1.948  1.00  0.00    -0.084 Cl
ATOM     19  Cl  UNL     1      -0.472   0.793   5.672  1.00  0.00    -0.084 Cl
ENDBRANCH   8  12
BRANCH   7  20
ATOM     20  N   UNL     1     -10.826  -0.966   8.921  1.00  0.00     0.062 N 
ATOM     21  O   UNL     1     -11.100  -1.996   8.425  1.00  0.00    -0.258 OA
ATOM     22  O   UNL     1     -11.579  -0.609   9.925  1.00  0.00    -0.258 OA
ENDBRANCH   7  20
TORSDOF 2
ENDMDL
MODEL 6
REMARK VINA RESULT:    -4.070      0.766      2.158
REMARK INTER + INTRA:          -4.862
REMARK INTER:                  -4.562
REMARK INTRA:                  -0.300
REMARK UNBOUND:                -0.315
REMARK SMILES O=[N+]([O-])c1ccc2c(c1)N[C@@H](c1cc(Cl)cc(Cl)c1)N2
REMARK SMILES IDX 7 1 8 2 5 3 6 4 20 5 10 6 4 7 11 8 9 9 12 12 14 13 13 14
REMARK SMILES IDX 16 15 17 16 19 17 15 18 18 19 2 20 3 21 1 22
REMARK H PARENT 20 10 10 11
ROOT
ATOM      1  C   UNL     1      -7.341   0.235   7.910  1.00  0.00     0.060 A 
ATOM      2  C   UNL     1      -6.577   1.314   8.287  1.00  0.00     0.066 A 
ATOM      3  C   UNL     1      -9.035   0.817   9.440  1.00  0.00     0.088 A 
ATOM      4  C   UNL     1      -8.598   0.119   8.281  1.00  0.00     0.035 A 
ATOM      5  N   UNL     1      -6.645  -0.506   6.877  1.00  0.00    -0.360 N 
ATOM      6  N   UNL     1      -5.445   1.258   7.469  1.00  0.00    -0.360 N 
ATOM      7  C   UNL     1      -8.222   1.829   9.946  1.00  0.00     0.271 A 
ATOM      8  C   UNL     1      -5.843   0.476   6.355  1.00  0.00     0.205 C 
ATOM      9  C   UNL     1      -6.962   2.099   9.327  1.00  0.00     0.113 A 
ATOM     10  H   UNL     1      -6.729  -1.496   6.608  1.00  0.00     0.163 HD
ATOM     11  H   UNL     1      -4.525   1.689   7.638  1.00  0.00     0.163 HD
ENDROOT
BRANCH   8  12
ATOM     12  C   UNL     1      -4.692   0.078   5.390  1.00  0.00    -0.003 A 
ATOM     13  C   UNL     1      -2.294   0.314   4.819  1.00  0.00     0.042 A 
ATOM     14  C   UNL     1      -3.340   0.083   5.801  1.00  0.00     0.028 A 
ATOM     15  C   UNL     1      -2.590  -0.058   3.430  1.00  0.00     0.041 A 
ATOM     16  C   UNL     1      -3.972  -0.420   3.135  1.00  0.00     0.042 A 
ATOM     17  C   UNL     1      -5.054  -0.201   4.024  1.00  0.00     0.028 A 
ATOM     18  Cl  UNL     1      -0.800   0.633   5.126  1.00  0.00    -0.084 Cl
ATOM     19  Cl  UNL     1      -4.274  -1.051   1.575  1.00  0.00    -0.084 Cl
ENDBRANCH   8  12
BRANCH   7  20
ATOM     20  N   UNL     1      -8.601   2.676  10.967  1.00  0.00     0.062 N 
ATOM     21  O   UNL     1      -7.980   3.648  11.193  1.00  0.00    -0.258 OA
ATOM     22  O   UNL     1      -9.753   2.593  11.576  1.00  0.00    -0.258 OA
ENDBRANCH   7  20
TORSDOF 2
ENDMDL
MODEL 7
REMARK VINA RESULT:    -4.035      3.906      5.625
REMARK INTER + INTRA:          -4.822
REMARK INTER:                  -4.519
REMARK INTRA:                  -0.303
REMARK UNBOUND:                -0.315
REMARK SMILES O=[N+]([O-])c1ccc2c(c1)N[C@@H](c1cc(Cl)cc(Cl)c1)N2
REMARK SMILES IDX 7 1 8 2 5 3 6 4 20 5 10 6 4 7 11 8 9 9 12 12 14 13 13 14
REMARK SMILES IDX 16 15 17 16 19 17 15 18 18 19 2 20 3 21 1 22
REMARK H PARENT 20 10 10 11
ROOT
ATOM      1  C   UNL     1      -8.150   4.489  10.519  1.00  0.00     0.060 A 
ATOM      2  C   UNL     1      -8.554   3.551  11.439  1.00  0.00     0.066 A 
ATOM      3  C   UNL     1      -8.589   6.249  12.022  1.00  0.00     0.088 A 
ATOM      4  C   UNL     1      -7.946   5.743  10.860  1.00  0.00     0.035 A 
ATOM      5  N   UNL     1      -7.739   3.818   9.301  1.00  0.00    -0.360 N 
ATOM      6  N   UNL     1      -8.357   2.320  10.809  1.00  0.00    -0.360 N 
ATOM      7  C   UNL     1      -9.142   5.337  12.918  1.00  0.00     0.271 A 
ATOM      8  C   UNL     1      -7.405   2.583   9.791  1.00  0.00     0.205 C 
ATOM      9  C   UNL     1      -9.096   3.939  12.623  1.00  0.00     0.113 A 
ATOM     10  H   UNL     1      -7.707   4.172   8.335  1.00  0.00     0.163 HD
ATOM     11  H   UNL     1      -8.805   1.420  11.034  1.00  0.00     0.163 HD
ENDROOT
BRANCH   8  12
ATOM     12  C   UNL     1      -7.172   1.413   8.795  1.00  0.00    -0.003 A 
ATOM     13  C   UNL     1      -5.946   0.606   6.800  1.00  0.00     0.042 A 
ATOM     14  C   UNL     1      -5.952   1.260   8.098  1.00  0.00     0.028 A 
ATOM     15  C   UNL     1      -7.015  -0.366   6.539  1.00  0.00     0.041 A 
ATOM     16  C   UNL     1      -8.096  -0.421   7.517  1.00  0.00     0.042 A 
ATOM     17  C   UNL     1      -8.293   0.546   8.534  1.00  0.00     0.028 A 
ATOM     18  Cl  UNL     1      -4.769   0.602   5.779  1.00  0.00    -0.084 Cl
ATOM     19  Cl  UNL     1      -9.226  -1.689   7.325  1.00  0.00    -0.084 Cl
ENDBRANCH   8  12
BRANCH   7  20
ATOM     20  N   UNL     1      -9.655   5.690  14.150  1.00  0.00     0.062 N 
ATOM     21  O   UNL     1      -8.935   5.993  15.028  1.00  0.00    -0.258 OA
ATOM     22  O   UNL     1     -10.922   5.930  14.355  1.00  0.00    -0.258 OA
ENDBRANCH   7  20
TORSDOF 2
ENDMDL
MODEL 8
REMARK VINA RESULT:    -4.021      3.091      4.439
REMARK INTER + INTRA:          -4.806
REMARK INTER:                  -4.502
REMARK INTRA:                  -0.304
REMARK UNBOUND:                -0.315
REMARK SMILES O=[N+]([O-])c1ccc2c(c1)N[C@@H](c1cc(Cl)cc(Cl)c1)N2
REMARK SMILES IDX 7 1 8 2 5 3 6 4 20 5 10 6 4 7 11 8 9 9 12 12 14 13 13 14
REMARK SMILES IDX 16 15 17 16 19 17 15 18 18 19 2 20 3 21 1 22
REMARK H PARENT 20 10 10 11
ROOT
ATOM      1  C   UNL     1      -7.900   2.678  10.627  1.00  0.00     0.060 A 
ATOM      2  C   UNL     1      -7.518   3.767   9.881  1.00  0.00     0.066 A 
ATOM      3  C   UNL     1      -9.006   4.053  12.188  1.00  0.00     0.088 A 
ATOM      4  C   UNL     1      -8.793   2.782  11.588  1.00  0.00     0.035 A 
ATOM      5  N   UNL     1      -7.404   1.470   9.999  1.00  0.00    -0.360 N 
ATOM      6  N   UNL     1      -6.830   3.232   8.789  1.00  0.00    -0.360 N 
ATOM      7  C   UNL     1      -8.511   5.180  11.536  1.00  0.00     0.271 A 
ATOM      8  C   UNL     1      -7.280   1.890   8.700  1.00  0.00     0.205 C 
ATOM      9  C   UNL     1      -7.764   5.026  10.327  1.00  0.00     0.113 A 
ATOM     10  H   UNL     1      -7.201   0.549  10.413  1.00  0.00     0.163 HD
ATOM     11  H   UNL     1      -6.147   3.708   8.182  1.00  0.00     0.163 HD
ENDROOT
BRANCH   8  12
ATOM     12  C   UNL     1      -6.500   1.003   7.691  1.00  0.00    -0.003 A 
ATOM     13  C   UNL     1      -4.529  -0.443   7.297  1.00  0.00     0.042 A 
ATOM     14  C   UNL     1      -5.663  -0.052   8.118  1.00  0.00     0.028 A 
ATOM     15  C   UNL     1      -4.628  -0.183   5.856  1.00  0.00     0.041 A 
ATOM     16  C   UNL     1      -5.755   0.633   5.419  1.00  0.00     0.042 A 
ATOM     17  C   UNL     1      -6.588   1.367   6.299  1.00  0.00     0.028 A 
ATOM     18  Cl  UNL     1      -3.355  -1.370   7.735  1.00  0.00    -0.084 Cl
ATOM     19  Cl  UNL     1      -5.988   0.761   3.731  1.00  0.00    -0.084 Cl
ENDBRANCH   8  12
BRANCH   7  20
ATOM     20  N   UNL     1      -8.782   6.474  11.933  1.00  0.00     0.062 N 
ATOM     21  O   UNL     1      -8.211   6.946  12.846  1.00  0.00    -0.258 OA
ATOM     22  O   UNL     1      -9.485   7.309  11.217  1.00  0.00    -0.258 OA
ENDBRANCH   7  20
TORSDOF 2
ENDMDL
MODEL 9
REMARK VINA RESULT:    -3.489      5.194      7.664
REMARK INTER + INTRA:          -4.212
REMARK INTER:                  -3.917
REMARK INTRA:                  -0.295
REMARK UNBOUND:                -0.315
REMARK SMILES O=[N+]([O-])c1ccc2c(c1)N[C@@H](c1cc(Cl)cc(Cl)c1)N2
REMARK SMILES IDX 7 1 8 2 5 3 6 4 20 5 10 6 4 7 11 8 9 9 12 12 14 13 13 14
REMARK SMILES IDX 16 15 17 16 19 17 15 18 18 19 2 20 3 21 1 22
REMARK H PARENT 20 10 10 11
ROOT
ATOM      1  C   UNL     1      -5.671   0.302   7.806  1.00  0.00     0.060 A 
ATOM      2  C   UNL     1      -6.388   0.897   6.795  1.00  0.00     0.066 A 
ATOM      3  C   UNL     1      -4.329  -0.861   6.258  1.00  0.00     0.088 A 
ATOM      4  C   UNL     1      -4.553  -0.349   7.564  1.00  0.00     0.035 A 
ATOM      5  N   UNL     1      -6.179   0.758   9.085  1.00  0.00    -0.360 N 
ATOM      6  N   UNL     1      -7.298   1.735   7.444  1.00  0.00    -0.360 N 
ATOM      7  C   UNL     1      -5.131  -0.391   5.219  1.00  0.00     0.271 A 
ATOM      8  C   UNL     1      -6.733   1.958   8.725  1.00  0.00     0.205 C 
ATOM      9  C   UNL     1      -6.178   0.540   5.501  1.00  0.00     0.113 A 
ATOM     10  H   UNL     1      -6.135   0.305  10.009  1.00  0.00     0.163 HD
ATOM     11  H   UNL     1      -8.184   2.109   7.074  1.00  0.00     0.163 HD
ENDROOT
BRANCH   8  12
ATOM     12  C   UNL     1      -7.662   2.692   9.732  1.00  0.00    -0.003 A 
ATOM     13  C   UNL     1      -8.082   4.754  11.039  1.00  0.00     0.042 A 
ATOM     14  C   UNL     1      -7.736   4.102   9.786  1.00  0.00     0.028 A 
ATOM     15  C   UNL     1      -8.896   3.985  11.987  1.00  0.00     0.041 A 
ATOM     16  C   UNL     1      -9.097   2.573  11.676  1.00  0.00     0.042 A 
ATOM     17  C   UNL     1      -8.372   1.872  10.681  1.00  0.00     0.028 A 
ATOM     18  Cl  UNL     1      -7.935   6.273  11.355  1.00  0.00    -0.084 Cl
ATOM     19  Cl  UNL     1     -10.211   1.732  12.662  1.00  0.00    -0.084 Cl
ENDBRANCH   8  12
BRANCH   7  20
ATOM     20  N   UNL     1      -4.916  -0.693   3.890  1.00  0.00     0.062 N 
ATOM     21  O   UNL     1      -4.438  -1.723   3.585  1.00  0.00    -0.258 OA
ATOM     22  O   UNL     1      -5.416   0.006   2.908  1.00  0.00    -0.258 OA
ENDBRANCH   7  20
TORSDOF 2
ENDMDL
