MODEL 1
REMARK VINA RESULT:    -5.363      0.000      0.000
REMARK INTER + INTRA:          -6.288
REMARK INTER:                  -5.990
REMARK INTRA:                  -0.298
REMARK UNBOUND:                -0.298
REMARK SMILES O=[N+]([O-])c1ccc2c(c1)N[C@@H](c1cc(Cl)cc(Cl)c1)N2
REMARK SMILES IDX 7 1 8 2 5 3 6 4 20 5 10 6 4 7 11 8 9 9 12 12 14 13 13 14
REMARK SMILES IDX 16 15 17 16 19 17 15 18 18 19 2 20 3 21 1 22
REMARK H PARENT 20 10 10 11
ROOT
ATOM      1  C   UNL     1       1.645   4.030  -6.789  1.00  0.00     0.060 A 
ATOM      2  C   UNL     1       2.649   3.138  -7.084  1.00  0.00     0.066 A 
ATOM      3  C   UNL     1       1.938   3.696  -4.476  1.00  0.00     0.088 A 
ATOM      4  C   UNL     1       1.457   4.472  -5.565  1.00  0.00     0.035 A 
ATOM      5  N   UNL     1       1.101   4.562  -8.023  1.00  0.00    -0.360 N 
ATOM      6  N   UNL     1       2.745   3.151  -8.478  1.00  0.00    -0.360 N 
ATOM      7  C   UNL     1       2.854   2.682  -4.744  1.00  0.00     0.271 A 
ATOM      8  C   UNL     1       2.165   4.385  -8.868  1.00  0.00     0.205 C 
ATOM      9  C   UNL     1       3.239   2.416  -6.096  1.00  0.00     0.113 A 
ATOM     10  H   UNL     1       0.171   4.963  -8.213  1.00  0.00     0.163 HD
ATOM     11  H   UNL     1       3.149   2.425  -9.087  1.00  0.00     0.163 HD
ENDROOT
BRANCH   8  12
ATOM     12  C   UNL     1       1.950   4.552 -10.398  1.00  0.00    -0.003 A 
ATOM     13  C   UNL     1       2.917   4.303 -12.665  1.00  0.00     0.042 A 
ATOM     14  C   UNL     1       2.653   3.767 -11.340  1.00  0.00     0.028 A 
ATOM     15  C   UNL     1       1.982   5.314 -13.173  1.00  0.00     0.041 A 
ATOM     16  C   UNL     1       1.010   5.837 -12.219  1.00  0.00     0.042 A 
ATOM     17  C   UNL     1       1.075   5.615 -10.821  1.00  0.00     0.028 A 
ATOM     18  Cl  UNL     1       3.904   3.710 -13.716  1.00  0.00    -0.084 Cl
ATOM     19  Cl  UNL     1      -0.207   6.853 -12.859  1.00  0.00    -0.084 Cl
ENDBRANCH   8  12
BRANCH   7  20
ATOM     20  N   UNL     1       3.509   1.963  -3.765  1.00  0.00     0.062 N 
ATOM     21  O   UNL     1       4.640   1.672  -3.898  1.00  0.00    -0.258 OA
ATOM     22  O   UNL     1       3.015   1.764  -2.573  1.00  0.00    -0.258 OA
ENDBRANCH   7  20
TORSDOF 2
ENDMDL
MODEL 2
REMARK VINA RESULT:    -5.329      1.024      2.678
REMARK INTER + INTRA:          -6.250
REMARK INTER:                  -5.951
REMARK INTRA:                  -0.298
REMARK UNBOUND:                -0.298
REMARK SMILES O=[N+]([O-])c1ccc2c(c1)N[C@@H](c1cc(Cl)cc(Cl)c1)N2
REMARK SMILES IDX 7 1 8 2 5 3 6 4 20 5 10 6 4 7 11 8 9 9 12 12 14 13 13 14
REMARK SMILES IDX 16 15 17 16 19 17 15 18 18 19 2 20 3 21 1 22
REMARK H PARENT 20 10 10 11
ROOT
ATOM      1  C   UNL     1       2.826   3.190  -7.166  1.00  0.00     0.060 A 
ATOM      2  C   UNL     1       1.806   3.986  -6.701  1.00  0.00     0.066 A 
ATOM      3  C   UNL     1       3.017   2.107  -5.083  1.00  0.00     0.088 A 
ATOM      4  C   UNL     1       3.249   2.147  -6.484  1.00  0.00     0.035 A 
ATOM      5  N   UNL     1       3.096   3.519  -8.551  1.00  0.00    -0.360 N 
ATOM      6  N   UNL     1       1.428   4.765  -7.798  1.00  0.00    -0.360 N 
ATOM      7  C   UNL     1       2.090   2.996  -4.542  1.00  0.00     0.271 A 
ATOM      8  C   UNL     1       1.887   4.042  -8.929  1.00  0.00     0.205 C 
ATOM      9  C   UNL     1       1.447   3.948  -5.392  1.00  0.00     0.113 A 
ATOM     10  H   UNL     1       3.957   3.393  -9.101  1.00  0.00     0.163 HD
ATOM     11  H   UNL     1       0.927   5.665  -7.787  1.00  0.00     0.163 HD
ENDROOT
BRANCH   8  12
ATOM     12  C   UNL     1       1.783   4.805 -10.279  1.00  0.00    -0.003 A 
ATOM     13  C   UNL     1       0.406   6.262 -11.734  1.00  0.00     0.042 A 
ATOM     14  C   UNL     1       0.963   5.946 -10.429  1.00  0.00     0.028 A 
ATOM     15  C   UNL     1       1.150   5.789 -12.907  1.00  0.00     0.041 A 
ATOM     16  C   UNL     1       2.253   4.869 -12.651  1.00  0.00     0.042 A 
ATOM     17  C   UNL     1       2.481   4.237 -11.404  1.00  0.00     0.028 A 
ATOM     18  Cl  UNL     1      -0.725   7.293 -12.025  1.00  0.00    -0.084 Cl
ATOM     19  Cl  UNL     1       3.245   4.485 -13.989  1.00  0.00    -0.084 Cl
ENDBRANCH   8  12
BRANCH   7  20
ATOM     20  N   UNL     1       1.666   2.954  -3.230  1.00  0.00     0.062 N 
ATOM     21  O   UNL     1       0.548   3.198  -2.960  1.00  0.00    -0.258 OA
ATOM     22  O   UNL     1       2.377   2.439  -2.263  1.00  0.00    -0.258 OA
ENDBRANCH   7  20
TORSDOF 2
ENDMDL
MODEL 3
REMARK VINA RESULT:    -5.270      5.130      7.625
REMARK INTER + INTRA:          -6.184
REMARK INTER:                  -5.874
REMARK INTRA:                  -0.310
REMARK UNBOUND:                -0.298
REMARK SMILES O=[N+]([O-])c1ccc2c(c1)N[C@@H](c1cc(Cl)cc(Cl)c1)N2
REMARK SMILES IDX 7 1 8 2 5 3 6 4 20 5 10 6 4 7 11 8 9 9 12 12 14 13 13 14
REMARK SMILES IDX 16 15 17 16 19 17 15 18 18 19 2 20 3 21 1 22
REMARK H PARENT 20 10 10 11
ROOT
ATOM      1  C   UNL     1       2.413   4.283 -10.631  1.00  0.00     0.060 A 
ATOM      2  C   UNL     1       1.392   5.137 -10.288  1.00  0.00     0.066 A 
ATOM      3  C   UNL     1       2.268   4.915 -12.896  1.00  0.00     0.088 A 
ATOM      4  C   UNL     1       2.987   4.339 -11.814  1.00  0.00     0.035 A 
ATOM      5  N   UNL     1       2.884   3.599  -9.443  1.00  0.00    -0.360 N 
ATOM      6  N   UNL     1       1.263   5.006  -8.902  1.00  0.00    -0.360 N 
ATOM      7  C   UNL     1       1.137   5.675 -12.605  1.00  0.00     0.271 A 
ATOM      8  C   UNL     1       2.511   4.490  -8.471  1.00  0.00     0.205 C 
ATOM      9  C   UNL     1       0.705   5.808 -11.248  1.00  0.00     0.113 A 
ATOM     10  H   UNL     1       3.366   2.693  -9.354  1.00  0.00     0.163 HD
ATOM     11  H   UNL     1       0.443   5.235  -8.323  1.00  0.00     0.163 HD
ENDROOT
BRANCH   8  12
ATOM     12  C   UNL     1       2.557   4.046  -6.982  1.00  0.00    -0.003 A 
ATOM     13  C   UNL     1       3.900   3.035  -5.164  1.00  0.00     0.042 A 
ATOM     14  C   UNL     1       3.771   3.977  -6.263  1.00  0.00     0.028 A 
ATOM     15  C   UNL     1       2.666   2.647  -4.471  1.00  0.00     0.041 A 
ATOM     16  C   UNL     1       1.413   3.075  -5.085  1.00  0.00     0.042 A 
ATOM     17  C   UNL     1       1.317   3.609  -6.394  1.00  0.00     0.028 A 
ATOM     18  Cl  UNL     1       5.226   2.624  -4.456  1.00  0.00    -0.084 Cl
ATOM     19  Cl  UNL     1      -0.008   2.807  -4.174  1.00  0.00    -0.084 Cl
ENDBRANCH   8  12
BRANCH   7  20
ATOM     20  N   UNL     1       0.445   6.409 -13.547  1.00  0.00     0.062 N 
ATOM     21  O   UNL     1       0.098   7.506 -13.306  1.00  0.00    -0.258 OA
ATOM     22  O   UNL     1       0.333   6.046 -14.796  1.00  0.00    -0.258 OA
ENDBRANCH   7  20
TORSDOF 2
ENDMDL
MODEL 4
REMARK VINA RESULT:    -5.263      5.036      7.641
REMARK INTER + INTRA:          -6.176
REMARK INTER:                  -5.866
REMARK INTRA:                  -0.310
REMARK UNBOUND:                -0.298
REMARK SMILES O=[N+]([O-])c1ccc2c(c1)N[C@@H](c1cc(Cl)cc(Cl)c1)N2
REMARK SMILES IDX 7 1 8 2 5 3 6 4 20 5 10 6 4 7 11 8 9 9 12 12 14 13 13 14
REMARK SMILES IDX 16 15 17 16 19 17 15 18 18 19 2 20 3 21 1 22
REMARK H PARENT 20 10 10 11
ROOT
ATOM      1  C   UNL     1       1.305   5.116 -10.259  1.00  0.00     0.060 A 
ATOM      2  C   UNL     1       2.316   4.285 -10.677  1.00  0.00     0.066 A 
ATOM      3  C   UNL     1       0.977   5.925 -12.447  1.00  0.00     0.088 A 
ATOM      4  C   UNL     1       0.515   5.723 -11.118  1.00  0.00     0.035 A 
ATOM      5  N   UNL     1       1.113   4.955  -8.831  1.00  0.00    -0.360 N 
ATOM      6  N   UNL     1       2.714   3.595  -9.529  1.00  0.00    -0.360 N 
ATOM      7  C   UNL     1       2.091   5.206 -12.874  1.00  0.00     0.271 A 
ATOM      8  C   UNL     1       1.606   3.690  -8.649  1.00  0.00     0.205 C 
ATOM      9  C   UNL     1       2.764   4.337 -11.959  1.00  0.00     0.113 A 
ATOM     10  H   UNL     1       0.716   5.611  -8.143  1.00  0.00     0.163 HD
ATOM     11  H   UNL     1       3.613   3.122  -9.359  1.00  0.00     0.163 HD
ENDROOT
BRANCH   8  12
ATOM     12  C   UNL     1       1.873   3.184  -7.204  1.00  0.00    -0.003 A 
ATOM     13  C   UNL     1       0.967   2.869  -4.920  1.00  0.00     0.042 A 
ATOM     14  C   UNL     1       0.825   2.748  -6.362  1.00  0.00     0.028 A 
ATOM     15  C   UNL     1       2.332   2.858  -4.383  1.00  0.00     0.041 A 
ATOM     16  C   UNL     1       3.415   2.943  -5.356  1.00  0.00     0.042 A 
ATOM     17  C   UNL     1       3.227   3.274  -6.721  1.00  0.00     0.028 A 
ATOM     18  Cl  UNL     1      -0.172   2.711  -3.868  1.00  0.00    -0.084 Cl
ATOM     19  Cl  UNL     1       4.998   2.720  -4.751  1.00  0.00    -0.084 Cl
ENDBRANCH   8  12
BRANCH   7  20
ATOM     20  N   UNL     1       2.543   5.197 -14.177  1.00  0.00     0.062 N 
ATOM     21  O   UNL     1       2.876   4.190 -14.683  1.00  0.00    -0.258 OA
ATOM     22  O   UNL     1       2.420   6.216 -14.984  1.00  0.00    -0.258 OA
ENDBRANCH   7  20
TORSDOF 2
ENDMDL
MODEL 5
REMARK VINA RESULT:    -4.872      5.132      7.825
REMARK INTER + INTRA:          -5.740
REMARK INTER:                  -5.440
REMARK INTRA:                  -0.300
REMARK UNBOUND:                -0.298
REMARK SMILES O=[N+]([O-])c1ccc2c(c1)N[C@@H](c1cc(Cl)cc(Cl)c1)N2
REMARK SMILES IDX 7 1 8 2 5 3 6 4 20 5 10 6 4 7 11 8 9 9 12 12 14 13 13 14
REMARK SMILES IDX 16 15 17 16 19 17 15 18 18 19 2 20 3 21 1 22
REMARK H PARENT 20 10 10 11
ROOT
ATOM      1  C   UNL     1       1.957   4.386 -10.659  1.00  0.00     0.060 A 
ATOM      2  C   UNL     1       1.010   5.214 -10.105  1.00  0.00     0.066 A 
ATOM      3  C   UNL     1       1.682   5.380 -12.777  1.00  0.00     0.088 A 
ATOM      4  C   UNL     1       2.446   4.607 -11.860  1.00  0.00     0.035 A 
ATOM      5  N   UNL     1       2.475   3.500  -9.635  1.00  0.00    -0.360 N 
ATOM      6  N   UNL     1       0.975   4.868  -8.752  1.00  0.00    -0.360 N 
ATOM      7  C   UNL     1       0.617   6.129 -12.281  1.00  0.00     0.271 A 
ATOM      8  C   UNL     1       2.221   4.238  -8.508  1.00  0.00     0.205 C 
ATOM      9  C   UNL     1       0.292   6.059 -10.891  1.00  0.00     0.113 A 
ATOM     10  H   UNL     1       2.913   2.573  -9.728  1.00  0.00     0.163 HD
ATOM     11  H   UNL     1       0.212   5.034  -8.080  1.00  0.00     0.163 HD
ENDROOT
BRANCH   8  12
ATOM     12  C   UNL     1       2.351   3.559  -7.117  1.00  0.00    -0.003 A 
ATOM     13  C   UNL     1       1.255   3.035  -4.958  1.00  0.00     0.042 A 
ATOM     14  C   UNL     1       1.221   3.087  -6.410  1.00  0.00     0.028 A 
ATOM     15  C   UNL     1       2.572   2.891  -4.327  1.00  0.00     0.041 A 
ATOM     16  C   UNL     1       3.731   3.028  -5.202  1.00  0.00     0.042 A 
ATOM     17  C   UNL     1       3.666   3.521  -6.529  1.00  0.00     0.028 A 
ATOM     18  Cl  UNL     1       0.031   2.820  -4.018  1.00  0.00    -0.084 Cl
ATOM     19  Cl  UNL     1       5.250   2.654  -4.513  1.00  0.00    -0.084 Cl
ENDBRANCH   8  12
BRANCH   7  20
ATOM     20  N   UNL     1      -0.101   7.032 -13.038  1.00  0.00     0.062 N 
ATOM     21  O   UNL     1      -0.936   7.692 -12.539  1.00  0.00    -0.258 OA
ATOM     22  O   UNL     1       0.235   7.376 -14.252  1.00  0.00    -0.258 OA
ENDBRANCH   7  20
TORSDOF 2
ENDMDL
MODEL 6
REMARK VINA RESULT:    -4.870      4.938      7.400
REMARK INTER + INTRA:          -5.737
REMARK INTER:                  -5.438
REMARK INTRA:                  -0.300
REMARK UNBOUND:                -0.298
REMARK SMILES O=[N+]([O-])c1ccc2c(c1)N[C@@H](c1cc(Cl)cc(Cl)c1)N2
REMARK SMILES IDX 7 1 8 2 5 3 6 4 20 5 10 6 4 7 11 8 9 9 12 12 14 13 13 14
REMARK SMILES IDX 16 15 17 16 19 17 15 18 18 19 2 20 3 21 1 22
REMARK H PARENT 20 10 10 11
ROOT
ATOM      1  C   UNL     1       1.725   5.072 -10.408  1.00  0.00     0.060 A 
ATOM      2  C   UNL     1       2.725   4.155 -10.631  1.00  0.00     0.066 A 
ATOM      3  C   UNL     1       1.517   5.505 -12.714  1.00  0.00     0.088 A 
ATOM      4  C   UNL     1       0.993   5.544 -11.393  1.00  0.00     0.035 A 
ATOM      5  N   UNL     1       1.468   5.161  -8.984  1.00  0.00    -0.360 N 
ATOM      6  N   UNL     1       3.050   3.661  -9.365  1.00  0.00    -0.360 N 
ATOM      7  C   UNL     1       2.624   4.695 -12.960  1.00  0.00     0.271 A 
ATOM      8  C   UNL     1       1.910   3.933  -8.568  1.00  0.00     0.205 C 
ATOM      9  C   UNL     1       3.227   3.978 -11.881  1.00  0.00     0.113 A 
ATOM     10  H   UNL     1       1.064   5.934  -8.436  1.00  0.00     0.163 HD
ATOM     11  H   UNL     1       3.925   3.200  -9.076  1.00  0.00     0.163 HD
ENDROOT
BRANCH   8  12
ATOM     12  C   UNL     1       2.098   3.674  -7.047  1.00  0.00    -0.003 A 
ATOM     13  C   UNL     1       3.625   2.923  -5.248  1.00  0.00     0.042 A 
ATOM     14  C   UNL     1       3.371   3.722  -6.435  1.00  0.00     0.028 A 
ATOM     15  C   UNL     1       2.469   2.592  -4.407  1.00  0.00     0.041 A 
ATOM     16  C   UNL     1       1.155   2.912  -4.954  1.00  0.00     0.042 A 
ATOM     17  C   UNL     1       0.928   3.281  -6.303  1.00  0.00     0.028 A 
ATOM     18  Cl  UNL     1       5.021   2.632  -4.617  1.00  0.00    -0.084 Cl
ATOM     19  Cl  UNL     1      -0.173   2.723  -3.894  1.00  0.00    -0.084 Cl
ENDBRANCH   8  12
BRANCH   7  20
ATOM     20  N   UNL     1       3.130   4.453 -14.220  1.00  0.00     0.062 N 
ATOM     21  O   UNL     1       4.019   3.698 -14.368  1.00  0.00    -0.258 OA
ATOM     22  O   UNL     1       2.538   4.844 -15.316  1.00  0.00    -0.258 OA
ENDBRANCH   7  20
TORSDOF 2
ENDMDL
MODEL 7
REMARK VINA RESULT:    -4.140      5.707      8.104
REMARK INTER + INTRA:          -4.923
REMARK INTER:                  -4.617
REMARK INTRA:                  -0.305
REMARK UNBOUND:                -0.298
REMARK SMILES O=[N+]([O-])c1ccc2c(c1)N[C@@H](c1cc(Cl)cc(Cl)c1)N2
REMARK SMILES IDX 7 1 8 2 5 3 6 4 20 5 10 6 4 7 11 8 9 9 12 12 14 13 13 14
REMARK SMILES IDX 16 15 17 16 19 17 15 18 18 19 2 20 3 21 1 22
REMARK H PARENT 20 10 10 11
ROOT
ATOM      1  C   UNL     1       0.024   6.414 -11.864  1.00  0.00     0.060 A 
ATOM      2  C   UNL     1      -0.002   7.383 -10.890  1.00  0.00     0.066 A 
ATOM      3  C   UNL     1      -0.779   7.926 -13.482  1.00  0.00     0.088 A 
ATOM      4  C   UNL     1      -0.121   6.714 -13.137  1.00  0.00     0.035 A 
ATOM      5  N   UNL     1       0.504   5.172 -11.290  1.00  0.00    -0.360 N 
ATOM      6  N   UNL     1       0.492   6.755  -9.743  1.00  0.00    -0.360 N 
ATOM      7  C   UNL     1      -0.956   8.886 -12.488  1.00  0.00     0.271 A 
ATOM      8  C   UNL     1       1.229   5.645 -10.229  1.00  0.00     0.205 C 
ATOM      9  C   UNL     1      -0.526   8.608 -11.153  1.00  0.00     0.113 A 
ATOM     10  H   UNL     1       0.344   4.202 -11.596  1.00  0.00     0.163 HD
ATOM     11  H   UNL     1       0.351   7.036  -8.762  1.00  0.00     0.163 HD
ENDROOT
BRANCH   8  12
ATOM     12  C   UNL     1       1.707   4.648  -9.136  1.00  0.00    -0.003 A 
ATOM     13  C   UNL     1       1.115   2.741  -7.672  1.00  0.00     0.042 A 
ATOM     14  C   UNL     1       1.116   3.375  -8.980  1.00  0.00     0.028 A 
ATOM     15  C   UNL     1       2.191   3.118  -6.749  1.00  0.00     0.041 A 
ATOM     16  C   UNL     1       3.027   4.245  -7.150  1.00  0.00     0.042 A 
ATOM     17  C   UNL     1       2.715   5.119  -8.220  1.00  0.00     0.028 A 
ATOM     18  Cl  UNL     1       0.277   1.495  -7.256  1.00  0.00    -0.084 Cl
ATOM     19  Cl  UNL     1       4.402   4.550  -6.182  1.00  0.00    -0.084 Cl
ENDBRANCH   8  12
BRANCH   7  20
ATOM     20  N   UNL     1      -1.439  10.156 -12.728  1.00  0.00     0.062 N 
ATOM     21  O   UNL     1      -2.527  10.308 -13.145  1.00  0.00    -0.258 OA
ATOM     22  O   UNL     1      -0.842  11.240 -12.311  1.00  0.00    -0.258 OA
ENDBRANCH   7  20
TORSDOF 2
ENDMDL
MODEL 8
REMARK VINA RESULT:    -3.907      6.652      9.064
REMARK INTER + INTRA:          -4.662
REMARK INTER:                  -4.353
REMARK INTRA:                  -0.309
REMARK UNBOUND:                -0.298
REMARK SMILES O=[N+]([O-])c1ccc2c(c1)N[C@@H](c1cc(Cl)cc(Cl)c1)N2
REMARK SMILES IDX 7 1 8 2 5 3 6 4 20 5 10 6 4 7 11 8 9 9 12 12 14 13 13 14
REMARK SMILES IDX 16 15 17 16 19 17 15 18 18 19 2 20 3 21 1 22
REMARK H PARENT 20 10 10 11
ROOT
ATOM      1  C   UNL     1      -0.567   8.848 -12.024  1.00  0.00     0.060 A 
ATOM      2  C   UNL     1      -0.641   8.149 -13.205  1.00  0.00     0.066 A 
ATOM      3  C   UNL     1      -1.759  10.660 -12.944  1.00  0.00     0.088 A 
ATOM      4  C   UNL     1      -1.285   9.931 -11.819  1.00  0.00     0.035 A 
ATOM      5  N   UNL     1       0.151   8.056 -11.044  1.00  0.00    -0.360 N 
ATOM      6  N   UNL     1      -0.012   6.929 -12.943  1.00  0.00    -0.360 N 
ATOM      7  C   UNL     1      -1.722  10.042 -14.192  1.00  0.00     0.271 A 
ATOM      8  C   UNL     1      -0.063   6.793 -11.532  1.00  0.00     0.205 C 
ATOM      9  C   UNL     1      -1.167   8.730 -14.315  1.00  0.00     0.113 A 
ATOM     10  H   UNL     1       0.675   8.358 -10.211  1.00  0.00     0.163 HD
ATOM     11  H   UNL     1       0.397   6.274 -13.624  1.00  0.00     0.163 HD
ENDROOT
BRANCH   8  12
ATOM     12  C   UNL     1       0.768   5.612 -10.959  1.00  0.00    -0.003 A 
ATOM     13  C   UNL     1       1.747   4.555  -8.945  1.00  0.00     0.042 A 
ATOM     14  C   UNL     1       0.623   5.179  -9.621  1.00  0.00     0.028 A 
ATOM     15  C   UNL     1       2.735   3.870  -9.786  1.00  0.00     0.041 A 
ATOM     16  C   UNL     1       2.608   4.065 -11.227  1.00  0.00     0.042 A 
ATOM     17  C   UNL     1       1.770   5.040 -11.822  1.00  0.00     0.028 A 
ATOM     18  Cl  UNL     1       1.861   4.280  -7.414  1.00  0.00    -0.084 Cl
ATOM     19  Cl  UNL     1       3.622   3.106 -12.213  1.00  0.00    -0.084 Cl
ENDBRANCH   8  12
BRANCH   7  20
ATOM     20  N   UNL     1      -2.289  10.581 -15.329  1.00  0.00     0.062 N 
ATOM     21  O   UNL     1      -1.610  10.912 -16.230  1.00  0.00    -0.258 OA
ATOM     22  O   UNL     1      -3.571  10.547 -15.574  1.00  0.00    -0.258 OA
ENDBRANCH   7  20
TORSDOF 2
ENDMDL
MODEL 9
REMARK VINA RESULT:    -3.632      2.343      3.546
REMARK INTER + INTRA:          -4.354
REMARK INTER:                  -4.058
REMARK INTRA:                  -0.296
REMARK UNBOUND:                -0.298
REMARK SMILES O=[N+]([O-])c1ccc2c(c1)N[C@@H](c1cc(Cl)cc(Cl)c1)N2
REMARK SMILES IDX 7 1 8 2 5 3 6 4 20 5 10 6 4 7 11 8 9 9 12 12 14 13 13 14
REMARK SMILES IDX 16 15 17 16 19 17 15 18 18 19 2 20 3 21 1 22
REMARK H PARENT 20 10 10 11
ROOT
ATOM      1  C   UNL     1       1.214   3.805  -8.968  1.00  0.00     0.060 A 
ATOM      2  C   UNL     1       2.246   4.661  -8.667  1.00  0.00     0.066 A 
ATOM      3  C   UNL     1       1.828   2.347  -7.222  1.00  0.00     0.088 A 
ATOM      4  C   UNL     1       0.869   2.831  -8.153  1.00  0.00     0.035 A 
ATOM      5  N   UNL     1       0.468   4.332 -10.093  1.00  0.00    -0.360 N 
ATOM      6  N   UNL     1       2.112   5.719  -9.569  1.00  0.00    -0.360 N 
ATOM      7  C   UNL     1       2.966   3.116  -6.988  1.00  0.00     0.271 A 
ATOM      8  C   UNL     1       0.758   5.668  -9.987  1.00  0.00     0.205 C 
ATOM      9  C   UNL     1       3.162   4.328  -7.721  1.00  0.00     0.113 A 
ATOM     10  H   UNL     1      -0.119   3.840 -10.781  1.00  0.00     0.163 HD
ATOM     11  H   UNL     1       2.837   6.389  -9.866  1.00  0.00     0.163 HD
ENDROOT
BRANCH   8  12
ATOM     12  C   UNL     1       0.400   6.614 -11.167  1.00  0.00    -0.003 A 
ATOM     13  C   UNL     1      -0.804   8.651 -11.896  1.00  0.00     0.042 A 
ATOM     14  C   UNL     1       0.078   7.974 -10.960  1.00  0.00     0.028 A 
ATOM     15  C   UNL     1      -0.840   8.136 -13.270  1.00  0.00     0.041 A 
ATOM     16  C   UNL     1      -0.155   6.870 -13.507  1.00  0.00     0.042 A 
ATOM     17  C   UNL     1       0.312   6.018 -12.476  1.00  0.00     0.028 A 
ATOM     18  Cl  UNL     1      -1.486  10.036 -11.678  1.00  0.00    -0.084 Cl
ATOM     19  Cl  UNL     1      -0.018   6.378 -15.138  1.00  0.00    -0.084 Cl
ENDBRANCH   8  12
BRANCH   7  20
ATOM     20  N   UNL     1       3.891   2.834  -6.003  1.00  0.00     0.062 N 
ATOM     21  O   UNL     1       3.956   1.754  -5.543  1.00  0.00    -0.258 OA
ATOM     22  O   UNL     1       4.870   3.638  -5.690  1.00  0.00    -0.258 OA
ENDBRANCH   7  20
TORSDOF 2
ENDMDL
