MODEL 1
REMARK VINA RESULT:    -4.632      0.000      0.000
REMARK INTER + INTRA:          -5.489
REMARK INTER:                  -5.174
REMARK INTRA:                  -0.315
REMARK UNBOUND:                -0.315
REMARK SMILES O=[N+]([O-])c1ccc2c(c1)N[C@@H](c1cc(Cl)cc(Cl)c1)N2
REMARK SMILES IDX 7 1 8 2 5 3 6 4 20 5 10 6 4 7 11 8 9 9 12 12 14 13 13 14
REMARK SMILES IDX 16 15 17 16 19 17 15 18 18 19 2 20 3 21 1 22
REMARK H PARENT 20 10 10 11
ROOT
ATOM      1  C   UNL     1       6.924   9.022  -0.124  1.00  0.00     0.060 A 
ATOM      2  C   UNL     1       7.731   8.209  -0.883  1.00  0.00     0.066 A 
ATOM      3  C   UNL     1       8.443  10.813  -0.308  1.00  0.00     0.088 A 
ATOM      4  C   UNL     1       7.138  10.317  -0.038  1.00  0.00     0.035 A 
ATOM      5  N   UNL     1       5.736   8.288   0.265  1.00  0.00    -0.360 N 
ATOM      6  N   UNL     1       7.031   7.005  -0.992  1.00  0.00    -0.360 N 
ATOM      7  C   UNL     1       9.347   9.972  -0.952  1.00  0.00     0.271 A 
ATOM      8  C   UNL     1       5.680   7.348  -0.732  1.00  0.00     0.205 C 
ATOM      9  C   UNL     1       8.962   8.633  -1.272  1.00  0.00     0.113 A 
ATOM     10  H   UNL     1       5.107   8.432   1.067  1.00  0.00     0.163 HD
ATOM     11  H   UNL     1       7.412   6.074  -1.212  1.00  0.00     0.163 HD
ENDROOT
BRANCH   8  12
ATOM     12  C   UNL     1       4.715   6.140  -0.577  1.00  0.00    -0.003 A 
ATOM     13  C   UNL     1       2.459   5.363   0.086  1.00  0.00     0.042 A 
ATOM     14  C   UNL     1       3.312   6.295  -0.634  1.00  0.00     0.028 A 
ATOM     15  C   UNL     1       2.994   4.018   0.324  1.00  0.00     0.041 A 
ATOM     16  C   UNL     1       4.403   3.813   0.008  1.00  0.00     0.042 A 
ATOM     17  C   UNL     1       5.312   4.865  -0.270  1.00  0.00     0.028 A 
ATOM     18  Cl  UNL     1       0.936   5.542   0.368  1.00  0.00    -0.084 Cl
ATOM     19  Cl  UNL     1       4.972   2.203   0.087  1.00  0.00    -0.084 Cl
ENDBRANCH   8  12
BRANCH   7  20
ATOM     20  N   UNL     1      10.585  10.382  -1.404  1.00  0.00     0.062 N 
ATOM     21  O   UNL     1      11.130   9.789  -2.260  1.00  0.00    -0.258 OA
ATOM     22  O   UNL     1      11.113  11.535  -1.097  1.00  0.00    -0.258 OA
ENDBRANCH   7  20
TORSDOF 2
ENDMDL
MODEL 2
REMARK VINA RESULT:    -4.621      1.035      2.680
REMARK INTER + INTRA:          -5.477
REMARK INTER:                  -5.161
REMARK INTRA:                  -0.316
REMARK UNBOUND:                -0.315
REMARK SMILES O=[N+]([O-])c1ccc2c(c1)N[C@@H](c1cc(Cl)cc(Cl)c1)N2
REMARK SMILES IDX 7 1 8 2 5 3 6 4 20 5 10 6 4 7 11 8 9 9 12 12 14 13 13 14
REMARK SMILES IDX 16 15 17 16 19 17 15 18 18 19 2 20 3 21 1 22
REMARK H PARENT 20 10 10 11
ROOT
ATOM      1  C   UNL     1       7.752   8.038  -0.905  1.00  0.00     0.060 A 
ATOM      2  C   UNL     1       7.025   8.942  -0.168  1.00  0.00     0.066 A 
ATOM      3  C   UNL     1       9.502   9.586  -1.201  1.00  0.00     0.088 A 
ATOM      4  C   UNL     1       9.016   8.251  -1.202  1.00  0.00     0.035 A 
ATOM      5  N   UNL     1       7.009   6.797  -1.006  1.00  0.00    -0.360 N 
ATOM      6  N   UNL     1       5.869   8.254   0.210  1.00  0.00    -0.360 N 
ATOM      7  C   UNL     1       8.728  10.569  -0.587  1.00  0.00     0.271 A 
ATOM      8  C   UNL     1       6.217   6.883   0.109  1.00  0.00     0.205 C 
ATOM      9  C   UNL     1       7.458  10.223  -0.030  1.00  0.00     0.113 A 
ATOM     10  H   UNL     1       7.062   6.056  -1.719  1.00  0.00     0.163 HD
ATOM     11  H   UNL     1       4.965   8.654   0.499  1.00  0.00     0.163 HD
ENDROOT
BRANCH   8  12
ATOM     12  C   UNL     1       5.029   5.893   0.268  1.00  0.00    -0.003 A 
ATOM     13  C   UNL     1       4.229   3.562   0.024  1.00  0.00     0.042 A 
ATOM     14  C   UNL     1       5.235   4.510   0.474  1.00  0.00     0.028 A 
ATOM     15  C   UNL     1       2.847   4.047  -0.062  1.00  0.00     0.041 A 
ATOM     16  C   UNL     1       2.651   5.483   0.104  1.00  0.00     0.042 A 
ATOM     17  C   UNL     1       3.704   6.431   0.097  1.00  0.00     0.028 A 
ATOM     18  Cl  UNL     1       4.409   2.018  -0.091  1.00  0.00    -0.084 Cl
ATOM     19  Cl  UNL     1       1.031   6.019   0.213  1.00  0.00    -0.084 Cl
ENDBRANCH   8  12
BRANCH   7  20
ATOM     20  N   UNL     1       9.157  11.865  -0.386  1.00  0.00     0.062 N 
ATOM     21  O   UNL     1       8.624  12.549   0.409  1.00  0.00    -0.258 OA
ATOM     22  O   UNL     1      10.277  12.332  -0.867  1.00  0.00    -0.258 OA
ENDBRANCH   7  20
TORSDOF 2
ENDMDL
MODEL 3
REMARK VINA RESULT:    -4.303      4.990      7.644
REMARK INTER + INTRA:          -5.121
REMARK INTER:                  -4.822
REMARK INTRA:                  -0.299
REMARK UNBOUND:                -0.315
REMARK SMILES O=[N+]([O-])c1ccc2c(c1)N[C@@H](c1cc(Cl)cc(Cl)c1)N2
REMARK SMILES IDX 7 1 8 2 5 3 6 4 20 5 10 6 4 7 11 8 9 9 12 12 14 13 13 14
REMARK SMILES IDX 16 15 17 16 19 17 15 18 18 19 2 20 3 21 1 22
REMARK H PARENT 20 10 10 11
ROOT
ATOM      1  C   UNL     1       4.161   6.553  -0.048  1.00  0.00     0.060 A 
ATOM      2  C   UNL     1       5.002   5.574  -0.520  1.00  0.00     0.066 A 
ATOM      3  C   UNL     1       2.515   4.963   0.511  1.00  0.00     0.088 A 
ATOM      4  C   UNL     1       3.084   6.258   0.648  1.00  0.00     0.035 A 
ATOM      5  N   UNL     1       4.803   7.845  -0.192  1.00  0.00    -0.360 N 
ATOM      6  N   UNL     1       6.159   6.251  -0.913  1.00  0.00    -0.360 N 
ATOM      7  C   UNL     1       3.280   3.968  -0.093  1.00  0.00     0.271 A 
ATOM      8  C   UNL     1       6.122   7.474  -0.197  1.00  0.00     0.205 C 
ATOM      9  C   UNL     1       4.579   4.285  -0.600  1.00  0.00     0.113 A 
ATOM     10  H   UNL     1       4.384   8.783  -0.270  1.00  0.00     0.163 HD
ATOM     11  H   UNL     1       6.880   5.931  -1.575  1.00  0.00     0.163 HD
ENDROOT
BRANCH   8  12
ATOM     12  C   UNL     1       7.197   8.514  -0.621  1.00  0.00    -0.003 A 
ATOM     13  C   UNL     1       9.490   8.889  -1.478  1.00  0.00     0.042 A 
ATOM     14  C   UNL     1       8.214   8.197  -1.550  1.00  0.00     0.028 A 
ATOM     15  C   UNL     1       9.485  10.236  -0.894  1.00  0.00     0.041 A 
ATOM     16  C   UNL     1       8.248  10.661  -0.250  1.00  0.00     0.042 A 
ATOM     17  C   UNL     1       7.173   9.788   0.051  1.00  0.00     0.028 A 
ATOM     18  Cl  UNL     1      10.799   8.481  -2.218  1.00  0.00    -0.084 Cl
ATOM     19  Cl  UNL     1       8.173  12.296   0.242  1.00  0.00    -0.084 Cl
ENDBRANCH   8  12
BRANCH   7  20
ATOM     20  N   UNL     1       2.905   2.641  -0.148  1.00  0.00     0.062 N 
ATOM     21  O   UNL     1       1.774   2.340  -0.035  1.00  0.00    -0.258 OA
ATOM     22  O   UNL     1       3.702   1.687  -0.545  1.00  0.00    -0.258 OA
ENDBRANCH   7  20
TORSDOF 2
ENDMDL
MODEL 4
REMARK VINA RESULT:    -4.295      4.993      7.423
REMARK INTER + INTRA:          -5.113
REMARK INTER:                  -4.794
REMARK INTRA:                  -0.319
REMARK UNBOUND:                -0.315
REMARK SMILES O=[N+]([O-])c1ccc2c(c1)N[C@@H](c1cc(Cl)cc(Cl)c1)N2
REMARK SMILES IDX 7 1 8 2 5 3 6 4 20 5 10 6 4 7 11 8 9 9 12 12 14 13 13 14
REMARK SMILES IDX 16 15 17 16 19 17 15 18 18 19 2 20 3 21 1 22
REMARK H PARENT 20 10 10 11
ROOT
ATOM      1  C   UNL     1       4.161   6.500  -0.067  1.00  0.00     0.060 A 
ATOM      2  C   UNL     1       5.012   5.457  -0.344  1.00  0.00     0.066 A 
ATOM      3  C   UNL     1       2.344   5.028   0.217  1.00  0.00     0.088 A 
ATOM      4  C   UNL     1       2.957   6.293   0.423  1.00  0.00     0.035 A 
ATOM      5  N   UNL     1       4.897   7.747  -0.124  1.00  0.00    -0.360 N 
ATOM      6  N   UNL     1       6.262   6.052  -0.531  1.00  0.00    -0.360 N 
ATOM      7  C   UNL     1       3.145   3.968  -0.203  1.00  0.00     0.271 A 
ATOM      8  C   UNL     1       6.169   7.303   0.130  1.00  0.00     0.205 C 
ATOM      9  C   UNL     1       4.532   4.192  -0.466  1.00  0.00     0.113 A 
ATOM     10  H   UNL     1       4.559   8.703  -0.305  1.00  0.00     0.163 HD
ATOM     11  H   UNL     1       7.073   5.667  -1.037  1.00  0.00     0.163 HD
ENDROOT
BRANCH   8  12
ATOM     12  C   UNL     1       7.366   8.264  -0.114  1.00  0.00    -0.003 A 
ATOM     13  C   UNL     1       8.166  10.607  -0.156  1.00  0.00     0.042 A 
ATOM     14  C   UNL     1       7.441   9.533   0.502  1.00  0.00     0.028 A 
ATOM     15  C   UNL     1       9.250  10.219  -1.066  1.00  0.00     0.041 A 
ATOM     16  C   UNL     1       9.352   8.799  -1.387  1.00  0.00     0.042 A 
ATOM     17  C   UNL     1       8.352   7.845  -1.078  1.00  0.00     0.028 A 
ATOM     18  Cl  UNL     1       8.115  12.118   0.225  1.00  0.00    -0.084 Cl
ATOM     19  Cl  UNL     1      10.733   8.321  -2.274  1.00  0.00    -0.084 Cl
ENDBRANCH   8  12
BRANCH   7  20
ATOM     20  N   UNL     1       2.704   2.664  -0.291  1.00  0.00     0.062 N 
ATOM     21  O   UNL     1       3.458   1.798  -0.545  1.00  0.00    -0.258 OA
ATOM     22  O   UNL     1       1.523   2.278   0.113  1.00  0.00    -0.258 OA
ENDBRANCH   7  20
TORSDOF 2
ENDMDL
MODEL 5
REMARK VINA RESULT:    -4.215      0.973      2.235
REMARK INTER + INTRA:          -5.023
REMARK INTER:                  -4.732
REMARK INTRA:                  -0.290
REMARK UNBOUND:                -0.315
REMARK SMILES O=[N+]([O-])c1ccc2c(c1)N[C@@H](c1cc(Cl)cc(Cl)c1)N2
REMARK SMILES IDX 7 1 8 2 5 3 6 4 20 5 10 6 4 7 11 8 9 9 12 12 14 13 13 14
REMARK SMILES IDX 16 15 17 16 19 17 15 18 18 19 2 20 3 21 1 22
REMARK H PARENT 20 10 10 11
ROOT
ATOM      1  C   UNL     1       7.696   8.797  -0.383  1.00  0.00     0.060 A 
ATOM      2  C   UNL     1       8.218   7.785  -1.153  1.00  0.00     0.066 A 
ATOM      3  C   UNL     1       9.473  10.235  -0.951  1.00  0.00     0.088 A 
ATOM      4  C   UNL     1       8.155  10.027  -0.462  1.00  0.00     0.035 A 
ATOM      5  N   UNL     1       6.465   8.343   0.233  1.00  0.00    -0.360 N 
ATOM      6  N   UNL     1       7.300   6.737  -1.042  1.00  0.00    -0.360 N 
ATOM      7  C   UNL     1      10.102   9.185  -1.617  1.00  0.00     0.271 A 
ATOM      8  C   UNL     1       6.089   7.358  -0.644  1.00  0.00     0.205 C 
ATOM      9  C   UNL     1       9.434   7.927  -1.742  1.00  0.00     0.113 A 
ATOM     10  H   UNL     1       6.000   8.669   1.092  1.00  0.00     0.163 HD
ATOM     11  H   UNL     1       7.467   5.735  -1.211  1.00  0.00     0.163 HD
ENDROOT
BRANCH   8  12
ATOM     12  C   UNL     1       4.953   6.379  -0.238  1.00  0.00    -0.003 A 
ATOM     13  C   UNL     1       4.241   4.019   0.002  1.00  0.00     0.042 A 
ATOM     14  C   UNL     1       5.226   5.067   0.212  1.00  0.00     0.028 A 
ATOM     15  C   UNL     1       2.837   4.434  -0.099  1.00  0.00     0.041 A 
ATOM     16  C   UNL     1       2.589   5.869  -0.194  1.00  0.00     0.042 A 
ATOM     17  C   UNL     1       3.600   6.832  -0.435  1.00  0.00     0.028 A 
ATOM     18  Cl  UNL     1       4.480   2.488   0.168  1.00  0.00    -0.084 Cl
ATOM     19  Cl  UNL     1       0.956   6.363  -0.100  1.00  0.00    -0.084 Cl
ENDBRANCH   8  12
BRANCH   7  20
ATOM     20  N   UNL     1      11.312   9.307  -2.269  1.00  0.00     0.062 N 
ATOM     21  O   UNL     1      11.348   9.626  -3.399  1.00  0.00    -0.258 OA
ATOM     22  O   UNL     1      12.461   9.307  -1.649  1.00  0.00    -0.258 OA
ENDBRANCH   7  20
TORSDOF 2
ENDMDL
MODEL 6
REMARK VINA RESULT:    -4.207      1.839      2.271
REMARK INTER + INTRA:          -5.014
REMARK INTER:                  -4.723
REMARK INTRA:                  -0.291
REMARK UNBOUND:                -0.315
REMARK SMILES O=[N+]([O-])c1ccc2c(c1)N[C@@H](c1cc(Cl)cc(Cl)c1)N2
REMARK SMILES IDX 7 1 8 2 5 3 6 4 20 5 10 6 4 7 11 8 9 9 12 12 14 13 13 14
REMARK SMILES IDX 16 15 17 16 19 17 15 18 18 19 2 20 3 21 1 22
REMARK H PARENT 20 10 10 11
ROOT
ATOM      1  C   UNL     1       7.516   8.929  -0.729  1.00  0.00     0.060 A 
ATOM      2  C   UNL     1       6.606   9.526   0.110  1.00  0.00     0.066 A 
ATOM      3  C   UNL     1       8.943  10.800  -0.620  1.00  0.00     0.088 A 
ATOM      4  C   UNL     1       8.724   9.424  -0.897  1.00  0.00     0.035 A 
ATOM      5  N   UNL     1       7.031   7.616  -1.105  1.00  0.00    -0.360 N 
ATOM      6  N   UNL     1       5.594   8.577   0.278  1.00  0.00    -0.360 N 
ATOM      7  C   UNL     1       7.976  11.488   0.110  1.00  0.00     0.271 A 
ATOM      8  C   UNL     1       6.203   7.339  -0.049  1.00  0.00     0.205 C 
ATOM      9  C   UNL     1       6.780  10.813   0.508  1.00  0.00     0.113 A 
ATOM     10  H   UNL     1       7.248   7.047  -1.935  1.00  0.00     0.163 HD
ATOM     11  H   UNL     1       4.621   8.742   0.574  1.00  0.00     0.163 HD
ENDROOT
BRANCH   8  12
ATOM     12  C   UNL     1       5.224   6.136  -0.152  1.00  0.00    -0.003 A 
ATOM     13  C   UNL     1       2.884   5.348   0.036  1.00  0.00     0.042 A 
ATOM     14  C   UNL     1       3.855   6.313  -0.453  1.00  0.00     0.028 A 
ATOM     15  C   UNL     1       3.365   3.983   0.278  1.00  0.00     0.041 A 
ATOM     16  C   UNL     1       4.808   3.781   0.212  1.00  0.00     0.042 A 
ATOM     17  C   UNL     1       5.753   4.836   0.173  1.00  0.00     0.028 A 
ATOM     18  Cl  UNL     1       1.336   5.528   0.047  1.00  0.00    -0.084 Cl
ATOM     19  Cl  UNL     1       5.351   2.162   0.285  1.00  0.00    -0.084 Cl
ENDBRANCH   8  12
BRANCH   7  20
ATOM     20  N   UNL     1       8.140  12.777   0.573  1.00  0.00     0.062 N 
ATOM     21  O   UNL     1       8.548  12.971   1.658  1.00  0.00    -0.258 OA
ATOM     22  O   UNL     1       8.080  13.828  -0.200  1.00  0.00    -0.258 OA
ENDBRANCH   7  20
TORSDOF 2
ENDMDL
MODEL 7
REMARK VINA RESULT:    -3.926      3.812      4.927
REMARK INTER + INTRA:          -4.701
REMARK INTER:                  -4.395
REMARK INTRA:                  -0.305
REMARK UNBOUND:                -0.315
REMARK SMILES O=[N+]([O-])c1ccc2c(c1)N[C@@H](c1cc(Cl)cc(Cl)c1)N2
REMARK SMILES IDX 7 1 8 2 5 3 6 4 20 5 10 6 4 7 11 8 9 9 12 12 14 13 13 14
REMARK SMILES IDX 16 15 17 16 19 17 15 18 18 19 2 20 3 21 1 22
REMARK H PARENT 20 10 10 11
ROOT
ATOM      1  C   UNL     1       7.781  12.496   0.446  1.00  0.00     0.060 A 
ATOM      2  C   UNL     1       7.422  12.127   1.721  1.00  0.00     0.066 A 
ATOM      3  C   UNL     1       8.620  14.560   1.210  1.00  0.00     0.088 A 
ATOM      4  C   UNL     1       8.552  13.539   0.224  1.00  0.00     0.035 A 
ATOM      5  N   UNL     1       7.432  11.433  -0.475  1.00  0.00    -0.360 N 
ATOM      6  N   UNL     1       6.895  10.839   1.589  1.00  0.00    -0.360 N 
ATOM      7  C   UNL     1       8.135  14.279   2.485  1.00  0.00     0.271 A 
ATOM      8  C   UNL     1       7.432  10.353   0.370  1.00  0.00     0.205 C 
ATOM      9  C   UNL     1       7.541  13.006   2.750  1.00  0.00     0.113 A 
ATOM     10  H   UNL     1       7.238  11.476  -1.486  1.00  0.00     0.163 HD
ATOM     11  H   UNL     1       6.259  10.351   2.235  1.00  0.00     0.163 HD
ENDROOT
BRANCH   8  12
ATOM     12  C   UNL     1       6.825   9.010  -0.123  1.00  0.00    -0.003 A 
ATOM     13  C   UNL     1       5.051   7.901  -1.448  1.00  0.00     0.042 A 
ATOM     14  C   UNL     1       6.075   8.925  -1.317  1.00  0.00     0.028 A 
ATOM     15  C   UNL     1       5.227   6.678  -0.656  1.00  0.00     0.041 A 
ATOM     16  C   UNL     1       6.291   6.697   0.342  1.00  0.00     0.042 A 
ATOM     17  C   UNL     1       6.975   7.870   0.745  1.00  0.00     0.028 A 
ATOM     18  Cl  UNL     1       3.952   7.836  -2.552  1.00  0.00    -0.084 Cl
ATOM     19  Cl  UNL     1       6.631   5.211   1.114  1.00  0.00    -0.084 Cl
ENDBRANCH   8  12
BRANCH   7  20
ATOM     20  N   UNL     1       8.282  15.127   3.564  1.00  0.00     0.062 N 
ATOM     21  O   UNL     1       7.483  15.962   3.775  1.00  0.00    -0.258 OA
ATOM     22  O   UNL     1       9.151  14.927   4.518  1.00  0.00    -0.258 OA
ENDBRANCH   7  20
TORSDOF 2
ENDMDL
MODEL 8
REMARK VINA RESULT:    -3.327      5.143      7.548
REMARK INTER + INTRA:          -4.031
REMARK INTER:                  -3.735
REMARK INTRA:                  -0.296
REMARK UNBOUND:                -0.315
REMARK SMILES O=[N+]([O-])c1ccc2c(c1)N[C@@H](c1cc(Cl)cc(Cl)c1)N2
REMARK SMILES IDX 7 1 8 2 5 3 6 4 20 5 10 6 4 7 11 8 9 9 12 12 14 13 13 14
REMARK SMILES IDX 16 15 17 16 19 17 15 18 18 19 2 20 3 21 1 22
REMARK H PARENT 20 10 10 11
ROOT
ATOM      1  C   UNL     1       6.023   8.629  -0.799  1.00  0.00     0.060 A 
ATOM      2  C   UNL     1       6.774   7.995   0.161  1.00  0.00     0.066 A 
ATOM      3  C   UNL     1       4.931   6.620  -1.364  1.00  0.00     0.088 A 
ATOM      4  C   UNL     1       4.991   8.039  -1.364  1.00  0.00     0.035 A 
ATOM      5  N   UNL     1       6.372  10.035  -0.828  1.00  0.00    -0.360 N 
ATOM      6  N   UNL     1       7.547   9.005   0.740  1.00  0.00    -0.360 N 
ATOM      7  C   UNL     1       5.779   5.924  -0.505  1.00  0.00     0.271 A 
ATOM      8  C   UNL     1       6.851  10.205   0.444  1.00  0.00     0.205 C 
ATOM      9  C   UNL     1       6.713   6.645   0.302  1.00  0.00     0.113 A 
ATOM     10  H   UNL     1       6.284  10.719  -1.594  1.00  0.00     0.163 HD
ATOM     11  H   UNL     1       8.427   8.902   1.265  1.00  0.00     0.163 HD
ENDROOT
BRANCH   8  12
ATOM     12  C   UNL     1       7.620  11.510   0.793  1.00  0.00    -0.003 A 
ATOM     13  C   UNL     1       7.746  13.514   2.244  1.00  0.00     0.042 A 
ATOM     14  C   UNL     1       7.572  12.079   2.086  1.00  0.00     0.028 A 
ATOM     15  C   UNL     1       8.529  14.207   1.214  1.00  0.00     0.041 A 
ATOM     16  C   UNL     1       8.872  13.432   0.027  1.00  0.00     0.042 A 
ATOM     17  C   UNL     1       8.303  12.174  -0.288  1.00  0.00     0.028 A 
ATOM     18  Cl  UNL     1       7.446  14.339   3.531  1.00  0.00    -0.084 Cl
ATOM     19  Cl  UNL     1       9.956  14.169  -1.071  1.00  0.00    -0.084 Cl
ENDBRANCH   8  12
BRANCH   7  20
ATOM     20  N   UNL     1       5.711   4.561  -0.301  1.00  0.00     0.062 N 
ATOM     21  O   UNL     1       5.996   4.103   0.744  1.00  0.00    -0.258 OA
ATOM     22  O   UNL     1       5.131   3.740  -1.134  1.00  0.00    -0.258 OA
ENDBRANCH   7  20
TORSDOF 2
ENDMDL
MODEL 9
REMARK VINA RESULT:    -3.288      5.430      8.260
REMARK INTER + INTRA:          -3.988
REMARK INTER:                  -3.686
REMARK INTRA:                  -0.302
REMARK UNBOUND:                -0.315
REMARK SMILES O=[N+]([O-])c1ccc2c(c1)N[C@@H](c1cc(Cl)cc(Cl)c1)N2
REMARK SMILES IDX 7 1 8 2 5 3 6 4 20 5 10 6 4 7 11 8 9 9 12 12 14 13 13 14
REMARK SMILES IDX 16 15 17 16 19 17 15 18 18 19 2 20 3 21 1 22
REMARK H PARENT 20 10 10 11
ROOT
ATOM      1  C   UNL     1       8.313   9.841  -0.485  1.00  0.00     0.060 A 
ATOM      2  C   UNL     1       7.082   9.825   0.125  1.00  0.00     0.066 A 
ATOM      3  C   UNL     1       8.047   7.622  -1.229  1.00  0.00     0.088 A 
ATOM      4  C   UNL     1       8.680   8.891  -1.318  1.00  0.00     0.035 A 
ATOM      5  N   UNL     1       8.929  11.138  -0.284  1.00  0.00    -0.360 N 
ATOM      6  N   UNL     1       6.927  11.106   0.660  1.00  0.00    -0.360 N 
ATOM      7  C   UNL     1       6.865   7.525  -0.499  1.00  0.00     0.271 A 
ATOM      8  C   UNL     1       7.820  11.918  -0.084  1.00  0.00     0.205 C 
ATOM      9  C   UNL     1       6.356   8.677   0.178  1.00  0.00     0.113 A 
ATOM     10  H   UNL     1       9.924  11.401  -0.290  1.00  0.00     0.163 HD
ATOM     11  H   UNL     1       6.302  11.397   1.425  1.00  0.00     0.163 HD
ENDROOT
BRANCH   8  12
ATOM     12  C   UNL     1       8.001  13.362   0.461  1.00  0.00    -0.003 A 
ATOM     13  C   UNL     1       8.933  15.623   0.066  1.00  0.00     0.042 A 
ATOM     14  C   UNL     1       8.187  14.466  -0.402  1.00  0.00     0.028 A 
ATOM     15  C   UNL     1       8.940  15.870   1.513  1.00  0.00     0.041 A 
ATOM     16  C   UNL     1       8.382  14.818   2.355  1.00  0.00     0.042 A 
ATOM     17  C   UNL     1       8.072  13.515   1.892  1.00  0.00     0.028 A 
ATOM     18  Cl  UNL     1       9.473  16.787  -0.818  1.00  0.00    -0.084 Cl
ATOM     19  Cl  UNL     1       8.198  15.191   4.013  1.00  0.00    -0.084 Cl
ENDBRANCH   8  12
BRANCH   7  20
ATOM     20  N   UNL     1       6.078   6.392  -0.464  1.00  0.00     0.062 N 
ATOM     21  O   UNL     1       6.175   5.630   0.425  1.00  0.00    -0.258 OA
ATOM     22  O   UNL     1       5.052   6.209  -1.251  1.00  0.00    -0.258 OA
ENDBRANCH   7  20
TORSDOF 2
ENDMDL
