MODEL 1
REMARK VINA RESULT:    -4.059      0.000      0.000
REMARK INTER + INTRA:          -4.850
REMARK INTER:                  -4.534
REMARK INTRA:                  -0.316
REMARK UNBOUND:                -0.316
REMARK SMILES O=[N+]([O-])c1ccc2c(c1)N[C@@H](c1cc(Cl)cc(Cl)c1)N2
REMARK SMILES IDX 7 1 8 2 5 3 6 4 20 5 10 6 4 7 11 8 9 9 12 12 14 13 13 14
REMARK SMILES IDX 16 15 17 16 19 17 15 18 18 19 2 20 3 21 1 22
REMARK H PARENT 20 10 10 11
ROOT
ATOM      1  C   UNL     1       9.793  -4.142   5.310  1.00  0.00     0.060 A 
ATOM      2  C   UNL     1       9.062  -3.919   6.452  1.00  0.00     0.066 A 
ATOM      3  C   UNL     1      11.607  -4.983   6.558  1.00  0.00     0.088 A 
ATOM      4  C   UNL     1      10.900  -4.853   5.331  1.00  0.00     0.035 A 
ATOM      5  N   UNL     1       9.013  -3.741   4.157  1.00  0.00    -0.360 N 
ATOM      6  N   UNL     1       7.834  -3.425   6.004  1.00  0.00    -0.360 N 
ATOM      7  C   UNL     1      10.951  -4.632   7.736  1.00  0.00     0.271 A 
ATOM      8  C   UNL     1       7.742  -3.857   4.656  1.00  0.00     0.205 C 
ATOM      9  C   UNL     1       9.622  -4.108   7.675  1.00  0.00     0.113 A 
ATOM     10  H   UNL     1       9.326  -3.450   3.220  1.00  0.00     0.163 HD
ATOM     11  H   UNL     1       7.149  -2.869   6.534  1.00  0.00     0.163 HD
ENDROOT
BRANCH   8  12
ATOM     12  C   UNL     1       6.558  -3.250   3.854  1.00  0.00    -0.003 A 
ATOM     13  C   UNL     1       5.535  -2.887   1.628  1.00  0.00     0.042 A 
ATOM     14  C   UNL     1       6.167  -3.766   2.598  1.00  0.00     0.028 A 
ATOM     15  C   UNL     1       4.802  -1.731   2.155  1.00  0.00     0.041 A 
ATOM     16  C   UNL     1       4.959  -1.456   3.579  1.00  0.00     0.042 A 
ATOM     17  C   UNL     1       5.937  -2.070   4.400  1.00  0.00     0.028 A 
ATOM     18  Cl  UNL     1       5.301  -3.201   0.119  1.00  0.00    -0.084 Cl
ATOM     19  Cl  UNL     1       3.947  -0.243   4.233  1.00  0.00    -0.084 Cl
ENDBRANCH   8  12
BRANCH   7  20
ATOM     20  N   UNL     1      11.469  -4.854   8.995  1.00  0.00     0.062 N 
ATOM     21  O   UNL     1      10.764  -4.853   9.936  1.00  0.00    -0.258 OA
ATOM     22  O   UNL     1      12.681  -5.294   9.203  1.00  0.00    -0.258 OA
ENDBRANCH   7  20
TORSDOF 2
ENDMDL
MODEL 2
REMARK VINA RESULT:    -4.054      1.144      2.741
REMARK INTER + INTRA:          -4.844
REMARK INTER:                  -4.529
REMARK INTRA:                  -0.316
REMARK UNBOUND:                -0.316
REMARK SMILES O=[N+]([O-])c1ccc2c(c1)N[C@@H](c1cc(Cl)cc(Cl)c1)N2
REMARK SMILES IDX 7 1 8 2 5 3 6 4 20 5 10 6 4 7 11 8 9 9 12 12 14 13 13 14
REMARK SMILES IDX 16 15 17 16 19 17 15 18 18 19 2 20 3 21 1 22
REMARK H PARENT 20 10 10 11
ROOT
ATOM      1  C   UNL     1       9.048  -3.817   6.474  1.00  0.00     0.060 A 
ATOM      2  C   UNL     1       9.815  -4.061   5.359  1.00  0.00     0.066 A 
ATOM      3  C   UNL     1      10.741  -4.627   7.897  1.00  0.00     0.088 A 
ATOM      4  C   UNL     1       9.560  -3.865   7.685  1.00  0.00     0.035 A 
ATOM      5  N   UNL     1       7.778  -3.251   6.065  1.00  0.00    -0.360 N 
ATOM      6  N   UNL     1       9.042  -3.616   4.284  1.00  0.00    -0.360 N 
ATOM      7  C   UNL     1      11.480  -5.022   6.784  1.00  0.00     0.271 A 
ATOM      8  C   UNL     1       8.121  -2.702   4.857  1.00  0.00     0.205 C 
ATOM      9  C   UNL     1      11.008  -4.701   5.473  1.00  0.00     0.113 A 
ATOM     10  H   UNL     1       6.869  -3.258   6.548  1.00  0.00     0.163 HD
ATOM     11  H   UNL     1       9.123  -3.890   3.295  1.00  0.00     0.163 HD
ENDROOT
BRANCH   8  12
ATOM     12  C   UNL     1       6.994  -2.222   3.899  1.00  0.00    -0.003 A 
ATOM     13  C   UNL     1       4.809  -1.078   3.683  1.00  0.00     0.042 A 
ATOM     14  C   UNL     1       6.157  -1.130   4.222  1.00  0.00     0.028 A 
ATOM     15  C   UNL     1       4.571  -1.775   2.414  1.00  0.00     0.041 A 
ATOM     16  C   UNL     1       5.651  -2.629   1.929  1.00  0.00     0.042 A 
ATOM     17  C   UNL     1       6.773  -3.003   2.709  1.00  0.00     0.028 A 
ATOM     18  Cl  UNL     1       3.670  -0.121   4.148  1.00  0.00    -0.084 Cl
ATOM     19  Cl  UNL     1       5.460  -3.273   0.358  1.00  0.00    -0.084 Cl
ENDBRANCH   8  12
BRANCH   7  20
ATOM     20  N   UNL     1      12.717  -5.628   6.863  1.00  0.00     0.062 N 
ATOM     21  O   UNL     1      13.457  -5.587   5.950  1.00  0.00    -0.258 OA
ATOM     22  O   UNL     1      13.228  -6.069   7.980  1.00  0.00    -0.258 OA
ENDBRANCH   7  20
TORSDOF 2
ENDMDL
MODEL 3
REMARK VINA RESULT:    -3.752      3.175      4.566
REMARK INTER + INTRA:          -4.507
REMARK INTER:                  -4.202
REMARK INTRA:                  -0.305
REMARK UNBOUND:                -0.316
REMARK SMILES O=[N+]([O-])c1ccc2c(c1)N[C@@H](c1cc(Cl)cc(Cl)c1)N2
REMARK SMILES IDX 7 1 8 2 5 3 6 4 20 5 10 6 4 7 11 8 9 9 12 12 14 13 13 14
REMARK SMILES IDX 16 15 17 16 19 17 15 18 18 19 2 20 3 21 1 22
REMARK H PARENT 20 10 10 11
ROOT
ATOM      1  C   UNL     1      10.088  -4.359   9.761  1.00  0.00     0.060 A 
ATOM      2  C   UNL     1       8.833  -4.911   9.852  1.00  0.00     0.066 A 
ATOM      3  C   UNL     1      10.687  -5.209  11.875  1.00  0.00     0.088 A 
ATOM      4  C   UNL     1      11.045  -4.685  10.604  1.00  0.00     0.035 A 
ATOM      5  N   UNL     1      10.213  -3.661   8.497  1.00  0.00    -0.360 N 
ATOM      6  N   UNL     1       8.208  -4.589   8.644  1.00  0.00    -0.360 N 
ATOM      7  C   UNL     1       9.379  -5.653  12.060  1.00  0.00     0.271 A 
ATOM      8  C   UNL     1       9.274  -4.321   7.748  1.00  0.00     0.205 C 
ATOM      9  C   UNL     1       8.431  -5.520  10.998  1.00  0.00     0.113 A 
ATOM     10  H   UNL     1      10.835  -2.884   8.234  1.00  0.00     0.163 HD
ATOM     11  H   UNL     1       7.198  -4.555   8.448  1.00  0.00     0.163 HD
ENDROOT
BRANCH   8  12
ATOM     12  C   UNL     1       8.843  -3.723   6.380  1.00  0.00    -0.003 A 
ATOM     13  C   UNL     1       8.340  -1.675   5.081  1.00  0.00     0.042 A 
ATOM     14  C   UNL     1       9.198  -2.410   5.996  1.00  0.00     0.028 A 
ATOM     15  C   UNL     1       7.522  -2.466   4.155  1.00  0.00     0.041 A 
ATOM     16  C   UNL     1       7.487  -3.906   4.386  1.00  0.00     0.042 A 
ATOM     17  C   UNL     1       7.979  -4.531   5.558  1.00  0.00     0.028 A 
ATOM     18  Cl  UNL     1       8.415  -0.148   4.777  1.00  0.00    -0.084 Cl
ATOM     19  Cl  UNL     1       6.708  -4.846   3.189  1.00  0.00    -0.084 Cl
ENDBRANCH   8  12
BRANCH   7  20
ATOM     20  N   UNL     1       8.950  -6.319  13.190  1.00  0.00     0.062 N 
ATOM     21  O   UNL     1       8.736  -5.726  14.182  1.00  0.00    -0.258 OA
ATOM     22  O   UNL     1       8.544  -7.560  13.179  1.00  0.00    -0.258 OA
ENDBRANCH   7  20
TORSDOF 2
ENDMDL
MODEL 4
REMARK VINA RESULT:    -3.746      1.508      2.150
REMARK INTER + INTRA:          -4.500
REMARK INTER:                  -4.201
REMARK INTRA:                  -0.299
REMARK UNBOUND:                -0.316
REMARK SMILES O=[N+]([O-])c1ccc2c(c1)N[C@@H](c1cc(Cl)cc(Cl)c1)N2
REMARK SMILES IDX 7 1 8 2 5 3 6 4 20 5 10 6 4 7 11 8 9 9 12 12 14 13 13 14
REMARK SMILES IDX 16 15 17 16 19 17 15 18 18 19 2 20 3 21 1 22
REMARK H PARENT 20 10 10 11
ROOT
ATOM      1  C   UNL     1       9.381  -4.224   6.197  1.00  0.00     0.060 A 
ATOM      2  C   UNL     1       9.979  -4.357   4.966  1.00  0.00     0.066 A 
ATOM      3  C   UNL     1      11.344  -4.918   7.299  1.00  0.00     0.088 A 
ATOM      4  C   UNL     1      10.082  -4.265   7.309  1.00  0.00     0.035 A 
ATOM      5  N   UNL     1       8.017  -3.767   6.018  1.00  0.00    -0.360 N 
ATOM      6  N   UNL     1       9.008  -3.951   4.047  1.00  0.00    -0.360 N 
ATOM      7  C   UNL     1      11.928  -5.203   6.067  1.00  0.00     0.271 A 
ATOM      8  C   UNL     1       8.113  -3.148   4.799  1.00  0.00     0.205 C 
ATOM      9  C   UNL     1      11.227  -4.885   4.862  1.00  0.00     0.113 A 
ATOM     10  H   UNL     1       7.201  -3.877   6.636  1.00  0.00     0.163 HD
ATOM     11  H   UNL     1       8.955  -4.183   3.045  1.00  0.00     0.163 HD
ENDROOT
BRANCH   8  12
ATOM     12  C   UNL     1       6.811  -2.744   4.053  1.00  0.00    -0.003 A 
ATOM     13  C   UNL     1       5.579  -2.718   1.905  1.00  0.00     0.042 A 
ATOM     14  C   UNL     1       6.375  -3.425   2.894  1.00  0.00     0.028 A 
ATOM     15  C   UNL     1       4.776  -1.586   2.381  1.00  0.00     0.041 A 
ATOM     16  C   UNL     1       5.019  -1.148   3.751  1.00  0.00     0.042 A 
ATOM     17  C   UNL     1       6.119  -1.577   4.535  1.00  0.00     0.028 A 
ATOM     18  Cl  UNL     1       5.258  -3.211   0.461  1.00  0.00    -0.084 Cl
ATOM     19  Cl  UNL     1       3.944   0.027   4.373  1.00  0.00    -0.084 Cl
ENDBRANCH   8  12
BRANCH   7  20
ATOM     20  N   UNL     1      13.210  -5.693   5.923  1.00  0.00     0.062 N 
ATOM     21  O   UNL     1      13.769  -5.596   4.893  1.00  0.00    -0.258 OA
ATOM     22  O   UNL     1      13.949  -6.070   6.930  1.00  0.00    -0.258 OA
ENDBRANCH   7  20
TORSDOF 2
ENDMDL
MODEL 5
REMARK VINA RESULT:    -3.738      0.695      2.119
REMARK INTER + INTRA:          -4.491
REMARK INTER:                  -4.191
REMARK INTRA:                  -0.300
REMARK UNBOUND:                -0.316
REMARK SMILES O=[N+]([O-])c1ccc2c(c1)N[C@@H](c1cc(Cl)cc(Cl)c1)N2
REMARK SMILES IDX 7 1 8 2 5 3 6 4 20 5 10 6 4 7 11 8 9 9 12 12 14 13 13 14
REMARK SMILES IDX 16 15 17 16 19 17 15 18 18 19 2 20 3 21 1 22
REMARK H PARENT 20 10 10 11
ROOT
ATOM      1  C   UNL     1       9.748  -3.893   5.896  1.00  0.00     0.060 A 
ATOM      2  C   UNL     1       8.828  -3.626   6.881  1.00  0.00     0.066 A 
ATOM      3  C   UNL     1      11.243  -4.832   7.455  1.00  0.00     0.088 A 
ATOM      4  C   UNL     1      10.789  -4.666   6.118  1.00  0.00     0.035 A 
ATOM      5  N   UNL     1       9.223  -3.451   4.619  1.00  0.00    -0.360 N 
ATOM      6  N   UNL     1       7.737  -3.063   6.214  1.00  0.00    -0.360 N 
ATOM      7  C   UNL     1      10.398  -4.442   8.491  1.00  0.00     0.271 A 
ATOM      8  C   UNL     1       7.876  -3.493   4.869  1.00  0.00     0.205 C 
ATOM      9  C   UNL     1       9.136  -3.843   8.186  1.00  0.00     0.113 A 
ATOM     10  H   UNL     1       9.723  -3.180   3.760  1.00  0.00     0.163 HD
ATOM     11  H   UNL     1       6.996  -2.468   6.610  1.00  0.00     0.163 HD
ENDROOT
BRANCH   8  12
ATOM     12  C   UNL     1       6.900  -2.822   3.863  1.00  0.00    -0.003 A 
ATOM     13  C   UNL     1       4.925  -1.360   3.556  1.00  0.00     0.042 A 
ATOM     14  C   UNL     1       6.211  -1.628   4.177  1.00  0.00     0.028 A 
ATOM     15  C   UNL     1       4.675  -1.975   2.248  1.00  0.00     0.041 A 
ATOM     16  C   UNL     1       5.648  -2.965   1.798  1.00  0.00     0.042 A 
ATOM     17  C   UNL     1       6.649  -3.525   2.631  1.00  0.00     0.028 A 
ATOM     18  Cl  UNL     1       3.909  -0.259   3.988  1.00  0.00    -0.084 Cl
ATOM     19  Cl  UNL     1       5.473  -3.525   0.193  1.00  0.00    -0.084 Cl
ENDBRANCH   8  12
BRANCH   7  20
ATOM     20  N   UNL     1      10.657  -4.690   9.824  1.00  0.00     0.062 N 
ATOM     21  O   UNL     1       9.786  -4.655  10.613  1.00  0.00    -0.258 OA
ATOM     22  O   UNL     1      11.784  -5.188  10.254  1.00  0.00    -0.258 OA
ENDBRANCH   7  20
TORSDOF 2
ENDMDL
MODEL 6
REMARK VINA RESULT:    -3.419      5.112      7.581
REMARK INTER + INTRA:          -4.135
REMARK INTER:                  -3.835
REMARK INTRA:                  -0.299
REMARK UNBOUND:                -0.316
REMARK SMILES O=[N+]([O-])c1ccc2c(c1)N[C@@H](c1cc(Cl)cc(Cl)c1)N2
REMARK SMILES IDX 7 1 8 2 5 3 6 4 20 5 10 6 4 7 11 8 9 9 12 12 14 13 13 14
REMARK SMILES IDX 16 15 17 16 19 17 15 18 18 19 2 20 3 21 1 22
REMARK H PARENT 20 10 10 11
ROOT
ATOM      1  C   UNL     1       6.392  -1.927   4.502  1.00  0.00     0.060 A 
ATOM      2  C   UNL     1       6.895  -2.579   3.402  1.00  0.00     0.066 A 
ATOM      3  C   UNL     1       4.484  -1.240   3.304  1.00  0.00     0.088 A 
ATOM      4  C   UNL     1       5.152  -1.488   4.534  1.00  0.00     0.035 A 
ATOM      5  N   UNL     1       7.310  -2.085   5.612  1.00  0.00    -0.360 N 
ATOM      6  N   UNL     1       8.087  -3.162   3.841  1.00  0.00    -0.360 N 
ATOM      7  C   UNL     1       5.035  -1.763   2.137  1.00  0.00     0.271 A 
ATOM      8  C   UNL     1       7.952  -3.241   5.250  1.00  0.00     0.205 C 
ATOM      9  C   UNL     1       6.271  -2.480   2.199  1.00  0.00     0.113 A 
ATOM     10  H   UNL     1       7.444  -1.493   6.444  1.00  0.00     0.163 HD
ATOM     11  H   UNL     1       8.886  -3.467   3.267  1.00  0.00     0.163 HD
ENDROOT
BRANCH   8  12
ATOM     12  C   UNL     1       9.242  -3.658   6.009  1.00  0.00    -0.003 A 
ATOM     13  C   UNL     1      11.424  -4.824   5.898  1.00  0.00     0.042 A 
ATOM     14  C   UNL     1      10.460  -3.894   5.333  1.00  0.00     0.028 A 
ATOM     15  C   UNL     1      11.397  -5.008   7.354  1.00  0.00     0.041 A 
ATOM     16  C   UNL     1      10.273  -4.409   8.064  1.00  0.00     0.042 A 
ATOM     17  C   UNL     1       9.119  -3.892   7.425  1.00  0.00     0.028 A 
ATOM     18  Cl  UNL     1      12.667  -5.416   5.168  1.00  0.00    -0.084 Cl
ATOM     19  Cl  UNL     1      10.350  -4.443   9.771  1.00  0.00    -0.084 Cl
ENDBRANCH   8  12
BRANCH   7  20
ATOM     20  N   UNL     1       4.406  -1.724   0.909  1.00  0.00     0.062 N 
ATOM     21  O   UNL     1       3.450  -1.059   0.754  1.00  0.00    -0.258 OA
ATOM     22  O   UNL     1       4.934  -2.211  -0.181  1.00  0.00    -0.258 OA
ENDBRANCH   7  20
TORSDOF 2
ENDMDL
MODEL 7
REMARK VINA RESULT:    -3.262      5.042      7.692
REMARK INTER + INTRA:          -3.959
REMARK INTER:                  -3.662
REMARK INTRA:                  -0.297
REMARK UNBOUND:                -0.316
REMARK SMILES O=[N+]([O-])c1ccc2c(c1)N[C@@H](c1cc(Cl)cc(Cl)c1)N2
REMARK SMILES IDX 7 1 8 2 5 3 6 4 20 5 10 6 4 7 11 8 9 9 12 12 14 13 13 14
REMARK SMILES IDX 16 15 17 16 19 17 15 18 18 19 2 20 3 21 1 22
REMARK H PARENT 20 10 10 11
ROOT
ATOM      1  C   UNL     1       6.721  -3.671   2.845  1.00  0.00     0.060 A 
ATOM      2  C   UNL     1       6.264  -2.762   3.770  1.00  0.00     0.066 A 
ATOM      3  C   UNL     1       5.226  -2.862   1.214  1.00  0.00     0.088 A 
ATOM      4  C   UNL     1       6.401  -3.576   1.572  1.00  0.00     0.035 A 
ATOM      5  N   UNL     1       7.764  -4.480   3.445  1.00  0.00    -0.360 N 
ATOM      6  N   UNL     1       7.043  -2.984   4.909  1.00  0.00    -0.360 N 
ATOM      7  C   UNL     1       4.642  -2.032   2.169  1.00  0.00     0.271 A 
ATOM      8  C   UNL     1       8.207  -3.635   4.429  1.00  0.00     0.205 C 
ATOM      9  C   UNL     1       5.202  -1.965   3.483  1.00  0.00     0.113 A 
ATOM     10  H   UNL     1       8.084  -5.427   3.199  1.00  0.00     0.163 HD
ATOM     11  H   UNL     1       6.820  -2.730   5.882  1.00  0.00     0.163 HD
ENDROOT
BRANCH   8  12
ATOM     12  C   UNL     1       9.149  -4.191   5.533  1.00  0.00    -0.003 A 
ATOM     13  C   UNL     1       9.762  -4.175   7.932  1.00  0.00     0.042 A 
ATOM     14  C   UNL     1       8.753  -4.250   6.888  1.00  0.00     0.028 A 
ATOM     15  C   UNL     1      11.113  -4.633   7.588  1.00  0.00     0.041 A 
ATOM     16  C   UNL     1      11.364  -4.917   6.179  1.00  0.00     0.042 A 
ATOM     17  C   UNL     1      10.485  -4.551   5.130  1.00  0.00     0.028 A 
ATOM     18  Cl  UNL     1       9.497  -3.940   9.450  1.00  0.00    -0.084 Cl
ATOM     19  Cl  UNL     1      12.864  -5.647   5.809  1.00  0.00    -0.084 Cl
ENDBRANCH   8  12
BRANCH   7  20
ATOM     20  N   UNL     1       3.596  -1.174   1.901  1.00  0.00     0.062 N 
ATOM     21  O   UNL     1       3.336  -0.885   0.791  1.00  0.00    -0.258 OA
ATOM     22  O   UNL     1       2.711  -0.822   2.794  1.00  0.00    -0.258 OA
ENDBRANCH   7  20
TORSDOF 2
ENDMDL
MODEL 8
REMARK VINA RESULT:    -3.180      5.207      7.707
REMARK INTER + INTRA:          -3.868
REMARK INTER:                  -3.573
REMARK INTRA:                  -0.295
REMARK UNBOUND:                -0.316
REMARK SMILES O=[N+]([O-])c1ccc2c(c1)N[C@@H](c1cc(Cl)cc(Cl)c1)N2
REMARK SMILES IDX 7 1 8 2 5 3 6 4 20 5 10 6 4 7 11 8 9 9 12 12 14 13 13 14
REMARK SMILES IDX 16 15 17 16 19 17 15 18 18 19 2 20 3 21 1 22
REMARK H PARENT 20 10 10 11
ROOT
ATOM      1  C   UNL     1       8.766  -2.633   5.891  1.00  0.00     0.060 A 
ATOM      2  C   UNL     1       8.338  -3.887   5.525  1.00  0.00     0.066 A 
ATOM      3  C   UNL     1       7.874  -1.684   3.928  1.00  0.00     0.088 A 
ATOM      4  C   UNL     1       8.354  -1.555   5.260  1.00  0.00     0.035 A 
ATOM      5  N   UNL     1       9.442  -2.713   7.171  1.00  0.00    -0.360 N 
ATOM      6  N   UNL     1       8.712  -4.719   6.584  1.00  0.00    -0.360 N 
ATOM      7  C   UNL     1       7.559  -2.959   3.462  1.00  0.00     0.271 A 
ATOM      8  C   UNL     1       8.872  -3.846   7.690  1.00  0.00     0.205 C 
ATOM      9  C   UNL     1       7.777  -4.093   4.305  1.00  0.00     0.113 A 
ATOM     10  H   UNL     1      10.154  -2.091   7.578  1.00  0.00     0.163 HD
ATOM     11  H   UNL     1       8.843  -5.741   6.565  1.00  0.00     0.163 HD
ENDROOT
BRANCH   8  12
ATOM     12  C   UNL     1       9.501  -4.498   8.953  1.00  0.00    -0.003 A 
ATOM     13  C   UNL     1       9.140  -5.294  11.270  1.00  0.00     0.042 A 
ATOM     14  C   UNL     1       8.724  -5.230   9.878  1.00  0.00     0.028 A 
ATOM     15  C   UNL     1      10.573  -5.138  11.544  1.00  0.00     0.041 A 
ATOM     16  C   UNL     1      11.408  -4.721  10.423  1.00  0.00     0.042 A 
ATOM     17  C   UNL     1      10.897  -4.237   9.194  1.00  0.00     0.028 A 
ATOM     18  Cl  UNL     1       8.277  -5.803  12.464  1.00  0.00    -0.084 Cl
ATOM     19  Cl  UNL     1      13.097  -4.742  10.688  1.00  0.00    -0.084 Cl
ENDBRANCH   8  12
BRANCH   7  20
ATOM     20  N   UNL     1       6.944  -3.200   2.251  1.00  0.00     0.062 N 
ATOM     21  O   UNL     1       7.134  -2.486   1.337  1.00  0.00    -0.258 OA
ATOM     22  O   UNL     1       6.323  -4.314   1.973  1.00  0.00    -0.258 OA
ENDBRANCH   7  20
TORSDOF 2
ENDMDL
