MODEL 1
REMARK VINA RESULT:    -3.898      0.000      0.000
REMARK INTER + INTRA:          -4.660
REMARK INTER:                  -4.354
REMARK INTRA:                  -0.306
REMARK UNBOUND:                -0.306
REMARK SMILES O=[N+]([O-])c1ccc2c(c1)N[C@@H](c1cc(Cl)cc(Cl)c1)N2
REMARK SMILES IDX 7 1 8 2 5 3 6 4 20 5 10 6 4 7 11 8 9 9 12 12 14 13 13 14
REMARK SMILES IDX 16 15 17 16 19 17 15 18 18 19 2 20 3 21 1 22
REMARK H PARENT 20 10 10 11
ROOT
ATOM      1  C   UNL     1      12.417   7.086   0.862  1.00  0.00     0.060 A 
ATOM      2  C   UNL     1      12.105   6.308   1.952  1.00  0.00     0.066 A 
ATOM      3  C   UNL     1      13.846   8.440   2.156  1.00  0.00     0.088 A 
ATOM      4  C   UNL     1      13.409   7.950   0.896  1.00  0.00     0.035 A 
ATOM      5  N   UNL     1      11.708   6.589  -0.299  1.00  0.00    -0.360 N 
ATOM      6  N   UNL     1      11.246   5.323   1.457  1.00  0.00    -0.360 N 
ATOM      7  C   UNL     1      13.436   7.765   3.304  1.00  0.00     0.271 A 
ATOM      8  C   UNL     1      11.508   5.282   0.064  1.00  0.00     0.205 C 
ATOM      9  C   UNL     1      12.557   6.644   3.188  1.00  0.00     0.113 A 
ATOM     10  H   UNL     1      11.430   7.080  -1.161  1.00  0.00     0.163 HD
ATOM     11  H   UNL     1      10.572   4.753   1.988  1.00  0.00     0.163 HD
ENDROOT
BRANCH   8  12
ATOM     12  C   UNL     1      10.520   4.411  -0.762  1.00  0.00    -0.003 A 
ATOM     13  C   UNL     1       8.385   4.324  -2.014  1.00  0.00     0.042 A 
ATOM     14  C   UNL     1       9.650   4.978  -1.720  1.00  0.00     0.028 A 
ATOM     15  C   UNL     1       8.318   2.875  -1.794  1.00  0.00     0.041 A 
ATOM     16  C   UNL     1       9.451   2.269  -1.102  1.00  0.00     0.042 A 
ATOM     17  C   UNL     1      10.459   3.009  -0.436  1.00  0.00     0.028 A 
ATOM     18  Cl  UNL     1       7.196   4.940  -2.811  1.00  0.00    -0.084 Cl
ATOM     19  Cl  UNL     1       9.471   0.561  -1.033  1.00  0.00    -0.084 Cl
ENDBRANCH   8  12
BRANCH   7  20
ATOM     20  N   UNL     1      13.912   8.047   4.568  1.00  0.00     0.062 N 
ATOM     21  O   UNL     1      13.511   8.982   5.158  1.00  0.00    -0.258 OA
ATOM     22  O   UNL     1      14.631   7.211   5.266  1.00  0.00    -0.258 OA
ENDBRANCH   7  20
TORSDOF 2
ENDMDL
MODEL 2
REMARK VINA RESULT:    -3.885      1.972      2.592
REMARK INTER + INTRA:          -4.644
REMARK INTER:                  -4.334
REMARK INTRA:                  -0.311
REMARK UNBOUND:                -0.306
REMARK SMILES O=[N+]([O-])c1ccc2c(c1)N[C@@H](c1cc(Cl)cc(Cl)c1)N2
REMARK SMILES IDX 7 1 8 2 5 3 6 4 20 5 10 6 4 7 11 8 9 9 12 12 14 13 13 14
REMARK SMILES IDX 16 15 17 16 19 17 15 18 18 19 2 20 3 21 1 22
REMARK H PARENT 20 10 10 11
ROOT
ATOM      1  C   UNL     1      12.780   6.754   2.430  1.00  0.00     0.060 A 
ATOM      2  C   UNL     1      13.227   7.562   1.412  1.00  0.00     0.066 A 
ATOM      3  C   UNL     1      13.716   8.176   4.058  1.00  0.00     0.088 A 
ATOM      4  C   UNL     1      12.806   7.150   3.684  1.00  0.00     0.035 A 
ATOM      5  N   UNL     1      12.066   5.626   1.866  1.00  0.00    -0.360 N 
ATOM      6  N   UNL     1      12.759   6.960   0.241  1.00  0.00    -0.360 N 
ATOM      7  C   UNL     1      14.307   8.933   3.048  1.00  0.00     0.271 A 
ATOM      8  C   UNL     1      11.675   6.149   0.661  1.00  0.00     0.205 C 
ATOM      9  C   UNL     1      14.027   8.627   1.680  1.00  0.00     0.113 A 
ATOM     10  H   UNL     1      11.897   4.690   2.261  1.00  0.00     0.163 HD
ATOM     11  H   UNL     1      13.122   7.078  -0.715  1.00  0.00     0.163 HD
ENDROOT
BRANCH   8  12
ATOM     12  C   UNL     1      11.110   5.195  -0.428  1.00  0.00    -0.003 A 
ATOM     13  C   UNL     1       9.412   3.488  -1.007  1.00  0.00     0.042 A 
ATOM     14  C   UNL     1       9.762   4.771  -0.421  1.00  0.00     0.028 A 
ATOM     15  C   UNL     1      10.288   2.979  -2.069  1.00  0.00     0.041 A 
ATOM     16  C   UNL     1      11.538   3.702  -2.283  1.00  0.00     0.042 A 
ATOM     17  C   UNL     1      12.048   4.679  -1.392  1.00  0.00     0.028 A 
ATOM     18  Cl  UNL     1       8.054   2.741  -0.840  1.00  0.00    -0.084 Cl
ATOM     19  Cl  UNL     1      12.455   3.241  -3.649  1.00  0.00    -0.084 Cl
ENDBRANCH   8  12
BRANCH   7  20
ATOM     20  N   UNL     1      15.084  10.049   3.284  1.00  0.00     0.062 N 
ATOM     21  O   UNL     1      15.616  10.193   4.322  1.00  0.00    -0.258 OA
ATOM     22  O   UNL     1      15.459  10.872   2.342  1.00  0.00    -0.258 OA
ENDBRANCH   7  20
TORSDOF 2
ENDMDL
MODEL 3
REMARK VINA RESULT:    -3.742      5.819      7.142
REMARK INTER + INTRA:          -4.486
REMARK INTER:                  -4.181
REMARK INTRA:                  -0.305
REMARK UNBOUND:                -0.306
REMARK SMILES O=[N+]([O-])c1ccc2c(c1)N[C@@H](c1cc(Cl)cc(Cl)c1)N2
REMARK SMILES IDX 7 1 8 2 5 3 6 4 20 5 10 6 4 7 11 8 9 9 12 12 14 13 13 14
REMARK SMILES IDX 16 15 17 16 19 17 15 18 18 19 2 20 3 21 1 22
REMARK H PARENT 20 10 10 11
ROOT
ATOM      1  C   UNL     1      14.116   4.120  -3.471  1.00  0.00     0.060 A 
ATOM      2  C   UNL     1      13.344   4.200  -4.605  1.00  0.00     0.066 A 
ATOM      3  C   UNL     1      16.031   4.828  -4.646  1.00  0.00     0.088 A 
ATOM      4  C   UNL     1      15.327   4.631  -3.427  1.00  0.00     0.035 A 
ATOM      5  N   UNL     1      13.292   3.682  -2.362  1.00  0.00    -0.360 N 
ATOM      6  N   UNL     1      12.055   3.853  -4.190  1.00  0.00    -0.360 N 
ATOM      7  C   UNL     1      15.312   4.776  -5.838  1.00  0.00     0.271 A 
ATOM      8  C   UNL     1      12.054   4.083  -2.791  1.00  0.00     0.205 C 
ATOM      9  C   UNL     1      13.914   4.477  -5.807  1.00  0.00     0.113 A 
ATOM     10  H   UNL     1      13.562   3.203  -1.491  1.00  0.00     0.163 HD
ATOM     11  H   UNL     1      11.279   3.508  -4.772  1.00  0.00     0.163 HD
ENDROOT
BRANCH   8  12
ATOM     12  C   UNL     1      10.792   3.566  -2.044  1.00  0.00    -0.003 A 
ATOM     13  C   UNL     1       9.708   1.669  -0.879  1.00  0.00     0.042 A 
ATOM     14  C   UNL     1      10.865   2.522  -1.094  1.00  0.00     0.028 A 
ATOM     15  C   UNL     1       8.391   2.246  -1.169  1.00  0.00     0.041 A 
ATOM     16  C   UNL     1       8.382   3.539  -1.844  1.00  0.00     0.042 A 
ATOM     17  C   UNL     1       9.526   4.129  -2.437  1.00  0.00     0.028 A 
ATOM     18  Cl  UNL     1       9.695   0.319  -0.099  1.00  0.00    -0.084 Cl
ATOM     19  Cl  UNL     1       6.862   4.306  -1.993  1.00  0.00    -0.084 Cl
ENDBRANCH   8  12
BRANCH   7  20
ATOM     20  N   UNL     1      15.846   5.099  -7.069  1.00  0.00     0.062 N 
ATOM     21  O   UNL     1      16.170   4.252  -7.816  1.00  0.00    -0.258 OA
ATOM     22  O   UNL     1      15.816   6.305  -7.567  1.00  0.00    -0.258 OA
ENDBRANCH   7  20
TORSDOF 2
ENDMDL
MODEL 4
REMARK VINA RESULT:    -3.419      3.220      4.698
REMARK INTER + INTRA:          -4.125
REMARK INTER:                  -3.809
REMARK INTRA:                  -0.316
REMARK UNBOUND:                -0.306
REMARK SMILES O=[N+]([O-])c1ccc2c(c1)N[C@@H](c1cc(Cl)cc(Cl)c1)N2
REMARK SMILES IDX 7 1 8 2 5 3 6 4 20 5 10 6 4 7 11 8 9 9 12 12 14 13 13 14
REMARK SMILES IDX 16 15 17 16 19 17 15 18 18 19 2 20 3 21 1 22
REMARK H PARENT 20 10 10 11
ROOT
ATOM      1  C   UNL     1      10.936   3.695  -1.920  1.00  0.00     0.060 A 
ATOM      2  C   UNL     1      10.546   4.296  -0.747  1.00  0.00     0.066 A 
ATOM      3  C   UNL     1      12.955   4.909  -1.947  1.00  0.00     0.088 A 
ATOM      4  C   UNL     1      12.166   3.806  -2.373  1.00  0.00     0.035 A 
ATOM      5  N   UNL     1       9.911   2.762  -2.343  1.00  0.00    -0.360 N 
ATOM      6  N   UNL     1       9.317   3.711  -0.433  1.00  0.00    -0.360 N 
ATOM      7  C   UNL     1      12.523   5.640  -0.842  1.00  0.00     0.271 A 
ATOM      8  C   UNL     1       9.310   2.483  -1.143  1.00  0.00     0.205 C 
ATOM      9  C   UNL     1      11.288   5.299  -0.208  1.00  0.00     0.113 A 
ATOM     10  H   UNL     1       9.694   2.406  -3.285  1.00  0.00     0.163 HD
ATOM     11  H   UNL     1       8.579   4.087   0.179  1.00  0.00     0.163 HD
ENDROOT
BRANCH   8  12
ATOM     12  C   UNL     1       7.949   1.731  -1.137  1.00  0.00    -0.003 A 
ATOM     13  C   UNL     1       6.583  -0.084  -2.123  1.00  0.00     0.042 A 
ATOM     14  C   UNL     1       7.839   0.389  -1.565  1.00  0.00     0.028 A 
ATOM     15  C   UNL     1       5.361   0.604  -1.690  1.00  0.00     0.041 A 
ATOM     16  C   UNL     1       5.543   1.826  -0.914  1.00  0.00     0.042 A 
ATOM     17  C   UNL     1       6.784   2.495  -0.772  1.00  0.00     0.028 A 
ATOM     18  Cl  UNL     1       6.365  -1.421  -2.894  1.00  0.00    -0.084 Cl
ATOM     19  Cl  UNL     1       4.131   2.510  -0.235  1.00  0.00    -0.084 Cl
ENDBRANCH   8  12
BRANCH   7  20
ATOM     20  N   UNL     1      13.272   6.630  -0.240  1.00  0.00     0.062 N 
ATOM     21  O   UNL     1      13.084   6.914   0.885  1.00  0.00    -0.258 OA
ATOM     22  O   UNL     1      14.348   7.139  -0.776  1.00  0.00    -0.258 OA
ENDBRANCH   7  20
TORSDOF 2
ENDMDL
MODEL 5
REMARK VINA RESULT:    -3.368      4.094      5.223
REMARK INTER + INTRA:          -4.068
REMARK INTER:                  -3.753
REMARK INTRA:                  -0.315
REMARK UNBOUND:                -0.306
REMARK SMILES O=[N+]([O-])c1ccc2c(c1)N[C@@H](c1cc(Cl)cc(Cl)c1)N2
REMARK SMILES IDX 7 1 8 2 5 3 6 4 20 5 10 6 4 7 11 8 9 9 12 12 14 13 13 14
REMARK SMILES IDX 16 15 17 16 19 17 15 18 18 19 2 20 3 21 1 22
REMARK H PARENT 20 10 10 11
ROOT
ATOM      1  C   UNL     1      10.583   4.229  -0.971  1.00  0.00     0.060 A 
ATOM      2  C   UNL     1      10.957   3.653  -2.161  1.00  0.00     0.066 A 
ATOM      3  C   UNL     1      12.569   5.493  -0.882  1.00  0.00     0.088 A 
ATOM      4  C   UNL     1      11.227   5.264  -0.476  1.00  0.00     0.035 A 
ATOM      5  N   UNL     1       9.287   3.714  -0.577  1.00  0.00    -0.360 N 
ATOM      6  N   UNL     1       9.888   2.825  -2.513  1.00  0.00    -0.360 N 
ATOM      7  C   UNL     1      13.041   4.819  -2.007  1.00  0.00     0.271 A 
ATOM      8  C   UNL     1       8.780   3.341  -1.794  1.00  0.00     0.205 C 
ATOM      9  C   UNL     1      12.190   3.888  -2.681  1.00  0.00     0.113 A 
ATOM     10  H   UNL     1       8.863   3.646   0.360  1.00  0.00     0.163 HD
ATOM     11  H   UNL     1       9.902   2.018  -3.153  1.00  0.00     0.163 HD
ENDROOT
BRANCH   8  12
ATOM     12  C   UNL     1       7.501   2.460  -1.842  1.00  0.00    -0.003 A 
ATOM     13  C   UNL     1       5.238   2.044  -0.925  1.00  0.00     0.042 A 
ATOM     14  C   UNL     1       6.238   2.959  -1.450  1.00  0.00     0.028 A 
ATOM     15  C   UNL     1       5.321   0.645  -1.361  1.00  0.00     0.041 A 
ATOM     16  C   UNL     1       6.518   0.266  -2.104  1.00  0.00     0.042 A 
ATOM     17  C   UNL     1       7.674   1.078  -2.209  1.00  0.00     0.028 A 
ATOM     18  Cl  UNL     1       3.923   2.443  -0.191  1.00  0.00    -0.084 Cl
ATOM     19  Cl  UNL     1       6.520  -1.300  -2.790  1.00  0.00    -0.084 Cl
ENDBRANCH   8  12
BRANCH   7  20
ATOM     20  N   UNL     1      14.267   5.067  -2.590  1.00  0.00     0.062 N 
ATOM     21  O   UNL     1      14.435   4.849  -3.733  1.00  0.00    -0.258 OA
ATOM     22  O   UNL     1      15.213   5.749  -2.003  1.00  0.00    -0.258 OA
ENDBRANCH   7  20
TORSDOF 2
ENDMDL
MODEL 6
REMARK VINA RESULT:    -3.217      2.809      3.958
REMARK INTER + INTRA:          -3.898
REMARK INTER:                  -3.599
REMARK INTRA:                  -0.299
REMARK UNBOUND:                -0.306
REMARK SMILES O=[N+]([O-])c1ccc2c(c1)N[C@@H](c1cc(Cl)cc(Cl)c1)N2
REMARK SMILES IDX 7 1 8 2 5 3 6 4 20 5 10 6 4 7 11 8 9 9 12 12 14 13 13 14
REMARK SMILES IDX 16 15 17 16 19 17 15 18 18 19 2 20 3 21 1 22
REMARK H PARENT 20 10 10 11
ROOT
ATOM      1  C   UNL     1      10.922   4.226  -1.646  1.00  0.00     0.060 A 
ATOM      2  C   UNL     1      10.343   4.657  -0.477  1.00  0.00     0.066 A 
ATOM      3  C   UNL     1      12.861   5.497  -1.232  1.00  0.00     0.088 A 
ATOM      4  C   UNL     1      12.196   4.434  -1.900  1.00  0.00     0.035 A 
ATOM      5  N   UNL     1      10.014   3.322  -2.324  1.00  0.00    -0.360 N 
ATOM      6  N   UNL     1       9.113   3.997  -0.418  1.00  0.00    -0.360 N 
ATOM      7  C   UNL     1      12.244   6.065  -0.120  1.00  0.00     0.271 A 
ATOM      8  C   UNL     1       9.267   2.872  -1.267  1.00  0.00     0.205 C 
ATOM      9  C   UNL     1      10.951   5.606   0.282  1.00  0.00     0.113 A 
ATOM     10  H   UNL     1       9.949   3.083  -3.324  1.00  0.00     0.163 HD
ATOM     11  H   UNL     1       8.279   4.268   0.122  1.00  0.00     0.163 HD
ENDROOT
BRANCH   8  12
ATOM     12  C   UNL     1       7.958   2.082  -1.550  1.00  0.00    -0.003 A 
ATOM     13  C   UNL     1       5.554   1.802  -1.026  1.00  0.00     0.042 A 
ATOM     14  C   UNL     1       6.683   2.657  -1.352  1.00  0.00     0.028 A 
ATOM     15  C   UNL     1       5.618   0.410  -1.487  1.00  0.00     0.041 A 
ATOM     16  C   UNL     1       6.894  -0.035  -2.037  1.00  0.00     0.042 A 
ATOM     17  C   UNL     1       8.101   0.699  -1.927  1.00  0.00     0.028 A 
ATOM     18  Cl  UNL     1       4.164   2.275  -0.503  1.00  0.00    -0.084 Cl
ATOM     19  Cl  UNL     1       6.907  -1.582  -2.763  1.00  0.00    -0.084 Cl
ENDBRANCH   8  12
BRANCH   7  20
ATOM     20  N   UNL     1      12.851   6.994   0.701  1.00  0.00     0.062 N 
ATOM     21  O   UNL     1      12.407   7.225   1.765  1.00  0.00    -0.258 OA
ATOM     22  O   UNL     1      14.036   7.490   0.467  1.00  0.00    -0.258 OA
ENDBRANCH   7  20
TORSDOF 2
ENDMDL
MODEL 7
REMARK VINA RESULT:    -3.198      5.986      8.572
REMARK INTER + INTRA:          -3.877
REMARK INTER:                  -3.562
REMARK INTRA:                  -0.316
REMARK UNBOUND:                -0.306
REMARK SMILES O=[N+]([O-])c1ccc2c(c1)N[C@@H](c1cc(Cl)cc(Cl)c1)N2
REMARK SMILES IDX 7 1 8 2 5 3 6 4 20 5 10 6 4 7 11 8 9 9 12 12 14 13 13 14
REMARK SMILES IDX 16 15 17 16 19 17 15 18 18 19 2 20 3 21 1 22
REMARK H PARENT 20 10 10 11
ROOT
ATOM      1  C   UNL     1       8.075   1.073  -1.930  1.00  0.00     0.060 A 
ATOM      2  C   UNL     1       7.225   1.967  -1.325  1.00  0.00     0.066 A 
ATOM      3  C   UNL     1       6.333  -0.486  -2.222  1.00  0.00     0.088 A 
ATOM      4  C   UNL     1       7.621   0.011  -2.561  1.00  0.00     0.035 A 
ATOM      5  N   UNL     1       9.406   1.644  -1.991  1.00  0.00    -0.360 N 
ATOM      6  N   UNL     1       8.015   3.088  -1.053  1.00  0.00    -0.360 N 
ATOM      7  C   UNL     1       5.483   0.335  -1.483  1.00  0.00     0.271 A 
ATOM      8  C   UNL     1       9.111   2.981  -1.946  1.00  0.00     0.205 C 
ATOM      9  C   UNL     1       5.943   1.616  -1.045  1.00  0.00     0.113 A 
ATOM     10  H   UNL     1      10.321   1.175  -2.052  1.00  0.00     0.163 HD
ATOM     11  H   UNL     1       7.839   3.827  -0.358  1.00  0.00     0.163 HD
ENDROOT
BRANCH   8  12
ATOM     12  C   UNL     1      10.259   3.999  -1.697  1.00  0.00    -0.003 A 
ATOM     13  C   UNL     1      12.626   4.595  -2.117  1.00  0.00     0.042 A 
ATOM     14  C   UNL     1      11.331   4.150  -2.605  1.00  0.00     0.028 A 
ATOM     15  C   UNL     1      12.634   5.415  -0.901  1.00  0.00     0.041 A 
ATOM     16  C   UNL     1      11.369   5.525  -0.182  1.00  0.00     0.042 A 
ATOM     17  C   UNL     1      10.237   4.713  -0.445  1.00  0.00     0.028 A 
ATOM     18  Cl  UNL     1      13.970   4.545  -2.904  1.00  0.00    -0.084 Cl
ATOM     19  Cl  UNL     1      11.325   6.643   1.110  1.00  0.00    -0.084 Cl
ENDBRANCH   8  12
BRANCH   7  20
ATOM     20  N   UNL     1       4.163   0.032  -1.223  1.00  0.00     0.062 N 
ATOM     21  O   UNL     1       3.613   0.517  -0.304  1.00  0.00    -0.258 OA
ATOM     22  O   UNL     1       3.393  -0.600  -2.068  1.00  0.00    -0.258 OA
ENDBRANCH   7  20
TORSDOF 2
ENDMDL
MODEL 8
REMARK VINA RESULT:    -3.139      5.162      7.677
REMARK INTER + INTRA:          -3.812
REMARK INTER:                  -3.517
REMARK INTRA:                  -0.295
REMARK UNBOUND:                -0.306
REMARK SMILES O=[N+]([O-])c1ccc2c(c1)N[C@@H](c1cc(Cl)cc(Cl)c1)N2
REMARK SMILES IDX 7 1 8 2 5 3 6 4 20 5 10 6 4 7 11 8 9 9 12 12 14 13 13 14
REMARK SMILES IDX 16 15 17 16 19 17 15 18 18 19 2 20 3 21 1 22
REMARK H PARENT 20 10 10 11
ROOT
ATOM      1  C   UNL     1       9.591   4.573  -1.305  1.00  0.00     0.060 A 
ATOM      2  C   UNL     1      10.271   3.469  -0.849  1.00  0.00     0.066 A 
ATOM      3  C   UNL     1       7.952   3.222  -2.325  1.00  0.00     0.088 A 
ATOM      4  C   UNL     1       8.377   4.474  -1.804  1.00  0.00     0.035 A 
ATOM      5  N   UNL     1      10.285   5.772  -0.880  1.00  0.00    -0.360 N 
ATOM      6  N   UNL     1      11.347   3.983  -0.121  1.00  0.00    -0.360 N 
ATOM      7  C   UNL     1       8.696   2.089  -2.006  1.00  0.00     0.271 A 
ATOM      8  C   UNL     1      10.953   5.302   0.221  1.00  0.00     0.205 C 
ATOM      9  C   UNL     1       9.881   2.221  -1.217  1.00  0.00     0.113 A 
ATOM     10  H   UNL     1      10.278   6.716  -1.290  1.00  0.00     0.163 HD
ATOM     11  H   UNL     1      12.230   3.510   0.115  1.00  0.00     0.163 HD
ENDROOT
BRANCH   8  12
ATOM     12  C   UNL     1      12.072   6.176   0.854  1.00  0.00    -0.003 A 
ATOM     13  C   UNL     1      12.900   7.328   2.884  1.00  0.00     0.042 A 
ATOM     14  C   UNL     1      12.342   6.150   2.241  1.00  0.00     0.028 A 
ATOM     15  C   UNL     1      13.695   8.231   2.045  1.00  0.00     0.041 A 
ATOM     16  C   UNL     1      13.669   7.976   0.609  1.00  0.00     0.042 A 
ATOM     17  C   UNL     1      12.758   7.092  -0.021  1.00  0.00     0.028 A 
ATOM     18  Cl  UNL     1      12.994   7.578   4.420  1.00  0.00    -0.084 Cl
ATOM     19  Cl  UNL     1      14.754   8.891  -0.343  1.00  0.00    -0.084 Cl
ENDBRANCH   8  12
BRANCH   7  20
ATOM     20  N   UNL     1       8.305   0.803  -2.320  1.00  0.00     0.062 N 
ATOM     21  O   UNL     1       8.502  -0.078  -1.567  1.00  0.00    -0.258 OA
ATOM     22  O   UNL     1       7.516   0.520  -3.321  1.00  0.00    -0.258 OA
ENDBRANCH   7  20
TORSDOF 2
ENDMDL
MODEL 9
REMARK VINA RESULT:    -3.132      4.607      5.831
REMARK INTER + INTRA:          -3.804
REMARK INTER:                  -3.513
REMARK INTRA:                  -0.291
REMARK UNBOUND:                -0.306
REMARK SMILES O=[N+]([O-])c1ccc2c(c1)N[C@@H](c1cc(Cl)cc(Cl)c1)N2
REMARK SMILES IDX 7 1 8 2 5 3 6 4 20 5 10 6 4 7 11 8 9 9 12 12 14 13 13 14
REMARK SMILES IDX 16 15 17 16 19 17 15 18 18 19 2 20 3 21 1 22
REMARK H PARENT 20 10 10 11
ROOT
ATOM      1  C   UNL     1      11.229   4.035  -1.350  1.00  0.00     0.060 A 
ATOM      2  C   UNL     1      11.330   3.327  -2.524  1.00  0.00     0.066 A 
ATOM      3  C   UNL     1      13.273   5.133  -1.760  1.00  0.00     0.088 A 
ATOM      4  C   UNL     1      12.021   5.053  -1.092  1.00  0.00     0.035 A 
ATOM      5  N   UNL     1      10.002   3.666  -0.674  1.00  0.00    -0.360 N 
ATOM      6  N   UNL     1      10.163   2.562  -2.586  1.00  0.00    -0.360 N 
ATOM      7  C   UNL     1      13.476   4.325  -2.877  1.00  0.00     0.271 A 
ATOM      8  C   UNL     1       9.248   3.230  -1.733  1.00  0.00     0.205 C 
ATOM      9  C   UNL     1      12.454   3.412  -3.283  1.00  0.00     0.113 A 
ATOM     10  H   UNL     1       9.761   3.717   0.326  1.00  0.00     0.163 HD
ATOM     11  H   UNL     1      10.002   1.703  -3.131  1.00  0.00     0.163 HD
ENDROOT
BRANCH   8  12
ATOM     12  C   UNL     1       7.929   2.457  -1.453  1.00  0.00    -0.003 A 
ATOM     13  C   UNL     1       6.567   0.445  -1.931  1.00  0.00     0.042 A 
ATOM     14  C   UNL     1       7.844   1.054  -1.596  1.00  0.00     0.028 A 
ATOM     15  C   UNL     1       5.357   1.172  -1.532  1.00  0.00     0.041 A 
ATOM     16  C   UNL     1       5.548   2.529  -1.032  1.00  0.00     0.042 A 
ATOM     17  C   UNL     1       6.765   3.246  -1.139  1.00  0.00     0.028 A 
ATOM     18  Cl  UNL     1       6.346  -1.025  -2.401  1.00  0.00    -0.084 Cl
ATOM     19  Cl  UNL     1       4.170   3.295  -0.373  1.00  0.00    -0.084 Cl
ENDBRANCH   8  12
BRANCH   7  20
ATOM     20  N   UNL     1      14.581   4.419  -3.698  1.00  0.00     0.062 N 
ATOM     21  O   UNL     1      14.559   5.114  -4.645  1.00  0.00    -0.258 OA
ATOM     22  O   UNL     1      15.755   3.950  -3.373  1.00  0.00    -0.258 OA
ENDBRANCH   7  20
TORSDOF 2
ENDMDL
