MODEL 1
REMARK VINA RESULT:    -4.187      0.000      0.000
REMARK INTER + INTRA:          -4.992
REMARK INTER:                  -4.676
REMARK INTRA:                  -0.315
REMARK UNBOUND:                -0.315
REMARK SMILES O=[N+]([O-])c1ccc2c(c1)N[C@@H](c1cc(Cl)cc(Cl)c1)N2
REMARK SMILES IDX 7 1 8 2 5 3 6 4 20 5 10 6 4 7 11 8 9 9 12 12 14 13 13 14
REMARK SMILES IDX 16 15 17 16 19 17 15 18 18 19 2 20 3 21 1 22
REMARK H PARENT 20 10 10 11
ROOT
ATOM      1  C   UNL     1       5.657  -2.382 -12.015  1.00  0.00     0.060 A 
ATOM      2  C   UNL     1       6.593  -1.408 -11.755  1.00  0.00     0.066 A 
ATOM      3  C   UNL     1       6.647  -2.870 -14.096  1.00  0.00     0.088 A 
ATOM      4  C   UNL     1       5.807  -3.232 -13.008  1.00  0.00     0.035 A 
ATOM      5  N   UNL     1       4.733  -2.466 -10.901  1.00  0.00    -0.360 N 
ATOM      6  N   UNL     1       6.271  -0.928 -10.483  1.00  0.00    -0.360 N 
ATOM      7  C   UNL     1       7.516  -1.795 -13.929  1.00  0.00     0.271 A 
ATOM      8  C   UNL     1       5.510  -1.966  -9.888  1.00  0.00     0.205 C 
ATOM      9  C   UNL     1       7.501  -1.059 -12.703  1.00  0.00     0.113 A 
ATOM     10  H   UNL     1       3.762  -2.807 -10.877  1.00  0.00     0.163 HD
ATOM     11  H   UNL     1       6.529  -0.021 -10.070  1.00  0.00     0.163 HD
ENDROOT
BRANCH   8  12
ATOM     12  C   UNL     1       4.839  -1.594  -8.536  1.00  0.00    -0.003 A 
ATOM     13  C   UNL     1       3.214  -2.241  -6.783  1.00  0.00     0.042 A 
ATOM     14  C   UNL     1       4.317  -2.578  -7.667  1.00  0.00     0.028 A 
ATOM     15  C   UNL     1       3.083  -0.834  -6.387  1.00  0.00     0.041 A 
ATOM     16  C   UNL     1       3.938   0.120  -7.086  1.00  0.00     0.042 A 
ATOM     17  C   UNL     1       4.680  -0.190  -8.253  1.00  0.00     0.028 A 
ATOM     18  Cl  UNL     1       2.339  -3.250  -5.980  1.00  0.00    -0.084 Cl
ATOM     19  Cl  UNL     1       3.938   1.719  -6.483  1.00  0.00    -0.084 Cl
ENDBRANCH   8  12
BRANCH   7  20
ATOM     20  N   UNL     1       8.483  -1.442 -14.847  1.00  0.00     0.062 N 
ATOM     21  O   UNL     1       9.405  -0.792 -14.518  1.00  0.00    -0.258 OA
ATOM     22  O   UNL     1       8.567  -1.973 -16.037  1.00  0.00    -0.258 OA
ENDBRANCH   7  20
TORSDOF 2
ENDMDL
MODEL 2
REMARK VINA RESULT:    -4.184      1.170      2.754
REMARK INTER + INTRA:          -4.988
REMARK INTER:                  -4.672
REMARK INTRA:                  -0.316
REMARK UNBOUND:                -0.315
REMARK SMILES O=[N+]([O-])c1ccc2c(c1)N[C@@H](c1cc(Cl)cc(Cl)c1)N2
REMARK SMILES IDX 7 1 8 2 5 3 6 4 20 5 10 6 4 7 11 8 9 9 12 12 14 13 13 14
REMARK SMILES IDX 16 15 17 16 19 17 15 18 18 19 2 20 3 21 1 22
REMARK H PARENT 20 10 10 11
ROOT
ATOM      1  C   UNL     1       6.505  -1.311 -11.745  1.00  0.00     0.060 A 
ATOM      2  C   UNL     1       5.594  -2.298 -12.039  1.00  0.00     0.066 A 
ATOM      3  C   UNL     1       7.646  -1.668 -13.775  1.00  0.00     0.088 A 
ATOM      4  C   UNL     1       7.337  -0.850 -12.655  1.00  0.00     0.035 A 
ATOM      5  N   UNL     1       6.182  -0.731 -10.457  1.00  0.00    -0.360 N 
ATOM      6  N   UNL     1       4.702  -2.297 -10.964  1.00  0.00    -0.360 N 
ATOM      7  C   UNL     1       6.831  -2.768 -14.033  1.00  0.00     0.271 A 
ATOM      8  C   UNL     1       4.843  -1.013 -10.379  1.00  0.00     0.205 C 
ATOM      9  C   UNL     1       5.753  -3.072 -13.144  1.00  0.00     0.113 A 
ATOM     10  H   UNL     1       6.790  -0.241  -9.785  1.00  0.00     0.163 HD
ATOM     11  H   UNL     1       4.079  -3.060 -10.663  1.00  0.00     0.163 HD
ENDROOT
BRANCH   8  12
ATOM     12  C   UNL     1       4.111  -0.828  -9.021  1.00  0.00    -0.003 A 
ATOM     13  C   UNL     1       3.805   0.583  -7.008  1.00  0.00     0.042 A 
ATOM     14  C   UNL     1       3.908   0.450  -8.452  1.00  0.00     0.028 A 
ATOM     15  C   UNL     1       3.323  -0.587  -6.264  1.00  0.00     0.041 A 
ATOM     16  C   UNL     1       3.200  -1.831  -7.017  1.00  0.00     0.042 A 
ATOM     17  C   UNL     1       3.735  -2.026  -8.315  1.00  0.00     0.028 A 
ATOM     18  Cl  UNL     1       3.867   1.915  -6.202  1.00  0.00    -0.084 Cl
ATOM     19  Cl  UNL     1       2.445  -3.134  -6.209  1.00  0.00    -0.084 Cl
ENDBRANCH   8  12
BRANCH   7  20
ATOM     20  N   UNL     1       6.932  -3.546 -15.168  1.00  0.00     0.062 N 
ATOM     21  O   UNL     1       6.024  -4.207 -15.517  1.00  0.00    -0.258 OA
ATOM     22  O   UNL     1       7.907  -3.434 -16.028  1.00  0.00    -0.258 OA
ENDBRANCH   7  20
TORSDOF 2
ENDMDL
MODEL 3
REMARK VINA RESULT:    -3.933      4.366      5.822
REMARK INTER + INTRA:          -4.708
REMARK INTER:                  -4.397
REMARK INTRA:                  -0.311
REMARK UNBOUND:                -0.315
REMARK SMILES O=[N+]([O-])c1ccc2c(c1)N[C@@H](c1cc(Cl)cc(Cl)c1)N2
REMARK SMILES IDX 7 1 8 2 5 3 6 4 20 5 10 6 4 7 11 8 9 9 12 12 14 13 13 14
REMARK SMILES IDX 16 15 17 16 19 17 15 18 18 19 2 20 3 21 1 22
REMARK H PARENT 20 10 10 11
ROOT
ATOM      1  C   UNL     1       4.377  -4.601 -15.829  1.00  0.00     0.060 A 
ATOM      2  C   UNL     1       5.704  -4.909 -16.011  1.00  0.00     0.066 A 
ATOM      3  C   UNL     1       3.742  -5.978 -17.632  1.00  0.00     0.088 A 
ATOM      4  C   UNL     1       3.425  -5.275 -16.439  1.00  0.00     0.035 A 
ATOM      5  N   UNL     1       4.247  -3.688 -14.711  1.00  0.00    -0.360 N 
ATOM      6  N   UNL     1       6.376  -4.226 -14.994  1.00  0.00    -0.360 N 
ATOM      7  C   UNL     1       5.085  -6.192 -17.934  1.00  0.00     0.271 A 
ATOM      8  C   UNL     1       5.386  -3.983 -14.008  1.00  0.00     0.205 C 
ATOM      9  C   UNL     1       6.096  -5.659 -17.074  1.00  0.00     0.113 A 
ATOM     10  H   UNL     1       3.504  -3.007 -14.501  1.00  0.00     0.163 HD
ATOM     11  H   UNL     1       7.370  -3.958 -14.967  1.00  0.00     0.163 HD
ENDROOT
BRANCH   8  12
ATOM     12  C   UNL     1       5.828  -3.038 -12.856  1.00  0.00    -0.003 A 
ATOM     13  C   UNL     1       5.209  -1.946 -10.721  1.00  0.00     0.042 A 
ATOM     14  C   UNL     1       5.270  -3.131 -11.561  1.00  0.00     0.028 A 
ATOM     15  C   UNL     1       6.213  -0.904 -10.965  1.00  0.00     0.041 A 
ATOM     16  C   UNL     1       7.034  -1.060 -12.161  1.00  0.00     0.042 A 
ATOM     17  C   UNL     1       6.761  -1.993 -13.192  1.00  0.00     0.028 A 
ATOM     18  Cl  UNL     1       4.388  -1.794  -9.405  1.00  0.00    -0.084 Cl
ATOM     19  Cl  UNL     1       8.337   0.034 -12.334  1.00  0.00    -0.084 Cl
ENDBRANCH   8  12
BRANCH   7  20
ATOM     20  N   UNL     1       5.519  -6.987 -18.975  1.00  0.00     0.062 N 
ATOM     21  O   UNL     1       4.758  -7.370 -19.785  1.00  0.00    -0.258 OA
ATOM     22  O   UNL     1       6.780  -7.171 -19.258  1.00  0.00    -0.258 OA
ENDBRANCH   7  20
TORSDOF 2
ENDMDL
MODEL 4
REMARK VINA RESULT:    -3.889      0.710      2.127
REMARK INTER + INTRA:          -4.658
REMARK INTER:                  -4.359
REMARK INTRA:                  -0.300
REMARK UNBOUND:                -0.315
REMARK SMILES O=[N+]([O-])c1ccc2c(c1)N[C@@H](c1cc(Cl)cc(Cl)c1)N2
REMARK SMILES IDX 7 1 8 2 5 3 6 4 20 5 10 6 4 7 11 8 9 9 12 12 14 13 13 14
REMARK SMILES IDX 16 15 17 16 19 17 15 18 18 19 2 20 3 21 1 22
REMARK H PARENT 20 10 10 11
ROOT
ATOM      1  C   UNL     1       5.969  -1.845 -12.223  1.00  0.00     0.060 A 
ATOM      2  C   UNL     1       6.778  -0.841 -11.745  1.00  0.00     0.066 A 
ATOM      3  C   UNL     1       7.346  -2.145 -14.111  1.00  0.00     0.088 A 
ATOM      4  C   UNL     1       6.350  -2.620 -13.216  1.00  0.00     0.035 A 
ATOM      5  N   UNL     1       4.868  -2.050 -11.304  1.00  0.00    -0.360 N 
ATOM      6  N   UNL     1       6.202  -0.462 -10.530  1.00  0.00    -0.360 N 
ATOM      7  C   UNL     1       8.099  -1.037 -13.730  1.00  0.00     0.271 A 
ATOM      8  C   UNL     1       5.415  -1.576 -10.140  1.00  0.00     0.205 C 
ATOM      9  C   UNL     1       7.817  -0.383 -12.490  1.00  0.00     0.113 A 
ATOM     10  H   UNL     1       3.932  -2.444 -11.476  1.00  0.00     0.163 HD
ATOM     11  H   UNL     1       6.322   0.429 -10.028  1.00  0.00     0.163 HD
ENDROOT
BRANCH   8  12
ATOM     12  C   UNL     1       4.490  -1.327  -8.916  1.00  0.00    -0.003 A 
ATOM     13  C   UNL     1       3.823   0.226  -7.107  1.00  0.00     0.042 A 
ATOM     14  C   UNL     1       4.134  -0.023  -8.504  1.00  0.00     0.028 A 
ATOM     15  C   UNL     1       3.312  -0.907  -6.326  1.00  0.00     0.041 A 
ATOM     16  C   UNL     1       3.369  -2.217  -6.966  1.00  0.00     0.042 A 
ATOM     17  C   UNL     1       4.091  -2.484  -8.156  1.00  0.00     0.028 A 
ATOM     18  Cl  UNL     1       3.692   1.623  -6.430  1.00  0.00    -0.084 Cl
ATOM     19  Cl  UNL     1       2.587  -3.496  -6.146  1.00  0.00    -0.084 Cl
ENDBRANCH   8  12
BRANCH   7  20
ATOM     20  N   UNL     1       9.191  -0.574 -14.436  1.00  0.00     0.062 N 
ATOM     21  O   UNL     1       9.939   0.186 -13.942  1.00  0.00    -0.258 OA
ATOM     22  O   UNL     1       9.588  -1.098 -15.564  1.00  0.00    -0.258 OA
ENDBRANCH   7  20
TORSDOF 2
ENDMDL
MODEL 5
REMARK VINA RESULT:    -3.886      1.550      2.182
REMARK INTER + INTRA:          -4.655
REMARK INTER:                  -4.356
REMARK INTRA:                  -0.299
REMARK UNBOUND:                -0.315
REMARK SMILES O=[N+]([O-])c1ccc2c(c1)N[C@@H](c1cc(Cl)cc(Cl)c1)N2
REMARK SMILES IDX 7 1 8 2 5 3 6 4 20 5 10 6 4 7 11 8 9 9 12 12 14 13 13 14
REMARK SMILES IDX 16 15 17 16 19 17 15 18 18 19 2 20 3 21 1 22
REMARK H PARENT 20 10 10 11
ROOT
ATOM      1  C   UNL     1       6.453  -1.835 -11.973  1.00  0.00     0.060 A 
ATOM      2  C   UNL     1       5.457  -2.780 -12.038  1.00  0.00     0.066 A 
ATOM      3  C   UNL     1       7.195  -2.371 -14.144  1.00  0.00     0.088 A 
ATOM      4  C   UNL     1       7.131  -1.475 -13.042  1.00  0.00     0.035 A 
ATOM      5  N   UNL     1       6.394  -1.166 -10.689  1.00  0.00    -0.360 N 
ATOM      6  N   UNL     1       4.772  -2.666 -10.826  1.00  0.00    -0.360 N 
ATOM      7  C   UNL     1       6.294  -3.433 -14.183  1.00  0.00     0.271 A 
ATOM      8  C   UNL     1       5.078  -1.363 -10.359  1.00  0.00     0.205 C 
ATOM      9  C   UNL     1       5.378  -3.623 -13.101  1.00  0.00     0.113 A 
ATOM     10  H   UNL     1       7.135  -0.677 -10.167  1.00  0.00     0.163 HD
ATOM     11  H   UNL     1       4.176  -3.373 -10.372  1.00  0.00     0.163 HD
ENDROOT
BRANCH   8  12
ATOM     12  C   UNL     1       4.609  -1.059  -8.909  1.00  0.00    -0.003 A 
ATOM     13  C   UNL     1       3.307  -1.833  -6.950  1.00  0.00     0.042 A 
ATOM     14  C   UNL     1       4.274  -2.091  -8.004  1.00  0.00     0.028 A 
ATOM     15  C   UNL     1       3.176  -0.445  -6.491  1.00  0.00     0.041 A 
ATOM     16  C   UNL     1       3.868   0.568  -7.280  1.00  0.00     0.042 A 
ATOM     17  C   UNL     1       4.433   0.327  -8.557  1.00  0.00     0.028 A 
ATOM     18  Cl  UNL     1       2.614  -2.905  -6.056  1.00  0.00    -0.084 Cl
ATOM     19  Cl  UNL     1       3.890   2.149  -6.631  1.00  0.00    -0.084 Cl
ENDBRANCH   8  12
BRANCH   7  20
ATOM     20  N   UNL     1       6.153  -4.277 -15.265  1.00  0.00     0.062 N 
ATOM     21  O   UNL     1       5.202  -4.961 -15.363  1.00  0.00    -0.258 OA
ATOM     22  O   UNL     1       6.910  -4.213 -16.326  1.00  0.00    -0.258 OA
ENDBRANCH   7  20
TORSDOF 2
ENDMDL
MODEL 6
REMARK VINA RESULT:    -3.841      3.958      5.084
REMARK INTER + INTRA:          -4.605
REMARK INTER:                  -4.300
REMARK INTRA:                  -0.305
REMARK UNBOUND:                -0.315
REMARK SMILES O=[N+]([O-])c1ccc2c(c1)N[C@@H](c1cc(Cl)cc(Cl)c1)N2
REMARK SMILES IDX 7 1 8 2 5 3 6 4 20 5 10 6 4 7 11 8 9 9 12 12 14 13 13 14
REMARK SMILES IDX 16 15 17 16 19 17 15 18 18 19 2 20 3 21 1 22
REMARK H PARENT 20 10 10 11
ROOT
ATOM      1  C   UNL     1       5.796  -4.646 -14.968  1.00  0.00     0.060 A 
ATOM      2  C   UNL     1       4.453  -4.357 -14.964  1.00  0.00     0.066 A 
ATOM      3  C   UNL     1       5.629  -5.705 -17.066  1.00  0.00     0.088 A 
ATOM      4  C   UNL     1       6.403  -5.077 -16.053  1.00  0.00     0.035 A 
ATOM      5  N   UNL     1       6.399  -4.136 -13.752  1.00  0.00    -0.360 N 
ATOM      6  N   UNL     1       4.241  -3.645 -13.780  1.00  0.00    -0.360 N 
ATOM      7  C   UNL     1       4.244  -5.558 -17.022  1.00  0.00     0.271 A 
ATOM      8  C   UNL     1       5.518  -3.137 -13.431  1.00  0.00     0.205 C 
ATOM      9  C   UNL     1       3.644  -4.834 -15.945  1.00  0.00     0.113 A 
ATOM     10  H   UNL     1       7.254  -4.440 -13.265  1.00  0.00     0.163 HD
ATOM     11  H   UNL     1       3.353  -3.518 -13.274  1.00  0.00     0.163 HD
ENDROOT
BRANCH   8  12
ATOM     12  C   UNL     1       5.599  -2.482 -12.024  1.00  0.00    -0.003 A 
ATOM     13  C   UNL     1       5.992  -2.821  -9.602  1.00  0.00     0.042 A 
ATOM     14  C   UNL     1       6.378  -3.042 -10.986  1.00  0.00     0.028 A 
ATOM     15  C   UNL     1       5.229  -1.602  -9.310  1.00  0.00     0.041 A 
ATOM     16  C   UNL     1       4.750  -0.843 -10.461  1.00  0.00     0.042 A 
ATOM     17  C   UNL     1       4.765  -1.331 -11.791  1.00  0.00     0.028 A 
ATOM     18  Cl  UNL     1       6.549  -3.580  -8.360  1.00  0.00    -0.084 Cl
ATOM     19  Cl  UNL     1       4.048   0.678 -10.126  1.00  0.00    -0.084 Cl
ENDBRANCH   8  12
BRANCH   7  20
ATOM     20  N   UNL     1       3.397  -5.986 -18.024  1.00  0.00     0.062 N 
ATOM     21  O   UNL     1       3.001  -7.093 -18.033  1.00  0.00    -0.258 OA
ATOM     22  O   UNL     1       2.814  -5.175 -18.865  1.00  0.00    -0.258 OA
ENDBRANCH   7  20
TORSDOF 2
ENDMDL
MODEL 7
REMARK VINA RESULT:    -3.592      5.110      7.578
REMARK INTER + INTRA:          -4.327
REMARK INTER:                  -4.028
REMARK INTRA:                  -0.299
REMARK UNBOUND:                -0.315
REMARK SMILES O=[N+]([O-])c1ccc2c(c1)N[C@@H](c1cc(Cl)cc(Cl)c1)N2
REMARK SMILES IDX 7 1 8 2 5 3 6 4 20 5 10 6 4 7 11 8 9 9 12 12 14 13 13 14
REMARK SMILES IDX 16 15 17 16 19 17 15 18 18 19 2 20 3 21 1 22
REMARK H PARENT 20 10 10 11
ROOT
ATOM      1  C   UNL     1       4.628  -0.197  -8.746  1.00  0.00     0.060 A 
ATOM      2  C   UNL     1       4.020  -1.429  -8.761  1.00  0.00     0.066 A 
ATOM      3  C   UNL     1       3.820   0.248  -6.578  1.00  0.00     0.088 A 
ATOM      4  C   UNL     1       4.732   0.505  -7.638  1.00  0.00     0.035 A 
ATOM      5  N   UNL     1       5.329   0.006  -9.998  1.00  0.00    -0.360 N 
ATOM      6  N   UNL     1       4.375  -1.991  -9.990  1.00  0.00    -0.360 N 
ATOM      7  C   UNL     1       3.073  -0.927  -6.622  1.00  0.00     0.271 A 
ATOM      8  C   UNL     1       5.544  -1.291 -10.383  1.00  0.00     0.205 C 
ATOM      9  C   UNL     1       3.202  -1.805  -7.743  1.00  0.00     0.113 A 
ATOM     10  H   UNL     1       5.593   0.883 -10.469  1.00  0.00     0.163 HD
ATOM     11  H   UNL     1       3.894  -2.747 -10.498  1.00  0.00     0.163 HD
ENDROOT
BRANCH   8  12
ATOM     12  C   UNL     1       6.024  -1.579 -11.833  1.00  0.00    -0.003 A 
ATOM     13  C   UNL     1       6.067  -3.183 -13.719  1.00  0.00     0.042 A 
ATOM     14  C   UNL     1       5.336  -2.477 -12.680  1.00  0.00     0.028 A 
ATOM     15  C   UNL     1       7.278  -2.538 -14.238  1.00  0.00     0.041 A 
ATOM     16  C   UNL     1       7.748  -1.361 -13.515  1.00  0.00     0.042 A 
ATOM     17  C   UNL     1       7.262  -0.968 -12.244  1.00  0.00     0.028 A 
ATOM     18  Cl  UNL     1       5.546  -4.399 -14.544  1.00  0.00    -0.084 Cl
ATOM     19  Cl  UNL     1       9.030  -0.490 -14.236  1.00  0.00    -0.084 Cl
ENDBRANCH   8  12
BRANCH   7  20
ATOM     20  N   UNL     1       2.272  -1.364  -5.587  1.00  0.00     0.062 N 
ATOM     21  O   UNL     1       1.981  -0.633  -4.713  1.00  0.00    -0.258 OA
ATOM     22  O   UNL     1       1.616  -2.492  -5.616  1.00  0.00    -0.258 OA
ENDBRANCH   7  20
TORSDOF 2
ENDMDL
MODEL 8
REMARK VINA RESULT:    -3.584      5.095      7.806
REMARK INTER + INTRA:          -4.318
REMARK INTER:                  -4.001
REMARK INTRA:                  -0.317
REMARK UNBOUND:                -0.315
REMARK SMILES O=[N+]([O-])c1ccc2c(c1)N[C@@H](c1cc(Cl)cc(Cl)c1)N2
REMARK SMILES IDX 7 1 8 2 5 3 6 4 20 5 10 6 4 7 11 8 9 9 12 12 14 13 13 14
REMARK SMILES IDX 16 15 17 16 19 17 15 18 18 19 2 20 3 21 1 22
REMARK H PARENT 20 10 10 11
ROOT
ATOM      1  C   UNL     1       4.644  -0.141  -8.704  1.00  0.00     0.060 A 
ATOM      2  C   UNL     1       4.149  -1.399  -8.457  1.00  0.00     0.066 A 
ATOM      3  C   UNL     1       3.749   0.679  -6.685  1.00  0.00     0.088 A 
ATOM      4  C   UNL     1       4.659   0.787  -7.772  1.00  0.00     0.035 A 
ATOM      5  N   UNL     1       5.352  -0.146  -9.969  1.00  0.00    -0.360 N 
ATOM      6  N   UNL     1       4.581  -2.175  -9.536  1.00  0.00    -0.360 N 
ATOM      7  C   UNL     1       3.112  -0.543  -6.479  1.00  0.00     0.271 A 
ATOM      8  C   UNL     1       5.692  -1.470 -10.065  1.00  0.00     0.205 C 
ATOM      9  C   UNL     1       3.345  -1.623  -7.385  1.00  0.00     0.113 A 
ATOM     10  H   UNL     1       5.548   0.631 -10.616  1.00  0.00     0.163 HD
ATOM     11  H   UNL     1       4.181  -3.063  -9.872  1.00  0.00     0.163 HD
ENDROOT
BRANCH   8  12
ATOM     12  C   UNL     1       6.228  -2.015 -11.418  1.00  0.00    -0.003 A 
ATOM     13  C   UNL     1       7.576  -1.560 -13.445  1.00  0.00     0.042 A 
ATOM     14  C   UNL     1       7.417  -1.521 -12.001  1.00  0.00     0.028 A 
ATOM     15  C   UNL     1       6.834  -2.598 -14.170  1.00  0.00     0.041 A 
ATOM     16  C   UNL     1       5.847  -3.348 -13.401  1.00  0.00     0.042 A 
ATOM     17  C   UNL     1       5.406  -2.978 -12.106  1.00  0.00     0.028 A 
ATOM     18  Cl  UNL     1       8.670  -0.816 -14.269  1.00  0.00    -0.084 Cl
ATOM     19  Cl  UNL     1       5.135  -4.689 -14.185  1.00  0.00    -0.084 Cl
ENDBRANCH   8  12
BRANCH   7  20
ATOM     20  N   UNL     1       2.329  -0.820  -5.377  1.00  0.00     0.062 N 
ATOM     21  O   UNL     1       1.662  -1.789  -5.352  1.00  0.00    -0.258 OA
ATOM     22  O   UNL     1       2.441  -0.187  -4.241  1.00  0.00    -0.258 OA
ENDBRANCH   7  20
TORSDOF 2
ENDMDL
MODEL 9
REMARK VINA RESULT:    -3.177      5.145      7.522
REMARK INTER + INTRA:          -3.863
REMARK INTER:                  -3.568
REMARK INTRA:                  -0.295
REMARK UNBOUND:                -0.315
REMARK SMILES O=[N+]([O-])c1ccc2c(c1)N[C@@H](c1cc(Cl)cc(Cl)c1)N2
REMARK SMILES IDX 7 1 8 2 5 3 6 4 20 5 10 6 4 7 11 8 9 9 12 12 14 13 13 14
REMARK SMILES IDX 16 15 17 16 19 17 15 18 18 19 2 20 3 21 1 22
REMARK H PARENT 20 10 10 11
ROOT
ATOM      1  C   UNL     1       5.835  -2.755 -10.911  1.00  0.00     0.060 A 
ATOM      2  C   UNL     1       5.235  -1.641 -11.448  1.00  0.00     0.066 A 
ATOM      3  C   UNL     1       5.690  -1.865  -8.735  1.00  0.00     0.088 A 
ATOM      4  C   UNL     1       5.847  -2.971  -9.613  1.00  0.00     0.035 A 
ATOM      5  N   UNL     1       6.142  -3.692 -11.974  1.00  0.00    -0.360 N 
ATOM      6  N   UNL     1       5.139  -1.907 -12.817  1.00  0.00    -0.360 N 
ATOM      7  C   UNL     1       5.217  -0.666  -9.264  1.00  0.00     0.271 A 
ATOM      8  C   UNL     1       5.219  -3.320 -12.916  1.00  0.00     0.205 C 
ATOM      9  C   UNL     1       4.958  -0.566 -10.666  1.00  0.00     0.113 A 
ATOM     10  H   UNL     1       6.855  -4.434 -12.011  1.00  0.00     0.163 HD
ATOM     11  H   UNL     1       5.034  -1.228 -13.584  1.00  0.00     0.163 HD
ENDROOT
BRANCH   8  12
ATOM     12  C   UNL     1       5.355  -3.868 -14.364  1.00  0.00    -0.003 A 
ATOM     13  C   UNL     1       4.302  -5.159 -16.196  1.00  0.00     0.042 A 
ATOM     14  C   UNL     1       4.224  -4.134 -15.169  1.00  0.00     0.028 A 
ATOM     15  C   UNL     1       5.628  -5.440 -16.758  1.00  0.00     0.041 A 
ATOM     16  C   UNL     1       6.764  -4.821 -16.083  1.00  0.00     0.042 A 
ATOM     17  C   UNL     1       6.684  -4.190 -14.817  1.00  0.00     0.028 A 
ATOM     18  Cl  UNL     1       3.099  -5.776 -16.971  1.00  0.00    -0.084 Cl
ATOM     19  Cl  UNL     1       8.281  -4.976 -16.856  1.00  0.00    -0.084 Cl
ENDBRANCH   8  12
BRANCH   7  20
ATOM     20  N   UNL     1       4.878   0.429  -8.495  1.00  0.00     0.062 N 
ATOM     21  O   UNL     1       3.926   1.067  -8.758  1.00  0.00    -0.258 OA
ATOM     22  O   UNL     1       5.425   0.688  -7.338  1.00  0.00    -0.258 OA
ENDBRANCH   7  20
TORSDOF 2
ENDMDL
