MODEL 1
REMARK VINA RESULT:    -4.100      0.000      0.000
REMARK INTER + INTRA:          -4.887
REMARK INTER:                  -4.580
REMARK INTRA:                  -0.307
REMARK UNBOUND:                -0.307
REMARK SMILES O=[N+]([O-])c1ccc2c(c1)N[C@@H](c1cc(Cl)cc(Cl)c1)N2
REMARK SMILES IDX 7 1 8 2 5 3 6 4 20 5 10 6 4 7 11 8 9 9 12 12 14 13 13 14
REMARK SMILES IDX 16 15 17 16 19 17 15 18 18 19 2 20 3 21 1 22
REMARK H PARENT 20 10 10 11
ROOT
ATOM      1  C   UNL     1       1.424   2.655 -13.434  1.00  0.00     0.060 A 
ATOM      2  C   UNL     1       0.565   3.679 -13.751  1.00  0.00     0.066 A 
ATOM      3  C   UNL     1       2.876   3.240 -15.193  1.00  0.00     0.088 A 
ATOM      4  C   UNL     1       2.627   2.578 -13.961  1.00  0.00     0.035 A 
ATOM      5  N   UNL     1       0.904   1.932 -12.290  1.00  0.00    -0.360 N 
ATOM      6  N   UNL     1      -0.449   3.611 -12.791  1.00  0.00    -0.360 N 
ATOM      7  C   UNL     1       1.956   4.191 -15.629  1.00  0.00     0.271 A 
ATOM      8  C   UNL     1       0.128   2.900 -11.708  1.00  0.00     0.205 C 
ATOM      9  C   UNL     1       0.774   4.432 -14.862  1.00  0.00     0.113 A 
ATOM     10  H   UNL     1       1.072   0.960 -11.995  1.00  0.00     0.163 HD
ATOM     11  H   UNL     1      -1.403   3.992 -12.856  1.00  0.00     0.163 HD
ENDROOT
BRANCH   8  12
ATOM     12  C   UNL     1      -0.868   2.495 -10.586  1.00  0.00    -0.003 A 
ATOM     13  C   UNL     1      -1.156   1.567  -8.308  1.00  0.00     0.042 A 
ATOM     14  C   UNL     1      -0.490   2.478  -9.224  1.00  0.00     0.028 A 
ATOM     15  C   UNL     1      -2.526   1.164  -8.647  1.00  0.00     0.041 A 
ATOM     16  C   UNL     1      -3.005   1.542  -9.972  1.00  0.00     0.042 A 
ATOM     17  C   UNL     1      -2.170   2.040 -11.003  1.00  0.00     0.028 A 
ATOM     18  Cl  UNL     1      -0.688   1.211  -6.865  1.00  0.00    -0.084 Cl
ATOM     19  Cl  UNL     1      -4.661   1.258 -10.288  1.00  0.00    -0.084 Cl
ENDBRANCH   8  12
BRANCH   7  20
ATOM     20  N   UNL     1       2.158   5.006 -16.724  1.00  0.00     0.062 N 
ATOM     21  O   UNL     1       1.255   5.306 -17.415  1.00  0.00    -0.258 OA
ATOM     22  O   UNL     1       3.265   5.666 -16.930  1.00  0.00    -0.258 OA
ENDBRANCH   7  20
TORSDOF 2
ENDMDL
MODEL 2
REMARK VINA RESULT:    -3.886      3.813      5.678
REMARK INTER + INTRA:          -4.647
REMARK INTER:                  -4.331
REMARK INTRA:                  -0.316
REMARK UNBOUND:                -0.307
REMARK SMILES O=[N+]([O-])c1ccc2c(c1)N[C@@H](c1cc(Cl)cc(Cl)c1)N2
REMARK SMILES IDX 7 1 8 2 5 3 6 4 20 5 10 6 4 7 11 8 9 9 12 12 14 13 13 14
REMARK SMILES IDX 16 15 17 16 19 17 15 18 18 19 2 20 3 21 1 22
REMARK H PARENT 20 10 10 11
ROOT
ATOM      1  C   UNL     1      -2.367   1.569  -9.498  1.00  0.00     0.060 A 
ATOM      2  C   UNL     1      -1.053   1.919  -9.701  1.00  0.00     0.066 A 
ATOM      3  C   UNL     1      -2.931   2.148 -11.711  1.00  0.00     0.088 A 
ATOM      4  C   UNL     1      -3.211   1.456 -10.501  1.00  0.00     0.035 A 
ATOM      5  N   UNL     1      -2.531   1.097  -8.138  1.00  0.00    -0.360 N 
ATOM      6  N   UNL     1      -0.412   1.629  -8.494  1.00  0.00    -0.360 N 
ATOM      7  C   UNL     1      -1.645   2.648 -11.902  1.00  0.00     0.271 A 
ATOM      8  C   UNL     1      -1.255   0.685  -7.855  1.00  0.00     0.205 C 
ATOM      9  C   UNL     1      -0.669   2.501 -10.867  1.00  0.00     0.113 A 
ATOM     10  H   UNL     1      -3.374   1.076  -7.546  1.00  0.00     0.163 HD
ATOM     11  H   UNL     1       0.476   2.017  -8.145  1.00  0.00     0.163 HD
ENDROOT
BRANCH   8  12
ATOM     12  C   UNL     1      -0.875   0.358  -6.384  1.00  0.00    -0.003 A 
ATOM     13  C   UNL     1      -1.571  -0.686  -4.249  1.00  0.00     0.042 A 
ATOM     14  C   UNL     1      -1.439  -0.740  -5.695  1.00  0.00     0.028 A 
ATOM     15  C   UNL     1      -0.623   0.168  -3.524  1.00  0.00     0.041 A 
ATOM     16  C   UNL     1       0.216   1.042  -4.336  1.00  0.00     0.042 A 
ATOM     17  C   UNL     1       0.003   1.285  -5.716  1.00  0.00     0.028 A 
ATOM     18  Cl  UNL     1      -2.411  -1.658  -3.367  1.00  0.00    -0.084 Cl
ATOM     19  Cl  UNL     1       1.458   1.879  -3.513  1.00  0.00    -0.084 Cl
ENDBRANCH   8  12
BRANCH   7  20
ATOM     20  N   UNL     1      -1.207   3.201 -13.088  1.00  0.00     0.062 N 
ATOM     21  O   UNL     1      -0.058   3.247 -13.332  1.00  0.00    -0.258 OA
ATOM     22  O   UNL     1      -2.004   3.485 -14.082  1.00  0.00    -0.258 OA
ENDBRANCH   7  20
TORSDOF 2
ENDMDL
MODEL 3
REMARK VINA RESULT:    -3.885      4.361      5.821
REMARK INTER + INTRA:          -4.646
REMARK INTER:                  -4.330
REMARK INTRA:                  -0.316
REMARK UNBOUND:                -0.307
REMARK SMILES O=[N+]([O-])c1ccc2c(c1)N[C@@H](c1cc(Cl)cc(Cl)c1)N2
REMARK SMILES IDX 7 1 8 2 5 3 6 4 20 5 10 6 4 7 11 8 9 9 12 12 14 13 13 14
REMARK SMILES IDX 16 15 17 16 19 17 15 18 18 19 2 20 3 21 1 22
REMARK H PARENT 20 10 10 11
ROOT
ATOM      1  C   UNL     1      -1.028   2.027  -9.633  1.00  0.00     0.060 A 
ATOM      2  C   UNL     1      -2.345   1.668  -9.477  1.00  0.00     0.066 A 
ATOM      3  C   UNL     1      -1.397   2.655 -11.874  1.00  0.00     0.088 A 
ATOM      4  C   UNL     1      -0.621   2.706 -10.685  1.00  0.00     0.035 A 
ATOM      5  N   UNL     1      -0.320   1.801  -8.389  1.00  0.00    -0.360 N 
ATOM      6  N   UNL     1      -2.453   1.264  -8.143  1.00  0.00    -0.360 N 
ATOM      7  C   UNL     1      -2.698   2.162 -11.791  1.00  0.00     0.271 A 
ATOM      8  C   UNL     1      -1.352   1.875  -7.491  1.00  0.00     0.205 C 
ATOM      9  C   UNL     1      -3.192   1.679 -10.539  1.00  0.00     0.113 A 
ATOM     10  H   UNL     1       0.683   1.632  -8.225  1.00  0.00     0.163 HD
ATOM     11  H   UNL     1      -3.173   0.656  -7.727  1.00  0.00     0.163 HD
ENDROOT
BRANCH   8  12
ATOM     12  C   UNL     1      -1.115   1.406  -6.028  1.00  0.00    -0.003 A 
ATOM     13  C   UNL     1       0.436   1.346  -4.099  1.00  0.00     0.042 A 
ATOM     14  C   UNL     1      -0.224   2.082  -5.165  1.00  0.00     0.028 A 
ATOM     15  C   UNL     1      -0.254   0.158  -3.584  1.00  0.00     0.041 A 
ATOM     16  C   UNL     1      -1.423  -0.291  -4.333  1.00  0.00     0.042 A 
ATOM     17  C   UNL     1      -1.769   0.189  -5.620  1.00  0.00     0.028 A 
ATOM     18  Cl  UNL     1       1.641   1.846  -3.247  1.00  0.00    -0.084 Cl
ATOM     19  Cl  UNL     1      -2.344  -1.542  -3.620  1.00  0.00    -0.084 Cl
ENDBRANCH   8  12
BRANCH   7  20
ATOM     20  N   UNL     1      -3.599   2.203 -12.835  1.00  0.00     0.062 N 
ATOM     21  O   UNL     1      -4.749   2.064 -12.632  1.00  0.00    -0.258 OA
ATOM     22  O   UNL     1      -3.287   2.611 -14.035  1.00  0.00    -0.258 OA
ENDBRANCH   7  20
TORSDOF 2
ENDMDL
MODEL 4
REMARK VINA RESULT:    -3.841      1.968      2.616
REMARK INTER + INTRA:          -4.597
REMARK INTER:                  -4.291
REMARK INTRA:                  -0.306
REMARK UNBOUND:                -0.307
REMARK SMILES O=[N+]([O-])c1ccc2c(c1)N[C@@H](c1cc(Cl)cc(Cl)c1)N2
REMARK SMILES IDX 7 1 8 2 5 3 6 4 20 5 10 6 4 7 11 8 9 9 12 12 14 13 13 14
REMARK SMILES IDX 16 15 17 16 19 17 15 18 18 19 2 20 3 21 1 22
REMARK H PARENT 20 10 10 11
ROOT
ATOM      1  C   UNL     1       0.213   3.547 -12.731  1.00  0.00     0.060 A 
ATOM      2  C   UNL     1       1.175   2.585 -12.538  1.00  0.00     0.066 A 
ATOM      3  C   UNL     1       1.074   4.074 -14.859  1.00  0.00     0.088 A 
ATOM      4  C   UNL     1       0.016   4.095 -13.911  1.00  0.00     0.035 A 
ATOM      5  N   UNL     1      -0.652   3.599 -11.569  1.00  0.00    -0.360 N 
ATOM      6  N   UNL     1       0.882   2.027 -11.290  1.00  0.00    -0.360 N 
ATOM      7  C   UNL     1       2.146   3.213 -14.632  1.00  0.00     0.271 A 
ATOM      8  C   UNL     1      -0.485   2.334 -11.070  1.00  0.00     0.205 C 
ATOM      9  C   UNL     1       2.177   2.424 -13.440  1.00  0.00     0.113 A 
ATOM     10  H   UNL     1      -1.232   4.373 -11.215  1.00  0.00     0.163 HD
ATOM     11  H   UNL     1       1.518   1.509 -10.668  1.00  0.00     0.163 HD
ENDROOT
BRANCH   8  12
ATOM     12  C   UNL     1      -1.007   2.010  -9.642  1.00  0.00    -0.003 A 
ATOM     13  C   UNL     1      -1.386   2.838  -7.339  1.00  0.00     0.042 A 
ATOM     14  C   UNL     1      -1.487   3.020  -8.778  1.00  0.00     0.028 A 
ATOM     15  C   UNL     1      -1.367   1.457  -6.842  1.00  0.00     0.041 A 
ATOM     16  C   UNL     1      -1.234   0.407  -7.845  1.00  0.00     0.042 A 
ATOM     17  C   UNL     1      -0.886   0.645  -9.198  1.00  0.00     0.028 A 
ATOM     18  Cl  UNL     1      -1.595   3.940  -6.257  1.00  0.00    -0.084 Cl
ATOM     19  Cl  UNL     1      -1.422  -1.199  -7.291  1.00  0.00    -0.084 Cl
ENDBRANCH   8  12
BRANCH   7  20
ATOM     20  N   UNL     1       3.154   2.989 -15.547  1.00  0.00     0.062 N 
ATOM     21  O   UNL     1       4.008   3.784 -15.695  1.00  0.00    -0.258 OA
ATOM     22  O   UNL     1       3.359   1.833 -16.118  1.00  0.00    -0.258 OA
ENDBRANCH   7  20
TORSDOF 2
ENDMDL
MODEL 5
REMARK VINA RESULT:    -3.582      4.914      6.360
REMARK INTER + INTRA:          -4.308
REMARK INTER:                  -4.009
REMARK INTRA:                  -0.299
REMARK UNBOUND:                -0.307
REMARK SMILES O=[N+]([O-])c1ccc2c(c1)N[C@@H](c1cc(Cl)cc(Cl)c1)N2
REMARK SMILES IDX 7 1 8 2 5 3 6 4 20 5 10 6 4 7 11 8 9 9 12 12 14 13 13 14
REMARK SMILES IDX 16 15 17 16 19 17 15 18 18 19 2 20 3 21 1 22
REMARK H PARENT 20 10 10 11
ROOT
ATOM      1  C   UNL     1      -1.606   1.721  -9.969  1.00  0.00     0.060 A 
ATOM      2  C   UNL     1      -2.858   1.353  -9.538  1.00  0.00     0.066 A 
ATOM      3  C   UNL     1      -2.448   2.361 -12.075  1.00  0.00     0.088 A 
ATOM      4  C   UNL     1      -1.436   2.409 -11.078  1.00  0.00     0.035 A 
ATOM      5  N   UNL     1      -0.647   1.492  -8.907  1.00  0.00    -0.360 N 
ATOM      6  N   UNL     1      -2.676   0.939  -8.216  1.00  0.00    -0.360 N 
ATOM      7  C   UNL     1      -3.698   1.859 -11.720  1.00  0.00     0.271 A 
ATOM      8  C   UNL     1      -1.465   1.553  -7.809  1.00  0.00     0.205 C 
ATOM      9  C   UNL     1      -3.911   1.364 -10.396  1.00  0.00     0.113 A 
ATOM     10  H   UNL     1       0.368   1.328  -8.961  1.00  0.00     0.163 HD
ATOM     11  H   UNL     1      -3.288   0.324  -7.660  1.00  0.00     0.163 HD
ENDROOT
BRANCH   8  12
ATOM     12  C   UNL     1      -0.919   1.076  -6.434  1.00  0.00    -0.003 A 
ATOM     13  C   UNL     1      -1.313  -0.304  -4.415  1.00  0.00     0.042 A 
ATOM     14  C   UNL     1      -1.315  -0.154  -5.861  1.00  0.00     0.028 A 
ATOM     15  C   UNL     1      -0.379   0.539  -3.659  1.00  0.00     0.041 A 
ATOM     16  C   UNL     1       0.298   1.592  -4.408  1.00  0.00     0.042 A 
ATOM     17  C   UNL     1      -0.067   1.991  -5.718  1.00  0.00     0.028 A 
ATOM     18  Cl  UNL     1      -1.975  -1.463  -3.611  1.00  0.00    -0.084 Cl
ATOM     19  Cl  UNL     1       1.534   2.435  -3.581  1.00  0.00    -0.084 Cl
ENDBRANCH   8  12
BRANCH   7  20
ATOM     20  N   UNL     1      -4.802   1.900 -12.547  1.00  0.00     0.062 N 
ATOM     21  O   UNL     1      -5.883   1.777 -12.102  1.00  0.00    -0.258 OA
ATOM     22  O   UNL     1      -4.750   2.294 -13.791  1.00  0.00    -0.258 OA
ENDBRANCH   7  20
TORSDOF 2
ENDMDL
MODEL 6
REMARK VINA RESULT:    -3.568      3.406      5.119
REMARK INTER + INTRA:          -4.292
REMARK INTER:                  -3.993
REMARK INTRA:                  -0.300
REMARK UNBOUND:                -0.307
REMARK SMILES O=[N+]([O-])c1ccc2c(c1)N[C@@H](c1cc(Cl)cc(Cl)c1)N2
REMARK SMILES IDX 7 1 8 2 5 3 6 4 20 5 10 6 4 7 11 8 9 9 12 12 14 13 13 14
REMARK SMILES IDX 16 15 17 16 19 17 15 18 18 19 2 20 3 21 1 22
REMARK H PARENT 20 10 10 11
ROOT
ATOM      1  C   UNL     1      -1.998   2.016  -9.733  1.00  0.00     0.060 A 
ATOM      2  C   UNL     1      -0.642   2.243  -9.723  1.00  0.00     0.066 A 
ATOM      3  C   UNL     1      -2.134   2.536 -12.026  1.00  0.00     0.088 A 
ATOM      4  C   UNL     1      -2.672   1.928 -10.859  1.00  0.00     0.035 A 
ATOM      5  N   UNL     1      -2.427   1.625  -8.405  1.00  0.00    -0.360 N 
ATOM      6  N   UNL     1      -0.238   1.958  -8.416  1.00  0.00    -0.360 N 
ATOM      7  C   UNL     1      -0.794   2.915 -12.014  1.00  0.00     0.271 A 
ATOM      8  C   UNL     1      -1.258   1.120  -7.898  1.00  0.00     0.205 C 
ATOM      9  C   UNL     1      -0.020   2.735 -10.826  1.00  0.00     0.113 A 
ATOM     10  H   UNL     1      -3.354   1.704  -7.963  1.00  0.00     0.163 HD
ATOM     11  H   UNL     1       0.612   2.284  -7.935  1.00  0.00     0.163 HD
ENDROOT
BRANCH   8  12
ATOM     12  C   UNL     1      -1.158   0.832  -6.374  1.00  0.00    -0.003 A 
ATOM     13  C   UNL     1       0.167   1.100  -4.299  1.00  0.00     0.042 A 
ATOM     14  C   UNL     1      -0.413   1.663  -5.506  1.00  0.00     0.028 A 
ATOM     15  C   UNL     1      -0.499  -0.074  -3.724  1.00  0.00     0.041 A 
ATOM     16  C   UNL     1      -1.546  -0.689  -4.533  1.00  0.00     0.042 A 
ATOM     17  C   UNL     1      -1.775  -0.379  -5.897  1.00  0.00     0.028 A 
ATOM     18  Cl  UNL     1       1.236   1.780  -3.390  1.00  0.00    -0.084 Cl
ATOM     19  Cl  UNL     1      -2.461  -1.920  -3.780  1.00  0.00    -0.084 Cl
ENDBRANCH   8  12
BRANCH   7  20
ATOM     20  N   UNL     1      -0.117   3.371 -13.127  1.00  0.00     0.062 N 
ATOM     21  O   UNL     1       1.058   3.399 -13.137  1.00  0.00    -0.258 OA
ATOM     22  O   UNL     1      -0.693   3.575 -14.281  1.00  0.00    -0.258 OA
ENDBRANCH   7  20
TORSDOF 2
ENDMDL
MODEL 7
REMARK VINA RESULT:    -3.547      6.249      8.816
REMARK INTER + INTRA:          -4.269
REMARK INTER:                  -3.969
REMARK INTRA:                  -0.300
REMARK UNBOUND:                -0.307
REMARK SMILES O=[N+]([O-])c1ccc2c(c1)N[C@@H](c1cc(Cl)cc(Cl)c1)N2
REMARK SMILES IDX 7 1 8 2 5 3 6 4 20 5 10 6 4 7 11 8 9 9 12 12 14 13 13 14
REMARK SMILES IDX 16 15 17 16 19 17 15 18 18 19 2 20 3 21 1 22
REMARK H PARENT 20 10 10 11
ROOT
ATOM      1  C   UNL     1      -1.631   0.149  -6.140  1.00  0.00     0.060 A 
ATOM      2  C   UNL     1      -0.456   0.862  -6.164  1.00  0.00     0.066 A 
ATOM      3  C   UNL     1      -1.386  -0.304  -3.841  1.00  0.00     0.088 A 
ATOM      4  C   UNL     1      -2.194  -0.210  -5.006  1.00  0.00     0.035 A 
ATOM      5  N   UNL     1      -2.216   0.148  -7.466  1.00  0.00    -0.360 N 
ATOM      6  N   UNL     1      -0.341   1.325  -7.477  1.00  0.00    -0.360 N 
ATOM      7  C   UNL     1      -0.123   0.283  -3.866  1.00  0.00     0.271 A 
ATOM      8  C   UNL     1      -1.663   1.288  -7.989  1.00  0.00     0.205 C 
ATOM      9  C   UNL     1       0.341   0.910  -5.064  1.00  0.00     0.113 A 
ATOM     10  H   UNL     1      -2.869  -0.522  -7.896  1.00  0.00     0.163 HD
ATOM     11  H   UNL     1       0.514   1.627  -7.965  1.00  0.00     0.163 HD
ENDROOT
BRANCH   8  12
ATOM     12  C   UNL     1      -1.781   1.551  -9.516  1.00  0.00    -0.003 A 
ATOM     13  C   UNL     1      -0.809   2.657 -11.508  1.00  0.00     0.042 A 
ATOM     14  C   UNL     1      -0.650   1.849 -10.310  1.00  0.00     0.028 A 
ATOM     15  C   UNL     1      -2.122   2.627 -12.163  1.00  0.00     0.041 A 
ATOM     16  C   UNL     1      -3.197   1.963 -11.434  1.00  0.00     0.042 A 
ATOM     17  C   UNL     1      -3.110   1.579 -10.073  1.00  0.00     0.028 A 
ATOM     18  Cl  UNL     1       0.340   3.313 -12.332  1.00  0.00    -0.084 Cl
ATOM     19  Cl  UNL     1      -4.665   1.745 -12.281  1.00  0.00    -0.084 Cl
ENDBRANCH   8  12
BRANCH   7  20
ATOM     20  N   UNL     1       0.692   0.393  -2.758  1.00  0.00     0.062 N 
ATOM     21  O   UNL     1       0.495  -0.273  -1.809  1.00  0.00    -0.258 OA
ATOM     22  O   UNL     1       1.825   1.041  -2.764  1.00  0.00    -0.258 OA
ENDBRANCH   7  20
TORSDOF 2
ENDMDL
MODEL 8
REMARK VINA RESULT:    -3.509      6.647      9.121
REMARK INTER + INTRA:          -4.226
REMARK INTER:                  -3.926
REMARK INTRA:                  -0.300
REMARK UNBOUND:                -0.307
REMARK SMILES O=[N+]([O-])c1ccc2c(c1)N[C@@H](c1cc(Cl)cc(Cl)c1)N2
REMARK SMILES IDX 7 1 8 2 5 3 6 4 20 5 10 6 4 7 11 8 9 9 12 12 14 13 13 14
REMARK SMILES IDX 16 15 17 16 19 17 15 18 18 19 2 20 3 21 1 22
REMARK H PARENT 20 10 10 11
ROOT
ATOM      1  C   UNL     1      -0.327   1.622  -6.008  1.00  0.00     0.060 A 
ATOM      2  C   UNL     1      -1.462   0.851  -5.928  1.00  0.00     0.066 A 
ATOM      3  C   UNL     1       0.384   0.916  -3.877  1.00  0.00     0.088 A 
ATOM      4  C   UNL     1       0.660   1.485  -5.149  1.00  0.00     0.035 A 
ATOM      5  N   UNL     1      -0.312   2.320  -7.279  1.00  0.00    -0.360 N 
ATOM      6  N   UNL     1      -2.115   1.042  -7.148  1.00  0.00    -0.360 N 
ATOM      7  C   UNL     1      -0.823   0.243  -3.704  1.00  0.00     0.271 A 
ATOM      8  C   UNL     1      -1.103   1.492  -8.033  1.00  0.00     0.205 C 
ATOM      9  C   UNL     1      -1.763   0.190  -4.780  1.00  0.00     0.113 A 
ATOM     10  H   UNL     1       0.162   3.195  -7.543  1.00  0.00     0.163 HD
ATOM     11  H   UNL     1      -3.112   0.890  -7.358  1.00  0.00     0.163 HD
ENDROOT
BRANCH   8  12
ATOM     12  C   UNL     1      -1.614   1.989  -9.414  1.00  0.00    -0.003 A 
ATOM     13  C   UNL     1      -3.389   1.854 -11.135  1.00  0.00     0.042 A 
ATOM     14  C   UNL     1      -2.988   1.987  -9.745  1.00  0.00     0.028 A 
ATOM     15  C   UNL     1      -2.437   2.319 -12.151  1.00  0.00     0.041 A 
ATOM     16  C   UNL     1      -1.102   2.667 -11.679  1.00  0.00     0.042 A 
ATOM     17  C   UNL     1      -0.615   2.358 -10.385  1.00  0.00     0.028 A 
ATOM     18  Cl  UNL     1      -4.828   1.550 -11.651  1.00  0.00    -0.084 Cl
ATOM     19  Cl  UNL     1      -0.063   3.404 -12.819  1.00  0.00    -0.084 Cl
ENDBRANCH   8  12
BRANCH   7  20
ATOM     20  N   UNL     1      -1.141  -0.480  -2.572  1.00  0.00     0.062 N 
ATOM     21  O   UNL     1      -0.507  -0.354  -1.590  1.00  0.00    -0.258 OA
ATOM     22  O   UNL     1      -2.255  -1.147  -2.438  1.00  0.00    -0.258 OA
ENDBRANCH   7  20
TORSDOF 2
ENDMDL
MODEL 9
REMARK VINA RESULT:    -3.486      5.279      7.153
REMARK INTER + INTRA:          -4.201
REMARK INTER:                  -3.898
REMARK INTRA:                  -0.303
REMARK UNBOUND:                -0.307
REMARK SMILES O=[N+]([O-])c1ccc2c(c1)N[C@@H](c1cc(Cl)cc(Cl)c1)N2
REMARK SMILES IDX 7 1 8 2 5 3 6 4 20 5 10 6 4 7 11 8 9 9 12 12 14 13 13 14
REMARK SMILES IDX 16 15 17 16 19 17 15 18 18 19 2 20 3 21 1 22
REMARK H PARENT 20 10 10 11
ROOT
ATOM      1  C   UNL     1      -6.179   2.563 -11.782  1.00  0.00     0.060 A 
ATOM      2  C   UNL     1      -5.592   2.006 -12.893  1.00  0.00     0.066 A 
ATOM      3  C   UNL     1      -8.248   2.754 -12.892  1.00  0.00     0.088 A 
ATOM      4  C   UNL     1      -7.484   2.708 -11.695  1.00  0.00     0.035 A 
ATOM      5  N   UNL     1      -5.199   2.658 -10.719  1.00  0.00    -0.360 N 
ATOM      6  N   UNL     1      -4.279   1.727 -12.505  1.00  0.00    -0.360 N 
ATOM      7  C   UNL     1      -7.646   2.331 -14.075  1.00  0.00     0.271 A 
ATOM      8  C   UNL     1      -4.326   1.668 -11.089  1.00  0.00     0.205 C 
ATOM      9  C   UNL     1      -6.277   1.919 -14.062  1.00  0.00     0.113 A 
ATOM     10  H   UNL     1      -5.166   3.293  -9.909  1.00  0.00     0.163 HD
ATOM     11  H   UNL     1      -3.458   1.593 -13.112  1.00  0.00     0.163 HD
ENDROOT
BRANCH   8  12
ATOM     12  C   UNL     1      -2.941   1.583 -10.390  1.00  0.00    -0.003 A 
ATOM     13  C   UNL     1      -1.710   1.325  -8.257  1.00  0.00     0.042 A 
ATOM     14  C   UNL     1      -2.765   0.905  -9.163  1.00  0.00     0.028 A 
ATOM     15  C   UNL     1      -0.541   1.981  -8.854  1.00  0.00     0.041 A 
ATOM     16  C   UNL     1      -0.646   2.339 -10.265  1.00  0.00     0.042 A 
ATOM     17  C   UNL     1      -1.859   2.315 -10.998  1.00  0.00     0.028 A 
ATOM     18  Cl  UNL     1      -1.551   0.893  -6.767  1.00  0.00    -0.084 Cl
ATOM     19  Cl  UNL     1       0.782   2.909 -11.011  1.00  0.00    -0.084 Cl
ENDBRANCH   8  12
BRANCH   7  20
ATOM     20  N   UNL     1      -8.323   2.184 -15.268  1.00  0.00     0.062 N 
ATOM     21  O   UNL     1      -8.740   1.132 -15.588  1.00  0.00    -0.258 OA
ATOM     22  O   UNL     1      -8.738   3.193 -15.986  1.00  0.00    -0.258 OA
ENDBRANCH   7  20
TORSDOF 2
ENDMDL
