MODEL 1
REMARK VINA RESULT:    -5.023      0.000      0.000
REMARK INTER + INTRA:          -5.923
REMARK INTER:                  -5.610
REMARK INTRA:                  -0.313
REMARK UNBOUND:                -0.313
REMARK SMILES O=[N+]([O-])c1ccc2c(c1)N[C@@H](c1cc(Cl)cc(Cl)c1)N2
REMARK SMILES IDX 7 1 8 2 5 3 6 4 20 5 10 6 4 7 11 8 9 9 12 12 14 13 13 14
REMARK SMILES IDX 16 15 17 16 19 17 15 18 18 19 2 20 3 21 1 22
REMARK H PARENT 20 10 10 11
ROOT
ATOM      1  C   UNL     1       7.043  -1.590 -10.420  1.00  0.00     0.060 A 
ATOM      2  C   UNL     1       5.897  -1.318 -11.127  1.00  0.00     0.066 A 
ATOM      3  C   UNL     1       8.328  -1.640 -12.393  1.00  0.00     0.088 A 
ATOM      4  C   UNL     1       8.231  -1.517 -10.981  1.00  0.00     0.035 A 
ATOM      5  N   UNL     1       6.728  -1.659  -9.007  1.00  0.00    -0.360 N 
ATOM      6  N   UNL     1       4.898  -1.184 -10.159  1.00  0.00    -0.360 N 
ATOM      7  C   UNL     1       7.163  -1.513 -13.147  1.00  0.00     0.271 A 
ATOM      8  C   UNL     1       5.596  -0.888  -8.960  1.00  0.00     0.205 C 
ATOM      9  C   UNL     1       5.911  -1.319 -12.486  1.00  0.00     0.113 A 
ATOM     10  H   UNL     1       7.218  -2.151  -8.246  1.00  0.00     0.163 HD
ATOM     11  H   UNL     1       3.881  -1.279 -10.287  1.00  0.00     0.163 HD
ENDROOT
BRANCH   8  12
ATOM     12  C   UNL     1       4.723  -0.904  -7.674  1.00  0.00    -0.003 A 
ATOM     13  C   UNL     1       4.672  -0.722  -5.205  1.00  0.00     0.042 A 
ATOM     14  C   UNL     1       5.119  -0.229  -6.497  1.00  0.00     0.028 A 
ATOM     15  C   UNL     1       3.410  -1.471  -5.178  1.00  0.00     0.041 A 
ATOM     16  C   UNL     1       2.841  -1.833  -6.472  1.00  0.00     0.042 A 
ATOM     17  C   UNL     1       3.538  -1.722  -7.701  1.00  0.00     0.028 A 
ATOM     18  Cl  UNL     1       5.227  -0.289  -3.814  1.00  0.00    -0.084 Cl
ATOM     19  Cl  UNL     1       1.276  -2.518  -6.446  1.00  0.00    -0.084 Cl
ENDBRANCH   8  12
BRANCH   7  20
ATOM     20  N   UNL     1       7.147  -1.460 -14.526  1.00  0.00     0.062 N 
ATOM     21  O   UNL     1       6.335  -0.819 -15.085  1.00  0.00    -0.258 OA
ATOM     22  O   UNL     1       8.122  -1.905 -15.271  1.00  0.00    -0.258 OA
ENDBRANCH   7  20
TORSDOF 2
ENDMDL
MODEL 2
REMARK VINA RESULT:    -5.015      1.057      2.685
REMARK INTER + INTRA:          -5.914
REMARK INTER:                  -5.601
REMARK INTRA:                  -0.312
REMARK UNBOUND:                -0.313
REMARK SMILES O=[N+]([O-])c1ccc2c(c1)N[C@@H](c1cc(Cl)cc(Cl)c1)N2
REMARK SMILES IDX 7 1 8 2 5 3 6 4 20 5 10 6 4 7 11 8 9 9 12 12 14 13 13 14
REMARK SMILES IDX 16 15 17 16 19 17 15 18 18 19 2 20 3 21 1 22
REMARK H PARENT 20 10 10 11
ROOT
ATOM      1  C   UNL     1       5.562  -1.340 -11.252  1.00  0.00     0.060 A 
ATOM      2  C   UNL     1       6.768  -1.616 -10.653  1.00  0.00     0.066 A 
ATOM      3  C   UNL     1       6.557  -1.301 -13.387  1.00  0.00     0.088 A 
ATOM      4  C   UNL     1       5.409  -1.415 -12.557  1.00  0.00     0.035 A 
ATOM      5  N   UNL     1       4.530  -1.262 -10.237  1.00  0.00    -0.360 N 
ATOM      6  N   UNL     1       6.474  -1.745  -9.293  1.00  0.00    -0.360 N 
ATOM      7  C   UNL     1       7.812  -1.432 -12.798  1.00  0.00     0.271 A 
ATOM      8  C   UNL     1       5.086  -2.034  -9.250  1.00  0.00     0.205 C 
ATOM      9  C   UNL     1       7.913  -1.623 -11.384  1.00  0.00     0.113 A 
ATOM     10  H   UNL     1       3.628  -0.766 -10.253  1.00  0.00     0.163 HD
ATOM     11  H   UNL     1       7.122  -1.651  -8.498  1.00  0.00     0.163 HD
ENDROOT
BRANCH   8  12
ATOM     12  C   UNL     1       4.456  -2.010  -7.829  1.00  0.00    -0.003 A 
ATOM     13  C   UNL     1       2.387  -2.171  -6.479  1.00  0.00     0.042 A 
ATOM     14  C   UNL     1       3.242  -2.673  -7.542  1.00  0.00     0.028 A 
ATOM     15  C   UNL     1       3.039  -1.427  -5.395  1.00  0.00     0.041 A 
ATOM     16  C   UNL     1       4.441  -1.079  -5.597  1.00  0.00     0.042 A 
ATOM     17  C   UNL     1       5.114  -1.197  -6.838  1.00  0.00     0.028 A 
ATOM     18  Cl  UNL     1       0.909  -2.590  -6.214  1.00  0.00    -0.084 Cl
ATOM     19  Cl  UNL     1       5.254  -0.400  -4.255  1.00  0.00    -0.084 Cl
ENDBRANCH   8  12
BRANCH   7  20
ATOM     20  N   UNL     1       8.991  -1.493 -13.513  1.00  0.00     0.062 N 
ATOM     21  O   UNL     1       9.874  -2.175 -13.144  1.00  0.00    -0.258 OA
ATOM     22  O   UNL     1       9.123  -1.007 -14.717  1.00  0.00    -0.258 OA
ENDBRANCH   7  20
TORSDOF 2
ENDMDL
MODEL 3
REMARK VINA RESULT:    -4.852      5.121      7.587
REMARK INTER + INTRA:          -5.732
REMARK INTER:                  -5.433
REMARK INTRA:                  -0.299
REMARK UNBOUND:                -0.313
REMARK SMILES O=[N+]([O-])c1ccc2c(c1)N[C@@H](c1cc(Cl)cc(Cl)c1)N2
REMARK SMILES IDX 7 1 8 2 5 3 6 4 20 5 10 6 4 7 11 8 9 9 12 12 14 13 13 14
REMARK SMILES IDX 16 15 17 16 19 17 15 18 18 19 2 20 3 21 1 22
REMARK H PARENT 20 10 10 11
ROOT
ATOM      1  C   UNL     1       3.850  -1.444  -8.067  1.00  0.00     0.060 A 
ATOM      2  C   UNL     1       4.999  -1.541  -7.321  1.00  0.00     0.066 A 
ATOM      3  C   UNL     1       2.549  -1.078  -6.138  1.00  0.00     0.088 A 
ATOM      4  C   UNL     1       2.726  -1.000  -7.546  1.00  0.00     0.035 A 
ATOM      5  N   UNL     1       4.174  -1.617  -9.470  1.00  0.00    -0.360 N 
ATOM      6  N   UNL     1       6.021  -1.732  -8.255  1.00  0.00    -0.360 N 
ATOM      7  C   UNL     1       3.670  -1.317  -5.345  1.00  0.00     0.271 A 
ATOM      8  C   UNL     1       5.491  -1.240  -9.475  1.00  0.00     0.205 C 
ATOM      9  C   UNL     1       4.941  -1.528  -5.964  1.00  0.00     0.113 A 
ATOM     10  H   UNL     1       3.579  -1.936 -10.248  1.00  0.00     0.163 HD
ATOM     11  H   UNL     1       6.953  -2.139  -8.093  1.00  0.00     0.163 HD
ENDROOT
BRANCH   8  12
ATOM     12  C   UNL     1       6.357  -1.536 -10.731  1.00  0.00    -0.003 A 
ATOM     13  C   UNL     1       8.638  -1.727 -11.676  1.00  0.00     0.042 A 
ATOM     14  C   UNL     1       7.678  -2.027 -10.627  1.00  0.00     0.028 A 
ATOM     15  C   UNL     1       8.101  -1.475 -13.018  1.00  0.00     0.041 A 
ATOM     16  C   UNL     1       6.652  -1.338 -13.124  1.00  0.00     0.042 A 
ATOM     17  C   UNL     1       5.789  -1.192 -12.010  1.00  0.00     0.028 A 
ATOM     18  Cl  UNL     1      10.180  -1.935 -11.597  1.00  0.00    -0.084 Cl
ATOM     19  Cl  UNL     1       6.012  -1.254 -14.707  1.00  0.00    -0.084 Cl
ENDBRANCH   8  12
BRANCH   7  20
ATOM     20  N   UNL     1       3.657  -1.263  -3.966  1.00  0.00     0.062 N 
ATOM     21  O   UNL     1       2.674  -1.516  -3.372  1.00  0.00    -0.258 OA
ATOM     22  O   UNL     1       4.739  -1.163  -3.243  1.00  0.00    -0.258 OA
ENDBRANCH   7  20
TORSDOF 2
ENDMDL
MODEL 4
REMARK VINA RESULT:    -4.831      5.020      7.658
REMARK INTER + INTRA:          -5.708
REMARK INTER:                  -5.408
REMARK INTRA:                  -0.300
REMARK UNBOUND:                -0.313
REMARK SMILES O=[N+]([O-])c1ccc2c(c1)N[C@@H](c1cc(Cl)cc(Cl)c1)N2
REMARK SMILES IDX 7 1 8 2 5 3 6 4 20 5 10 6 4 7 11 8 9 9 12 12 14 13 13 14
REMARK SMILES IDX 16 15 17 16 19 17 15 18 18 19 2 20 3 21 1 22
REMARK H PARENT 20 10 10 11
ROOT
ATOM      1  C   UNL     1       5.181  -0.863  -7.106  1.00  0.00     0.060 A 
ATOM      2  C   UNL     1       3.989  -1.217  -7.690  1.00  0.00     0.066 A 
ATOM      3  C   UNL     1       4.254  -1.048  -4.948  1.00  0.00     0.088 A 
ATOM      4  C   UNL     1       5.381  -1.002  -5.813  1.00  0.00     0.035 A 
ATOM      5  N   UNL     1       6.169  -0.627  -8.140  1.00  0.00    -0.360 N 
ATOM      6  N   UNL     1       4.250  -1.235  -9.063  1.00  0.00    -0.360 N 
ATOM      7  C   UNL     1       2.999  -1.264  -5.512  1.00  0.00     0.271 A 
ATOM      8  C   UNL     1       5.657  -1.387  -9.159  1.00  0.00     0.205 C 
ATOM      9  C   UNL     1       2.873  -1.378  -6.932  1.00  0.00     0.113 A 
ATOM     10  H   UNL     1       7.020  -0.048  -8.116  1.00  0.00     0.163 HD
ATOM     11  H   UNL     1       3.572  -1.156  -9.833  1.00  0.00     0.163 HD
ENDROOT
BRANCH   8  12
ATOM     12  C   UNL     1       6.237  -1.218 -10.591  1.00  0.00    -0.003 A 
ATOM     13  C   UNL     1       5.773  -1.202 -13.024  1.00  0.00     0.042 A 
ATOM     14  C   UNL     1       5.436  -0.786 -11.673  1.00  0.00     0.028 A 
ATOM     15  C   UNL     1       7.181  -1.517 -13.292  1.00  0.00     0.041 A 
ATOM     16  C   UNL     1       8.063  -1.590 -12.133  1.00  0.00     0.042 A 
ATOM     17  C   UNL     1       7.606  -1.619 -10.792  1.00  0.00     0.028 A 
ATOM     18  Cl  UNL     1       4.863  -1.065 -14.282  1.00  0.00    -0.084 Cl
ATOM     19  Cl  UNL     1       9.733  -1.749 -12.460  1.00  0.00    -0.084 Cl
ENDBRANCH   8  12
BRANCH   7  20
ATOM     20  N   UNL     1       1.854  -1.480  -4.772  1.00  0.00     0.062 N 
ATOM     21  O   UNL     1       1.879  -1.386  -3.601  1.00  0.00    -0.258 OA
ATOM     22  O   UNL     1       0.665  -1.570  -5.303  1.00  0.00    -0.258 OA
ENDBRANCH   7  20
TORSDOF 2
ENDMDL
MODEL 5
REMARK VINA RESULT:    -4.720      1.386      2.053
REMARK INTER + INTRA:          -5.584
REMARK INTER:                  -5.285
REMARK INTRA:                  -0.300
REMARK UNBOUND:                -0.313
REMARK SMILES O=[N+]([O-])c1ccc2c(c1)N[C@@H](c1cc(Cl)cc(Cl)c1)N2
REMARK SMILES IDX 7 1 8 2 5 3 6 4 20 5 10 6 4 7 11 8 9 9 12 12 14 13 13 14
REMARK SMILES IDX 16 15 17 16 19 17 15 18 18 19 2 20 3 21 1 22
REMARK H PARENT 20 10 10 11
ROOT
ATOM      1  C   UNL     1       6.208  -1.199 -11.064  1.00  0.00     0.060 A 
ATOM      2  C   UNL     1       7.264  -1.537 -10.251  1.00  0.00     0.066 A 
ATOM      3  C   UNL     1       7.531  -1.450 -12.996  1.00  0.00     0.088 A 
ATOM      4  C   UNL     1       6.259  -1.376 -12.366  1.00  0.00     0.035 A 
ATOM      5  N   UNL     1       5.042  -0.930 -10.246  1.00  0.00    -0.360 N 
ATOM      6  N   UNL     1       6.743  -1.514  -8.954  1.00  0.00    -0.360 N 
ATOM      7  C   UNL     1       8.653  -1.651 -12.195  1.00  0.00     0.271 A 
ATOM      8  C   UNL     1       5.343  -1.660  -9.126  1.00  0.00     0.205 C 
ATOM      9  C   UNL     1       8.503  -1.723 -10.775  1.00  0.00     0.113 A 
ATOM     10  H   UNL     1       4.216  -0.350 -10.450  1.00  0.00     0.163 HD
ATOM     11  H   UNL     1       7.261  -1.413  -8.070  1.00  0.00     0.163 HD
ENDROOT
BRANCH   8  12
ATOM     12  C   UNL     1       4.500  -1.447  -7.837  1.00  0.00    -0.003 A 
ATOM     13  C   UNL     1       4.515  -0.938  -5.414  1.00  0.00     0.042 A 
ATOM     14  C   UNL     1       4.965  -0.652  -6.766  1.00  0.00     0.028 A 
ATOM     15  C   UNL     1       3.208  -1.590  -5.271  1.00  0.00     0.041 A 
ATOM     16  C   UNL     1       2.588  -2.080  -6.497  1.00  0.00     0.042 A 
ATOM     17  C   UNL     1       3.263  -2.180  -7.739  1.00  0.00     0.028 A 
ATOM     18  Cl  UNL     1       5.128  -0.365  -4.100  1.00  0.00    -0.084 Cl
ATOM     19  Cl  UNL     1       0.982  -2.647  -6.360  1.00  0.00    -0.084 Cl
ENDBRANCH   8  12
BRANCH   7  20
ATOM     20  N   UNL     1       9.917  -1.892 -12.695  1.00  0.00     0.062 N 
ATOM     21  O   UNL     1      10.817  -2.084 -11.963  1.00  0.00    -0.258 OA
ATOM     22  O   UNL     1      10.153  -2.145 -13.953  1.00  0.00    -0.258 OA
ENDBRANCH   7  20
TORSDOF 2
ENDMDL
MODEL 6
REMARK VINA RESULT:    -4.715      0.757      2.165
REMARK INTER + INTRA:          -5.579
REMARK INTER:                  -5.279
REMARK INTRA:                  -0.300
REMARK UNBOUND:                -0.313
REMARK SMILES O=[N+]([O-])c1ccc2c(c1)N[C@@H](c1cc(Cl)cc(Cl)c1)N2
REMARK SMILES IDX 7 1 8 2 5 3 6 4 20 5 10 6 4 7 11 8 9 9 12 12 14 13 13 14
REMARK SMILES IDX 16 15 17 16 19 17 15 18 18 19 2 20 3 21 1 22
REMARK H PARENT 20 10 10 11
ROOT
ATOM      1  C   UNL     1       6.494  -1.710 -10.878  1.00  0.00     0.060 A 
ATOM      2  C   UNL     1       5.244  -1.368 -11.335  1.00  0.00     0.066 A 
ATOM      3  C   UNL     1       7.416  -1.478 -13.033  1.00  0.00     0.088 A 
ATOM      4  C   UNL     1       7.567  -1.543 -11.622  1.00  0.00     0.035 A 
ATOM      5  N   UNL     1       6.429  -1.970  -9.454  1.00  0.00    -0.360 N 
ATOM      6  N   UNL     1       4.429  -1.380 -10.199  1.00  0.00    -0.360 N 
ATOM      7  C   UNL     1       6.139  -1.273 -13.551  1.00  0.00     0.271 A 
ATOM      8  C   UNL     1       5.326  -1.232  -9.111  1.00  0.00     0.205 C 
ATOM      9  C   UNL     1       5.022  -1.190 -12.663  1.00  0.00     0.113 A 
ATOM     10  H   UNL     1       7.041  -2.549  -8.862  1.00  0.00     0.163 HD
ATOM     11  H   UNL     1       3.405  -1.475 -10.161  1.00  0.00     0.163 HD
ENDROOT
BRANCH   8  12
ATOM     12  C   UNL     1       4.690  -1.432  -7.707  1.00  0.00    -0.003 A 
ATOM     13  C   UNL     1       2.632  -1.910  -6.415  1.00  0.00     0.042 A 
ATOM     14  C   UNL     1       3.526  -2.211  -7.521  1.00  0.00     0.028 A 
ATOM     15  C   UNL     1       3.223  -1.263  -5.238  1.00  0.00     0.041 A 
ATOM     16  C   UNL     1       4.597  -0.792  -5.376  1.00  0.00     0.042 A 
ATOM     17  C   UNL     1       5.282  -0.704  -6.613  1.00  0.00     0.028 A 
ATOM     18  Cl  UNL     1       1.188  -2.464  -6.224  1.00  0.00    -0.084 Cl
ATOM     19  Cl  UNL     1       5.352  -0.230  -3.949  1.00  0.00    -0.084 Cl
ENDBRANCH   8  12
BRANCH   7  20
ATOM     20  N   UNL     1       5.883  -1.040 -14.887  1.00  0.00     0.062 N 
ATOM     21  O   UNL     1       4.804  -0.735 -15.240  1.00  0.00    -0.258 OA
ATOM     22  O   UNL     1       6.823  -0.916 -15.785  1.00  0.00    -0.258 OA
ENDBRANCH   7  20
TORSDOF 2
ENDMDL
MODEL 7
REMARK VINA RESULT:    -4.641      5.097      7.805
REMARK INTER + INTRA:          -5.496
REMARK INTER:                  -5.180
REMARK INTRA:                  -0.316
REMARK UNBOUND:                -0.313
REMARK SMILES O=[N+]([O-])c1ccc2c(c1)N[C@@H](c1cc(Cl)cc(Cl)c1)N2
REMARK SMILES IDX 7 1 8 2 5 3 6 4 20 5 10 6 4 7 11 8 9 9 12 12 14 13 13 14
REMARK SMILES IDX 16 15 17 16 19 17 15 18 18 19 2 20 3 21 1 22
REMARK H PARENT 20 10 10 11
ROOT
ATOM      1  C   UNL     1       3.844  -1.993  -7.937  1.00  0.00     0.060 A 
ATOM      2  C   UNL     1       4.873  -1.434  -7.219  1.00  0.00     0.066 A 
ATOM      3  C   UNL     1       2.492  -2.137  -6.014  1.00  0.00     0.088 A 
ATOM      4  C   UNL     1       2.637  -2.117  -7.427  1.00  0.00     0.035 A 
ATOM      5  N   UNL     1       4.241  -2.117  -9.326  1.00  0.00    -0.360 N 
ATOM      6  N   UNL     1       5.874  -1.181  -8.160  1.00  0.00    -0.360 N 
ATOM      7  C   UNL     1       3.565  -1.711  -5.235  1.00  0.00     0.271 A 
ATOM      8  C   UNL     1       5.197  -1.137  -9.405  1.00  0.00     0.205 C 
ATOM      9  C   UNL     1       4.787  -1.322  -5.868  1.00  0.00     0.113 A 
ATOM     10  H   UNL     1       3.900  -2.761 -10.053  1.00  0.00     0.163 HD
ATOM     11  H   UNL     1       6.882  -1.055  -7.988  1.00  0.00     0.163 HD
ENDROOT
BRANCH   8  12
ATOM     12  C   UNL     1       6.122  -1.084 -10.653  1.00  0.00    -0.003 A 
ATOM     13  C   UNL     1       6.288  -1.270 -13.116  1.00  0.00     0.042 A 
ATOM     14  C   UNL     1       5.627  -0.746 -11.933  1.00  0.00     0.028 A 
ATOM     15  C   UNL     1       7.712  -1.600 -12.994  1.00  0.00     0.041 A 
ATOM     16  C   UNL     1       8.272  -1.574 -11.646  1.00  0.00     0.042 A 
ATOM     17  C   UNL     1       7.490  -1.494 -10.467  1.00  0.00     0.028 A 
ATOM     18  Cl  UNL     1       5.727  -1.240 -14.570  1.00  0.00    -0.084 Cl
ATOM     19  Cl  UNL     1       9.968  -1.752 -11.527  1.00  0.00    -0.084 Cl
ENDBRANCH   8  12
BRANCH   7  20
ATOM     20  N   UNL     1       3.498  -1.538  -3.867  1.00  0.00     0.062 N 
ATOM     21  O   UNL     1       4.463  -1.261  -3.256  1.00  0.00    -0.258 OA
ATOM     22  O   UNL     1       2.372  -1.443  -3.213  1.00  0.00    -0.258 OA
ENDBRANCH   7  20
TORSDOF 2
ENDMDL
MODEL 8
REMARK VINA RESULT:    -4.611      4.984      7.413
REMARK INTER + INTRA:          -5.462
REMARK INTER:                  -5.155
REMARK INTRA:                  -0.307
REMARK UNBOUND:                -0.313
REMARK SMILES O=[N+]([O-])c1ccc2c(c1)N[C@@H](c1cc(Cl)cc(Cl)c1)N2
REMARK SMILES IDX 7 1 8 2 5 3 6 4 20 5 10 6 4 7 11 8 9 9 12 12 14 13 13 14
REMARK SMILES IDX 16 15 17 16 19 17 15 18 18 19 2 20 3 21 1 22
REMARK H PARENT 20 10 10 11
ROOT
ATOM      1  C   UNL     1       5.060  -0.624  -7.579  1.00  0.00     0.060 A 
ATOM      2  C   UNL     1       4.164  -1.586  -7.981  1.00  0.00     0.066 A 
ATOM      3  C   UNL     1       3.964  -0.374  -5.509  1.00  0.00     0.088 A 
ATOM      4  C   UNL     1       5.112  -0.211  -6.331  1.00  0.00     0.035 A 
ATOM      5  N   UNL     1       6.035  -0.410  -8.630  1.00  0.00    -0.360 N 
ATOM      6  N   UNL     1       4.606  -1.986  -9.245  1.00  0.00    -0.360 N 
ATOM      7  C   UNL     1       2.959  -1.235  -5.944  1.00  0.00     0.271 A 
ATOM      8  C   UNL     1       5.974  -1.614  -9.283  1.00  0.00     0.205 C 
ATOM      9  C   UNL     1       3.083  -1.881  -7.214  1.00  0.00     0.113 A 
ATOM     10  H   UNL     1       6.614   0.417  -8.832  1.00  0.00     0.163 HD
ATOM     11  H   UNL     1       4.059  -2.448  -9.985  1.00  0.00     0.163 HD
ENDROOT
BRANCH   8  12
ATOM     12  C   UNL     1       6.652  -1.754 -10.674  1.00  0.00    -0.003 A 
ATOM     13  C   UNL     1       8.769  -1.716 -11.959  1.00  0.00     0.042 A 
ATOM     14  C   UNL     1       7.999  -2.160 -10.809  1.00  0.00     0.028 A 
ATOM     15  C   UNL     1       8.019  -1.400 -13.181  1.00  0.00     0.041 A 
ATOM     16  C   UNL     1       6.566  -1.354 -13.058  1.00  0.00     0.042 A 
ATOM     17  C   UNL     1       5.877  -1.354 -11.820  1.00  0.00     0.028 A 
ATOM     18  Cl  UNL     1      10.315  -1.823 -12.127  1.00  0.00    -0.084 Cl
ATOM     19  Cl  UNL     1       5.688  -1.194 -14.516  1.00  0.00    -0.084 Cl
ENDBRANCH   8  12
BRANCH   7  20
ATOM     20  N   UNL     1       1.873  -1.595  -5.173  1.00  0.00     0.062 N 
ATOM     21  O   UNL     1       1.903  -1.458  -4.005  1.00  0.00    -0.258 OA
ATOM     22  O   UNL     1       0.702  -1.880  -5.674  1.00  0.00    -0.258 OA
ENDBRANCH   7  20
TORSDOF 2
ENDMDL
MODEL 9
REMARK VINA RESULT:    -3.985      3.176      4.579
REMARK INTER + INTRA:          -4.764
REMARK INTER:                  -4.462
REMARK INTRA:                  -0.302
REMARK UNBOUND:                -0.313
REMARK SMILES O=[N+]([O-])c1ccc2c(c1)N[C@@H](c1cc(Cl)cc(Cl)c1)N2
REMARK SMILES IDX 7 1 8 2 5 3 6 4 20 5 10 6 4 7 11 8 9 9 12 12 14 13 13 14
REMARK SMILES IDX 16 15 17 16 19 17 15 18 18 19 2 20 3 21 1 22
REMARK H PARENT 20 10 10 11
ROOT
ATOM      1  C   UNL     1       5.288  -0.987 -14.447  1.00  0.00     0.060 A 
ATOM      2  C   UNL     1       4.431   0.023 -14.080  1.00  0.00     0.066 A 
ATOM      3  C   UNL     1       5.250  -0.290 -16.697  1.00  0.00     0.088 A 
ATOM      4  C   UNL     1       5.860  -1.006 -15.632  1.00  0.00     0.035 A 
ATOM      5  N   UNL     1       5.636  -1.768 -13.277  1.00  0.00    -0.360 N 
ATOM      6  N   UNL     1       4.285  -0.113 -12.697  1.00  0.00    -0.360 N 
ATOM      7  C   UNL     1       4.269   0.648 -16.384  1.00  0.00     0.271 A 
ATOM      8  C   UNL     1       5.425  -0.847 -12.284  1.00  0.00     0.205 C 
ATOM      9  C   UNL     1       3.869   0.824 -15.022  1.00  0.00     0.113 A 
ATOM     10  H   UNL     1       5.953  -2.746 -13.210  1.00  0.00     0.163 HD
ATOM     11  H   UNL     1       3.518   0.242 -12.108  1.00  0.00     0.163 HD
ENDROOT
BRANCH   8  12
ATOM     12  C   UNL     1       5.397  -1.325 -10.805  1.00  0.00    -0.003 A 
ATOM     13  C   UNL     1       4.589  -3.023  -9.193  1.00  0.00     0.042 A 
ATOM     14  C   UNL     1       5.206  -2.683 -10.465  1.00  0.00     0.028 A 
ATOM     15  C   UNL     1       4.736  -2.053  -8.101  1.00  0.00     0.041 A 
ATOM     16  C   UNL     1       5.298  -0.754  -8.457  1.00  0.00     0.042 A 
ATOM     17  C   UNL     1       5.472  -0.306  -9.790  1.00  0.00     0.028 A 
ATOM     18  Cl  UNL     1       4.049  -4.425  -8.780  1.00  0.00    -0.084 Cl
ATOM     19  Cl  UNL     1       5.663   0.294  -7.157  1.00  0.00    -0.084 Cl
ENDBRANCH   8  12
BRANCH   7  20
ATOM     20  N   UNL     1       3.713   1.511 -17.306  1.00  0.00     0.062 N 
ATOM     21  O   UNL     1       4.201   2.562 -17.504  1.00  0.00    -0.258 OA
ATOM     22  O   UNL     1       2.789   1.152 -18.155  1.00  0.00    -0.258 OA
ENDBRANCH   7  20
TORSDOF 2
ENDMDL
