MODEL 1
REMARK VINA RESULT:    -4.487      0.000      0.000
REMARK INTER + INTRA:          -5.326
REMARK INTER:                  -5.012
REMARK INTRA:                  -0.314
REMARK UNBOUND:                -0.314
REMARK SMILES O=[N+]([O-])c1ccc2c(c1)N[C@@H](c1cc(Cl)cc(Cl)c1)N2
REMARK SMILES IDX 7 1 8 2 5 3 6 4 20 5 10 6 4 7 11 8 9 9 12 12 14 13 13 14
REMARK SMILES IDX 16 15 17 16 19 17 15 18 18 19 2 20 3 21 1 22
REMARK H PARENT 20 10 10 11
ROOT
ATOM      1  C   UNL     1       5.385   7.437   9.606  1.00  0.00     0.060 A 
ATOM      2  C   UNL     1       4.685   8.608   9.441  1.00  0.00     0.066 A 
ATOM      3  C   UNL     1       6.608   8.345  11.404  1.00  0.00     0.088 A 
ATOM      4  C   UNL     1       6.129   7.226  10.671  1.00  0.00     0.035 A 
ATOM      5  N   UNL     1       4.935   6.468   8.627  1.00  0.00    -0.360 N 
ATOM      6  N   UNL     1       3.791   8.350   8.399  1.00  0.00    -0.360 N 
ATOM      7  C   UNL     1       6.023   9.587  11.166  1.00  0.00     0.271 A 
ATOM      8  C   UNL     1       3.674   6.937   8.366  1.00  0.00     0.205 C 
ATOM      9  C   UNL     1       5.008   9.710  10.167  1.00  0.00     0.113 A 
ATOM     10  H   UNL     1       5.427   5.653   8.234  1.00  0.00     0.163 HD
ATOM     11  H   UNL     1       3.320   9.034   7.790  1.00  0.00     0.163 HD
ENDROOT
BRANCH   8  12
ATOM     12  C   UNL     1       2.896   6.372   7.145  1.00  0.00    -0.003 A 
ATOM     13  C   UNL     1       2.211   4.358   5.877  1.00  0.00     0.042 A 
ATOM     14  C   UNL     1       2.367   5.062   7.140  1.00  0.00     0.028 A 
ATOM     15  C   UNL     1       2.029   5.179   4.675  1.00  0.00     0.041 A 
ATOM     16  C   UNL     1       2.237   6.615   4.830  1.00  0.00     0.042 A 
ATOM     17  C   UNL     1       2.824   7.209   5.974  1.00  0.00     0.028 A 
ATOM     18  Cl  UNL     1       1.921   2.836   5.704  1.00  0.00    -0.084 Cl
ATOM     19  Cl  UNL     1       1.823   7.590   3.489  1.00  0.00    -0.084 Cl
ENDBRANCH   8  12
BRANCH   7  20
ATOM     20  N   UNL     1       6.290  10.715  11.915  1.00  0.00     0.062 N 
ATOM     21  O   UNL     1       5.506  11.590  11.971  1.00  0.00    -0.258 OA
ATOM     22  O   UNL     1       7.278  10.792  12.765  1.00  0.00    -0.258 OA
ENDBRANCH   7  20
TORSDOF 2
ENDMDL
MODEL 2
REMARK VINA RESULT:    -4.481      1.072      2.702
REMARK INTER + INTRA:          -5.319
REMARK INTER:                  -5.005
REMARK INTRA:                  -0.314
REMARK UNBOUND:                -0.314
REMARK SMILES O=[N+]([O-])c1ccc2c(c1)N[C@@H](c1cc(Cl)cc(Cl)c1)N2
REMARK SMILES IDX 7 1 8 2 5 3 6 4 20 5 10 6 4 7 11 8 9 9 12 12 14 13 13 14
REMARK SMILES IDX 16 15 17 16 19 17 15 18 18 19 2 20 3 21 1 22
REMARK H PARENT 20 10 10 11
ROOT
ATOM      1  C   UNL     1       4.636   8.618   9.382  1.00  0.00     0.060 A 
ATOM      2  C   UNL     1       5.372   7.483   9.629  1.00  0.00     0.066 A 
ATOM      3  C   UNL     1       5.759   9.796  11.086  1.00  0.00     0.088 A 
ATOM      4  C   UNL     1       4.966   9.779   9.906  1.00  0.00     0.035 A 
ATOM      5  N   UNL     1       3.711   8.360   8.297  1.00  0.00    -0.360 N 
ATOM      6  N   UNL     1       4.932   6.554   8.683  1.00  0.00    -0.360 N 
ATOM      7  C   UNL     1       6.413   8.623  11.457  1.00  0.00     0.271 A 
ATOM      8  C   UNL     1       4.354   7.337   7.651  1.00  0.00     0.205 C 
ATOM      9  C   UNL     1       6.230   7.436  10.681  1.00  0.00     0.113 A 
ATOM     10  H   UNL     1       2.817   8.820   8.072  1.00  0.00     0.163 HD
ATOM     11  H   UNL     1       5.009   5.528   8.725  1.00  0.00     0.163 HD
ENDROOT
BRANCH   8  12
ATOM     12  C   UNL     1       3.588   6.528   6.567  1.00  0.00    -0.003 A 
ATOM     13  C   UNL     1       2.090   6.609   4.596  1.00  0.00     0.042 A 
ATOM     14  C   UNL     1       3.261   7.089   5.312  1.00  0.00     0.028 A 
ATOM     15  C   UNL     1       1.661   5.233   4.869  1.00  0.00     0.041 A 
ATOM     16  C   UNL     1       2.316   4.556   5.983  1.00  0.00     0.042 A 
ATOM     17  C   UNL     1       3.134   5.212   6.936  1.00  0.00     0.028 A 
ATOM     18  Cl  UNL     1       1.425   7.290   3.362  1.00  0.00    -0.084 Cl
ATOM     19  Cl  UNL     1       1.969   2.892   6.168  1.00  0.00    -0.084 Cl
ENDBRANCH   8  12
BRANCH   7  20
ATOM     20  N   UNL     1       7.328   8.551  12.488  1.00  0.00     0.062 N 
ATOM     21  O   UNL     1       8.140   7.701  12.502  1.00  0.00    -0.258 OA
ATOM     22  O   UNL     1       7.502   9.508  13.358  1.00  0.00    -0.258 OA
ENDBRANCH   7  20
TORSDOF 2
ENDMDL
MODEL 3
REMARK VINA RESULT:    -4.395      4.990      7.645
REMARK INTER + INTRA:          -5.223
REMARK INTER:                  -4.924
REMARK INTRA:                  -0.299
REMARK UNBOUND:                -0.314
REMARK SMILES O=[N+]([O-])c1ccc2c(c1)N[C@@H](c1cc(Cl)cc(Cl)c1)N2
REMARK SMILES IDX 7 1 8 2 5 3 6 4 20 5 10 6 4 7 11 8 9 9 12 12 14 13 13 14
REMARK SMILES IDX 16 15 17 16 19 17 15 18 18 19 2 20 3 21 1 22
REMARK H PARENT 20 10 10 11
ROOT
ATOM      1  C   UNL     1       3.419   5.651   6.975  1.00  0.00     0.060 A 
ATOM      2  C   UNL     1       2.717   6.798   6.689  1.00  0.00     0.066 A 
ATOM      3  C   UNL     1       2.537   4.560   5.083  1.00  0.00     0.088 A 
ATOM      4  C   UNL     1       3.520   4.671   6.103  1.00  0.00     0.035 A 
ATOM      5  N   UNL     1       4.199   5.856   8.180  1.00  0.00    -0.360 N 
ATOM      6  N   UNL     1       3.090   7.707   7.682  1.00  0.00    -0.360 N 
ATOM      7  C   UNL     1       1.702   5.651   4.850  1.00  0.00     0.271 A 
ATOM      8  C   UNL     1       4.330   7.221   8.169  1.00  0.00     0.205 C 
ATOM      9  C   UNL     1       1.820   6.818   5.668  1.00  0.00     0.113 A 
ATOM     10  H   UNL     1       4.556   5.168   8.857  1.00  0.00     0.163 HD
ATOM     11  H   UNL     1       2.578   8.545   7.992  1.00  0.00     0.163 HD
ENDROOT
BRANCH   8  12
ATOM     12  C   UNL     1       4.860   7.938   9.441  1.00  0.00    -0.003 A 
ATOM     13  C   UNL     1       5.228  10.095  10.601  1.00  0.00     0.042 A 
ATOM     14  C   UNL     1       4.368   9.200   9.845  1.00  0.00     0.028 A 
ATOM     15  C   UNL     1       6.286   9.479  11.409  1.00  0.00     0.041 A 
ATOM     16  C   UNL     1       6.509   8.051  11.208  1.00  0.00     0.042 A 
ATOM     17  C   UNL     1       5.951   7.306  10.139  1.00  0.00     0.028 A 
ATOM     18  Cl  UNL     1       4.964  11.606  10.878  1.00  0.00    -0.084 Cl
ATOM     19  Cl  UNL     1       7.591   7.293  12.293  1.00  0.00    -0.084 Cl
ENDBRANCH   8  12
BRANCH   7  20
ATOM     20  N   UNL     1       0.816   5.725   3.795  1.00  0.00     0.062 N 
ATOM     21  O   UNL     1       0.552   6.765   3.314  1.00  0.00    -0.258 OA
ATOM     22  O   UNL     1       0.405   4.679   3.131  1.00  0.00    -0.258 OA
ENDBRANCH   7  20
TORSDOF 2
ENDMDL
MODEL 4
REMARK VINA RESULT:    -4.321      5.131      7.592
REMARK INTER + INTRA:          -5.141
REMARK INTER:                  -4.842
REMARK INTRA:                  -0.299
REMARK UNBOUND:                -0.314
REMARK SMILES O=[N+]([O-])c1ccc2c(c1)N[C@@H](c1cc(Cl)cc(Cl)c1)N2
REMARK SMILES IDX 7 1 8 2 5 3 6 4 20 5 10 6 4 7 11 8 9 9 12 12 14 13 13 14
REMARK SMILES IDX 16 15 17 16 19 17 15 18 18 19 2 20 3 21 1 22
REMARK H PARENT 20 10 10 11
ROOT
ATOM      1  C   UNL     1       2.920   7.111   6.484  1.00  0.00     0.060 A 
ATOM      2  C   UNL     1       3.490   5.886   6.736  1.00  0.00     0.066 A 
ATOM      3  C   UNL     1       1.451   6.174   4.898  1.00  0.00     0.088 A 
ATOM      4  C   UNL     1       1.807   7.221   5.791  1.00  0.00     0.035 A 
ATOM      5  N   UNL     1       3.556   8.115   7.314  1.00  0.00    -0.360 N 
ATOM      6  N   UNL     1       4.437   6.128   7.734  1.00  0.00    -0.360 N 
ATOM      7  C   UNL     1       2.106   4.951   5.023  1.00  0.00     0.271 A 
ATOM      8  C   UNL     1       4.018   7.338   8.344  1.00  0.00     0.205 C 
ATOM      9  C   UNL     1       3.143   4.801   5.996  1.00  0.00     0.113 A 
ATOM     10  H   UNL     1       3.638   9.131   7.170  1.00  0.00     0.163 HD
ATOM     11  H   UNL     1       5.258   5.554   7.975  1.00  0.00     0.163 HD
ENDROOT
BRANCH   8  12
ATOM     12  C   UNL     1       5.031   7.947   9.354  1.00  0.00    -0.003 A 
ATOM     13  C   UNL     1       6.666   7.514  11.162  1.00  0.00     0.042 A 
ATOM     14  C   UNL     1       6.127   7.205   9.848  1.00  0.00     0.028 A 
ATOM     15  C   UNL     1       6.486   8.886  11.650  1.00  0.00     0.041 A 
ATOM     16  C   UNL     1       5.602   9.744  10.868  1.00  0.00     0.042 A 
ATOM     17  C   UNL     1       4.745   9.271   9.844  1.00  0.00     0.028 A 
ATOM     18  Cl  UNL     1       7.665   6.636  11.975  1.00  0.00    -0.084 Cl
ATOM     19  Cl  UNL     1       5.558  11.393  11.314  1.00  0.00    -0.084 Cl
ENDBRANCH   8  12
BRANCH   7  20
ATOM     20  N   UNL     1       1.748   3.816   4.324  1.00  0.00     0.062 N 
ATOM     21  O   UNL     1       1.256   3.906   3.260  1.00  0.00    -0.258 OA
ATOM     22  O   UNL     1       2.123   2.615   4.669  1.00  0.00    -0.258 OA
ENDBRANCH   7  20
TORSDOF 2
ENDMDL
MODEL 5
REMARK VINA RESULT:    -4.087      0.682      2.113
REMARK INTER + INTRA:          -4.880
REMARK INTER:                  -4.580
REMARK INTRA:                  -0.299
REMARK UNBOUND:                -0.314
REMARK SMILES O=[N+]([O-])c1ccc2c(c1)N[C@@H](c1cc(Cl)cc(Cl)c1)N2
REMARK SMILES IDX 7 1 8 2 5 3 6 4 20 5 10 6 4 7 11 8 9 9 12 12 14 13 13 14
REMARK SMILES IDX 16 15 17 16 19 17 15 18 18 19 2 20 3 21 1 22
REMARK H PARENT 20 10 10 11
ROOT
ATOM      1  C   UNL     1       5.396   8.006   9.602  1.00  0.00     0.060 A 
ATOM      2  C   UNL     1       4.552   9.035   9.262  1.00  0.00     0.066 A 
ATOM      3  C   UNL     1       6.290   9.244  11.396  1.00  0.00     0.088 A 
ATOM      4  C   UNL     1       6.055   8.005  10.741  1.00  0.00     0.035 A 
ATOM      5  N   UNL     1       5.191   6.898   8.690  1.00  0.00    -0.360 N 
ATOM      6  N   UNL     1       3.811   8.552   8.181  1.00  0.00    -0.360 N 
ATOM      7  C   UNL     1       5.556  10.355  10.987  1.00  0.00     0.271 A 
ATOM      8  C   UNL     1       3.907   7.140   8.280  1.00  0.00     0.205 C 
ATOM      9  C   UNL     1       4.637  10.232   9.899  1.00  0.00     0.113 A 
ATOM     10  H   UNL     1       5.833   6.138   8.424  1.00  0.00     0.163 HD
ATOM     11  H   UNL     1       3.307   9.099   7.469  1.00  0.00     0.163 HD
ENDROOT
BRANCH   8  12
ATOM     12  C   UNL     1       3.343   6.359   7.060  1.00  0.00    -0.003 A 
ATOM     13  C   UNL     1       2.191   6.486   4.872  1.00  0.00     0.042 A 
ATOM     14  C   UNL     1       3.219   6.956   5.786  1.00  0.00     0.028 A 
ATOM     15  C   UNL     1       1.745   5.097   5.028  1.00  0.00     0.041 A 
ATOM     16  C   UNL     1       2.218   4.392   6.214  1.00  0.00     0.042 A 
ATOM     17  C   UNL     1       2.857   5.026   7.309  1.00  0.00     0.028 A 
ATOM     18  Cl  UNL     1       1.728   7.199   3.566  1.00  0.00    -0.084 Cl
ATOM     19  Cl  UNL     1       1.874   2.719   6.289  1.00  0.00    -0.084 Cl
ENDBRANCH   8  12
BRANCH   7  20
ATOM     20  N   UNL     1       5.580  11.571  11.639  1.00  0.00     0.062 N 
ATOM     21  O   UNL     1       4.740  12.369  11.438  1.00  0.00    -0.258 OA
ATOM     22  O   UNL     1       6.364  11.824  12.652  1.00  0.00    -0.258 OA
ENDBRANCH   7  20
TORSDOF 2
ENDMDL
MODEL 6
REMARK VINA RESULT:    -4.076      1.524      2.164
REMARK INTER + INTRA:          -4.867
REMARK INTER:                  -4.568
REMARK INTRA:                  -0.299
REMARK UNBOUND:                -0.314
REMARK SMILES O=[N+]([O-])c1ccc2c(c1)N[C@@H](c1cc(Cl)cc(Cl)c1)N2
REMARK SMILES IDX 7 1 8 2 5 3 6 4 20 5 10 6 4 7 11 8 9 9 12 12 14 13 13 14
REMARK SMILES IDX 16 15 17 16 19 17 15 18 18 19 2 20 3 21 1 22
REMARK H PARENT 20 10 10 11
ROOT
ATOM      1  C   UNL     1       4.913   8.225   9.789  1.00  0.00     0.060 A 
ATOM      2  C   UNL     1       5.548   7.006   9.788  1.00  0.00     0.066 A 
ATOM      3  C   UNL     1       6.347   9.043  11.469  1.00  0.00     0.088 A 
ATOM      4  C   UNL     1       5.425   9.266  10.412  1.00  0.00     0.035 A 
ATOM      5  N   UNL     1       3.844   8.209   8.810  1.00  0.00    -0.360 N 
ATOM      6  N   UNL     1       4.903   6.264   8.795  1.00  0.00    -0.360 N 
ATOM      7  C   UNL     1       6.913   7.776  11.596  1.00  0.00     0.271 A 
ATOM      8  C   UNL     1       4.294   7.234   7.958  1.00  0.00     0.205 C 
ATOM      9  C   UNL     1       6.514   6.733  10.703  1.00  0.00     0.113 A 
ATOM     10  H   UNL     1       2.984   8.773   8.767  1.00  0.00     0.163 HD
ATOM     11  H   UNL     1       4.875   5.240   8.693  1.00  0.00     0.163 HD
ENDROOT
BRANCH   8  12
ATOM     12  C   UNL     1       3.324   6.660   6.889  1.00  0.00    -0.003 A 
ATOM     13  C   UNL     1       2.320   4.634   5.878  1.00  0.00     0.042 A 
ATOM     14  C   UNL     1       2.693   5.406   7.052  1.00  0.00     0.028 A 
ATOM     15  C   UNL     1       2.055   5.383   4.645  1.00  0.00     0.041 A 
ATOM     16  C   UNL     1       2.398   6.801   4.658  1.00  0.00     0.042 A 
ATOM     17  C   UNL     1       3.173   7.417   5.672  1.00  0.00     0.028 A 
ATOM     18  Cl  UNL     1       1.886   3.137   5.864  1.00  0.00    -0.084 Cl
ATOM     19  Cl  UNL     1       1.898   7.714   3.303  1.00  0.00    -0.084 Cl
ENDBRANCH   8  12
BRANCH   7  20
ATOM     20  N   UNL     1       7.929   7.477  12.480  1.00  0.00     0.062 N 
ATOM     21  O   UNL     1       8.549   6.486  12.357  1.00  0.00    -0.258 OA
ATOM     22  O   UNL     1       8.410   8.337  13.335  1.00  0.00    -0.258 OA
ENDBRANCH   7  20
TORSDOF 2
ENDMDL
MODEL 7
REMARK VINA RESULT:    -3.876      2.921      4.250
REMARK INTER + INTRA:          -4.644
REMARK INTER:                  -4.338
REMARK INTRA:                  -0.305
REMARK UNBOUND:                -0.314
REMARK SMILES O=[N+]([O-])c1ccc2c(c1)N[C@@H](c1cc(Cl)cc(Cl)c1)N2
REMARK SMILES IDX 7 1 8 2 5 3 6 4 20 5 10 6 4 7 11 8 9 9 12 12 14 13 13 14
REMARK SMILES IDX 16 15 17 16 19 17 15 18 18 19 2 20 3 21 1 22
REMARK H PARENT 20 10 10 11
ROOT
ATOM      1  C   UNL     1       5.123  11.313  10.892  1.00  0.00     0.060 A 
ATOM      2  C   UNL     1       3.750  11.308  10.962  1.00  0.00     0.066 A 
ATOM      3  C   UNL     1       5.260  13.082  12.441  1.00  0.00     0.088 A 
ATOM      4  C   UNL     1       5.852  11.989  11.754  1.00  0.00     0.035 A 
ATOM      5  N   UNL     1       5.558  10.285   9.968  1.00  0.00    -0.360 N 
ATOM      6  N   UNL     1       3.350  10.265  10.123  1.00  0.00    -0.360 N 
ATOM      7  C   UNL     1       3.872  13.200  12.422  1.00  0.00     0.271 A 
ATOM      8  C   UNL     1       4.490   9.428  10.019  1.00  0.00     0.205 C 
ATOM      9  C   UNL     1       3.095  12.260  11.676  1.00  0.00     0.113 A 
ATOM     10  H   UNL     1       6.430  10.216   9.424  1.00  0.00     0.163 HD
ATOM     11  H   UNL     1       2.430  10.133   9.678  1.00  0.00     0.163 HD
ENDROOT
BRANCH   8  12
ATOM     12  C   UNL     1       4.377   8.297   8.958  1.00  0.00    -0.003 A 
ATOM     13  C   UNL     1       4.729   7.629   6.600  1.00  0.00     0.042 A 
ATOM     14  C   UNL     1       5.209   8.262   7.817  1.00  0.00     0.028 A 
ATOM     15  C   UNL     1       3.723   6.571   6.752  1.00  0.00     0.041 A 
ATOM     16  C   UNL     1       3.147   6.408   8.083  1.00  0.00     0.042 A 
ATOM     17  C   UNL     1       3.317   7.339   9.137  1.00  0.00     0.028 A 
ATOM     18  Cl  UNL     1       5.377   7.743   5.187  1.00  0.00    -0.084 Cl
ATOM     19  Cl  UNL     1       2.136   5.048   8.309  1.00  0.00    -0.084 Cl
ENDBRANCH   8  12
BRANCH   7  20
ATOM     20  N   UNL     1       3.172  14.122  13.171  1.00  0.00     0.062 N 
ATOM     21  O   UNL     1       3.064  15.231  12.797  1.00  0.00    -0.258 OA
ATOM     22  O   UNL     1       2.415  13.796  14.184  1.00  0.00    -0.258 OA
ENDBRANCH   7  20
TORSDOF 2
ENDMDL
MODEL 8
REMARK VINA RESULT:    -3.672      3.891      5.702
REMARK INTER + INTRA:          -4.416
REMARK INTER:                  -4.108
REMARK INTRA:                  -0.309
REMARK UNBOUND:                -0.314
REMARK SMILES O=[N+]([O-])c1ccc2c(c1)N[C@@H](c1cc(Cl)cc(Cl)c1)N2
REMARK SMILES IDX 7 1 8 2 5 3 6 4 20 5 10 6 4 7 11 8 9 9 12 12 14 13 13 14
REMARK SMILES IDX 16 15 17 16 19 17 15 18 18 19 2 20 3 21 1 22
REMARK H PARENT 20 10 10 11
ROOT
ATOM      1  C   UNL     1       3.763  12.343  11.998  1.00  0.00     0.060 A 
ATOM      2  C   UNL     1       5.122  12.477  12.153  1.00  0.00     0.066 A 
ATOM      3  C   UNL     1       3.369  14.376  13.119  1.00  0.00     0.088 A 
ATOM      4  C   UNL     1       2.941  13.340  12.246  1.00  0.00     0.035 A 
ATOM      5  N   UNL     1       3.482  11.112  11.285  1.00  0.00    -0.360 N 
ATOM      6  N   UNL     1       5.670  11.364  11.510  1.00  0.00    -0.360 N 
ATOM      7  C   UNL     1       4.726  14.467  13.420  1.00  0.00     0.271 A 
ATOM      8  C   UNL     1       4.661  10.934  10.610  1.00  0.00     0.205 C 
ATOM      9  C   UNL     1       5.632  13.495  12.893  1.00  0.00     0.113 A 
ATOM     10  H   UNL     1       2.631  10.532  11.285  1.00  0.00     0.163 HD
ATOM     11  H   UNL     1       6.601  10.948  11.657  1.00  0.00     0.163 HD
ENDROOT
BRANCH   8  12
ATOM     12  C   UNL     1       4.937   9.569   9.921  1.00  0.00    -0.003 A 
ATOM     13  C   UNL     1       4.084   7.802   8.410  1.00  0.00     0.042 A 
ATOM     14  C   UNL     1       4.309   9.207   8.708  1.00  0.00     0.028 A 
ATOM     15  C   UNL     1       4.998   6.835   9.028  1.00  0.00     0.041 A 
ATOM     16  C   UNL     1       5.905   7.355  10.045  1.00  0.00     0.042 A 
ATOM     17  C   UNL     1       5.787   8.643  10.625  1.00  0.00     0.028 A 
ATOM     18  Cl  UNL     1       3.170   7.238   7.281  1.00  0.00    -0.084 Cl
ATOM     19  Cl  UNL     1       7.106   6.279  10.611  1.00  0.00    -0.084 Cl
ENDBRANCH   8  12
BRANCH   7  20
ATOM     20  N   UNL     1       5.285  15.512  14.127  1.00  0.00     0.062 N 
ATOM     21  O   UNL     1       5.960  15.299  15.066  1.00  0.00    -0.258 OA
ATOM     22  O   UNL     1       5.300  16.743  13.693  1.00  0.00    -0.258 OA
ENDBRANCH   7  20
TORSDOF 2
ENDMDL
MODEL 9
REMARK VINA RESULT:    -3.622      3.964      5.778
REMARK INTER + INTRA:          -4.360
REMARK INTER:                  -4.068
REMARK INTRA:                  -0.292
REMARK UNBOUND:                -0.314
REMARK SMILES O=[N+]([O-])c1ccc2c(c1)N[C@@H](c1cc(Cl)cc(Cl)c1)N2
REMARK SMILES IDX 7 1 8 2 5 3 6 4 20 5 10 6 4 7 11 8 9 9 12 12 14 13 13 14
REMARK SMILES IDX 16 15 17 16 19 17 15 18 18 19 2 20 3 21 1 22
REMARK H PARENT 20 10 10 11
ROOT
ATOM      1  C   UNL     1       5.188  12.506  12.038  1.00  0.00     0.060 A 
ATOM      2  C   UNL     1       3.843  12.383  11.782  1.00  0.00     0.066 A 
ATOM      3  C   UNL     1       4.824  14.397  13.395  1.00  0.00     0.088 A 
ATOM      4  C   UNL     1       5.638  13.309  12.978  1.00  0.00     0.035 A 
ATOM      5  N   UNL     1       5.904  11.451  11.349  1.00  0.00    -0.360 N 
ATOM      6  N   UNL     1       3.732  11.245  10.979  1.00  0.00    -0.360 N 
ATOM      7  C   UNL     1       3.477  14.387  13.036  1.00  0.00     0.271 A 
ATOM      8  C   UNL     1       4.917  10.508  11.230  1.00  0.00     0.205 C 
ATOM      9  C   UNL     1       2.971  13.326  12.224  1.00  0.00     0.113 A 
ATOM     10  H   UNL     1       6.885  11.418  11.036  1.00  0.00     0.163 HD
ATOM     11  H   UNL     1       2.959  10.997  10.344  1.00  0.00     0.163 HD
ENDROOT
BRANCH   8  12
ATOM     12  C   UNL     1       5.143   9.292  10.289  1.00  0.00    -0.003 A 
ATOM     13  C   UNL     1       4.224   7.876   8.478  1.00  0.00     0.042 A 
ATOM     14  C   UNL     1       4.499   9.189   9.036  1.00  0.00     0.028 A 
ATOM     15  C   UNL     1       5.107   6.779   8.889  1.00  0.00     0.041 A 
ATOM     16  C   UNL     1       6.035   7.065   9.978  1.00  0.00     0.042 A 
ATOM     17  C   UNL     1       5.964   8.221  10.794  1.00  0.00     0.028 A 
ATOM     18  Cl  UNL     1       3.286   7.569   7.271  1.00  0.00    -0.084 Cl
ATOM     19  Cl  UNL     1       7.202   5.862  10.315  1.00  0.00    -0.084 Cl
ENDBRANCH   8  12
BRANCH   7  20
ATOM     20  N   UNL     1       2.554  15.299  13.505  1.00  0.00     0.062 N 
ATOM     21  O   UNL     1       2.269  16.239  12.859  1.00  0.00    -0.258 OA
ATOM     22  O   UNL     1       1.792  15.078  14.541  1.00  0.00    -0.258 OA
ENDBRANCH   7  20
TORSDOF 2
ENDMDL
