MODEL 1
REMARK VINA RESULT:    -4.655      0.000      0.000
REMARK INTER + INTRA:          -5.495
REMARK INTER:                  -5.200
REMARK INTRA:                  -0.296
REMARK UNBOUND:                -0.296
REMARK SMILES O=[N+]([O-])c1ccc2c(c1)N[C@@H](c1cc(Cl)cc(Cl)c1)N2
REMARK SMILES IDX 7 1 8 2 5 3 6 4 20 5 10 6 4 7 11 8 9 9 12 12 14 13 13 14
REMARK SMILES IDX 16 15 17 16 19 17 15 18 18 19 2 20 3 21 1 22
REMARK H PARENT 20 10 10 11
ROOT
ATOM      1  C   UNL     1       0.305  -0.239  -1.391  1.00  0.00     0.060 A 
ATOM      2  C   UNL     1       1.066  -0.011  -0.269  1.00  0.00     0.066 A 
ATOM      3  C   UNL     1       2.229  -0.528  -2.719  1.00  0.00     0.088 A 
ATOM      4  C   UNL     1       0.837  -0.708  -2.499  1.00  0.00     0.035 A 
ATOM      5  N   UNL     1      -1.099  -0.159  -1.040  1.00  0.00    -0.360 N 
ATOM      6  N   UNL     1       0.143   0.166   0.764  1.00  0.00    -0.360 N 
ATOM      7  C   UNL     1       3.024  -0.157  -1.637  1.00  0.00     0.271 A 
ATOM      8  C   UNL     1      -1.044  -0.454   0.297  1.00  0.00     0.205 C 
ATOM      9  C   UNL     1       2.418   0.082  -0.364  1.00  0.00     0.113 A 
ATOM     10  H   UNL     1      -1.913   0.058  -1.631  1.00  0.00     0.163 HD
ATOM     11  H   UNL     1       0.291   0.643   1.665  1.00  0.00     0.163 HD
ENDROOT
BRANCH   8  12
ATOM     12  C   UNL     1      -2.301  -0.207   1.177  1.00  0.00    -0.003 A 
ATOM     13  C   UNL     1      -3.264  -0.206   3.459  1.00  0.00     0.042 A 
ATOM     14  C   UNL     1      -2.198   0.155   2.539  1.00  0.00     0.028 A 
ATOM     15  C   UNL     1      -4.607  -0.371   2.890  1.00  0.00     0.041 A 
ATOM     16  C   UNL     1      -4.701  -0.369   1.434  1.00  0.00     0.042 A 
ATOM     17  C   UNL     1      -3.582  -0.462   0.570  1.00  0.00     0.028 A 
ATOM     18  Cl  UNL     1      -3.195  -0.146   5.015  1.00  0.00    -0.084 Cl
ATOM     19  Cl  UNL     1      -6.279  -0.350   0.777  1.00  0.00    -0.084 Cl
ENDBRANCH   8  12
BRANCH   7  20
ATOM     20  N   UNL     1       4.402  -0.100  -1.684  1.00  0.00     0.062 N 
ATOM     21  O   UNL     1       5.047  -0.660  -0.876  1.00  0.00    -0.258 OA
ATOM     22  O   UNL     1       5.065   0.360  -2.710  1.00  0.00    -0.258 OA
ENDBRANCH   7  20
TORSDOF 2
ENDMDL
MODEL 2
REMARK VINA RESULT:    -4.504     10.958     11.717
REMARK INTER + INTRA:          -5.327
REMARK INTER:                  -5.012
REMARK INTRA:                  -0.315
REMARK UNBOUND:                -0.296
REMARK SMILES O=[N+]([O-])c1ccc2c(c1)N[C@@H](c1cc(Cl)cc(Cl)c1)N2
REMARK SMILES IDX 7 1 8 2 5 3 6 4 20 5 10 6 4 7 11 8 9 9 12 12 14 13 13 14
REMARK SMILES IDX 16 15 17 16 19 17 15 18 18 19 2 20 3 21 1 22
REMARK H PARENT 20 10 10 11
ROOT
ATOM      1  C   UNL     1      -2.275 -11.618  -2.046  1.00  0.00     0.060 A 
ATOM      2  C   UNL     1      -2.005 -11.430  -3.380  1.00  0.00     0.066 A 
ATOM      3  C   UNL     1      -2.590 -13.930  -2.368  1.00  0.00     0.088 A 
ATOM      4  C   UNL     1      -2.326 -12.822  -1.518  1.00  0.00     0.035 A 
ATOM      5  N   UNL     1      -2.189 -10.346  -1.357  1.00  0.00    -0.360 N 
ATOM      6  N   UNL     1      -1.720 -10.068  -3.502  1.00  0.00    -0.360 N 
ATOM      7  C   UNL     1      -2.467 -13.749  -3.744  1.00  0.00     0.271 A 
ATOM      8  C   UNL     1      -1.352  -9.658  -2.196  1.00  0.00     0.205 C 
ATOM      9  C   UNL     1      -2.137 -12.458  -4.259  1.00  0.00     0.113 A 
ATOM     10  H   UNL     1      -2.634 -10.042  -0.479  1.00  0.00     0.163 HD
ATOM     11  H   UNL     1      -1.767  -9.489  -4.353  1.00  0.00     0.163 HD
ENDROOT
BRANCH   8  12
ATOM     12  C   UNL     1      -1.193  -8.123  -2.011  1.00  0.00    -0.003 A 
ATOM     13  C   UNL     1      -0.875  -6.250  -0.423  1.00  0.00     0.042 A 
ATOM     14  C   UNL     1      -0.510  -7.572  -0.903  1.00  0.00     0.028 A 
ATOM     15  C   UNL     1      -1.462  -5.325  -1.398  1.00  0.00     0.041 A 
ATOM     16  C   UNL     1      -1.821  -5.889  -2.695  1.00  0.00     0.042 A 
ATOM     17  C   UNL     1      -1.861  -7.279  -2.969  1.00  0.00     0.028 A 
ATOM     18  Cl  UNL     1      -0.439  -5.613   0.932  1.00  0.00    -0.084 Cl
ATOM     19  Cl  UNL     1      -2.307  -4.776  -3.897  1.00  0.00    -0.084 Cl
ENDBRANCH   8  12
BRANCH   7  20
ATOM     20  N   UNL     1      -2.546 -14.777  -4.661  1.00  0.00     0.062 N 
ATOM     21  O   UNL     1      -2.086 -14.651  -5.735  1.00  0.00    -0.258 OA
ATOM     22  O   UNL     1      -2.910 -15.991  -4.346  1.00  0.00    -0.258 OA
ENDBRANCH   7  20
TORSDOF 2
ENDMDL
MODEL 3
REMARK VINA RESULT:    -4.502     10.988     11.843
REMARK INTER + INTRA:          -5.324
REMARK INTER:                  -5.009
REMARK INTRA:                  -0.315
REMARK UNBOUND:                -0.296
REMARK SMILES O=[N+]([O-])c1ccc2c(c1)N[C@@H](c1cc(Cl)cc(Cl)c1)N2
REMARK SMILES IDX 7 1 8 2 5 3 6 4 20 5 10 6 4 7 11 8 9 9 12 12 14 13 13 14
REMARK SMILES IDX 16 15 17 16 19 17 15 18 18 19 2 20 3 21 1 22
REMARK H PARENT 20 10 10 11
ROOT
ATOM      1  C   UNL     1      -1.903 -11.264  -3.617  1.00  0.00     0.060 A 
ATOM      2  C   UNL     1      -2.187 -11.653  -2.330  1.00  0.00     0.066 A 
ATOM      3  C   UNL     1      -2.287 -13.441  -4.431  1.00  0.00     0.088 A 
ATOM      4  C   UNL     1      -2.169 -12.041  -4.645  1.00  0.00     0.035 A 
ATOM      5  N   UNL     1      -1.577  -9.852  -3.628  1.00  0.00    -0.360 N 
ATOM      6  N   UNL     1      -2.075 -10.488  -1.567  1.00  0.00    -0.360 N 
ATOM      7  C   UNL     1      -2.435 -13.897  -3.123  1.00  0.00     0.271 A 
ATOM      8  C   UNL     1      -2.230  -9.431  -2.499  1.00  0.00     0.205 C 
ATOM      9  C   UNL     1      -2.410 -12.962  -2.042  1.00  0.00     0.113 A 
ATOM     10  H   UNL     1      -1.011  -9.313  -4.299  1.00  0.00     0.163 HD
ATOM     11  H   UNL     1      -1.915 -10.414  -0.553  1.00  0.00     0.163 HD
ENDROOT
BRANCH   8  12
ATOM     12  C   UNL     1      -1.928  -8.013  -1.937  1.00  0.00    -0.003 A 
ATOM     13  C   UNL     1      -1.560  -5.619  -2.449  1.00  0.00     0.042 A 
ATOM     14  C   UNL     1      -2.326  -6.841  -2.620  1.00  0.00     0.028 A 
ATOM     15  C   UNL     1      -0.821  -5.465  -1.190  1.00  0.00     0.041 A 
ATOM     16  C   UNL     1      -0.754  -6.641  -0.328  1.00  0.00     0.042 A 
ATOM     17  C   UNL     1      -1.135  -7.943  -0.737  1.00  0.00     0.028 A 
ATOM     18  Cl  UNL     1      -1.674  -4.333  -3.322  1.00  0.00    -0.084 Cl
ATOM     19  Cl  UNL     1      -0.079  -6.405   1.224  1.00  0.00    -0.084 Cl
ENDBRANCH   8  12
BRANCH   7  20
ATOM     20  N   UNL     1      -2.711 -15.209  -2.797  1.00  0.00     0.062 N 
ATOM     21  O   UNL     1      -3.132 -15.480  -1.733  1.00  0.00    -0.258 OA
ATOM     22  O   UNL     1      -2.748 -16.173  -3.677  1.00  0.00    -0.258 OA
ENDBRANCH   7  20
TORSDOF 2
ENDMDL
MODEL 4
REMARK VINA RESULT:    -4.375     10.031     10.832
REMARK INTER + INTRA:          -5.182
REMARK INTER:                  -4.883
REMARK INTRA:                  -0.299
REMARK UNBOUND:                -0.296
REMARK SMILES O=[N+]([O-])c1ccc2c(c1)N[C@@H](c1cc(Cl)cc(Cl)c1)N2
REMARK SMILES IDX 7 1 8 2 5 3 6 4 20 5 10 6 4 7 11 8 9 9 12 12 14 13 13 14
REMARK SMILES IDX 16 15 17 16 19 17 15 18 18 19 2 20 3 21 1 22
REMARK H PARENT 20 10 10 11
ROOT
ATOM      1  C   UNL     1      -1.930  -7.598  -2.766  1.00  0.00     0.060 A 
ATOM      2  C   UNL     1      -1.779  -7.887  -1.431  1.00  0.00     0.066 A 
ATOM      3  C   UNL     1      -1.348  -5.343  -2.410  1.00  0.00     0.088 A 
ATOM      4  C   UNL     1      -1.508  -6.460  -3.275  1.00  0.00     0.035 A 
ATOM      5  N   UNL     1      -2.321  -8.800  -3.475  1.00  0.00    -0.360 N 
ATOM      6  N   UNL     1      -2.037  -9.257  -1.328  1.00  0.00    -0.360 N 
ATOM      7  C   UNL     1      -1.332  -5.571  -1.036  1.00  0.00     0.271 A 
ATOM      8  C   UNL     1      -1.825  -9.763  -2.635  1.00  0.00     0.205 C 
ATOM      9  C   UNL     1      -1.528  -6.896  -0.537  1.00  0.00     0.113 A 
ATOM     10  H   UNL     1      -2.829  -8.903  -4.365  1.00  0.00     0.163 HD
ATOM     11  H   UNL     1      -2.317  -9.782  -0.488  1.00  0.00     0.163 HD
ENDROOT
BRANCH   8  12
ATOM     12  C   UNL     1      -2.259 -11.241  -2.843  1.00  0.00    -0.003 A 
ATOM     13  C   UNL     1      -2.644 -13.452  -1.796  1.00  0.00     0.042 A 
ATOM     14  C   UNL     1      -2.814 -12.009  -1.794  1.00  0.00     0.028 A 
ATOM     15  C   UNL     1      -2.460 -14.100  -3.100  1.00  0.00     0.041 A 
ATOM     16  C   UNL     1      -2.250 -13.215  -4.241  1.00  0.00     0.042 A 
ATOM     17  C   UNL     1      -1.977 -11.829  -4.128  1.00  0.00     0.028 A 
ATOM     18  Cl  UNL     1      -2.932 -14.413  -0.603  1.00  0.00    -0.084 Cl
ATOM     19  Cl  UNL     1      -2.244 -13.954  -5.782  1.00  0.00    -0.084 Cl
ENDBRANCH   8  12
BRANCH   7  20
ATOM     20  N   UNL     1      -1.032  -4.599  -0.103  1.00  0.00     0.062 N 
ATOM     21  O   UNL     1      -1.021  -3.464  -0.411  1.00  0.00    -0.258 OA
ATOM     22  O   UNL     1      -0.973  -4.833   1.180  1.00  0.00    -0.258 OA
ENDBRANCH   7  20
TORSDOF 2
ENDMDL
MODEL 5
REMARK VINA RESULT:    -4.320     10.037     11.013
REMARK INTER + INTRA:          -5.121
REMARK INTER:                  -4.822
REMARK INTRA:                  -0.299
REMARK UNBOUND:                -0.296
REMARK SMILES O=[N+]([O-])c1ccc2c(c1)N[C@@H](c1cc(Cl)cc(Cl)c1)N2
REMARK SMILES IDX 7 1 8 2 5 3 6 4 20 5 10 6 4 7 11 8 9 9 12 12 14 13 13 14
REMARK SMILES IDX 16 15 17 16 19 17 15 18 18 19 2 20 3 21 1 22
REMARK H PARENT 20 10 10 11
ROOT
ATOM      1  C   UNL     1      -1.402  -8.117  -1.118  1.00  0.00     0.060 A 
ATOM      2  C   UNL     1      -1.333  -7.735  -2.436  1.00  0.00     0.066 A 
ATOM      3  C   UNL     1      -1.352  -5.874  -0.398  1.00  0.00     0.088 A 
ATOM      4  C   UNL     1      -1.642  -7.245  -0.162  1.00  0.00     0.035 A 
ATOM      5  N   UNL     1      -1.461  -9.563  -1.041  1.00  0.00    -0.360 N 
ATOM      6  N   UNL     1      -1.388  -8.929  -3.161  1.00  0.00    -0.360 N 
ATOM      7  C   UNL     1      -1.132  -5.464  -1.711  1.00  0.00     0.271 A 
ATOM      8  C   UNL     1      -1.981  -9.862  -2.273  1.00  0.00     0.205 C 
ATOM      9  C   UNL     1      -1.151  -6.430  -2.765  1.00  0.00     0.113 A 
ATOM     10  H   UNL     1      -1.189 -10.192  -0.272  1.00  0.00     0.163 HD
ATOM     11  H   UNL     1      -1.068  -9.094  -4.126  1.00  0.00     0.163 HD
ENDROOT
BRANCH   8  12
ATOM     12  C   UNL     1      -1.959 -11.337  -2.763  1.00  0.00    -0.003 A 
ATOM     13  C   UNL     1      -2.101 -12.879  -4.696  1.00  0.00     0.042 A 
ATOM     14  C   UNL     1      -1.562 -11.680  -4.076  1.00  0.00     0.028 A 
ATOM     15  C   UNL     1      -2.524 -13.961  -3.800  1.00  0.00     0.041 A 
ATOM     16  C   UNL     1      -2.563 -13.647  -2.376  1.00  0.00     0.042 A 
ATOM     17  C   UNL     1      -2.459 -12.335  -1.852  1.00  0.00     0.028 A 
ATOM     18  Cl  UNL     1      -2.004 -13.254  -6.206  1.00  0.00    -0.084 Cl
ATOM     19  Cl  UNL     1      -2.850 -14.959  -1.319  1.00  0.00    -0.084 Cl
ENDBRANCH   8  12
BRANCH   7  20
ATOM     20  N   UNL     1      -0.993  -4.144  -2.087  1.00  0.00     0.062 N 
ATOM     21  O   UNL     1      -0.614  -3.344  -1.314  1.00  0.00    -0.258 OA
ATOM     22  O   UNL     1      -1.044  -3.744  -3.329  1.00  0.00    -0.258 OA
ENDBRANCH   7  20
TORSDOF 2
ENDMDL
MODEL 6
REMARK VINA RESULT:    -4.315      9.952     10.887
REMARK INTER + INTRA:          -5.116
REMARK INTER:                  -4.797
REMARK INTRA:                  -0.319
REMARK UNBOUND:                -0.296
REMARK SMILES O=[N+]([O-])c1ccc2c(c1)N[C@@H](c1cc(Cl)cc(Cl)c1)N2
REMARK SMILES IDX 7 1 8 2 5 3 6 4 20 5 10 6 4 7 11 8 9 9 12 12 14 13 13 14
REMARK SMILES IDX 16 15 17 16 19 17 15 18 18 19 2 20 3 21 1 22
REMARK H PARENT 20 10 10 11
ROOT
ATOM      1  C   UNL     1      -1.687  -7.632  -2.691  1.00  0.00     0.060 A 
ATOM      2  C   UNL     1      -1.534  -7.880  -1.348  1.00  0.00     0.066 A 
ATOM      3  C   UNL     1      -1.383  -5.318  -2.365  1.00  0.00     0.088 A 
ATOM      4  C   UNL     1      -1.391  -6.460  -3.211  1.00  0.00     0.035 A 
ATOM      5  N   UNL     1      -1.917  -8.883  -3.385  1.00  0.00    -0.360 N 
ATOM      6  N   UNL     1      -1.630  -9.268  -1.224  1.00  0.00    -0.360 N 
ATOM      7  C   UNL     1      -1.372  -5.520  -0.986  1.00  0.00     0.271 A 
ATOM      8  C   UNL     1      -1.331  -9.767  -2.517  1.00  0.00     0.205 C 
ATOM      9  C   UNL     1      -1.422  -6.851  -0.467  1.00  0.00     0.113 A 
ATOM     10  H   UNL     1      -2.390  -9.060  -4.283  1.00  0.00     0.163 HD
ATOM     11  H   UNL     1      -1.866  -9.810  -0.380  1.00  0.00     0.163 HD
ENDROOT
BRANCH   8  12
ATOM     12  C   UNL     1      -1.582 -11.289  -2.706  1.00  0.00    -0.003 A 
ATOM     13  C   UNL     1      -2.128 -13.117  -4.285  1.00  0.00     0.042 A 
ATOM     14  C   UNL     1      -1.358 -11.933  -3.944  1.00  0.00     0.028 A 
ATOM     15  C   UNL     1      -2.637 -13.925  -3.171  1.00  0.00     0.041 A 
ATOM     16  C   UNL     1      -2.505 -13.349  -1.837  1.00  0.00     0.042 A 
ATOM     17  C   UNL     1      -2.153 -11.999  -1.590  1.00  0.00     0.028 A 
ATOM     18  Cl  UNL     1      -2.220 -13.779  -5.693  1.00  0.00    -0.084 Cl
ATOM     19  Cl  UNL     1      -2.903 -14.373  -0.527  1.00  0.00    -0.084 Cl
ENDBRANCH   8  12
BRANCH   7  20
ATOM     20  N   UNL     1      -1.210  -4.505  -0.066  1.00  0.00     0.062 N 
ATOM     21  O   UNL     1      -1.026  -4.756   1.068  1.00  0.00    -0.258 OA
ATOM     22  O   UNL     1      -1.024  -3.257  -0.402  1.00  0.00    -0.258 OA
ENDBRANCH   7  20
TORSDOF 2
ENDMDL
MODEL 7
REMARK VINA RESULT:    -4.159     11.165     11.898
REMARK INTER + INTRA:          -4.941
REMARK INTER:                  -4.641
REMARK INTRA:                  -0.299
REMARK UNBOUND:                -0.296
REMARK SMILES O=[N+]([O-])c1ccc2c(c1)N[C@@H](c1cc(Cl)cc(Cl)c1)N2
REMARK SMILES IDX 7 1 8 2 5 3 6 4 20 5 10 6 4 7 11 8 9 9 12 12 14 13 13 14
REMARK SMILES IDX 16 15 17 16 19 17 15 18 18 19 2 20 3 21 1 22
REMARK H PARENT 20 10 10 11
ROOT
ATOM      1  C   UNL     1      -1.915 -11.777  -2.887  1.00  0.00     0.060 A 
ATOM      2  C   UNL     1      -2.284 -11.783  -1.563  1.00  0.00     0.066 A 
ATOM      3  C   UNL     1      -2.496 -14.048  -3.127  1.00  0.00     0.088 A 
ATOM      4  C   UNL     1      -2.224 -12.772  -3.691  1.00  0.00     0.035 A 
ATOM      5  N   UNL     1      -1.443 -10.455  -3.246  1.00  0.00    -0.360 N 
ATOM      6  N   UNL     1      -2.078 -10.472  -1.125  1.00  0.00    -0.360 N 
ATOM      7  C   UNL     1      -2.737 -14.125  -1.757  1.00  0.00     0.271 A 
ATOM      8  C   UNL     1      -2.089  -9.691  -2.309  1.00  0.00     0.205 C 
ATOM      9  C   UNL     1      -2.653 -12.942  -0.958  1.00  0.00     0.113 A 
ATOM     10  H   UNL     1      -0.801 -10.167  -3.998  1.00  0.00     0.163 HD
ATOM     11  H   UNL     1      -1.948 -10.146  -0.157  1.00  0.00     0.163 HD
ENDROOT
BRANCH   8  12
ATOM     12  C   UNL     1      -1.661  -8.209  -2.118  1.00  0.00    -0.003 A 
ATOM     13  C   UNL     1      -0.920  -6.455  -0.535  1.00  0.00     0.042 A 
ATOM     14  C   UNL     1      -0.818  -7.807  -1.057  1.00  0.00     0.028 A 
ATOM     15  C   UNL     1      -1.411  -5.421  -1.453  1.00  0.00     0.041 A 
ATOM     16  C   UNL     1      -1.951  -5.886  -2.726  1.00  0.00     0.042 A 
ATOM     17  C   UNL     1      -2.244  -7.242  -3.013  1.00  0.00     0.028 A 
ATOM     18  Cl  UNL     1      -0.288  -5.933   0.791  1.00  0.00    -0.084 Cl
ATOM     19  Cl  UNL     1      -2.328  -4.678  -3.875  1.00  0.00    -0.084 Cl
ENDBRANCH   8  12
BRANCH   7  20
ATOM     20  N   UNL     1      -3.160 -15.272  -1.118  1.00  0.00     0.062 N 
ATOM     21  O   UNL     1      -3.655 -15.210  -0.053  1.00  0.00    -0.258 OA
ATOM     22  O   UNL     1      -3.254 -16.430  -1.714  1.00  0.00    -0.258 OA
ENDBRANCH   7  20
TORSDOF 2
ENDMDL
MODEL 8
REMARK VINA RESULT:    -4.137     13.565     14.507
REMARK INTER + INTRA:          -4.917
REMARK INTER:                  -4.611
REMARK INTRA:                  -0.305
REMARK UNBOUND:                -0.296
REMARK SMILES O=[N+]([O-])c1ccc2c(c1)N[C@@H](c1cc(Cl)cc(Cl)c1)N2
REMARK SMILES IDX 7 1 8 2 5 3 6 4 20 5 10 6 4 7 11 8 9 9 12 12 14 13 13 14
REMARK SMILES IDX 16 15 17 16 19 17 15 18 18 19 2 20 3 21 1 22
REMARK H PARENT 20 10 10 11
ROOT
ATOM      1  C   UNL     1      -2.864 -14.576  -0.945  1.00  0.00     0.060 A 
ATOM      2  C   UNL     1      -3.884 -13.909  -0.310  1.00  0.00     0.066 A 
ATOM      3  C   UNL     1      -3.761 -16.666  -0.331  1.00  0.00     0.088 A 
ATOM      4  C   UNL     1      -2.919 -15.873  -1.157  1.00  0.00     0.035 A 
ATOM      5  N   UNL     1      -1.962 -13.612  -1.543  1.00  0.00    -0.360 N 
ATOM      6  N   UNL     1      -3.633 -12.555  -0.548  1.00  0.00    -0.360 N 
ATOM      7  C   UNL     1      -4.722 -16.019   0.444  1.00  0.00     0.271 A 
ATOM      8  C   UNL     1      -2.800 -12.539  -1.696  1.00  0.00     0.205 C 
ATOM      9  C   UNL     1      -4.797 -14.591   0.429  1.00  0.00     0.113 A 
ATOM     10  H   UNL     1      -0.966 -13.707  -1.788  1.00  0.00     0.163 HD
ATOM     11  H   UNL     1      -3.976 -11.747  -0.009  1.00  0.00     0.163 HD
ENDROOT
BRANCH   8  12
ATOM     12  C   UNL     1      -2.194 -11.151  -2.046  1.00  0.00    -0.003 A 
ATOM     13  C   UNL     1      -0.317  -9.570  -1.719  1.00  0.00     0.042 A 
ATOM     14  C   UNL     1      -0.802 -10.912  -1.994  1.00  0.00     0.028 A 
ATOM     15  C   UNL     1      -1.194  -8.454  -2.093  1.00  0.00     0.041 A 
ATOM     16  C   UNL     1      -2.550  -8.803  -2.504  1.00  0.00     0.042 A 
ATOM     17  C   UNL     1      -3.123 -10.087  -2.330  1.00  0.00     0.028 A 
ATOM     18  Cl  UNL     1       1.146  -9.180  -1.347  1.00  0.00    -0.084 Cl
ATOM     19  Cl  UNL     1      -3.501  -7.531  -3.136  1.00  0.00    -0.084 Cl
ENDBRANCH   8  12
BRANCH   7  20
ATOM     20  N   UNL     1      -5.694 -16.680   1.166  1.00  0.00     0.062 N 
ATOM     21  O   UNL     1      -5.471 -17.053   2.258  1.00  0.00    -0.258 OA
ATOM     22  O   UNL     1      -6.946 -16.731   0.800  1.00  0.00    -0.258 OA
ENDBRANCH   7  20
TORSDOF 2
ENDMDL
MODEL 9
REMARK VINA RESULT:    -4.135     10.939     11.822
REMARK INTER + INTRA:          -4.914
REMARK INTER:                  -4.615
REMARK INTRA:                  -0.299
REMARK UNBOUND:                -0.296
REMARK SMILES O=[N+]([O-])c1ccc2c(c1)N[C@@H](c1cc(Cl)cc(Cl)c1)N2
REMARK SMILES IDX 7 1 8 2 5 3 6 4 20 5 10 6 4 7 11 8 9 9 12 12 14 13 13 14
REMARK SMILES IDX 16 15 17 16 19 17 15 18 18 19 2 20 3 21 1 22
REMARK H PARENT 20 10 10 11
ROOT
ATOM      1  C   UNL     1      -2.344 -11.733  -2.798  1.00  0.00     0.060 A 
ATOM      2  C   UNL     1      -1.916 -11.236  -4.006  1.00  0.00     0.066 A 
ATOM      3  C   UNL     1      -2.467 -13.919  -3.666  1.00  0.00     0.088 A 
ATOM      4  C   UNL     1      -2.387 -13.027  -2.563  1.00  0.00     0.035 A 
ATOM      5  N   UNL     1      -2.430 -10.649  -1.839  1.00  0.00    -0.360 N 
ATOM      6  N   UNL     1      -1.705  -9.873  -3.781  1.00  0.00    -0.360 N 
ATOM      7  C   UNL     1      -2.179 -13.424  -4.936  1.00  0.00     0.271 A 
ATOM      8  C   UNL     1      -1.536  -9.761  -2.377  1.00  0.00     0.205 C 
ATOM      9  C   UNL     1      -1.867 -12.039  -5.101  1.00  0.00     0.113 A 
ATOM     10  H   UNL     1      -3.003 -10.569  -0.987  1.00  0.00     0.163 HD
ATOM     11  H   UNL     1      -1.678  -9.117  -4.480  1.00  0.00     0.163 HD
ENDROOT
BRANCH   8  12
ATOM     12  C   UNL     1      -1.501  -8.304  -1.837  1.00  0.00    -0.003 A 
ATOM     13  C   UNL     1      -1.589  -5.890  -2.382  1.00  0.00     0.042 A 
ATOM     14  C   UNL     1      -2.115  -7.237  -2.530  1.00  0.00     0.028 A 
ATOM     15  C   UNL     1      -0.883  -5.584  -1.133  1.00  0.00     0.041 A 
ATOM     16  C   UNL     1      -0.592  -6.714  -0.257  1.00  0.00     0.042 A 
ATOM     17  C   UNL     1      -0.726  -8.070  -0.645  1.00  0.00     0.028 A 
ATOM     18  Cl  UNL     1      -1.947  -4.661  -3.271  1.00  0.00    -0.084 Cl
ATOM     19  Cl  UNL     1       0.039  -6.334   1.286  1.00  0.00    -0.084 Cl
ENDBRANCH   8  12
BRANCH   7  20
ATOM     20  N   UNL     1      -2.072 -14.217  -6.061  1.00  0.00     0.062 N 
ATOM     21  O   UNL     1      -1.578 -13.795  -7.040  1.00  0.00    -0.258 OA
ATOM     22  O   UNL     1      -2.286 -15.505  -6.051  1.00  0.00    -0.258 OA
ENDBRANCH   7  20
TORSDOF 2
ENDMDL
