MODEL 1
REMARK VINA RESULT:    -4.580      0.000      0.000
REMARK INTER + INTRA:          -5.411
REMARK INTER:                  -5.115
REMARK INTRA:                  -0.296
REMARK UNBOUND:                -0.296
REMARK SMILES O=[N+]([O-])c1ccc2c(c1)N[C@@H](c1cc(Cl)cc(Cl)c1)N2
REMARK SMILES IDX 7 1 8 2 5 3 6 4 20 5 10 6 4 7 11 8 9 9 12 12 14 13 13 14
REMARK SMILES IDX 16 15 17 16 19 17 15 18 18 19 2 20 3 21 1 22
REMARK H PARENT 20 10 10 11
ROOT
ATOM      1  C   UNL     1      -0.746   0.270  -1.129  1.00  0.00     0.060 A 
ATOM      2  C   UNL     1      -1.511   0.111  -2.260  1.00  0.00     0.066 A 
ATOM      3  C   UNL     1      -2.579   1.142   0.067  1.00  0.00     0.088 A 
ATOM      4  C   UNL     1      -1.292   0.540   0.037  1.00  0.00     0.035 A 
ATOM      5  N   UNL     1       0.605  -0.180  -1.398  1.00  0.00    -0.360 N 
ATOM      6  N   UNL     1      -0.651  -0.465  -3.199  1.00  0.00    -0.360 N 
ATOM      7  C   UNL     1      -3.339   1.131  -1.101  1.00  0.00     0.271 A 
ATOM      8  C   UNL     1       0.381  -1.057  -2.427  1.00  0.00     0.205 C 
ATOM      9  C   UNL     1      -2.789   0.570  -2.296  1.00  0.00     0.113 A 
ATOM     10  H   UNL     1       1.489   0.085  -0.942  1.00  0.00     0.163 HD
ATOM     11  H   UNL     1      -0.745  -0.461  -4.224  1.00  0.00     0.163 HD
ENDROOT
BRANCH   8  12
ATOM     12  C   UNL     1       1.592  -1.584  -3.247  1.00  0.00    -0.003 A 
ATOM     13  C   UNL     1       2.355  -2.925  -5.184  1.00  0.00     0.042 A 
ATOM     14  C   UNL     1       1.477  -1.915  -4.616  1.00  0.00     0.028 A 
ATOM     15  C   UNL     1       3.658  -3.116  -4.536  1.00  0.00     0.041 A 
ATOM     16  C   UNL     1       3.858  -2.431  -3.264  1.00  0.00     0.042 A 
ATOM     17  C   UNL     1       2.817  -1.816  -2.524  1.00  0.00     0.028 A 
ATOM     18  Cl  UNL     1       2.186  -3.612  -6.573  1.00  0.00    -0.084 Cl
ATOM     19  Cl  UNL     1       5.438  -2.482  -2.616  1.00  0.00    -0.084 Cl
ENDBRANCH   8  12
BRANCH   7  20
ATOM     20  N   UNL     1      -4.654   1.543  -1.163  1.00  0.00     0.062 N 
ATOM     21  O   UNL     1      -5.471   0.850  -1.647  1.00  0.00    -0.258 OA
ATOM     22  O   UNL     1      -5.111   2.578  -0.511  1.00  0.00    -0.258 OA
ENDBRANCH   7  20
TORSDOF 2
ENDMDL
MODEL 2
REMARK VINA RESULT:    -4.577      5.114      7.770
REMARK INTER + INTRA:          -5.408
REMARK INTER:                  -5.112
REMARK INTRA:                  -0.296
REMARK UNBOUND:                -0.296
REMARK SMILES O=[N+]([O-])c1ccc2c(c1)N[C@@H](c1cc(Cl)cc(Cl)c1)N2
REMARK SMILES IDX 7 1 8 2 5 3 6 4 20 5 10 6 4 7 11 8 9 9 12 12 14 13 13 14
REMARK SMILES IDX 16 15 17 16 19 17 15 18 18 19 2 20 3 21 1 22
REMARK H PARENT 20 10 10 11
ROOT
ATOM      1  C   UNL     1       0.386  -1.729  -3.176  1.00  0.00     0.060 A 
ATOM      2  C   UNL     1       1.240  -0.707  -2.839  1.00  0.00     0.066 A 
ATOM      3  C   UNL     1       2.174  -3.057  -3.945  1.00  0.00     0.088 A 
ATOM      4  C   UNL     1       0.836  -2.927  -3.484  1.00  0.00     0.035 A 
ATOM      5  N   UNL     1      -0.973  -1.343  -2.852  1.00  0.00    -0.360 N 
ATOM      6  N   UNL     1       0.422   0.278  -2.280  1.00  0.00    -0.360 N 
ATOM      7  C   UNL     1       3.044  -1.986  -3.752  1.00  0.00     0.271 A 
ATOM      8  C   UNL     1      -0.747  -0.414  -1.871  1.00  0.00     0.205 C 
ATOM      9  C   UNL     1       2.560  -0.781  -3.153  1.00  0.00     0.113 A 
ATOM     10  H   UNL     1      -1.863  -1.676  -3.249  1.00  0.00     0.163 HD
ATOM     11  H   UNL     1       0.622   1.284  -2.186  1.00  0.00     0.163 HD
ENDROOT
BRANCH   8  12
ATOM     12  C   UNL     1      -1.919   0.496  -1.409  1.00  0.00    -0.003 A 
ATOM     13  C   UNL     1      -2.621   2.421  -0.017  1.00  0.00     0.042 A 
ATOM     14  C   UNL     1      -1.704   1.824  -0.974  1.00  0.00     0.028 A 
ATOM     15  C   UNL     1      -3.994   1.904   0.001  1.00  0.00     0.041 A 
ATOM     16  C   UNL     1      -4.247   0.702  -0.787  1.00  0.00     0.042 A 
ATOM     17  C   UNL     1      -3.226  -0.105  -1.347  1.00  0.00     0.028 A 
ATOM     18  Cl  UNL     1      -2.389   3.741   0.778  1.00  0.00    -0.084 Cl
ATOM     19  Cl  UNL     1      -5.881   0.222  -0.934  1.00  0.00    -0.084 Cl
ENDBRANCH   8  12
BRANCH   7  20
ATOM     20  N   UNL     1       4.398  -2.043  -4.014  1.00  0.00     0.062 N 
ATOM     21  O   UNL     1       5.174  -1.705  -3.198  1.00  0.00    -0.258 OA
ATOM     22  O   UNL     1       4.902  -2.666  -5.045  1.00  0.00    -0.258 OA
ENDBRANCH   7  20
TORSDOF 2
ENDMDL
MODEL 3
REMARK VINA RESULT:    -4.558      1.029      2.689
REMARK INTER + INTRA:          -5.387
REMARK INTER:                  -5.090
REMARK INTRA:                  -0.297
REMARK UNBOUND:                -0.296
REMARK SMILES O=[N+]([O-])c1ccc2c(c1)N[C@@H](c1cc(Cl)cc(Cl)c1)N2
REMARK SMILES IDX 7 1 8 2 5 3 6 4 20 5 10 6 4 7 11 8 9 9 12 12 14 13 13 14
REMARK SMILES IDX 16 15 17 16 19 17 15 18 18 19 2 20 3 21 1 22
REMARK H PARENT 20 10 10 11
ROOT
ATOM      1  C   UNL     1      -1.671  -0.110  -2.338  1.00  0.00     0.060 A 
ATOM      2  C   UNL     1      -0.921   0.120  -1.209  1.00  0.00     0.066 A 
ATOM      3  C   UNL     1      -3.425   1.236  -1.526  1.00  0.00     0.088 A 
ATOM      4  C   UNL     1      -2.752   0.592  -2.599  1.00  0.00     0.035 A 
ATOM      5  N   UNL     1      -0.931  -0.975  -3.236  1.00  0.00    -0.360 N 
ATOM      6  N   UNL     1       0.278  -0.564  -1.428  1.00  0.00    -0.360 N 
ATOM      7  C   UNL     1      -2.755   1.367  -0.312  1.00  0.00     0.271 A 
ATOM      8  C   UNL     1       0.354  -0.719  -2.835  1.00  0.00     0.205 C 
ATOM      9  C   UNL     1      -1.446   0.810  -0.164  1.00  0.00     0.113 A 
ATOM     10  H   UNL     1      -1.276  -1.608  -3.971  1.00  0.00     0.163 HD
ATOM     11  H   UNL     1       0.957  -0.884  -0.722  1.00  0.00     0.163 HD
ENDROOT
BRANCH   8  12
ATOM     12  C   UNL     1       1.498  -1.646  -3.331  1.00  0.00    -0.003 A 
ATOM     13  C   UNL     1       3.894  -2.251  -3.161  1.00  0.00     0.042 A 
ATOM     14  C   UNL     1       2.624  -1.935  -2.528  1.00  0.00     0.028 A 
ATOM     15  C   UNL     1       3.840  -2.835  -4.506  1.00  0.00     0.041 A 
ATOM     16  C   UNL     1       2.536  -2.842  -5.160  1.00  0.00     0.042 A 
ATOM     17  C   UNL     1       1.411  -2.120  -4.689  1.00  0.00     0.028 A 
ATOM     18  Cl  UNL     1       5.282  -2.313  -2.455  1.00  0.00    -0.084 Cl
ATOM     19  Cl  UNL     1       2.431  -3.706  -6.631  1.00  0.00    -0.084 Cl
ENDBRANCH   8  12
BRANCH   7  20
ATOM     20  N   UNL     1      -3.236   2.101   0.753  1.00  0.00     0.062 N 
ATOM     21  O   UNL     1      -2.541   2.872   1.304  1.00  0.00    -0.258 OA
ATOM     22  O   UNL     1      -4.502   2.164   1.065  1.00  0.00    -0.258 OA
ENDBRANCH   7  20
TORSDOF 2
ENDMDL
MODEL 4
REMARK VINA RESULT:    -4.372      4.985      7.438
REMARK INTER + INTRA:          -5.179
REMARK INTER:                  -4.882
REMARK INTRA:                  -0.297
REMARK UNBOUND:                -0.296
REMARK SMILES O=[N+]([O-])c1ccc2c(c1)N[C@@H](c1cc(Cl)cc(Cl)c1)N2
REMARK SMILES IDX 7 1 8 2 5 3 6 4 20 5 10 6 4 7 11 8 9 9 12 12 14 13 13 14
REMARK SMILES IDX 16 15 17 16 19 17 15 18 18 19 2 20 3 21 1 22
REMARK H PARENT 20 10 10 11
ROOT
ATOM      1  C   UNL     1       1.286  -0.545  -2.571  1.00  0.00     0.060 A 
ATOM      2  C   UNL     1       0.466  -1.577  -2.961  1.00  0.00     0.066 A 
ATOM      3  C   UNL     1       3.090  -1.424  -3.804  1.00  0.00     0.088 A 
ATOM      4  C   UNL     1       2.453  -0.339  -3.144  1.00  0.00     0.035 A 
ATOM      5  N   UNL     1       0.544   0.356  -1.712  1.00  0.00    -0.360 N 
ATOM      6  N   UNL     1      -0.773  -1.293  -2.381  1.00  0.00    -0.360 N 
ATOM      7  C   UNL     1       2.332  -2.556  -4.095  1.00  0.00     0.271 A 
ATOM      8  C   UNL     1      -0.739   0.101  -2.122  1.00  0.00     0.205 C 
ATOM      9  C   UNL     1       0.965  -2.616  -3.680  1.00  0.00     0.113 A 
ATOM     10  H   UNL     1       0.886   1.009  -0.992  1.00  0.00     0.163 HD
ATOM     11  H   UNL     1      -1.541  -1.951  -2.185  1.00  0.00     0.163 HD
ENDROOT
BRANCH   8  12
ATOM     12  C   UNL     1      -1.924   0.638  -1.271  1.00  0.00    -0.003 A 
ATOM     13  C   UNL     1      -4.374   0.649  -0.908  1.00  0.00     0.042 A 
ATOM     14  C   UNL     1      -3.138  -0.076  -1.151  1.00  0.00     0.028 A 
ATOM     15  C   UNL     1      -4.264   1.942  -0.223  1.00  0.00     0.041 A 
ATOM     16  C   UNL     1      -2.916   2.471  -0.045  1.00  0.00     0.042 A 
ATOM     17  C   UNL     1      -1.769   1.947  -0.691  1.00  0.00     0.028 A 
ATOM     18  Cl  UNL     1      -5.816   0.071  -1.030  1.00  0.00    -0.084 Cl
ATOM     19  Cl  UNL     1      -2.773   3.866   0.933  1.00  0.00    -0.084 Cl
ENDBRANCH   8  12
BRANCH   7  20
ATOM     20  N   UNL     1       2.789  -3.607  -4.863  1.00  0.00     0.062 N 
ATOM     21  O   UNL     1       2.132  -4.032  -5.740  1.00  0.00    -0.258 OA
ATOM     22  O   UNL     1       4.022  -4.035  -4.828  1.00  0.00    -0.258 OA
ENDBRANCH   7  20
TORSDOF 2
ENDMDL
MODEL 5
REMARK VINA RESULT:    -4.206     10.918     11.630
REMARK INTER + INTRA:          -4.994
REMARK INTER:                  -4.678
REMARK INTRA:                  -0.315
REMARK UNBOUND:                -0.296
REMARK SMILES O=[N+]([O-])c1ccc2c(c1)N[C@@H](c1cc(Cl)cc(Cl)c1)N2
REMARK SMILES IDX 7 1 8 2 5 3 6 4 20 5 10 6 4 7 11 8 9 9 12 12 14 13 13 14
REMARK SMILES IDX 16 15 17 16 19 17 15 18 18 19 2 20 3 21 1 22
REMARK H PARENT 20 10 10 11
ROOT
ATOM      1  C   UNL     1      -0.069   7.917 -10.420  1.00  0.00     0.060 A 
ATOM      2  C   UNL     1       1.301   7.901 -10.311  1.00  0.00     0.066 A 
ATOM      3  C   UNL     1       0.012   9.657 -12.006  1.00  0.00     0.088 A 
ATOM      4  C   UNL     1      -0.675   8.581 -11.382  1.00  0.00     0.035 A 
ATOM      5  N   UNL     1      -0.630   6.910  -9.542  1.00  0.00    -0.360 N 
ATOM      6  N   UNL     1       1.579   6.872  -9.408  1.00  0.00    -0.360 N 
ATOM      7  C   UNL     1       1.387   9.765 -11.809  1.00  0.00     0.271 A 
ATOM      8  C   UNL     1       0.427   6.045  -9.438  1.00  0.00     0.205 C 
ATOM      9  C   UNL     1       2.052   8.835 -10.951  1.00  0.00     0.113 A 
ATOM     10  H   UNL     1      -1.566   6.858  -9.114  1.00  0.00     0.163 HD
ATOM     11  H   UNL     1       2.432   6.742  -8.845  1.00  0.00     0.163 HD
ENDROOT
BRANCH   8  12
ATOM     12  C   UNL     1       0.391   4.934  -8.351  1.00  0.00    -0.003 A 
ATOM     13  C   UNL     1      -0.960   3.206  -7.202  1.00  0.00     0.042 A 
ATOM     14  C   UNL     1      -0.511   3.849  -8.426  1.00  0.00     0.028 A 
ATOM     15  C   UNL     1      -0.062   3.277  -6.044  1.00  0.00     0.041 A 
ATOM     16  C   UNL     1       1.090   4.163  -6.168  1.00  0.00     0.042 A 
ATOM     17  C   UNL     1       1.249   5.112  -7.208  1.00  0.00     0.028 A 
ATOM     18  Cl  UNL     1      -2.147   2.204  -7.073  1.00  0.00    -0.084 Cl
ATOM     19  Cl  UNL     1       2.243   4.087  -4.909  1.00  0.00    -0.084 Cl
ENDBRANCH   8  12
BRANCH   7  20
ATOM     20  N   UNL     1       2.187  10.668 -12.478  1.00  0.00     0.062 N 
ATOM     21  O   UNL     1       3.344  10.482 -12.568  1.00  0.00    -0.258 OA
ATOM     22  O   UNL     1       1.714  11.628 -13.225  1.00  0.00    -0.258 OA
ENDBRANCH   7  20
TORSDOF 2
ENDMDL
MODEL 6
REMARK VINA RESULT:    -4.200     10.794     11.589
REMARK INTER + INTRA:          -4.987
REMARK INTER:                  -4.672
REMARK INTRA:                  -0.315
REMARK UNBOUND:                -0.296
REMARK SMILES O=[N+]([O-])c1ccc2c(c1)N[C@@H](c1cc(Cl)cc(Cl)c1)N2
REMARK SMILES IDX 7 1 8 2 5 3 6 4 20 5 10 6 4 7 11 8 9 9 12 12 14 13 13 14
REMARK SMILES IDX 16 15 17 16 19 17 15 18 18 19 2 20 3 21 1 22
REMARK H PARENT 20 10 10 11
ROOT
ATOM      1  C   UNL     1       1.360   7.994 -10.209  1.00  0.00     0.060 A 
ATOM      2  C   UNL     1      -0.010   8.030 -10.313  1.00  0.00     0.066 A 
ATOM      3  C   UNL     1       1.594   9.680 -11.837  1.00  0.00     0.088 A 
ATOM      4  C   UNL     1       2.115   8.923 -10.752  1.00  0.00     0.035 A 
ATOM      5  N   UNL     1       1.738   7.003  -9.221  1.00  0.00    -0.360 N 
ATOM      6  N   UNL     1      -0.469   7.102  -9.374  1.00  0.00    -0.360 N 
ATOM      7  C   UNL     1       0.222   9.636 -12.071  1.00  0.00     0.271 A 
ATOM      8  C   UNL     1       0.602   6.960  -8.455  1.00  0.00     0.205 C 
ATOM      9  C   UNL     1      -0.607   8.800 -11.260  1.00  0.00     0.113 A 
ATOM     10  H   UNL     1       2.617   6.476  -9.121  1.00  0.00     0.163 HD
ATOM     11  H   UNL     1      -1.382   6.626  -9.355  1.00  0.00     0.163 HD
ENDROOT
BRANCH   8  12
ATOM     12  C   UNL     1       0.430   5.811  -7.422  1.00  0.00    -0.003 A 
ATOM     13  C   UNL     1       1.488   4.448  -5.647  1.00  0.00     0.042 A 
ATOM     14  C   UNL     1       1.213   5.742  -6.248  1.00  0.00     0.028 A 
ATOM     15  C   UNL     1       0.511   3.380  -5.886  1.00  0.00     0.041 A 
ATOM     16  C   UNL     1      -0.525   3.657  -6.876  1.00  0.00     0.042 A 
ATOM     17  C   UNL     1      -0.495   4.761  -7.764  1.00  0.00     0.028 A 
ATOM     18  Cl  UNL     1       2.546   4.156  -4.540  1.00  0.00    -0.084 Cl
ATOM     19  Cl  UNL     1      -1.779   2.503  -7.003  1.00  0.00    -0.084 Cl
ENDBRANCH   8  12
BRANCH   7  20
ATOM     20  N   UNL     1      -0.424  10.439 -12.989  1.00  0.00     0.062 N 
ATOM     21  O   UNL     1      -1.573  10.661 -12.879  1.00  0.00    -0.258 OA
ATOM     22  O   UNL     1       0.206  11.167 -13.871  1.00  0.00    -0.258 OA
ENDBRANCH   7  20
TORSDOF 2
ENDMDL
MODEL 7
REMARK VINA RESULT:    -3.964     14.945     16.079
REMARK INTER + INTRA:          -4.723
REMARK INTER:                  -4.410
REMARK INTRA:                  -0.313
REMARK UNBOUND:                -0.296
REMARK SMILES O=[N+]([O-])c1ccc2c(c1)N[C@@H](c1cc(Cl)cc(Cl)c1)N2
REMARK SMILES IDX 7 1 8 2 5 3 6 4 20 5 10 6 4 7 11 8 9 9 12 12 14 13 13 14
REMARK SMILES IDX 16 15 17 16 19 17 15 18 18 19 2 20 3 21 1 22
REMARK H PARENT 20 10 10 11
ROOT
ATOM      1  C   UNL     1       4.833   9.615 -12.804  1.00  0.00     0.060 A 
ATOM      2  C   UNL     1       4.157  10.811 -12.844  1.00  0.00     0.066 A 
ATOM      3  C   UNL     1       6.693  10.556 -13.902  1.00  0.00     0.088 A 
ATOM      4  C   UNL     1       6.115   9.540 -13.093  1.00  0.00     0.035 A 
ATOM      5  N   UNL     1       4.008   8.620 -12.149  1.00  0.00    -0.360 N 
ATOM      6  N   UNL     1       2.949  10.564 -12.187  1.00  0.00    -0.360 N 
ATOM      7  C   UNL     1       5.979  11.737 -14.088  1.00  0.00     0.271 A 
ATOM      8  C   UNL     1       3.201   9.423 -11.384  1.00  0.00     0.205 C 
ATOM      9  C   UNL     1       4.676  11.872 -13.514  1.00  0.00     0.113 A 
ATOM     10  H   UNL     1       4.023   7.594 -12.233  1.00  0.00     0.163 HD
ATOM     11  H   UNL     1       2.069  11.094 -12.268  1.00  0.00     0.163 HD
ENDROOT
BRANCH   8  12
ATOM     12  C   UNL     1       1.944   8.806 -10.710  1.00  0.00    -0.003 A 
ATOM     13  C   UNL     1       1.036   6.987  -9.295  1.00  0.00     0.042 A 
ATOM     14  C   UNL     1       2.039   8.008  -9.547  1.00  0.00     0.028 A 
ATOM     15  C   UNL     1      -0.294   7.202  -9.876  1.00  0.00     0.041 A 
ATOM     16  C   UNL     1      -0.420   8.305 -10.823  1.00  0.00     0.042 A 
ATOM     17  C   UNL     1       0.684   8.998 -11.380  1.00  0.00     0.028 A 
ATOM     18  Cl  UNL     1       1.132   5.846  -8.238  1.00  0.00    -0.084 Cl
ATOM     19  Cl  UNL     1      -2.005   8.686 -11.337  1.00  0.00    -0.084 Cl
ENDBRANCH   8  12
BRANCH   7  20
ATOM     20  N   UNL     1       6.493  12.851 -14.720  1.00  0.00     0.062 N 
ATOM     21  O   UNL     1       7.543  12.802 -15.247  1.00  0.00    -0.258 OA
ATOM     22  O   UNL     1       5.787  13.920 -14.972  1.00  0.00    -0.258 OA
ENDBRANCH   7  20
TORSDOF 2
ENDMDL
MODEL 8
REMARK VINA RESULT:    -3.955     14.413     15.109
REMARK INTER + INTRA:          -4.713
REMARK INTER:                  -4.400
REMARK INTRA:                  -0.313
REMARK UNBOUND:                -0.296
REMARK SMILES O=[N+]([O-])c1ccc2c(c1)N[C@@H](c1cc(Cl)cc(Cl)c1)N2
REMARK SMILES IDX 7 1 8 2 5 3 6 4 20 5 10 6 4 7 11 8 9 9 12 12 14 13 13 14
REMARK SMILES IDX 16 15 17 16 19 17 15 18 18 19 2 20 3 21 1 22
REMARK H PARENT 20 10 10 11
ROOT
ATOM      1  C   UNL     1      -3.071  10.954 -12.190  1.00  0.00     0.060 A 
ATOM      2  C   UNL     1      -2.264  11.011 -13.301  1.00  0.00     0.066 A 
ATOM      3  C   UNL     1      -4.713  12.282 -13.234  1.00  0.00     0.088 A 
ATOM      4  C   UNL     1      -4.324  11.356 -12.229  1.00  0.00     0.035 A 
ATOM      5  N   UNL     1      -2.422  10.157 -11.168  1.00  0.00    -0.360 N 
ATOM      6  N   UNL     1      -1.152  10.228 -12.980  1.00  0.00    -0.360 N 
ATOM      7  C   UNL     1      -3.857  12.481 -14.314  1.00  0.00     0.271 A 
ATOM      8  C   UNL     1      -1.599   9.377 -11.938  1.00  0.00     0.205 C 
ATOM      9  C   UNL     1      -2.602  11.798 -14.356  1.00  0.00     0.113 A 
ATOM     10  H   UNL     1      -2.545  10.172 -10.146  1.00  0.00     0.163 HD
ATOM     11  H   UNL     1      -0.215  10.262 -13.407  1.00  0.00     0.163 HD
ENDROOT
BRANCH   8  12
ATOM     12  C   UNL     1      -0.482   8.546 -11.247  1.00  0.00    -0.003 A 
ATOM     13  C   UNL     1       0.095   6.947  -9.446  1.00  0.00     0.042 A 
ATOM     14  C   UNL     1      -0.767   7.355 -10.542  1.00  0.00     0.028 A 
ATOM     15  C   UNL     1       1.489   7.405  -9.490  1.00  0.00     0.041 A 
ATOM     16  C   UNL     1       1.817   8.395 -10.509  1.00  0.00     0.042 A 
ATOM     17  C   UNL     1       0.849   9.098 -11.269  1.00  0.00     0.028 A 
ATOM     18  Cl  UNL     1      -0.218   5.842  -8.393  1.00  0.00    -0.084 Cl
ATOM     19  Cl  UNL     1       3.474   8.770 -10.697  1.00  0.00    -0.084 Cl
ENDBRANCH   8  12
BRANCH   7  20
ATOM     20  N   UNL     1      -4.186  13.233 -15.423  1.00  0.00     0.062 N 
ATOM     21  O   UNL     1      -5.119  13.949 -15.399  1.00  0.00    -0.258 OA
ATOM     22  O   UNL     1      -3.394  13.379 -16.451  1.00  0.00    -0.258 OA
ENDBRANCH   7  20
TORSDOF 2
ENDMDL
MODEL 9
REMARK VINA RESULT:    -3.927     13.811     14.926
REMARK INTER + INTRA:          -4.682
REMARK INTER:                  -4.377
REMARK INTRA:                  -0.305
REMARK UNBOUND:                -0.296
REMARK SMILES O=[N+]([O-])c1ccc2c(c1)N[C@@H](c1cc(Cl)cc(Cl)c1)N2
REMARK SMILES IDX 7 1 8 2 5 3 6 4 20 5 10 6 4 7 11 8 9 9 12 12 14 13 13 14
REMARK SMILES IDX 16 15 17 16 19 17 15 18 18 19 2 20 3 21 1 22
REMARK H PARENT 20 10 10 11
ROOT
ATOM      1  C   UNL     1       3.596  10.342 -11.861  1.00  0.00     0.060 A 
ATOM      2  C   UNL     1       4.324   9.188 -12.032  1.00  0.00     0.066 A 
ATOM      3  C   UNL     1       5.022  11.534 -13.308  1.00  0.00     0.088 A 
ATOM      4  C   UNL     1       3.780  11.391 -12.633  1.00  0.00     0.035 A 
ATOM      5  N   UNL     1       2.492  10.081 -10.959  1.00  0.00    -0.360 N 
ATOM      6  N   UNL     1       3.654   8.223 -11.276  1.00  0.00    -0.360 N 
ATOM      7  C   UNL     1       5.862  10.425 -13.384  1.00  0.00     0.271 A 
ATOM      8  C   UNL     1       2.337   8.730 -11.130  1.00  0.00     0.205 C 
ATOM      9  C   UNL     1       5.481   9.205 -12.744  1.00  0.00     0.113 A 
ATOM     10  H   UNL     1       1.967  10.730 -10.356  1.00  0.00     0.163 HD
ATOM     11  H   UNL     1       4.032   7.339 -10.907  1.00  0.00     0.163 HD
ENDROOT
BRANCH   8  12
ATOM     12  C   UNL     1       1.439   7.941 -10.137  1.00  0.00    -0.003 A 
ATOM     13  C   UNL     1       0.727   7.632  -7.785  1.00  0.00     0.042 A 
ATOM     14  C   UNL     1       1.008   8.503  -8.914  1.00  0.00     0.028 A 
ATOM     15  C   UNL     1       0.322   6.255  -8.090  1.00  0.00     0.041 A 
ATOM     16  C   UNL     1       0.448   5.834  -9.481  1.00  0.00     0.042 A 
ATOM     17  C   UNL     1       1.146   6.570 -10.471  1.00  0.00     0.028 A 
ATOM     18  Cl  UNL     1       0.524   8.082  -6.307  1.00  0.00    -0.084 Cl
ATOM     19  Cl  UNL     1      -0.217   4.309  -9.874  1.00  0.00    -0.084 Cl
ENDBRANCH   8  12
BRANCH   7  20
ATOM     20  N   UNL     1       7.018  10.392 -14.137  1.00  0.00     0.062 N 
ATOM     21  O   UNL     1       7.970  10.987 -13.790  1.00  0.00    -0.258 OA
ATOM     22  O   UNL     1       7.209   9.551 -15.118  1.00  0.00    -0.258 OA
ENDBRANCH   7  20
TORSDOF 2
ENDMDL
