MODEL 1
REMARK VINA RESULT:    -4.400      0.000      0.000
REMARK INTER + INTRA:          -5.230
REMARK INTER:                  -4.915
REMARK INTRA:                  -0.316
REMARK UNBOUND:                -0.316
REMARK SMILES O=[N+]([O-])c1ccc2c(c1)N[C@@H](c1cc(Cl)cc(Cl)c1)N2
REMARK SMILES IDX 7 1 8 2 5 3 6 4 20 5 10 6 4 7 11 8 9 9 12 12 14 13 13 14
REMARK SMILES IDX 16 15 17 16 19 17 15 18 18 19 2 20 3 21 1 22
REMARK H PARENT 20 10 10 11
ROOT
ATOM      1  C   UNL     1       6.566  10.224  -3.156  1.00  0.00     0.060 A 
ATOM      2  C   UNL     1       5.476  10.932  -2.709  1.00  0.00     0.066 A 
ATOM      3  C   UNL     1       7.677  12.204  -3.784  1.00  0.00     0.088 A 
ATOM      4  C   UNL     1       7.700  10.823  -3.452  1.00  0.00     0.035 A 
ATOM      5  N   UNL     1       6.331   8.808  -2.955  1.00  0.00    -0.360 N 
ATOM      6  N   UNL     1       4.600   9.966  -2.206  1.00  0.00    -0.360 N 
ATOM      7  C   UNL     1       6.532  12.937  -3.478  1.00  0.00     0.271 A 
ATOM      8  C   UNL     1       5.421   8.843  -1.931  1.00  0.00     0.205 C 
ATOM      9  C   UNL     1       5.405  12.276  -2.896  1.00  0.00     0.113 A 
ATOM     10  H   UNL     1       6.737   7.998  -3.446  1.00  0.00     0.163 HD
ATOM     11  H   UNL     1       3.583  10.052  -2.065  1.00  0.00     0.163 HD
ENDROOT
BRANCH   8  12
ATOM     12  C   UNL     1       4.651   7.545  -1.561  1.00  0.00    -0.003 A 
ATOM     13  C   UNL     1       4.767   5.094  -1.223  1.00  0.00     0.042 A 
ATOM     14  C   UNL     1       5.306   6.425  -1.000  1.00  0.00     0.028 A 
ATOM     15  C   UNL     1       3.325   4.993  -1.475  1.00  0.00     0.041 A 
ATOM     16  C   UNL     1       2.613   6.249  -1.690  1.00  0.00     0.042 A 
ATOM     17  C   UNL     1       3.254   7.494  -1.908  1.00  0.00     0.028 A 
ATOM     18  Cl  UNL     1       5.495   3.747  -0.932  1.00  0.00    -0.084 Cl
ATOM     19  Cl  UNL     1       0.909   6.149  -1.775  1.00  0.00    -0.084 Cl
ENDBRANCH   8  12
BRANCH   7  20
ATOM     20  N   UNL     1       6.442  14.307  -3.609  1.00  0.00     0.062 N 
ATOM     21  O   UNL     1       5.648  14.912  -2.988  1.00  0.00    -0.258 OA
ATOM     22  O   UNL     1       7.342  15.028  -4.221  1.00  0.00    -0.258 OA
ENDBRANCH   7  20
TORSDOF 2
ENDMDL
MODEL 2
REMARK VINA RESULT:    -4.365      1.210      2.774
REMARK INTER + INTRA:          -5.191
REMARK INTER:                  -4.877
REMARK INTRA:                  -0.315
REMARK UNBOUND:                -0.316
REMARK SMILES O=[N+]([O-])c1ccc2c(c1)N[C@@H](c1cc(Cl)cc(Cl)c1)N2
REMARK SMILES IDX 7 1 8 2 5 3 6 4 20 5 10 6 4 7 11 8 9 9 12 12 14 13 13 14
REMARK SMILES IDX 16 15 17 16 19 17 15 18 18 19 2 20 3 21 1 22
REMARK H PARENT 20 10 10 11
ROOT
ATOM      1  C   UNL     1       5.389  10.992  -2.804  1.00  0.00     0.060 A 
ATOM      2  C   UNL     1       6.473  10.301  -3.289  1.00  0.00     0.066 A 
ATOM      3  C   UNL     1       6.397  13.060  -3.313  1.00  0.00     0.088 A 
ATOM      4  C   UNL     1       5.244  12.282  -3.019  1.00  0.00     0.035 A 
ATOM      5  N   UNL     1       4.394  10.050  -2.330  1.00  0.00    -0.360 N 
ATOM      6  N   UNL     1       6.133   8.953  -3.150  1.00  0.00    -0.360 N 
ATOM      7  C   UNL     1       7.566  12.394  -3.673  1.00  0.00     0.271 A 
ATOM      8  C   UNL     1       4.717   8.944  -3.072  1.00  0.00     0.205 C 
ATOM      9  C   UNL     1       7.590  10.965  -3.685  1.00  0.00     0.113 A 
ATOM     10  H   UNL     1       3.650  10.177  -1.630  1.00  0.00     0.163 HD
ATOM     11  H   UNL     1       6.770   8.144  -3.113  1.00  0.00     0.163 HD
ENDROOT
BRANCH   8  12
ATOM     12  C   UNL     1       4.091   7.573  -2.694  1.00  0.00    -0.003 A 
ATOM     13  C   UNL     1       2.043   6.340  -2.046  1.00  0.00     0.042 A 
ATOM     14  C   UNL     1       2.721   7.296  -2.906  1.00  0.00     0.028 A 
ATOM     15  C   UNL     1       2.869   5.296  -1.428  1.00  0.00     0.041 A 
ATOM     16  C   UNL     1       4.314   5.447  -1.562  1.00  0.00     0.042 A 
ATOM     17  C   UNL     1       4.947   6.628  -2.023  1.00  0.00     0.028 A 
ATOM     18  Cl  UNL     1       0.503   6.125  -1.947  1.00  0.00    -0.084 Cl
ATOM     19  Cl  UNL     1       5.266   4.131  -1.028  1.00  0.00    -0.084 Cl
ENDBRANCH   8  12
BRANCH   7  20
ATOM     20  N   UNL     1       8.702  13.034  -4.127  1.00  0.00     0.062 N 
ATOM     21  O   UNL     1       9.482  12.457  -4.791  1.00  0.00    -0.258 OA
ATOM     22  O   UNL     1       8.872  14.326  -4.056  1.00  0.00    -0.258 OA
ENDBRANCH   7  20
TORSDOF 2
ENDMDL
MODEL 3
REMARK VINA RESULT:    -4.036      1.545      2.175
REMARK INTER + INTRA:          -4.823
REMARK INTER:                  -4.523
REMARK INTRA:                  -0.299
REMARK UNBOUND:                -0.316
REMARK SMILES O=[N+]([O-])c1ccc2c(c1)N[C@@H](c1cc(Cl)cc(Cl)c1)N2
REMARK SMILES IDX 7 1 8 2 5 3 6 4 20 5 10 6 4 7 11 8 9 9 12 12 14 13 13 14
REMARK SMILES IDX 16 15 17 16 19 17 15 18 18 19 2 20 3 21 1 22
REMARK H PARENT 20 10 10 11
ROOT
ATOM      1  C   UNL     1       5.943  10.931  -2.793  1.00  0.00     0.060 A 
ATOM      2  C   UNL     1       6.914  10.055  -3.216  1.00  0.00     0.066 A 
ATOM      3  C   UNL     1       7.160  12.776  -3.607  1.00  0.00     0.088 A 
ATOM      4  C   UNL     1       5.940  12.190  -3.174  1.00  0.00     0.035 A 
ATOM      5  N   UNL     1       4.870  10.187  -2.164  1.00  0.00    -0.360 N 
ATOM      6  N   UNL     1       6.426   8.788  -2.887  1.00  0.00    -0.360 N 
ATOM      7  C   UNL     1       8.225  11.931  -3.914  1.00  0.00     0.271 A 
ATOM      8  C   UNL     1       5.024   8.963  -2.761  1.00  0.00     0.205 C 
ATOM      9  C   UNL     1       8.081  10.520  -3.735  1.00  0.00     0.113 A 
ATOM     10  H   UNL     1       4.181  10.493  -1.463  1.00  0.00     0.163 HD
ATOM     11  H   UNL     1       6.964   7.919  -2.763  1.00  0.00     0.163 HD
ENDROOT
BRANCH   8  12
ATOM     12  C   UNL     1       4.261   7.739  -2.183  1.00  0.00    -0.003 A 
ATOM     13  C   UNL     1       4.383   5.372  -1.466  1.00  0.00     0.042 A 
ATOM     14  C   UNL     1       4.923   6.721  -1.460  1.00  0.00     0.028 A 
ATOM     15  C   UNL     1       2.939   5.233  -1.684  1.00  0.00     0.041 A 
ATOM     16  C   UNL     1       2.223   6.439  -2.086  1.00  0.00     0.042 A 
ATOM     17  C   UNL     1       2.860   7.634  -2.502  1.00  0.00     0.028 A 
ATOM     18  Cl  UNL     1       5.117   4.087  -0.975  1.00  0.00    -0.084 Cl
ATOM     19  Cl  UNL     1       0.518   6.327  -2.135  1.00  0.00    -0.084 Cl
ENDBRANCH   8  12
BRANCH   7  20
ATOM     20  N   UNL     1       9.404  12.363  -4.486  1.00  0.00     0.062 N 
ATOM     21  O   UNL     1      10.120  11.597  -5.017  1.00  0.00    -0.258 OA
ATOM     22  O   UNL     1       9.686  13.622  -4.680  1.00  0.00    -0.258 OA
ENDBRANCH   7  20
TORSDOF 2
ENDMDL
MODEL 4
REMARK VINA RESULT:    -4.035      0.701      2.122
REMARK INTER + INTRA:          -4.822
REMARK INTER:                  -4.522
REMARK INTRA:                  -0.300
REMARK UNBOUND:                -0.316
REMARK SMILES O=[N+]([O-])c1ccc2c(c1)N[C@@H](c1cc(Cl)cc(Cl)c1)N2
REMARK SMILES IDX 7 1 8 2 5 3 6 4 20 5 10 6 4 7 11 8 9 9 12 12 14 13 13 14
REMARK SMILES IDX 16 15 17 16 19 17 15 18 18 19 2 20 3 21 1 22
REMARK H PARENT 20 10 10 11
ROOT
ATOM      1  C   UNL     1       6.116  10.673  -3.272  1.00  0.00     0.060 A 
ATOM      2  C   UNL     1       4.947  11.158  -2.737  1.00  0.00     0.066 A 
ATOM      3  C   UNL     1       6.950  12.853  -3.594  1.00  0.00     0.088 A 
ATOM      4  C   UNL     1       7.158  11.453  -3.467  1.00  0.00     0.035 A 
ATOM      5  N   UNL     1       6.072   9.224  -3.282  1.00  0.00    -0.360 N 
ATOM      6  N   UNL     1       4.211  10.023  -2.387  1.00  0.00    -0.360 N 
ATOM      7  C   UNL     1       5.722  13.375  -3.195  1.00  0.00     0.271 A 
ATOM      8  C   UNL     1       5.176   8.990  -2.272  1.00  0.00     0.205 C 
ATOM      9  C   UNL     1       4.698  12.494  -2.726  1.00  0.00     0.113 A 
ATOM     10  H   UNL     1       6.576   8.556  -3.882  1.00  0.00     0.163 HD
ATOM     11  H   UNL     1       3.194   9.952  -2.245  1.00  0.00     0.163 HD
ENDROOT
BRANCH   8  12
ATOM     12  C   UNL     1       4.588   7.561  -2.102  1.00  0.00    -0.003 A 
ATOM     13  C   UNL     1       2.559   6.185  -1.749  1.00  0.00     0.042 A 
ATOM     14  C   UNL     1       3.249   7.261  -2.441  1.00  0.00     0.028 A 
ATOM     15  C   UNL     1       3.388   5.107  -1.200  1.00  0.00     0.041 A 
ATOM     16  C   UNL     1       4.831   5.325  -1.213  1.00  0.00     0.042 A 
ATOM     17  C   UNL     1       5.439   6.575  -1.487  1.00  0.00     0.028 A 
ATOM     18  Cl  UNL     1       1.026   5.904  -1.785  1.00  0.00    -0.084 Cl
ATOM     19  Cl  UNL     1       5.803   3.990  -0.769  1.00  0.00    -0.084 Cl
ENDBRANCH   8  12
BRANCH   7  20
ATOM     20  N   UNL     1       5.451  14.726  -3.124  1.00  0.00     0.062 N 
ATOM     21  O   UNL     1       4.518  15.114  -2.524  1.00  0.00    -0.258 OA
ATOM     22  O   UNL     1       6.298  15.646  -3.501  1.00  0.00    -0.258 OA
ENDBRANCH   7  20
TORSDOF 2
ENDMDL
MODEL 5
REMARK VINA RESULT:    -4.012      3.058      4.417
REMARK INTER + INTRA:          -4.797
REMARK INTER:                  -4.490
REMARK INTRA:                  -0.306
REMARK UNBOUND:                -0.316
REMARK SMILES O=[N+]([O-])c1ccc2c(c1)N[C@@H](c1cc(Cl)cc(Cl)c1)N2
REMARK SMILES IDX 7 1 8 2 5 3 6 4 20 5 10 6 4 7 11 8 9 9 12 12 14 13 13 14
REMARK SMILES IDX 16 15 17 16 19 17 15 18 18 19 2 20 3 21 1 22
REMARK H PARENT 20 10 10 11
ROOT
ATOM      1  C   UNL     1       4.967  14.213  -2.971  1.00  0.00     0.060 A 
ATOM      2  C   UNL     1       4.519  14.055  -1.681  1.00  0.00     0.066 A 
ATOM      3  C   UNL     1       4.987  16.558  -2.747  1.00  0.00     0.088 A 
ATOM      4  C   UNL     1       5.408  15.373  -3.408  1.00  0.00     0.035 A 
ATOM      5  N   UNL     1       5.126  12.910  -3.584  1.00  0.00    -0.360 N 
ATOM      6  N   UNL     1       4.443  12.673  -1.492  1.00  0.00    -0.360 N 
ATOM      7  C   UNL     1       4.395  16.437  -1.491  1.00  0.00     0.271 A 
ATOM      8  C   UNL     1       5.307  12.126  -2.474  1.00  0.00     0.205 C 
ATOM      9  C   UNL     1       4.181  15.138  -0.933  1.00  0.00     0.113 A 
ATOM     10  H   UNL     1       5.110  12.645  -4.579  1.00  0.00     0.163 HD
ATOM     11  H   UNL     1       3.882  12.164  -0.794  1.00  0.00     0.163 HD
ENDROOT
BRANCH   8  12
ATOM     12  C   UNL     1       5.236  10.581  -2.622  1.00  0.00    -0.003 A 
ATOM     13  C   UNL     1       4.131   8.653  -3.716  1.00  0.00     0.042 A 
ATOM     14  C   UNL     1       4.750   9.966  -3.798  1.00  0.00     0.028 A 
ATOM     15  C   UNL     1       4.551   7.787  -2.609  1.00  0.00     0.041 A 
ATOM     16  C   UNL     1       5.383   8.402  -1.580  1.00  0.00     0.042 A 
ATOM     17  C   UNL     1       5.594   9.799  -1.466  1.00  0.00     0.028 A 
ATOM     18  Cl  UNL     1       3.299   7.959  -4.836  1.00  0.00    -0.084 Cl
ATOM     19  Cl  UNL     1       6.042   7.348  -0.407  1.00  0.00    -0.084 Cl
ENDBRANCH   8  12
BRANCH   7  20
ATOM     20  N   UNL     1       4.085  17.513  -0.685  1.00  0.00     0.062 N 
ATOM     21  O   UNL     1       3.243  18.270  -1.004  1.00  0.00    -0.258 OA
ATOM     22  O   UNL     1       4.514  17.636   0.542  1.00  0.00    -0.258 OA
ENDBRANCH   7  20
TORSDOF 2
ENDMDL
MODEL 6
REMARK VINA RESULT:    -3.930      5.105      7.783
REMARK INTER + INTRA:          -4.705
REMARK INTER:                  -4.387
REMARK INTRA:                  -0.318
REMARK UNBOUND:                -0.316
REMARK SMILES O=[N+]([O-])c1ccc2c(c1)N[C@@H](c1cc(Cl)cc(Cl)c1)N2
REMARK SMILES IDX 7 1 8 2 5 3 6 4 20 5 10 6 4 7 11 8 9 9 12 12 14 13 13 14
REMARK SMILES IDX 16 15 17 16 19 17 15 18 18 19 2 20 3 21 1 22
REMARK H PARENT 20 10 10 11
ROOT
ATOM      1  C   UNL     1       3.546   7.740  -2.086  1.00  0.00     0.060 A 
ATOM      2  C   UNL     1       4.725   7.036  -2.028  1.00  0.00     0.066 A 
ATOM      3  C   UNL     1       2.299   5.828  -1.505  1.00  0.00     0.088 A 
ATOM      4  C   UNL     1       2.423   7.239  -1.619  1.00  0.00     0.035 A 
ATOM      5  N   UNL     1       3.829   9.117  -2.441  1.00  0.00    -0.360 N 
ATOM      6  N   UNL     1       5.721   7.976  -2.306  1.00  0.00    -0.360 N 
ATOM      7  C   UNL     1       3.457   5.056  -1.583  1.00  0.00     0.271 A 
ATOM      8  C   UNL     1       5.126   9.229  -2.013  1.00  0.00     0.205 C 
ATOM      9  C   UNL     1       4.714   5.692  -1.827  1.00  0.00     0.113 A 
ATOM     10  H   UNL     1       3.222   9.818  -2.890  1.00  0.00     0.163 HD
ATOM     11  H   UNL     1       6.676   7.798  -2.648  1.00  0.00     0.163 HD
ENDROOT
BRANCH   8  12
ATOM     12  C   UNL     1       5.959  10.467  -2.448  1.00  0.00    -0.003 A 
ATOM     13  C   UNL     1       5.932  12.855  -3.102  1.00  0.00     0.042 A 
ATOM     14  C   UNL     1       5.511  11.786  -2.212  1.00  0.00     0.028 A 
ATOM     15  C   UNL     1       7.210  12.676  -3.800  1.00  0.00     0.041 A 
ATOM     16  C   UNL     1       7.827  11.358  -3.700  1.00  0.00     0.042 A 
ATOM     17  C   UNL     1       7.165  10.212  -3.194  1.00  0.00     0.028 A 
ATOM     18  Cl  UNL     1       5.324  14.289  -3.168  1.00  0.00    -0.084 Cl
ATOM     19  Cl  UNL     1       9.407  11.211  -4.334  1.00  0.00    -0.084 Cl
ENDBRANCH   8  12
BRANCH   7  20
ATOM     20  N   UNL     1       3.490   3.699  -1.337  1.00  0.00     0.062 N 
ATOM     21  O   UNL     1       2.490   3.097  -1.196  1.00  0.00    -0.258 OA
ATOM     22  O   UNL     1       4.568   2.974  -1.469  1.00  0.00    -0.258 OA
ENDBRANCH   7  20
TORSDOF 2
ENDMDL
MODEL 7
REMARK VINA RESULT:    -3.907      5.002      7.427
REMARK INTER + INTRA:          -4.679
REMARK INTER:                  -4.361
REMARK INTRA:                  -0.318
REMARK UNBOUND:                -0.316
REMARK SMILES O=[N+]([O-])c1ccc2c(c1)N[C@@H](c1cc(Cl)cc(Cl)c1)N2
REMARK SMILES IDX 7 1 8 2 5 3 6 4 20 5 10 6 4 7 11 8 9 9 12 12 14 13 13 14
REMARK SMILES IDX 16 15 17 16 19 17 15 18 18 19 2 20 3 21 1 22
REMARK H PARENT 20 10 10 11
ROOT
ATOM      1  C   UNL     1       5.213   6.953  -1.888  1.00  0.00     0.060 A 
ATOM      2  C   UNL     1       3.909   7.376  -1.977  1.00  0.00     0.066 A 
ATOM      3  C   UNL     1       4.535   4.776  -1.296  1.00  0.00     0.088 A 
ATOM      4  C   UNL     1       5.517   5.676  -1.792  1.00  0.00     0.035 A 
ATOM      5  N   UNL     1       6.097   8.058  -2.201  1.00  0.00    -0.360 N 
ATOM      6  N   UNL     1       3.990   8.712  -2.378  1.00  0.00    -0.360 N 
ATOM      7  C   UNL     1       3.213   5.211  -1.234  1.00  0.00     0.271 A 
ATOM      8  C   UNL     1       5.271   8.833  -2.973  1.00  0.00     0.205 C 
ATOM      9  C   UNL     1       2.892   6.551  -1.615  1.00  0.00     0.113 A 
ATOM     10  H   UNL     1       7.076   8.217  -1.923  1.00  0.00     0.163 HD
ATOM     11  H   UNL     1       3.276   9.446  -2.267  1.00  0.00     0.163 HD
ENDROOT
BRANCH   8  12
ATOM     12  C   UNL     1       5.701  10.288  -3.312  1.00  0.00    -0.003 A 
ATOM     13  C   UNL     1       7.575  11.839  -3.775  1.00  0.00     0.042 A 
ATOM     14  C   UNL     1       6.905  10.569  -3.997  1.00  0.00     0.028 A 
ATOM     15  C   UNL     1       6.739  12.971  -3.361  1.00  0.00     0.041 A 
ATOM     16  C   UNL     1       5.357  12.663  -3.006  1.00  0.00     0.042 A 
ATOM     17  C   UNL     1       4.867  11.348  -2.807  1.00  0.00     0.028 A 
ATOM     18  Cl  UNL     1       9.027  12.199  -4.212  1.00  0.00    -0.084 Cl
ATOM     19  Cl  UNL     1       4.330  14.000  -2.728  1.00  0.00    -0.084 Cl
ENDBRANCH   8  12
BRANCH   7  20
ATOM     20  N   UNL     1       2.151   4.389  -0.918  1.00  0.00     0.062 N 
ATOM     21  O   UNL     1       1.077   4.840  -0.763  1.00  0.00    -0.258 OA
ATOM     22  O   UNL     1       2.206   3.087  -0.995  1.00  0.00    -0.258 OA
ENDBRANCH   7  20
TORSDOF 2
ENDMDL
MODEL 8
REMARK VINA RESULT:    -3.504      3.606      4.634
REMARK INTER + INTRA:          -4.230
REMARK INTER:                  -3.919
REMARK INTRA:                  -0.311
REMARK UNBOUND:                -0.316
REMARK SMILES O=[N+]([O-])c1ccc2c(c1)N[C@@H](c1cc(Cl)cc(Cl)c1)N2
REMARK SMILES IDX 7 1 8 2 5 3 6 4 20 5 10 6 4 7 11 8 9 9 12 12 14 13 13 14
REMARK SMILES IDX 16 15 17 16 19 17 15 18 18 19 2 20 3 21 1 22
REMARK H PARENT 20 10 10 11
ROOT
ATOM      1  C   UNL     1       9.186  11.846  -4.204  1.00  0.00     0.060 A 
ATOM      2  C   UNL     1       9.166  10.865  -5.166  1.00  0.00     0.066 A 
ATOM      3  C   UNL     1      10.883  13.018  -5.342  1.00  0.00     0.088 A 
ATOM      4  C   UNL     1       9.827  12.980  -4.392  1.00  0.00     0.035 A 
ATOM      5  N   UNL     1       8.205  11.536  -3.183  1.00  0.00    -0.360 N 
ATOM      6  N   UNL     1       8.159   9.984  -4.762  1.00  0.00    -0.360 N 
ATOM      7  C   UNL     1      10.990  11.969  -6.252  1.00  0.00     0.271 A 
ATOM      8  C   UNL     1       7.338  10.749  -3.895  1.00  0.00     0.205 C 
ATOM      9  C   UNL     1      10.079  10.869  -6.172  1.00  0.00     0.113 A 
ATOM     10  H   UNL     1       8.169  11.826  -2.196  1.00  0.00     0.163 HD
ATOM     11  H   UNL     1       8.040   8.998  -5.033  1.00  0.00     0.163 HD
ENDROOT
BRANCH   8  12
ATOM     12  C   UNL     1       6.256   9.935  -3.131  1.00  0.00    -0.003 A 
ATOM     13  C   UNL     1       5.732   8.522  -1.166  1.00  0.00     0.042 A 
ATOM     14  C   UNL     1       6.337   9.714  -1.737  1.00  0.00     0.028 A 
ATOM     15  C   UNL     1       4.600   7.936  -1.892  1.00  0.00     0.041 A 
ATOM     16  C   UNL     1       4.330   8.475  -3.220  1.00  0.00     0.042 A 
ATOM     17  C   UNL     1       5.217   9.328  -3.923  1.00  0.00     0.028 A 
ATOM     18  Cl  UNL     1       5.962   7.977   0.276  1.00  0.00    -0.084 Cl
ATOM     19  Cl  UNL     1       2.893   7.942  -3.976  1.00  0.00    -0.084 Cl
ENDBRANCH   8  12
BRANCH   7  20
ATOM     20  N   UNL     1      11.871  11.963  -7.314  1.00  0.00     0.062 N 
ATOM     21  O   UNL     1      12.136  10.956  -7.860  1.00  0.00    -0.258 OA
ATOM     22  O   UNL     1      12.275  13.049  -7.915  1.00  0.00    -0.258 OA
ENDBRANCH   7  20
TORSDOF 2
ENDMDL
MODEL 9
REMARK VINA RESULT:    -3.439      5.105      7.482
REMARK INTER + INTRA:          -4.157
REMARK INTER:                  -3.861
REMARK INTRA:                  -0.296
REMARK UNBOUND:                -0.316
REMARK SMILES O=[N+]([O-])c1ccc2c(c1)N[C@@H](c1cc(Cl)cc(Cl)c1)N2
REMARK SMILES IDX 7 1 8 2 5 3 6 4 20 5 10 6 4 7 11 8 9 9 12 12 14 13 13 14
REMARK SMILES IDX 16 15 17 16 19 17 15 18 18 19 2 20 3 21 1 22
REMARK H PARENT 20 10 10 11
ROOT
ATOM      1  C   UNL     1       6.306   9.556  -2.147  1.00  0.00     0.060 A 
ATOM      2  C   UNL     1       5.528   9.572  -3.279  1.00  0.00     0.066 A 
ATOM      3  C   UNL     1       4.737   8.219  -1.008  1.00  0.00     0.088 A 
ATOM      4  C   UNL     1       6.053   8.735  -1.151  1.00  0.00     0.035 A 
ATOM      5  N   UNL     1       7.513  10.323  -2.385  1.00  0.00    -0.360 N 
ATOM      6  N   UNL     1       6.263  10.307  -4.213  1.00  0.00    -0.360 N 
ATOM      7  C   UNL     1       3.861   8.340  -2.084  1.00  0.00     0.271 A 
ATOM      8  C   UNL     1       7.602  10.240  -3.750  1.00  0.00     0.205 C 
ATOM      9  C   UNL     1       4.287   9.019  -3.268  1.00  0.00     0.113 A 
ATOM     10  H   UNL     1       8.132  10.799  -1.715  1.00  0.00     0.163 HD
ATOM     11  H   UNL     1       5.911  10.791  -5.051  1.00  0.00     0.163 HD
ENDROOT
BRANCH   8  12
ATOM     12  C   UNL     1       8.601  11.166  -4.499  1.00  0.00    -0.003 A 
ATOM     13  C   UNL     1      10.496  11.313  -6.086  1.00  0.00     0.042 A 
ATOM     14  C   UNL     1       9.189  10.788  -5.727  1.00  0.00     0.028 A 
ATOM     15  C   UNL     1      10.874  12.609  -5.512  1.00  0.00     0.041 A 
ATOM     16  C   UNL     1       9.998  13.140  -4.472  1.00  0.00     0.042 A 
ATOM     17  C   UNL     1       8.980  12.387  -3.836  1.00  0.00     0.028 A 
ATOM     18  Cl  UNL     1      11.409  10.796  -7.240  1.00  0.00    -0.084 Cl
ATOM     19  Cl  UNL     1      10.319  14.736  -3.954  1.00  0.00    -0.084 Cl
ENDBRANCH   8  12
BRANCH   7  20
ATOM     20  N   UNL     1       2.614   7.750  -2.127  1.00  0.00     0.062 N 
ATOM     21  O   UNL     1       2.143   7.434  -3.156  1.00  0.00    -0.258 OA
ATOM     22  O   UNL     1       1.997   7.304  -1.067  1.00  0.00    -0.258 OA
ENDBRANCH   7  20
TORSDOF 2
ENDMDL
