MODEL 1
REMARK VINA RESULT:    -4.363      0.000      0.000
REMARK INTER + INTRA:          -5.188
REMARK INTER:                  -4.873
REMARK INTRA:                  -0.315
REMARK UNBOUND:                -0.315
REMARK SMILES O=[N+]([O-])c1ccc2c(c1)N[C@@H](c1cc(Cl)cc(Cl)c1)N2
REMARK SMILES IDX 7 1 8 2 5 3 6 4 20 5 10 6 4 7 11 8 9 9 12 12 14 13 13 14
REMARK SMILES IDX 16 15 17 16 19 17 15 18 18 19 2 20 3 21 1 22
REMARK H PARENT 20 10 10 11
ROOT
ATOM      1  C   UNL     1      -7.338  11.070   1.554  1.00  0.00     0.060 A 
ATOM      2  C   UNL     1      -7.644  11.052   0.214  1.00  0.00     0.066 A 
ATOM      3  C   UNL     1      -8.660  12.989   1.898  1.00  0.00     0.088 A 
ATOM      4  C   UNL     1      -7.991  11.839   2.398  1.00  0.00     0.035 A 
ATOM      5  N   UNL     1      -6.458   9.959   1.858  1.00  0.00    -0.360 N 
ATOM      6  N   UNL     1      -6.992   9.924  -0.290  1.00  0.00    -0.360 N 
ATOM      7  C   UNL     1      -8.868  13.084   0.524  1.00  0.00     0.271 A 
ATOM      8  C   UNL     1      -6.776   9.097   0.841  1.00  0.00     0.205 C 
ATOM      9  C   UNL     1      -8.363  12.063  -0.340  1.00  0.00     0.113 A 
ATOM     10  H   UNL     1      -5.781   9.847   2.626  1.00  0.00     0.163 HD
ATOM     11  H   UNL     1      -6.728   9.735  -1.267  1.00  0.00     0.163 HD
ENDROOT
BRANCH   8  12
ATOM     12  C   UNL     1      -5.866   7.863   0.586  1.00  0.00    -0.003 A 
ATOM     13  C   UNL     1      -4.613   5.973   1.581  1.00  0.00     0.042 A 
ATOM     14  C   UNL     1      -5.824   6.770   1.482  1.00  0.00     0.028 A 
ATOM     15  C   UNL     1      -3.746   5.928   0.398  1.00  0.00     0.041 A 
ATOM     16  C   UNL     1      -4.070   6.853  -0.682  1.00  0.00     0.042 A 
ATOM     17  C   UNL     1      -4.989   7.925  -0.555  1.00  0.00     0.028 A 
ATOM     18  Cl  UNL     1      -4.288   4.931   2.694  1.00  0.00    -0.084 Cl
ATOM     19  Cl  UNL     1      -3.195   6.657  -2.137  1.00  0.00    -0.084 Cl
ENDBRANCH   8  12
BRANCH   7  20
ATOM     20  N   UNL     1      -9.634  14.068  -0.068  1.00  0.00     0.062 N 
ATOM     21  O   UNL     1     -10.085  13.904  -1.141  1.00  0.00    -0.258 OA
ATOM     22  O   UNL     1     -10.089  15.107   0.579  1.00  0.00    -0.258 OA
ENDBRANCH   7  20
TORSDOF 2
ENDMDL
MODEL 2
REMARK VINA RESULT:    -4.348      1.100      2.717
REMARK INTER + INTRA:          -5.171
REMARK INTER:                  -4.857
REMARK INTRA:                  -0.315
REMARK UNBOUND:                -0.315
REMARK SMILES O=[N+]([O-])c1ccc2c(c1)N[C@@H](c1cc(Cl)cc(Cl)c1)N2
REMARK SMILES IDX 7 1 8 2 5 3 6 4 20 5 10 6 4 7 11 8 9 9 12 12 14 13 13 14
REMARK SMILES IDX 16 15 17 16 19 17 15 18 18 19 2 20 3 21 1 22
REMARK H PARENT 20 10 10 11
ROOT
ATOM      1  C   UNL     1      -7.605  11.079   0.140  1.00  0.00     0.060 A 
ATOM      2  C   UNL     1      -7.367  11.139   1.492  1.00  0.00     0.066 A 
ATOM      3  C   UNL     1      -8.956  13.007   0.225  1.00  0.00     0.088 A 
ATOM      4  C   UNL     1      -8.163  12.081  -0.505  1.00  0.00     0.035 A 
ATOM      5  N   UNL     1      -6.906   9.939  -0.419  1.00  0.00    -0.360 N 
ATOM      6  N   UNL     1      -6.503  10.073   1.754  1.00  0.00    -0.360 N 
ATOM      7  C   UNL     1      -8.855  13.009   1.615  1.00  0.00     0.271 A 
ATOM      8  C   UNL     1      -5.904   9.778   0.503  1.00  0.00     0.205 C 
ATOM      9  C   UNL     1      -8.008  12.056   2.262  1.00  0.00     0.113 A 
ATOM     10  H   UNL     1      -7.106   9.398  -1.272  1.00  0.00     0.163 HD
ATOM     11  H   UNL     1      -6.337   9.605   2.656  1.00  0.00     0.163 HD
ENDROOT
BRANCH   8  12
ATOM     12  C   UNL     1      -5.053   8.478   0.474  1.00  0.00    -0.003 A 
ATOM     13  C   UNL     1      -3.829   6.835  -0.916  1.00  0.00     0.042 A 
ATOM     14  C   UNL     1      -4.134   8.212  -0.565  1.00  0.00     0.028 A 
ATOM     15  C   UNL     1      -3.984   5.828   0.140  1.00  0.00     0.041 A 
ATOM     16  C   UNL     1      -4.632   6.271   1.369  1.00  0.00     0.042 A 
ATOM     17  C   UNL     1      -5.317   7.504   1.503  1.00  0.00     0.028 A 
ATOM     18  Cl  UNL     1      -3.076   6.358  -2.195  1.00  0.00    -0.084 Cl
ATOM     19  Cl  UNL     1      -4.625   5.162   2.671  1.00  0.00    -0.084 Cl
ENDBRANCH   8  12
BRANCH   7  20
ATOM     20  N   UNL     1      -9.452  13.954   2.424  1.00  0.00     0.062 N 
ATOM     21  O   UNL     1      -9.023  14.173   3.496  1.00  0.00    -0.258 OA
ATOM     22  O   UNL     1     -10.349  14.800   1.995  1.00  0.00    -0.258 OA
ENDBRANCH   7  20
TORSDOF 2
ENDMDL
MODEL 3
REMARK VINA RESULT:    -4.080      4.974      7.639
REMARK INTER + INTRA:          -4.872
REMARK INTER:                  -4.572
REMARK INTRA:                  -0.300
REMARK UNBOUND:                -0.315
REMARK SMILES O=[N+]([O-])c1ccc2c(c1)N[C@@H](c1cc(Cl)cc(Cl)c1)N2
REMARK SMILES IDX 7 1 8 2 5 3 6 4 20 5 10 6 4 7 11 8 9 9 12 12 14 13 13 14
REMARK SMILES IDX 16 15 17 16 19 17 15 18 18 19 2 20 3 21 1 22
REMARK H PARENT 20 10 10 11
ROOT
ATOM      1  C   UNL     1      -5.551   7.780   1.279  1.00  0.00     0.060 A 
ATOM      2  C   UNL     1      -5.462   7.952  -0.082  1.00  0.00     0.066 A 
ATOM      3  C   UNL     1      -3.996   6.012   1.224  1.00  0.00     0.088 A 
ATOM      4  C   UNL     1      -4.696   7.025   1.934  1.00  0.00     0.035 A 
ATOM      5  N   UNL     1      -6.486   8.746   1.822  1.00  0.00    -0.360 N 
ATOM      6  N   UNL     1      -6.301   9.033  -0.365  1.00  0.00    -0.360 N 
ATOM      7  C   UNL     1      -3.996   6.063  -0.168  1.00  0.00     0.271 A 
ATOM      8  C   UNL     1      -6.425   9.726   0.866  1.00  0.00     0.205 C 
ATOM      9  C   UNL     1      -4.735   7.087  -0.837  1.00  0.00     0.113 A 
ATOM     10  H   UNL     1      -7.042   8.707   2.688  1.00  0.00     0.163 HD
ATOM     11  H   UNL     1      -6.734   9.273  -1.269  1.00  0.00     0.163 HD
ENDROOT
BRANCH   8  12
ATOM     12  C   UNL     1      -7.489  10.858   0.876  1.00  0.00    -0.003 A 
ATOM     13  C   UNL     1      -8.720  12.554  -0.444  1.00  0.00     0.042 A 
ATOM     14  C   UNL     1      -8.228  11.196  -0.281  1.00  0.00     0.028 A 
ATOM     15  C   UNL     1      -8.967  13.325   0.780  1.00  0.00     0.041 A 
ATOM     16  C   UNL     1      -8.492  12.734   2.027  1.00  0.00     0.042 A 
ATOM     17  C   UNL     1      -7.620  11.619   2.092  1.00  0.00     0.028 A 
ATOM     18  Cl  UNL     1      -9.293  13.172  -1.755  1.00  0.00    -0.084 Cl
ATOM     19  Cl  UNL     1      -8.961  13.526   3.467  1.00  0.00    -0.084 Cl
ENDBRANCH   8  12
BRANCH   7  20
ATOM     20  N   UNL     1      -3.232   5.234  -0.964  1.00  0.00     0.062 N 
ATOM     21  O   UNL     1      -2.777   4.243  -0.524  1.00  0.00    -0.258 OA
ATOM     22  O   UNL     1      -3.155   5.359  -2.261  1.00  0.00    -0.258 OA
ENDBRANCH   7  20
TORSDOF 2
ENDMDL
MODEL 4
REMARK VINA RESULT:    -4.042      5.109      7.575
REMARK INTER + INTRA:          -4.830
REMARK INTER:                  -4.531
REMARK INTRA:                  -0.299
REMARK UNBOUND:                -0.315
REMARK SMILES O=[N+]([O-])c1ccc2c(c1)N[C@@H](c1cc(Cl)cc(Cl)c1)N2
REMARK SMILES IDX 7 1 8 2 5 3 6 4 20 5 10 6 4 7 11 8 9 9 12 12 14 13 13 14
REMARK SMILES IDX 16 15 17 16 19 17 15 18 18 19 2 20 3 21 1 22
REMARK H PARENT 20 10 10 11
ROOT
ATOM      1  C   UNL     1      -5.176   8.340  -0.392  1.00  0.00     0.060 A 
ATOM      2  C   UNL     1      -5.134   8.126   0.965  1.00  0.00     0.066 A 
ATOM      3  C   UNL     1      -4.052   6.312  -0.813  1.00  0.00     0.088 A 
ATOM      4  C   UNL     1      -4.875   7.386  -1.248  1.00  0.00     0.035 A 
ATOM      5  N   UNL     1      -5.847   9.596  -0.658  1.00  0.00    -0.360 N 
ATOM      6  N   UNL     1      -5.805   9.217   1.523  1.00  0.00    -0.360 N 
ATOM      7  C   UNL     1      -3.864   6.140   0.557  1.00  0.00     0.271 A 
ATOM      8  C   UNL     1      -6.614   9.719   0.472  1.00  0.00     0.205 C 
ATOM      9  C   UNL     1      -4.450   7.067   1.473  1.00  0.00     0.113 A 
ATOM     10  H   UNL     1      -5.771  10.224  -1.471  1.00  0.00     0.163 HD
ATOM     11  H   UNL     1      -5.728   9.577   2.485  1.00  0.00     0.163 HD
ENDROOT
BRANCH   8  12
ATOM     12  C   UNL     1      -7.306  11.078   0.771  1.00  0.00    -0.003 A 
ATOM     13  C   UNL     1      -8.353  12.538   2.475  1.00  0.00     0.042 A 
ATOM     14  C   UNL     1      -7.268  11.667   2.055  1.00  0.00     0.028 A 
ATOM     15  C   UNL     1      -9.094  13.237   1.419  1.00  0.00     0.041 A 
ATOM     16  C   UNL     1      -8.812  12.827   0.047  1.00  0.00     0.042 A 
ATOM     17  C   UNL     1      -8.076  11.665  -0.296  1.00  0.00     0.028 A 
ATOM     18  Cl  UNL     1      -8.621  13.036   3.927  1.00  0.00    -0.084 Cl
ATOM     19  Cl  UNL     1      -9.514  13.778  -1.187  1.00  0.00    -0.084 Cl
ENDBRANCH   8  12
BRANCH   7  20
ATOM     20  N   UNL     1      -3.218   5.052   1.109  1.00  0.00     0.062 N 
ATOM     21  O   UNL     1      -2.451   4.430   0.470  1.00  0.00    -0.258 OA
ATOM     22  O   UNL     1      -3.230   4.786   2.387  1.00  0.00    -0.258 OA
ENDBRANCH   7  20
TORSDOF 2
ENDMDL
MODEL 5
REMARK VINA RESULT:    -4.035      1.595      2.216
REMARK INTER + INTRA:          -4.821
REMARK INTER:                  -4.522
REMARK INTRA:                  -0.300
REMARK UNBOUND:                -0.315
REMARK SMILES O=[N+]([O-])c1ccc2c(c1)N[C@@H](c1cc(Cl)cc(Cl)c1)N2
REMARK SMILES IDX 7 1 8 2 5 3 6 4 20 5 10 6 4 7 11 8 9 9 12 12 14 13 13 14
REMARK SMILES IDX 16 15 17 16 19 17 15 18 18 19 2 20 3 21 1 22
REMARK H PARENT 20 10 10 11
ROOT
ATOM      1  C   UNL     1      -7.777  11.150   0.744  1.00  0.00     0.060 A 
ATOM      2  C   UNL     1      -7.317  11.014   2.031  1.00  0.00     0.066 A 
ATOM      3  C   UNL     1      -8.927  13.131   1.294  1.00  0.00     0.088 A 
ATOM      4  C   UNL     1      -8.346  12.262   0.331  1.00  0.00     0.035 A 
ATOM      5  N   UNL     1      -7.278  10.052  -0.060  1.00  0.00    -0.360 N 
ATOM      6  N   UNL     1      -6.515   9.870   2.009  1.00  0.00    -0.360 N 
ATOM      7  C   UNL     1      -8.600  12.941   2.635  1.00  0.00     0.271 A 
ATOM      8  C   UNL     1      -6.157   9.707   0.647  1.00  0.00     0.205 C 
ATOM      9  C   UNL     1      -7.743  11.859   3.006  1.00  0.00     0.113 A 
ATOM     10  H   UNL     1      -7.661   9.643  -0.925  1.00  0.00     0.163 HD
ATOM     11  H   UNL     1      -6.244   9.277   2.806  1.00  0.00     0.163 HD
ENDROOT
BRANCH   8  12
ATOM     12  C   UNL     1      -5.436   8.370   0.315  1.00  0.00    -0.003 A 
ATOM     13  C   UNL     1      -4.476   6.263   1.192  1.00  0.00     0.042 A 
ATOM     14  C   UNL     1      -5.557   7.233   1.145  1.00  0.00     0.028 A 
ATOM     15  C   UNL     1      -3.620   6.161   0.004  1.00  0.00     0.041 A 
ATOM     16  C   UNL     1      -3.802   7.186  -1.018  1.00  0.00     0.042 A 
ATOM     17  C   UNL     1      -4.555   8.370  -0.825  1.00  0.00     0.028 A 
ATOM     18  Cl  UNL     1      -4.311   5.121   2.240  1.00  0.00    -0.084 Cl
ATOM     19  Cl  UNL     1      -2.960   6.949  -2.487  1.00  0.00    -0.084 Cl
ENDBRANCH   8  12
BRANCH   7  20
ATOM     20  N   UNL     1      -8.974  13.806   3.643  1.00  0.00     0.062 N 
ATOM     21  O   UNL     1      -8.444  13.758   4.692  1.00  0.00    -0.258 OA
ATOM     22  O   UNL     1      -9.739  14.845   3.447  1.00  0.00    -0.258 OA
ENDBRANCH   7  20
TORSDOF 2
ENDMDL
MODEL 6
REMARK VINA RESULT:    -4.026      0.658      2.104
REMARK INTER + INTRA:          -4.811
REMARK INTER:                  -4.512
REMARK INTRA:                  -0.299
REMARK UNBOUND:                -0.315
REMARK SMILES O=[N+]([O-])c1ccc2c(c1)N[C@@H](c1cc(Cl)cc(Cl)c1)N2
REMARK SMILES IDX 7 1 8 2 5 3 6 4 20 5 10 6 4 7 11 8 9 9 12 12 14 13 13 14
REMARK SMILES IDX 16 15 17 16 19 17 15 18 18 19 2 20 3 21 1 22
REMARK H PARENT 20 10 10 11
ROOT
ATOM      1  C   UNL     1      -7.366  11.344   1.065  1.00  0.00     0.060 A 
ATOM      2  C   UNL     1      -7.523  11.140  -0.285  1.00  0.00     0.066 A 
ATOM      3  C   UNL     1      -8.900  13.132   1.040  1.00  0.00     0.088 A 
ATOM      4  C   UNL     1      -8.179  12.128   1.741  1.00  0.00     0.035 A 
ATOM      5  N   UNL     1      -6.419  10.380   1.587  1.00  0.00    -0.360 N 
ATOM      6  N   UNL     1      -6.713  10.041  -0.581  1.00  0.00    -0.360 N 
ATOM      7  C   UNL     1      -8.968  13.046  -0.349  1.00  0.00     0.271 A 
ATOM      8  C   UNL     1      -6.539   9.377   0.660  1.00  0.00     0.205 C 
ATOM      9  C   UNL     1      -8.275  11.996  -1.026  1.00  0.00     0.113 A 
ATOM     10  H   UNL     1      -5.821  10.432   2.424  1.00  0.00     0.163 HD
ATOM     11  H   UNL     1      -6.327   9.773  -1.497  1.00  0.00     0.163 HD
ENDROOT
BRANCH   8  12
ATOM     12  C   UNL     1      -5.489   8.231   0.648  1.00  0.00    -0.003 A 
ATOM     13  C   UNL     1      -3.978   6.822  -0.717  1.00  0.00     0.042 A 
ATOM     14  C   UNL     1      -4.510   8.128  -0.366  1.00  0.00     0.028 A 
ATOM     15  C   UNL     1      -3.998   5.792   0.327  1.00  0.00     0.041 A 
ATOM     16  C   UNL     1      -4.743   6.110   1.540  1.00  0.00     0.042 A 
ATOM     17  C   UNL     1      -5.621   7.216   1.662  1.00  0.00     0.028 A 
ATOM     18  Cl  UNL     1      -3.123   6.487  -1.977  1.00  0.00    -0.084 Cl
ATOM     19  Cl  UNL     1      -4.594   5.003   2.834  1.00  0.00    -0.084 Cl
ENDBRANCH   8  12
BRANCH   7  20
ATOM     20  N   UNL     1      -9.759  13.866  -1.128  1.00  0.00     0.062 N 
ATOM     21  O   UNL     1      -9.991  13.579  -2.244  1.00  0.00    -0.258 OA
ATOM     22  O   UNL     1     -10.466  14.850  -0.643  1.00  0.00    -0.258 OA
ENDBRANCH   7  20
TORSDOF 2
ENDMDL
MODEL 7
REMARK VINA RESULT:    -3.918      3.653      4.649
REMARK INTER + INTRA:          -4.692
REMARK INTER:                  -4.386
REMARK INTRA:                  -0.305
REMARK UNBOUND:                -0.315
REMARK SMILES O=[N+]([O-])c1ccc2c(c1)N[C@@H](c1cc(Cl)cc(Cl)c1)N2
REMARK SMILES IDX 7 1 8 2 5 3 6 4 20 5 10 6 4 7 11 8 9 9 12 12 14 13 13 14
REMARK SMILES IDX 16 15 17 16 19 17 15 18 18 19 2 20 3 21 1 22
REMARK H PARENT 20 10 10 11
ROOT
ATOM      1  C   UNL     1      -8.631  13.128   3.586  1.00  0.00     0.060 A 
ATOM      2  C   UNL     1      -7.350  13.167   4.081  1.00  0.00     0.066 A 
ATOM      3  C   UNL     1      -9.273  14.960   4.921  1.00  0.00     0.088 A 
ATOM      4  C   UNL     1      -9.482  14.108   3.803  1.00  0.00     0.035 A 
ATOM      5  N   UNL     1      -8.739  12.052   2.621  1.00  0.00    -0.360 N 
ATOM      6  N   UNL     1      -6.669  12.154   3.401  1.00  0.00    -0.360 N 
ATOM      7  C   UNL     1      -8.029  14.931   5.548  1.00  0.00     0.271 A 
ATOM      8  C   UNL     1      -7.432  11.932   2.226  1.00  0.00     0.205 C 
ATOM      9  C   UNL     1      -7.028  14.019   5.089  1.00  0.00     0.113 A 
ATOM     10  H   UNL     1      -9.568  11.522   2.316  1.00  0.00     0.163 HD
ATOM     11  H   UNL     1      -5.805  11.673   3.690  1.00  0.00     0.163 HD
ENDROOT
BRANCH   8  12
ATOM     12  C   UNL     1      -7.006  10.692   1.393  1.00  0.00    -0.003 A 
ATOM     13  C   UNL     1      -7.225   8.248   1.057  1.00  0.00     0.042 A 
ATOM     14  C   UNL     1      -7.831   9.550   1.282  1.00  0.00     0.028 A 
ATOM     15  C   UNL     1      -5.924   8.226   0.379  1.00  0.00     0.041 A 
ATOM     16  C   UNL     1      -5.268   9.516   0.189  1.00  0.00     0.042 A 
ATOM     17  C   UNL     1      -5.684  10.715   0.819  1.00  0.00     0.028 A 
ATOM     18  Cl  UNL     1      -7.937   6.868   1.191  1.00  0.00    -0.084 Cl
ATOM     19  Cl  UNL     1      -3.861   9.514  -0.781  1.00  0.00    -0.084 Cl
ENDBRANCH   8  12
BRANCH   7  20
ATOM     20  N   UNL     1      -7.652  15.813   6.540  1.00  0.00     0.062 N 
ATOM     21  O   UNL     1      -8.119  15.730   7.616  1.00  0.00    -0.258 OA
ATOM     22  O   UNL     1      -6.627  16.615   6.433  1.00  0.00    -0.258 OA
ENDBRANCH   7  20
TORSDOF 2
ENDMDL
MODEL 8
REMARK VINA RESULT:    -3.713      4.378      5.818
REMARK INTER + INTRA:          -4.462
REMARK INTER:                  -4.153
REMARK INTRA:                  -0.309
REMARK UNBOUND:                -0.315
REMARK SMILES O=[N+]([O-])c1ccc2c(c1)N[C@@H](c1cc(Cl)cc(Cl)c1)N2
REMARK SMILES IDX 7 1 8 2 5 3 6 4 20 5 10 6 4 7 11 8 9 9 12 12 14 13 13 14
REMARK SMILES IDX 16 15 17 16 19 17 15 18 18 19 2 20 3 21 1 22
REMARK H PARENT 20 10 10 11
ROOT
ATOM      1  C   UNL     1      -7.503  14.219   4.739  1.00  0.00     0.060 A 
ATOM      2  C   UNL     1      -8.833  14.377   4.429  1.00  0.00     0.066 A 
ATOM      3  C   UNL     1      -7.704  15.631   6.614  1.00  0.00     0.088 A 
ATOM      4  C   UNL     1      -7.014  14.620   5.893  1.00  0.00     0.035 A 
ATOM      5  N   UNL     1      -6.888  13.337   3.768  1.00  0.00    -0.360 N 
ATOM      6  N   UNL     1      -9.040  13.572   3.306  1.00  0.00    -0.360 N 
ATOM      7  C   UNL     1      -9.014  15.928   6.242  1.00  0.00     0.271 A 
ATOM      8  C   UNL     1      -7.981  12.630   3.338  1.00  0.00     0.205 C 
ATOM      9  C   UNL     1      -9.601  15.254   5.126  1.00  0.00     0.113 A 
ATOM     10  H   UNL     1      -5.902  13.260   3.481  1.00  0.00     0.163 HD
ATOM     11  H   UNL     1      -9.795  13.646   2.610  1.00  0.00     0.163 HD
ENDROOT
BRANCH   8  12
ATOM     12  C   UNL     1      -7.854  11.744   2.067  1.00  0.00    -0.003 A 
ATOM     13  C   UNL     1      -6.589   9.962   0.902  1.00  0.00     0.042 A 
ATOM     14  C   UNL     1      -7.230  10.477   2.101  1.00  0.00     0.028 A 
ATOM     15  C   UNL     1      -7.102  10.443  -0.386  1.00  0.00     0.041 A 
ATOM     16  C   UNL     1      -8.054  11.547  -0.336  1.00  0.00     0.042 A 
ATOM     17  C   UNL     1      -8.312  12.316   0.826  1.00  0.00     0.028 A 
ATOM     18  Cl  UNL     1      -5.624   8.740   0.829  1.00  0.00    -0.084 Cl
ATOM     19  Cl  UNL     1      -8.806  11.966  -1.812  1.00  0.00    -0.084 Cl
ENDBRANCH   8  12
BRANCH   7  20
ATOM     20  N   UNL     1      -9.838  16.775   6.955  1.00  0.00     0.062 N 
ATOM     21  O   UNL     1     -10.485  17.581   6.396  1.00  0.00    -0.258 OA
ATOM     22  O   UNL     1     -10.127  16.599   8.216  1.00  0.00    -0.258 OA
ENDBRANCH   7  20
TORSDOF 2
ENDMDL
MODEL 9
REMARK VINA RESULT:    -3.609      2.763      4.031
REMARK INTER + INTRA:          -4.346
REMARK INTER:                  -4.042
REMARK INTRA:                  -0.304
REMARK UNBOUND:                -0.315
REMARK SMILES O=[N+]([O-])c1ccc2c(c1)N[C@@H](c1cc(Cl)cc(Cl)c1)N2
REMARK SMILES IDX 7 1 8 2 5 3 6 4 20 5 10 6 4 7 11 8 9 9 12 12 14 13 13 14
REMARK SMILES IDX 16 15 17 16 19 17 15 18 18 19 2 20 3 21 1 22
REMARK H PARENT 20 10 10 11
ROOT
ATOM      1  C   UNL     1      -9.008  13.155  -1.222  1.00  0.00     0.060 A 
ATOM      2  C   UNL     1      -9.579  12.074  -1.851  1.00  0.00     0.066 A 
ATOM      3  C   UNL     1     -10.640  14.611  -2.099  1.00  0.00     0.088 A 
ATOM      4  C   UNL     1      -9.629  14.312  -1.145  1.00  0.00     0.035 A 
ATOM      5  N   UNL     1      -7.848  12.714  -0.474  1.00  0.00    -0.360 N 
ATOM      6  N   UNL     1      -8.803  10.979  -1.463  1.00  0.00    -0.360 N 
ATOM      7  C   UNL     1     -11.152  13.566  -2.865  1.00  0.00     0.271 A 
ATOM      8  C   UNL     1      -8.163  11.396  -0.268  1.00  0.00     0.205 C 
ATOM      9  C   UNL     1     -10.616  12.249  -2.711  1.00  0.00     0.113 A 
ATOM     10  H   UNL     1      -7.016  13.244  -0.177  1.00  0.00     0.163 HD
ATOM     11  H   UNL     1      -8.716  10.070  -1.940  1.00  0.00     0.163 HD
ENDROOT
BRANCH   8  12
ATOM     12  C   UNL     1      -7.065  10.430   0.257  1.00  0.00    -0.003 A 
ATOM     13  C   UNL     1      -4.686   9.750   0.158  1.00  0.00     0.042 A 
ATOM     14  C   UNL     1      -5.698  10.788   0.260  1.00  0.00     0.028 A 
ATOM     15  C   UNL     1      -5.049   8.414   0.646  1.00  0.00     0.041 A 
ATOM     16  C   UNL     1      -6.453   8.206   0.985  1.00  0.00     0.042 A 
ATOM     17  C   UNL     1      -7.490   9.110   0.648  1.00  0.00     0.028 A 
ATOM     18  Cl  UNL     1      -3.171   9.969  -0.137  1.00  0.00    -0.084 Cl
ATOM     19  Cl  UNL     1      -6.836   6.725   1.747  1.00  0.00    -0.084 Cl
ENDBRANCH   8  12
BRANCH   7  20
ATOM     20  N   UNL     1     -12.235  13.696  -3.710  1.00  0.00     0.062 N 
ATOM     21  O   UNL     1     -12.072  13.942  -4.848  1.00  0.00    -0.258 OA
ATOM     22  O   UNL     1     -13.447  13.344  -3.379  1.00  0.00    -0.258 OA
ENDBRANCH   7  20
TORSDOF 2
ENDMDL
