MODEL 1
REMARK VINA RESULT:    -4.283      0.000      0.000
REMARK INTER + INTRA:          -5.099
REMARK INTER:                  -4.784
REMARK INTRA:                  -0.315
REMARK UNBOUND:                -0.315
REMARK SMILES O=[N+]([O-])c1ccc2c(c1)N[C@@H](c1cc(Cl)cc(Cl)c1)N2
REMARK SMILES IDX 7 1 8 2 5 3 6 4 20 5 10 6 4 7 11 8 9 9 12 12 14 13 13 14
REMARK SMILES IDX 16 15 17 16 19 17 15 18 18 19 2 20 3 21 1 22
REMARK H PARENT 20 10 10 11
ROOT
ATOM      1  C   UNL     1      11.464  -2.132  -1.343  1.00  0.00     0.060 A 
ATOM      2  C   UNL     1      11.087  -2.836  -2.462  1.00  0.00     0.066 A 
ATOM      3  C   UNL     1      13.746  -2.421  -1.850  1.00  0.00     0.088 A 
ATOM      4  C   UNL     1      12.706  -1.735  -1.167  1.00  0.00     0.035 A 
ATOM      5  N   UNL     1      10.279  -1.697  -0.630  1.00  0.00    -0.360 N 
ATOM      6  N   UNL     1       9.690  -2.800  -2.457  1.00  0.00    -0.360 N 
ATOM      7  C   UNL     1      13.400  -3.261  -2.906  1.00  0.00     0.271 A 
ATOM      8  C   UNL     1       9.361  -1.684  -1.648  1.00  0.00     0.205 C 
ATOM      9  C   UNL     1      12.021  -3.449  -3.235  1.00  0.00     0.113 A 
ATOM     10  H   UNL     1      10.160  -1.462   0.365  1.00  0.00     0.163 HD
ATOM     11  H   UNL     1       9.043  -3.443  -2.936  1.00  0.00     0.163 HD
ENDROOT
BRANCH   8  12
ATOM     12  C   UNL     1       7.852  -1.549  -1.301  1.00  0.00    -0.003 A 
ATOM     13  C   UNL     1       6.138  -0.410   0.077  1.00  0.00     0.042 A 
ATOM     14  C   UNL     1       7.312  -0.352  -0.778  1.00  0.00     0.028 A 
ATOM     15  C   UNL     1       5.233  -1.551  -0.110  1.00  0.00     0.041 A 
ATOM     16  C   UNL     1       5.707  -2.621  -0.980  1.00  0.00     0.042 A 
ATOM     17  C   UNL     1       7.043  -2.733  -1.440  1.00  0.00     0.028 A 
ATOM     18  Cl  UNL     1       5.584   0.751   0.957  1.00  0.00    -0.084 Cl
ATOM     19  Cl  UNL     1       4.576  -3.843  -1.364  1.00  0.00    -0.084 Cl
ENDBRANCH   8  12
BRANCH   7  20
ATOM     20  N   UNL     1      14.320  -3.860  -3.741  1.00  0.00     0.062 N 
ATOM     21  O   UNL     1      14.003  -4.215  -4.816  1.00  0.00    -0.258 OA
ATOM     22  O   UNL     1      15.604  -3.866  -3.504  1.00  0.00    -0.258 OA
ENDBRANCH   7  20
TORSDOF 2
ENDMDL
MODEL 2
REMARK VINA RESULT:    -4.277      1.114      2.724
REMARK INTER + INTRA:          -5.092
REMARK INTER:                  -4.777
REMARK INTRA:                  -0.315
REMARK UNBOUND:                -0.315
REMARK SMILES O=[N+]([O-])c1ccc2c(c1)N[C@@H](c1cc(Cl)cc(Cl)c1)N2
REMARK SMILES IDX 7 1 8 2 5 3 6 4 20 5 10 6 4 7 11 8 9 9 12 12 14 13 13 14
REMARK SMILES IDX 16 15 17 16 19 17 15 18 18 19 2 20 3 21 1 22
REMARK H PARENT 20 10 10 11
ROOT
ATOM      1  C   UNL     1      11.020  -2.936  -2.459  1.00  0.00     0.060 A 
ATOM      2  C   UNL     1      11.462  -2.234  -1.363  1.00  0.00     0.066 A 
ATOM      3  C   UNL     1      13.229  -3.362  -3.158  1.00  0.00     0.088 A 
ATOM      4  C   UNL     1      11.840  -3.665  -3.185  1.00  0.00     0.035 A 
ATOM      5  N   UNL     1       9.571  -2.956  -2.461  1.00  0.00    -0.360 N 
ATOM      6  N   UNL     1      10.301  -1.860  -0.681  1.00  0.00    -0.360 N 
ATOM      7  C   UNL     1      13.703  -2.534  -2.144  1.00  0.00     0.271 A 
ATOM      8  C   UNL     1       9.311  -2.773  -1.128  1.00  0.00     0.205 C 
ATOM      9  C   UNL     1      12.786  -1.975  -1.201  1.00  0.00     0.113 A 
ATOM     10  H   UNL     1       8.916  -3.075  -3.248  1.00  0.00     0.163 HD
ATOM     11  H   UNL     1      10.188  -1.092  -0.004  1.00  0.00     0.163 HD
ENDROOT
BRANCH   8  12
ATOM     12  C   UNL     1       7.861  -2.437  -0.681  1.00  0.00    -0.003 A 
ATOM     13  C   UNL     1       5.448  -2.925  -0.944  1.00  0.00     0.042 A 
ATOM     14  C   UNL     1       6.816  -3.383  -0.770  1.00  0.00     0.028 A 
ATOM     15  C   UNL     1       5.123  -1.587  -0.434  1.00  0.00     0.041 A 
ATOM     16  C   UNL     1       6.249  -0.767  -0.000  1.00  0.00     0.042 A 
ATOM     17  C   UNL     1       7.605  -1.081  -0.264  1.00  0.00     0.028 A 
ATOM     18  Cl  UNL     1       4.226  -3.808  -1.341  1.00  0.00    -0.084 Cl
ATOM     19  Cl  UNL     1       5.858   0.701   0.784  1.00  0.00    -0.084 Cl
ENDBRANCH   8  12
BRANCH   7  20
ATOM     20  N   UNL     1      15.043  -2.289  -1.919  1.00  0.00     0.062 N 
ATOM     21  O   UNL     1      15.412  -1.933  -0.862  1.00  0.00    -0.258 OA
ATOM     22  O   UNL     1      15.984  -2.642  -2.752  1.00  0.00    -0.258 OA
ENDBRANCH   7  20
TORSDOF 2
ENDMDL
MODEL 3
REMARK VINA RESULT:    -3.961      0.700      2.121
REMARK INTER + INTRA:          -4.739
REMARK INTER:                  -4.440
REMARK INTRA:                  -0.299
REMARK UNBOUND:                -0.315
REMARK SMILES O=[N+]([O-])c1ccc2c(c1)N[C@@H](c1cc(Cl)cc(Cl)c1)N2
REMARK SMILES IDX 7 1 8 2 5 3 6 4 20 5 10 6 4 7 11 8 9 9 12 12 14 13 13 14
REMARK SMILES IDX 16 15 17 16 19 17 15 18 18 19 2 20 3 21 1 22
REMARK H PARENT 20 10 10 11
ROOT
ATOM      1  C   UNL     1      11.539  -2.664  -1.696  1.00  0.00     0.060 A 
ATOM      2  C   UNL     1      10.926  -3.287  -2.756  1.00  0.00     0.066 A 
ATOM      3  C   UNL     1      13.670  -3.011  -2.639  1.00  0.00     0.088 A 
ATOM      4  C   UNL     1      12.810  -2.326  -1.738  1.00  0.00     0.035 A 
ATOM      5  N   UNL     1      10.531  -2.225  -0.751  1.00  0.00    -0.360 N 
ATOM      6  N   UNL     1       9.558  -3.197  -2.486  1.00  0.00    -0.360 N 
ATOM      7  C   UNL     1      13.091  -3.774  -3.651  1.00  0.00     0.271 A 
ATOM      8  C   UNL     1       9.441  -2.118  -1.574  1.00  0.00     0.205 C 
ATOM      9  C   UNL     1      11.668  -3.890  -3.721  1.00  0.00     0.113 A 
ATOM     10  H   UNL     1      10.612  -2.044   0.260  1.00  0.00     0.163 HD
ATOM     11  H   UNL     1       8.802  -3.786  -2.864  1.00  0.00     0.163 HD
ENDROOT
BRANCH   8  12
ATOM     12  C   UNL     1       8.032  -1.945  -0.941  1.00  0.00    -0.003 A 
ATOM     13  C   UNL     1       5.677  -2.710  -0.891  1.00  0.00     0.042 A 
ATOM     14  C   UNL     1       7.100  -3.007  -0.898  1.00  0.00     0.028 A 
ATOM     15  C   UNL     1       5.269  -1.413  -0.339  1.00  0.00     0.041 A 
ATOM     16  C   UNL     1       6.339  -0.464  -0.051  1.00  0.00     0.042 A 
ATOM     17  C   UNL     1       7.677  -0.624  -0.490  1.00  0.00     0.028 A 
ATOM     18  Cl  UNL     1       4.524  -3.732  -1.130  1.00  0.00    -0.084 Cl
ATOM     19  Cl  UNL     1       5.886   0.958   0.782  1.00  0.00    -0.084 Cl
ENDBRANCH   8  12
BRANCH   7  20
ATOM     20  N   UNL     1      13.809  -4.359  -4.674  1.00  0.00     0.062 N 
ATOM     21  O   UNL     1      13.271  -4.677  -5.669  1.00  0.00    -0.258 OA
ATOM     22  O   UNL     1      15.113  -4.389  -4.707  1.00  0.00    -0.258 OA
ENDBRANCH   7  20
TORSDOF 2
ENDMDL
MODEL 4
REMARK VINA RESULT:    -3.908      1.746      2.239
REMARK INTER + INTRA:          -4.680
REMARK INTER:                  -4.387
REMARK INTRA:                  -0.292
REMARK UNBOUND:                -0.315
REMARK SMILES O=[N+]([O-])c1ccc2c(c1)N[C@@H](c1cc(Cl)cc(Cl)c1)N2
REMARK SMILES IDX 7 1 8 2 5 3 6 4 20 5 10 6 4 7 11 8 9 9 12 12 14 13 13 14
REMARK SMILES IDX 16 15 17 16 19 17 15 18 18 19 2 20 3 21 1 22
REMARK H PARENT 20 10 10 11
ROOT
ATOM      1  C   UNL     1      11.547  -2.485  -2.191  1.00  0.00     0.060 A 
ATOM      2  C   UNL     1      11.695  -1.807  -1.004  1.00  0.00     0.066 A 
ATOM      3  C   UNL     1      13.878  -2.754  -2.402  1.00  0.00     0.088 A 
ATOM      4  C   UNL     1      12.551  -3.134  -2.741  1.00  0.00     0.035 A 
ATOM      5  N   UNL     1      10.137  -2.586  -2.511  1.00  0.00    -0.360 N 
ATOM      6  N   UNL     1      10.392  -1.529  -0.583  1.00  0.00    -0.360 N 
ATOM      7  C   UNL     1      14.067  -1.946  -1.284  1.00  0.00     0.271 A 
ATOM      8  C   UNL     1       9.584  -2.476  -1.263  1.00  0.00     0.205 C 
ATOM      9  C   UNL     1      12.932  -1.481  -0.548  1.00  0.00     0.113 A 
ATOM     10  H   UNL     1       9.678  -2.708  -3.425  1.00  0.00     0.163 HD
ATOM     11  H   UNL     1      10.086  -0.799   0.076  1.00  0.00     0.163 HD
ENDROOT
BRANCH   8  12
ATOM     12  C   UNL     1       8.053  -2.242  -1.134  1.00  0.00    -0.003 A 
ATOM     13  C   UNL     1       6.244  -0.875  -0.137  1.00  0.00     0.042 A 
ATOM     14  C   UNL     1       7.516  -0.969  -0.832  1.00  0.00     0.028 A 
ATOM     15  C   UNL     1       5.309  -1.995  -0.303  1.00  0.00     0.041 A 
ATOM     16  C   UNL     1       5.830  -3.183  -0.970  1.00  0.00     0.042 A 
ATOM     17  C   UNL     1       7.205  -3.402  -1.235  1.00  0.00     0.028 A 
ATOM     18  Cl  UNL     1       5.648   0.407   0.519  1.00  0.00    -0.084 Cl
ATOM     19  Cl  UNL     1       4.692  -4.400  -1.349  1.00  0.00    -0.084 Cl
ENDBRANCH   8  12
BRANCH   7  20
ATOM     20  N   UNL     1      15.307  -1.636  -0.765  1.00  0.00     0.062 N 
ATOM     21  O   UNL     1      15.652  -2.095   0.261  1.00  0.00    -0.258 OA
ATOM     22  O   UNL     1      16.238  -1.028  -1.449  1.00  0.00    -0.258 OA
ENDBRANCH   7  20
TORSDOF 2
ENDMDL
MODEL 5
REMARK VINA RESULT:    -3.906      5.108      7.574
REMARK INTER + INTRA:          -4.678
REMARK INTER:                  -4.378
REMARK INTRA:                  -0.300
REMARK UNBOUND:                -0.315
REMARK SMILES O=[N+]([O-])c1ccc2c(c1)N[C@@H](c1cc(Cl)cc(Cl)c1)N2
REMARK SMILES IDX 7 1 8 2 5 3 6 4 20 5 10 6 4 7 11 8 9 9 12 12 14 13 13 14
REMARK SMILES IDX 16 15 17 16 19 17 15 18 18 19 2 20 3 21 1 22
REMARK H PARENT 20 10 10 11
ROOT
ATOM      1  C   UNL     1       7.524  -2.963  -1.291  1.00  0.00     0.060 A 
ATOM      2  C   UNL     1       7.845  -1.890  -0.495  1.00  0.00     0.066 A 
ATOM      3  C   UNL     1       5.220  -2.596  -0.970  1.00  0.00     0.088 A 
ATOM      4  C   UNL     1       6.293  -3.166  -1.707  1.00  0.00     0.035 A 
ATOM      5  N   UNL     1       8.743  -3.577  -1.780  1.00  0.00    -0.360 N 
ATOM      6  N   UNL     1       9.241  -1.823  -0.525  1.00  0.00    -0.360 N 
ATOM      7  C   UNL     1       5.514  -1.598  -0.043  1.00  0.00     0.271 A 
ATOM      8  C   UNL     1       9.610  -2.518  -1.705  1.00  0.00     0.205 C 
ATOM      9  C   UNL     1       6.875  -1.219   0.178  1.00  0.00     0.113 A 
ATOM     10  H   UNL     1       8.911  -4.542  -2.098  1.00  0.00     0.163 HD
ATOM     11  H   UNL     1       9.864  -1.369   0.158  1.00  0.00     0.163 HD
ENDROOT
BRANCH   8  12
ATOM     12  C   UNL     1      11.134  -2.778  -1.862  1.00  0.00    -0.003 A 
ATOM     13  C   UNL     1      13.429  -2.055  -1.276  1.00  0.00     0.042 A 
ATOM     14  C   UNL     1      12.065  -2.365  -0.882  1.00  0.00     0.028 A 
ATOM     15  C   UNL     1      13.944  -2.722  -2.477  1.00  0.00     0.041 A 
ATOM     16  C   UNL     1      12.973  -3.462  -3.277  1.00  0.00     0.042 A 
ATOM     17  C   UNL     1      11.570  -3.370  -3.101  1.00  0.00     0.028 A 
ATOM     18  Cl  UNL     1      14.494  -1.325  -0.403  1.00  0.00    -0.084 Cl
ATOM     19  Cl  UNL     1      13.605  -4.407  -4.552  1.00  0.00    -0.084 Cl
ENDBRANCH   8  12
BRANCH   7  20
ATOM     20  N   UNL     1       4.553  -0.863   0.621  1.00  0.00     0.062 N 
ATOM     21  O   UNL     1       3.430  -1.208   0.610  1.00  0.00    -0.258 OA
ATOM     22  O   UNL     1       4.839   0.092   1.464  1.00  0.00    -0.258 OA
ENDBRANCH   7  20
TORSDOF 2
ENDMDL
MODEL 6
REMARK VINA RESULT:    -3.878      3.077      4.459
REMARK INTER + INTRA:          -4.646
REMARK INTER:                  -4.341
REMARK INTRA:                  -0.305
REMARK UNBOUND:                -0.315
REMARK SMILES O=[N+]([O-])c1ccc2c(c1)N[C@@H](c1cc(Cl)cc(Cl)c1)N2
REMARK SMILES IDX 7 1 8 2 5 3 6 4 20 5 10 6 4 7 11 8 9 9 12 12 14 13 13 14
REMARK SMILES IDX 16 15 17 16 19 17 15 18 18 19 2 20 3 21 1 22
REMARK H PARENT 20 10 10 11
ROOT
ATOM      1  C   UNL     1      13.130  -4.454  -4.619  1.00  0.00     0.060 A 
ATOM      2  C   UNL     1      12.284  -3.882  -5.538  1.00  0.00     0.066 A 
ATOM      3  C   UNL     1      14.663  -5.053  -6.304  1.00  0.00     0.088 A 
ATOM      4  C   UNL     1      14.357  -4.805  -4.939  1.00  0.00     0.035 A 
ATOM      5  N   UNL     1      12.559  -4.318  -3.293  1.00  0.00    -0.360 N 
ATOM      6  N   UNL     1      11.226  -3.367  -4.783  1.00  0.00    -0.360 N 
ATOM      7  C   UNL     1      13.761  -4.614  -7.271  1.00  0.00     0.271 A 
ATOM      8  C   UNL     1      11.753  -3.225  -3.474  1.00  0.00     0.205 C 
ATOM      9  C   UNL     1      12.543  -3.984  -6.868  1.00  0.00     0.113 A 
ATOM     10  H   UNL     1      12.716  -4.886  -2.448  1.00  0.00     0.163 HD
ATOM     11  H   UNL     1      10.275  -3.141  -5.107  1.00  0.00     0.163 HD
ENDROOT
BRANCH   8  12
ATOM     12  C   UNL     1      10.706  -2.870  -2.382  1.00  0.00    -0.003 A 
ATOM     13  C   UNL     1       9.063  -3.718  -0.736  1.00  0.00     0.042 A 
ATOM     14  C   UNL     1      10.384  -3.767  -1.339  1.00  0.00     0.028 A 
ATOM     15  C   UNL     1       8.356  -2.433  -0.781  1.00  0.00     0.041 A 
ATOM     16  C   UNL     1       8.953  -1.392  -1.611  1.00  0.00     0.042 A 
ATOM     17  C   UNL     1      10.000  -1.623  -2.537  1.00  0.00     0.028 A 
ATOM     18  Cl  UNL     1       8.444  -4.794   0.208  1.00  0.00    -0.084 Cl
ATOM     19  Cl  UNL     1       8.250   0.162  -1.499  1.00  0.00    -0.084 Cl
ENDBRANCH   8  12
BRANCH   7  20
ATOM     20  N   UNL     1      14.013  -4.657  -8.628  1.00  0.00     0.062 N 
ATOM     21  O   UNL     1      13.983  -5.681  -9.204  1.00  0.00    -0.258 OA
ATOM     22  O   UNL     1      14.068  -3.591  -9.379  1.00  0.00    -0.258 OA
ENDBRANCH   7  20
TORSDOF 2
ENDMDL
MODEL 7
REMARK VINA RESULT:    -3.860      4.973      7.637
REMARK INTER + INTRA:          -4.627
REMARK INTER:                  -4.327
REMARK INTRA:                  -0.299
REMARK UNBOUND:                -0.315
REMARK SMILES O=[N+]([O-])c1ccc2c(c1)N[C@@H](c1cc(Cl)cc(Cl)c1)N2
REMARK SMILES IDX 7 1 8 2 5 3 6 4 20 5 10 6 4 7 11 8 9 9 12 12 14 13 13 14
REMARK SMILES IDX 16 15 17 16 19 17 15 18 18 19 2 20 3 21 1 22
REMARK H PARENT 20 10 10 11
ROOT
ATOM      1  C   UNL     1       7.934  -1.289  -0.565  1.00  0.00     0.060 A 
ATOM      2  C   UNL     1       7.499  -2.249  -1.447  1.00  0.00     0.066 A 
ATOM      3  C   UNL     1       5.770  -1.038   0.333  1.00  0.00     0.088 A 
ATOM      4  C   UNL     1       7.179  -0.877   0.431  1.00  0.00     0.035 A 
ATOM      5  N   UNL     1       9.355  -1.076  -0.753  1.00  0.00    -0.360 N 
ATOM      6  N   UNL     1       8.644  -2.648  -2.140  1.00  0.00    -0.360 N 
ATOM      7  C   UNL     1       5.272  -1.897  -0.645  1.00  0.00     0.271 A 
ATOM      8  C   UNL     1       9.723  -2.279  -1.296  1.00  0.00     0.205 C 
ATOM      9  C   UNL     1       6.176  -2.542  -1.545  1.00  0.00     0.113 A 
ATOM     10  H   UNL     1       9.931  -0.250  -0.537  1.00  0.00     0.163 HD
ATOM     11  H   UNL     1       8.694  -3.109  -3.059  1.00  0.00     0.163 HD
ENDROOT
BRANCH   8  12
ATOM     12  C   UNL     1      11.132  -2.419  -1.937  1.00  0.00    -0.003 A 
ATOM     13  C   UNL     1      12.570  -3.660  -3.526  1.00  0.00     0.042 A 
ATOM     14  C   UNL     1      11.316  -2.995  -3.214  1.00  0.00     0.028 A 
ATOM     15  C   UNL     1      13.761  -3.212  -2.795  1.00  0.00     0.041 A 
ATOM     16  C   UNL     1      13.534  -2.300  -1.679  1.00  0.00     0.042 A 
ATOM     17  C   UNL     1      12.258  -2.028  -1.127  1.00  0.00     0.028 A 
ATOM     18  Cl  UNL     1      12.841  -4.581  -4.753  1.00  0.00    -0.084 Cl
ATOM     19  Cl  UNL     1      14.928  -1.617  -0.963  1.00  0.00    -0.084 Cl
ENDBRANCH   8  12
BRANCH   7  20
ATOM     20  N   UNL     1       3.943  -2.256  -0.743  1.00  0.00     0.062 N 
ATOM     21  O   UNL     1       3.112  -1.598  -0.233  1.00  0.00    -0.258 OA
ATOM     22  O   UNL     1       3.508  -3.172  -1.564  1.00  0.00    -0.258 OA
ENDBRANCH   7  20
TORSDOF 2
ENDMDL
MODEL 8
REMARK VINA RESULT:    -3.778      5.010      7.434
REMARK INTER + INTRA:          -4.535
REMARK INTER:                  -4.218
REMARK INTRA:                  -0.317
REMARK UNBOUND:                -0.315
REMARK SMILES O=[N+]([O-])c1ccc2c(c1)N[C@@H](c1cc(Cl)cc(Cl)c1)N2
REMARK SMILES IDX 7 1 8 2 5 3 6 4 20 5 10 6 4 7 11 8 9 9 12 12 14 13 13 14
REMARK SMILES IDX 16 15 17 16 19 17 15 18 18 19 2 20 3 21 1 22
REMARK H PARENT 20 10 10 11
ROOT
ATOM      1  C   UNL     1       7.916  -1.075  -0.574  1.00  0.00     0.060 A 
ATOM      2  C   UNL     1       7.393  -2.220  -1.126  1.00  0.00     0.066 A 
ATOM      3  C   UNL     1       5.798  -0.413   0.219  1.00  0.00     0.088 A 
ATOM      4  C   UNL     1       7.217  -0.332   0.257  1.00  0.00     0.035 A 
ATOM      5  N   UNL     1       9.343  -1.032  -0.824  1.00  0.00    -0.360 N 
ATOM      6  N   UNL     1       8.491  -2.890  -1.674  1.00  0.00    -0.360 N 
ATOM      7  C   UNL     1       5.218  -1.485  -0.455  1.00  0.00     0.271 A 
ATOM      8  C   UNL     1       9.614  -2.365  -0.985  1.00  0.00     0.205 C 
ATOM      9  C   UNL     1       6.052  -2.433  -1.126  1.00  0.00     0.113 A 
ATOM     10  H   UNL     1       9.978  -0.222  -0.868  1.00  0.00     0.163 HD
ATOM     11  H   UNL     1       8.485  -3.605  -2.414  1.00  0.00     0.163 HD
ENDROOT
BRANCH   8  12
ATOM     12  C   UNL     1      10.993  -2.791  -1.562  1.00  0.00    -0.003 A 
ATOM     13  C   UNL     1      13.426  -2.339  -1.658  1.00  0.00     0.042 A 
ATOM     14  C   UNL     1      12.202  -2.502  -0.890  1.00  0.00     0.028 A 
ATOM     15  C   UNL     1      13.503  -3.039  -2.945  1.00  0.00     0.041 A 
ATOM     16  C   UNL     1      12.270  -3.652  -3.427  1.00  0.00     0.042 A 
ATOM     17  C   UNL     1      10.993  -3.406  -2.864  1.00  0.00     0.028 A 
ATOM     18  Cl  UNL     1      14.769  -1.749  -1.131  1.00  0.00    -0.084 Cl
ATOM     19  Cl  UNL     1      12.407  -4.640  -4.814  1.00  0.00    -0.084 Cl
ENDBRANCH   8  12
BRANCH   7  20
ATOM     20  N   UNL     1       3.865  -1.760  -0.435  1.00  0.00     0.062 N 
ATOM     21  O   UNL     1       3.408  -2.544  -1.181  1.00  0.00    -0.258 OA
ATOM     22  O   UNL     1       3.069  -1.365   0.522  1.00  0.00    -0.258 OA
ENDBRANCH   7  20
TORSDOF 2
ENDMDL
MODEL 9
REMARK VINA RESULT:    -3.600      3.979      5.836
REMARK INTER + INTRA:          -4.336
REMARK INTER:                  -4.044
REMARK INTRA:                  -0.291
REMARK UNBOUND:                -0.315
REMARK SMILES O=[N+]([O-])c1ccc2c(c1)N[C@@H](c1cc(Cl)cc(Cl)c1)N2
REMARK SMILES IDX 7 1 8 2 5 3 6 4 20 5 10 6 4 7 11 8 9 9 12 12 14 13 13 14
REMARK SMILES IDX 16 15 17 16 19 17 15 18 18 19 2 20 3 21 1 22
REMARK H PARENT 20 10 10 11
ROOT
ATOM      1  C   UNL     1      14.123  -4.759  -5.643  1.00  0.00     0.060 A 
ATOM      2  C   UNL     1      13.060  -4.259  -6.356  1.00  0.00     0.066 A 
ATOM      3  C   UNL     1      15.251  -5.363  -7.621  1.00  0.00     0.088 A 
ATOM      4  C   UNL     1      15.259  -5.073  -6.230  1.00  0.00     0.035 A 
ATOM      5  N   UNL     1      13.869  -4.592  -4.226  1.00  0.00    -0.360 N 
ATOM      6  N   UNL     1      12.183  -3.756  -5.392  1.00  0.00    -0.360 N 
ATOM      7  C   UNL     1      14.129  -5.002  -8.364  1.00  0.00     0.271 A 
ATOM      8  C   UNL     1      12.991  -3.540  -4.247  1.00  0.00     0.205 C 
ATOM      9  C   UNL     1      13.009  -4.404  -7.706  1.00  0.00     0.113 A 
ATOM     10  H   UNL     1      14.245  -5.118  -3.424  1.00  0.00     0.163 HD
ATOM     11  H   UNL     1      11.173  -3.582  -5.491  1.00  0.00     0.163 HD
ENDROOT
BRANCH   8  12
ATOM     12  C   UNL     1      12.209  -3.183  -2.952  1.00  0.00    -0.003 A 
ATOM     13  C   UNL     1      10.003  -2.722  -1.926  1.00  0.00     0.042 A 
ATOM     14  C   UNL     1      10.852  -3.536  -2.780  1.00  0.00     0.028 A 
ATOM     15  C   UNL     1      10.662  -1.977  -0.847  1.00  0.00     0.041 A 
ATOM     16  C   UNL     1      12.121  -1.954  -0.870  1.00  0.00     0.042 A 
ATOM     17  C   UNL     1      12.901  -2.385  -1.972  1.00  0.00     0.028 A 
ATOM     18  Cl  UNL     1       8.448  -2.788  -1.845  1.00  0.00    -0.084 Cl
ATOM     19  Cl  UNL     1      12.890  -1.267   0.493  1.00  0.00    -0.084 Cl
ENDBRANCH   8  12
BRANCH   7  20
ATOM     20  N   UNL     1      14.061  -5.090  -9.739  1.00  0.00     0.062 N 
ATOM     21  O   UNL     1      13.612  -6.048 -10.251  1.00  0.00    -0.258 OA
ATOM     22  O   UNL     1      14.263  -4.072 -10.532  1.00  0.00    -0.258 OA
ENDBRANCH   7  20
TORSDOF 2
ENDMDL
