MODEL 1
REMARK VINA RESULT:    -4.163      0.000      0.000
REMARK INTER + INTRA:          -4.965
REMARK INTER:                  -4.649
REMARK INTRA:                  -0.316
REMARK UNBOUND:                -0.316
REMARK SMILES O=[N+]([O-])c1ccc2c(c1)N[C@@H](c1cc(Cl)cc(Cl)c1)N2
REMARK SMILES IDX 7 1 8 2 5 3 6 4 20 5 10 6 4 7 11 8 9 9 12 12 14 13 13 14
REMARK SMILES IDX 16 15 17 16 19 17 15 18 18 19 2 20 3 21 1 22
REMARK H PARENT 20 10 10 11
ROOT
ATOM      1  C   UNL     1      -7.645  -2.636   7.713  1.00  0.00     0.060 A 
ATOM      2  C   UNL     1      -8.304  -1.547   7.194  1.00  0.00     0.066 A 
ATOM      3  C   UNL     1      -9.484  -3.177   9.083  1.00  0.00     0.088 A 
ATOM      4  C   UNL     1      -8.274  -3.541   8.431  1.00  0.00     0.035 A 
ATOM      5  N   UNL     1      -6.331  -2.733   7.109  1.00  0.00    -0.360 N 
ATOM      6  N   UNL     1      -7.421  -1.005   6.256  1.00  0.00    -0.360 N 
ATOM      7  C   UNL     1     -10.117  -2.001   8.687  1.00  0.00     0.271 A 
ATOM      8  C   UNL     1      -6.544  -2.070   5.928  1.00  0.00     0.205 C 
ATOM      9  C   UNL     1      -9.513  -1.175   7.688  1.00  0.00     0.113 A 
ATOM     10  H   UNL     1      -5.474  -3.177   7.467  1.00  0.00     0.163 HD
ATOM     11  H   UNL     1      -7.410  -0.044   5.885  1.00  0.00     0.163 HD
ENDROOT
BRANCH   8  12
ATOM     12  C   UNL     1      -5.321  -1.667   5.058  1.00  0.00    -0.003 A 
ATOM     13  C   UNL     1      -3.112  -2.331   4.157  1.00  0.00     0.042 A 
ATOM     14  C   UNL     1      -4.509  -2.633   4.422  1.00  0.00     0.028 A 
ATOM     15  C   UNL     1      -2.755  -0.917   3.995  1.00  0.00     0.041 A 
ATOM     16  C   UNL     1      -3.790   0.057   4.328  1.00  0.00     0.042 A 
ATOM     17  C   UNL     1      -4.990  -0.266   5.008  1.00  0.00     0.028 A 
ATOM     18  Cl  UNL     1      -2.015  -3.355   3.735  1.00  0.00    -0.084 Cl
ATOM     19  Cl  UNL     1      -3.448   1.686   3.942  1.00  0.00    -0.084 Cl
ENDBRANCH   8  12
BRANCH   7  20
ATOM     20  N   UNL     1     -11.366  -1.618   9.131  1.00  0.00     0.062 N 
ATOM     21  O   UNL     1     -12.013  -0.863   8.503  1.00  0.00    -0.258 OA
ATOM     22  O   UNL     1     -11.992  -2.213  10.110  1.00  0.00    -0.258 OA
ENDBRANCH   7  20
TORSDOF 2
ENDMDL
MODEL 2
REMARK VINA RESULT:    -4.158      1.118      2.726
REMARK INTER + INTRA:          -4.960
REMARK INTER:                  -4.645
REMARK INTRA:                  -0.315
REMARK UNBOUND:                -0.316
REMARK SMILES O=[N+]([O-])c1ccc2c(c1)N[C@@H](c1cc(Cl)cc(Cl)c1)N2
REMARK SMILES IDX 7 1 8 2 5 3 6 4 20 5 10 6 4 7 11 8 9 9 12 12 14 13 13 14
REMARK SMILES IDX 16 15 17 16 19 17 15 18 18 19 2 20 3 21 1 22
REMARK H PARENT 20 10 10 11
ROOT
ATOM      1  C   UNL     1      -8.295  -1.537   7.219  1.00  0.00     0.060 A 
ATOM      2  C   UNL     1      -7.687  -2.628   7.792  1.00  0.00     0.066 A 
ATOM      3  C   UNL     1     -10.235  -1.854   8.516  1.00  0.00     0.088 A 
ATOM      4  C   UNL     1      -9.402  -1.028   7.714  1.00  0.00     0.035 A 
ATOM      5  N   UNL     1      -7.394  -0.941   6.252  1.00  0.00    -0.360 N 
ATOM      6  N   UNL     1      -6.415  -2.678   7.214  1.00  0.00    -0.360 N 
ATOM      7  C   UNL     1      -9.706  -3.046   9.005  1.00  0.00     0.271 A 
ATOM      8  C   UNL     1      -6.184  -1.363   6.738  1.00  0.00     0.205 C 
ATOM      9  C   UNL     1      -8.375  -3.427   8.649  1.00  0.00     0.113 A 
ATOM     10  H   UNL     1      -7.604  -0.360   5.428  1.00  0.00     0.163 HD
ATOM     11  H   UNL     1      -5.786  -3.491   7.149  1.00  0.00     0.163 HD
ENDROOT
BRANCH   8  12
ATOM     12  C   UNL     1      -4.917  -1.201   5.853  1.00  0.00    -0.003 A 
ATOM     13  C   UNL     1      -3.631   0.265   4.326  1.00  0.00     0.042 A 
ATOM     14  C   UNL     1      -4.367   0.068   5.564  1.00  0.00     0.028 A 
ATOM     15  C   UNL     1      -2.983  -0.915   3.741  1.00  0.00     0.041 A 
ATOM     16  C   UNL     1      -3.319  -2.203   4.338  1.00  0.00     0.042 A 
ATOM     17  C   UNL     1      -4.383  -2.398   5.253  1.00  0.00     0.028 A 
ATOM     18  Cl  UNL     1      -3.209   1.636   3.717  1.00  0.00    -0.084 Cl
ATOM     19  Cl  UNL     1      -2.411  -3.547   3.799  1.00  0.00    -0.084 Cl
ENDBRANCH   8  12
BRANCH   7  20
ATOM     20  N   UNL     1     -10.357  -3.856   9.914  1.00  0.00     0.062 N 
ATOM     21  O   UNL     1      -9.745  -4.593  10.596  1.00  0.00    -0.258 OA
ATOM     22  O   UNL     1     -11.613  -3.706  10.235  1.00  0.00    -0.258 OA
ENDBRANCH   7  20
TORSDOF 2
ENDMDL
MODEL 3
REMARK VINA RESULT:    -3.966      3.681      4.686
REMARK INTER + INTRA:          -4.745
REMARK INTER:                  -4.440
REMARK INTRA:                  -0.305
REMARK UNBOUND:                -0.316
REMARK SMILES O=[N+]([O-])c1ccc2c(c1)N[C@@H](c1cc(Cl)cc(Cl)c1)N2
REMARK SMILES IDX 7 1 8 2 5 3 6 4 20 5 10 6 4 7 11 8 9 9 12 12 14 13 13 14
REMARK SMILES IDX 16 15 17 16 19 17 15 18 18 19 2 20 3 21 1 22
REMARK H PARENT 20 10 10 11
ROOT
ATOM      1  C   UNL     1      -9.007  -4.710   9.856  1.00  0.00     0.060 A 
ATOM      2  C   UNL     1      -7.803  -4.541  10.498  1.00  0.00     0.066 A 
ATOM      3  C   UNL     1      -9.915  -5.835  11.716  1.00  0.00     0.088 A 
ATOM      4  C   UNL     1     -10.079  -5.114  10.502  1.00  0.00     0.035 A 
ATOM      5  N   UNL     1      -8.932  -4.117   8.536  1.00  0.00    -0.360 N 
ATOM      6  N   UNL     1      -7.013  -3.820   9.599  1.00  0.00    -0.360 N 
ATOM      7  C   UNL     1      -8.666  -5.809  12.334  1.00  0.00     0.271 A 
ATOM      8  C   UNL     1      -7.939  -3.192   8.728  1.00  0.00     0.205 C 
ATOM      9  C   UNL     1      -7.584  -5.114  11.710  1.00  0.00     0.113 A 
ATOM     10  H   UNL     1      -9.475  -4.331   7.687  1.00  0.00     0.163 HD
ATOM     11  H   UNL     1      -5.985  -3.758   9.575  1.00  0.00     0.163 HD
ENDROOT
BRANCH   8  12
ATOM     12  C   UNL     1      -7.307  -2.496   7.491  1.00  0.00    -0.003 A 
ATOM     13  C   UNL     1      -6.581  -2.721   5.134  1.00  0.00     0.042 A 
ATOM     14  C   UNL     1      -7.575  -2.930   6.173  1.00  0.00     0.028 A 
ATOM     15  C   UNL     1      -5.656  -1.596   5.313  1.00  0.00     0.041 A 
ATOM     16  C   UNL     1      -5.684  -0.932   6.612  1.00  0.00     0.042 A 
ATOM     17  C   UNL     1      -6.351  -1.449   7.750  1.00  0.00     0.028 A 
ATOM     18  Cl  UNL     1      -6.581  -3.373   3.718  1.00  0.00    -0.084 Cl
ATOM     19  Cl  UNL     1      -4.763   0.502   6.750  1.00  0.00    -0.084 Cl
ENDBRANCH   8  12
BRANCH   7  20
ATOM     20  N   UNL     1      -8.421  -6.337  13.585  1.00  0.00     0.062 N 
ATOM     21  O   UNL     1      -8.283  -5.627  14.511  1.00  0.00    -0.258 OA
ATOM     22  O   UNL     1      -8.550  -7.606  13.864  1.00  0.00    -0.258 OA
ENDBRANCH   7  20
TORSDOF 2
ENDMDL
MODEL 4
REMARK VINA RESULT:    -3.817      1.566      2.189
REMARK INTER + INTRA:          -4.579
REMARK INTER:                  -4.280
REMARK INTRA:                  -0.299
REMARK UNBOUND:                -0.316
REMARK SMILES O=[N+]([O-])c1ccc2c(c1)N[C@@H](c1cc(Cl)cc(Cl)c1)N2
REMARK SMILES IDX 7 1 8 2 5 3 6 4 20 5 10 6 4 7 11 8 9 9 12 12 14 13 13 14
REMARK SMILES IDX 16 15 17 16 19 17 15 18 18 19 2 20 3 21 1 22
REMARK H PARENT 20 10 10 11
ROOT
ATOM      1  C   UNL     1      -8.373  -2.098   7.413  1.00  0.00     0.060 A 
ATOM      2  C   UNL     1      -7.534  -3.088   7.867  1.00  0.00     0.066 A 
ATOM      3  C   UNL     1     -10.029  -2.694   8.979  1.00  0.00     0.088 A 
ATOM      4  C   UNL     1      -9.455  -1.756   8.079  1.00  0.00     0.035 A 
ATOM      5  N   UNL     1      -7.724  -1.378   6.336  1.00  0.00    -0.360 N 
ATOM      6  N   UNL     1      -6.371  -2.952   7.105  1.00  0.00    -0.360 N 
ATOM      7  C   UNL     1      -9.265  -3.795   9.359  1.00  0.00     0.271 A 
ATOM      8  C   UNL     1      -6.406  -1.617   6.627  1.00  0.00     0.205 C 
ATOM      9  C   UNL     1      -7.962  -3.978   8.800  1.00  0.00     0.113 A 
ATOM     10  H   UNL     1      -8.138  -0.835   5.565  1.00  0.00     0.163 HD
ATOM     11  H   UNL     1      -5.647  -3.664   6.929  1.00  0.00     0.163 HD
ENDROOT
BRANCH   8  12
ATOM     12  C   UNL     1      -5.324  -1.273   5.566  1.00  0.00    -0.003 A 
ATOM     13  C   UNL     1      -3.346  -2.054   4.297  1.00  0.00     0.042 A 
ATOM     14  C   UNL     1      -4.695  -2.274   4.791  1.00  0.00     0.028 A 
ATOM     15  C   UNL     1      -2.931  -0.662   4.091  1.00  0.00     0.041 A 
ATOM     16  C   UNL     1      -3.829   0.367   4.604  1.00  0.00     0.042 A 
ATOM     17  C   UNL     1      -4.915   0.105   5.475  1.00  0.00     0.028 A 
ATOM     18  Cl  UNL     1      -2.405  -3.135   3.683  1.00  0.00    -0.084 Cl
ATOM     19  Cl  UNL     1      -3.452   1.980   4.184  1.00  0.00    -0.084 Cl
ENDBRANCH   8  12
BRANCH   7  20
ATOM     20  N   UNL     1      -9.647  -4.690  10.337  1.00  0.00     0.062 N 
ATOM     21  O   UNL     1      -8.846  -5.372  10.863  1.00  0.00    -0.258 OA
ATOM     22  O   UNL     1     -10.829  -4.683  10.892  1.00  0.00    -0.258 OA
ENDBRANCH   7  20
TORSDOF 2
ENDMDL
MODEL 5
REMARK VINA RESULT:    -3.802      0.735      2.135
REMARK INTER + INTRA:          -4.562
REMARK INTER:                  -4.262
REMARK INTRA:                  -0.300
REMARK UNBOUND:                -0.316
REMARK SMILES O=[N+]([O-])c1ccc2c(c1)N[C@@H](c1cc(Cl)cc(Cl)c1)N2
REMARK SMILES IDX 7 1 8 2 5 3 6 4 20 5 10 6 4 7 11 8 9 9 12 12 14 13 13 14
REMARK SMILES IDX 16 15 17 16 19 17 15 18 18 19 2 20 3 21 1 22
REMARK H PARENT 20 10 10 11
ROOT
ATOM      1  C   UNL     1      -8.067  -2.128   7.851  1.00  0.00     0.060 A 
ATOM      2  C   UNL     1      -8.521  -1.053   7.124  1.00  0.00     0.066 A 
ATOM      3  C   UNL     1     -10.153  -2.369   8.919  1.00  0.00     0.088 A 
ATOM      4  C   UNL     1      -8.892  -2.897   8.529  1.00  0.00     0.035 A 
ATOM      5  N   UNL     1      -6.686  -2.394   7.500  1.00  0.00    -0.360 N 
ATOM      6  N   UNL     1      -7.445  -0.689   6.310  1.00  0.00    -0.360 N 
ATOM      7  C   UNL     1     -10.594  -1.197   8.309  1.00  0.00     0.271 A 
ATOM      8  C   UNL     1      -6.633  -1.849   6.244  1.00  0.00     0.205 C 
ATOM      9  C   UNL     1      -9.755  -0.536   7.359  1.00  0.00     0.113 A 
ATOM     10  H   UNL     1      -5.948  -2.862   8.044  1.00  0.00     0.163 HD
ATOM     11  H   UNL     1      -7.279   0.222   5.858  1.00  0.00     0.163 HD
ENDROOT
BRANCH   8  12
ATOM     12  C   UNL     1      -5.249  -1.642   5.569  1.00  0.00    -0.003 A 
ATOM     13  C   UNL     1      -3.735  -0.078   4.388  1.00  0.00     0.042 A 
ATOM     14  C   UNL     1      -4.646  -0.366   5.483  1.00  0.00     0.028 A 
ATOM     15  C   UNL     1      -3.025  -1.217   3.793  1.00  0.00     0.041 A 
ATOM     16  C   UNL     1      -3.461  -2.544   4.212  1.00  0.00     0.042 A 
ATOM     17  C   UNL     1      -4.650  -2.792   4.942  1.00  0.00     0.028 A 
ATOM     18  Cl  UNL     1      -3.209   1.331   3.977  1.00  0.00    -0.084 Cl
ATOM     19  Cl  UNL     1      -2.503  -3.858   3.684  1.00  0.00    -0.084 Cl
ENDBRANCH   8  12
BRANCH   7  20
ATOM     20  N   UNL     1     -11.857  -0.670   8.487  1.00  0.00     0.062 N 
ATOM     21  O   UNL     1     -12.283   0.119   7.728  1.00  0.00    -0.258 OA
ATOM     22  O   UNL     1     -12.723  -1.157   9.335  1.00  0.00    -0.258 OA
ENDBRANCH   7  20
TORSDOF 2
ENDMDL
MODEL 6
REMARK VINA RESULT:    -3.784      4.961      7.632
REMARK INTER + INTRA:          -4.541
REMARK INTER:                  -4.242
REMARK INTRA:                  -0.299
REMARK UNBOUND:                -0.316
REMARK SMILES O=[N+]([O-])c1ccc2c(c1)N[C@@H](c1cc(Cl)cc(Cl)c1)N2
REMARK SMILES IDX 7 1 8 2 5 3 6 4 20 5 10 6 4 7 11 8 9 9 12 12 14 13 13 14
REMARK SMILES IDX 16 15 17 16 19 17 15 18 18 19 2 20 3 21 1 22
REMARK H PARENT 20 10 10 11
ROOT
ATOM      1  C   UNL     1      -4.893  -2.322   5.321  1.00  0.00     0.060 A 
ATOM      2  C   UNL     1      -5.299  -1.032   5.076  1.00  0.00     0.066 A 
ATOM      3  C   UNL     1      -2.839  -1.953   4.228  1.00  0.00     0.088 A 
ATOM      4  C   UNL     1      -3.647  -2.699   5.128  1.00  0.00     0.035 A 
ATOM      5  N   UNL     1      -5.933  -3.019   6.051  1.00  0.00    -0.360 N 
ATOM      6  N   UNL     1      -6.554  -0.927   5.681  1.00  0.00    -0.360 N 
ATOM      7  C   UNL     1      -3.281  -0.691   3.837  1.00  0.00     0.271 A 
ATOM      8  C   UNL     1      -6.577  -1.966   6.646  1.00  0.00     0.205 C 
ATOM      9  C   UNL     1      -4.543  -0.209   4.302  1.00  0.00     0.113 A 
ATOM     10  H   UNL     1      -6.132  -4.028   6.109  1.00  0.00     0.163 HD
ATOM     11  H   UNL     1      -7.298  -0.246   5.472  1.00  0.00     0.163 HD
ENDROOT
BRANCH   8  12
ATOM     12  C   UNL     1      -7.958  -2.207   7.316  1.00  0.00    -0.003 A 
ATOM     13  C   UNL     1     -10.116  -1.219   8.025  1.00  0.00     0.042 A 
ATOM     14  C   UNL     1      -9.080  -1.399   7.022  1.00  0.00     0.028 A 
ATOM     15  C   UNL     1     -10.280  -2.292   9.013  1.00  0.00     0.041 A 
ATOM     16  C   UNL     1      -9.253  -3.328   9.024  1.00  0.00     0.042 A 
ATOM     17  C   UNL     1      -8.022  -3.228   8.330  1.00  0.00     0.028 A 
ATOM     18  Cl  UNL     1     -11.258  -0.159   7.986  1.00  0.00    -0.084 Cl
ATOM     19  Cl  UNL     1      -9.552  -4.680  10.025  1.00  0.00    -0.084 Cl
ENDBRANCH   8  12
BRANCH   7  20
ATOM     20  N   UNL     1      -2.521   0.189   3.094  1.00  0.00     0.062 N 
ATOM     21  O   UNL     1      -1.573  -0.191   2.511  1.00  0.00    -0.258 OA
ATOM     22  O   UNL     1      -2.909   1.401   2.804  1.00  0.00    -0.258 OA
ENDBRANCH   7  20
TORSDOF 2
ENDMDL
MODEL 7
REMARK VINA RESULT:    -3.735      5.111      7.577
REMARK INTER + INTRA:          -4.487
REMARK INTER:                  -4.188
REMARK INTRA:                  -0.299
REMARK UNBOUND:                -0.316
REMARK SMILES O=[N+]([O-])c1ccc2c(c1)N[C@@H](c1cc(Cl)cc(Cl)c1)N2
REMARK SMILES IDX 7 1 8 2 5 3 6 4 20 5 10 6 4 7 11 8 9 9 12 12 14 13 13 14
REMARK SMILES IDX 16 15 17 16 19 17 15 18 18 19 2 20 3 21 1 22
REMARK H PARENT 20 10 10 11
ROOT
ATOM      1  C   UNL     1      -5.198  -0.495   5.388  1.00  0.00     0.060 A 
ATOM      2  C   UNL     1      -4.672  -1.738   5.648  1.00  0.00     0.066 A 
ATOM      3  C   UNL     1      -3.499  -0.031   3.824  1.00  0.00     0.088 A 
ATOM      4  C   UNL     1      -4.787   0.225   4.367  1.00  0.00     0.035 A 
ATOM      5  N   UNL     1      -6.385  -0.300   6.197  1.00  0.00    -0.360 N 
ATOM      6  N   UNL     1      -5.546  -2.313   6.574  1.00  0.00    -0.360 N 
ATOM      7  C   UNL     1      -2.861  -1.219   4.173  1.00  0.00     0.271 A 
ATOM      8  C   UNL     1      -6.761  -1.599   6.415  1.00  0.00     0.205 C 
ATOM      9  C   UNL     1      -3.488  -2.112   5.098  1.00  0.00     0.113 A 
ATOM     10  H   UNL     1      -6.825   0.574   6.518  1.00  0.00     0.163 HD
ATOM     11  H   UNL     1      -5.351  -3.085   7.228  1.00  0.00     0.163 HD
ENDROOT
BRANCH   8  12
ATOM     12  C   UNL     1      -7.843  -1.901   7.489  1.00  0.00    -0.003 A 
ATOM     13  C   UNL     1      -8.837  -3.583   9.011  1.00  0.00     0.042 A 
ATOM     14  C   UNL     1      -7.670  -2.918   8.456  1.00  0.00     0.028 A 
ATOM     15  C   UNL     1     -10.092  -2.823   9.029  1.00  0.00     0.041 A 
ATOM     16  C   UNL     1     -10.098  -1.562   8.295  1.00  0.00     0.042 A 
ATOM     17  C   UNL     1      -9.078  -1.166   7.395  1.00  0.00     0.028 A 
ATOM     18  Cl  UNL     1      -8.832  -4.894   9.855  1.00  0.00    -0.084 Cl
ATOM     19  Cl  UNL     1     -11.485  -0.581   8.487  1.00  0.00    -0.084 Cl
ENDBRANCH   8  12
BRANCH   7  20
ATOM     20  N   UNL     1      -1.684  -1.653   3.599  1.00  0.00     0.062 N 
ATOM     21  O   UNL     1      -0.977  -0.893   3.048  1.00  0.00    -0.258 OA
ATOM     22  O   UNL     1      -1.176  -2.836   3.814  1.00  0.00    -0.258 OA
ENDBRANCH   7  20
TORSDOF 2
ENDMDL
MODEL 8
REMARK VINA RESULT:    -3.689      4.383      5.819
REMARK INTER + INTRA:          -4.435
REMARK INTER:                  -4.129
REMARK INTRA:                  -0.306
REMARK UNBOUND:                -0.316
REMARK SMILES O=[N+]([O-])c1ccc2c(c1)N[C@@H](c1cc(Cl)cc(Cl)c1)N2
REMARK SMILES IDX 7 1 8 2 5 3 6 4 20 5 10 6 4 7 11 8 9 9 12 12 14 13 13 14
REMARK SMILES IDX 16 15 17 16 19 17 15 18 18 19 2 20 3 21 1 22
REMARK H PARENT 20 10 10 11
ROOT
ATOM      1  C   UNL     1      -8.203  -4.992  11.585  1.00  0.00     0.060 A 
ATOM      2  C   UNL     1      -9.473  -5.276  11.143  1.00  0.00     0.066 A 
ATOM      3  C   UNL     1      -8.438  -6.464  13.409  1.00  0.00     0.088 A 
ATOM      4  C   UNL     1      -7.622  -5.715  12.519  1.00  0.00     0.035 A 
ATOM      5  N   UNL     1      -7.588  -4.033  10.689  1.00  0.00    -0.360 N 
ATOM      6  N   UNL     1      -9.622  -4.531   9.970  1.00  0.00    -0.360 N 
ATOM      7  C   UNL     1      -9.775  -6.659  13.072  1.00  0.00     0.271 A 
ATOM      8  C   UNL     1      -8.297  -4.268   9.540  1.00  0.00     0.205 C 
ATOM      9  C   UNL     1     -10.298  -6.064  11.882  1.00  0.00     0.113 A 
ATOM     10  H   UNL     1      -6.829  -3.360  10.866  1.00  0.00     0.163 HD
ATOM     11  H   UNL     1     -10.500  -4.239   9.518  1.00  0.00     0.163 HD
ENDROOT
BRANCH   8  12
ATOM     12  C   UNL     1      -8.179  -3.261   8.361  1.00  0.00    -0.003 A 
ATOM     13  C   UNL     1      -6.672  -2.063   6.804  1.00  0.00     0.042 A 
ATOM     14  C   UNL     1      -7.089  -3.290   7.463  1.00  0.00     0.028 A 
ATOM     15  C   UNL     1      -7.695  -1.029   6.611  1.00  0.00     0.041 A 
ATOM     16  C   UNL     1      -8.970  -1.243   7.288  1.00  0.00     0.042 A 
ATOM     17  C   UNL     1      -9.182  -2.229   8.283  1.00  0.00     0.028 A 
ATOM     18  Cl  UNL     1      -5.342  -1.848   6.020  1.00  0.00    -0.084 Cl
ATOM     19  Cl  UNL     1     -10.227  -0.152   6.898  1.00  0.00    -0.084 Cl
ENDBRANCH   8  12
BRANCH   7  20
ATOM     20  N   UNL     1     -10.627  -7.490  13.770  1.00  0.00     0.062 N 
ATOM     21  O   UNL     1     -11.629  -7.070  14.220  1.00  0.00    -0.258 OA
ATOM     22  O   UNL     1     -10.508  -8.790  13.783  1.00  0.00    -0.258 OA
ENDBRANCH   7  20
TORSDOF 2
ENDMDL
MODEL 9
REMARK VINA RESULT:    -3.284      5.190      7.617
REMARK INTER + INTRA:          -3.983
REMARK INTER:                  -3.675
REMARK INTRA:                  -0.308
REMARK UNBOUND:                -0.316
REMARK SMILES O=[N+]([O-])c1ccc2c(c1)N[C@@H](c1cc(Cl)cc(Cl)c1)N2
REMARK SMILES IDX 7 1 8 2 5 3 6 4 20 5 10 6 4 7 11 8 9 9 12 12 14 13 13 14
REMARK SMILES IDX 16 15 17 16 19 17 15 18 18 19 2 20 3 21 1 22
REMARK H PARENT 20 10 10 11
ROOT
ATOM      1  C   UNL     1      -7.336  -2.873   6.658  1.00  0.00     0.060 A 
ATOM      2  C   UNL     1      -6.917  -1.992   7.626  1.00  0.00     0.066 A 
ATOM      3  C   UNL     1      -6.201  -1.670   4.980  1.00  0.00     0.088 A 
ATOM      4  C   UNL     1      -6.819  -2.861   5.448  1.00  0.00     0.035 A 
ATOM      5  N   UNL     1      -8.150  -3.904   7.269  1.00  0.00    -0.360 N 
ATOM      6  N   UNL     1      -7.435  -2.498   8.822  1.00  0.00    -0.360 N 
ATOM      7  C   UNL     1      -5.885  -0.683   5.911  1.00  0.00     0.271 A 
ATOM      8  C   UNL     1      -7.681  -3.869   8.557  1.00  0.00     0.205 C 
ATOM      9  C   UNL     1      -6.234  -0.869   7.285  1.00  0.00     0.113 A 
ATOM     10  H   UNL     1      -8.879  -4.500   6.852  1.00  0.00     0.163 HD
ATOM     11  H   UNL     1      -7.600  -1.987   9.701  1.00  0.00     0.163 HD
ENDROOT
BRANCH   8  12
ATOM     12  C   UNL     1      -8.468  -4.619   9.667  1.00  0.00    -0.003 A 
ATOM     13  C   UNL     1     -10.677  -5.082  10.688  1.00  0.00     0.042 A 
ATOM     14  C   UNL     1      -9.830  -4.964   9.512  1.00  0.00     0.028 A 
ATOM     15  C   UNL     1     -10.018  -5.431  11.951  1.00  0.00     0.041 A 
ATOM     16  C   UNL     1      -8.559  -5.414  11.950  1.00  0.00     0.042 A 
ATOM     17  C   UNL     1      -7.776  -4.859  10.908  1.00  0.00     0.028 A 
ATOM     18  Cl  UNL     1     -12.233  -5.170  10.693  1.00  0.00    -0.084 Cl
ATOM     19  Cl  UNL     1      -7.793  -6.019  13.353  1.00  0.00    -0.084 Cl
ENDBRANCH   8  12
BRANCH   7  20
ATOM     20  N   UNL     1      -5.150   0.446   5.609  1.00  0.00     0.062 N 
ATOM     21  O   UNL     1      -4.369   0.869   6.379  1.00  0.00    -0.258 OA
ATOM     22  O   UNL     1      -5.099   0.968   4.414  1.00  0.00    -0.258 OA
ENDBRANCH   7  20
TORSDOF 2
ENDMDL
