MODEL 1
REMARK VINA RESULT:    -3.292      0.000      0.000
REMARK INTER + INTRA:          -3.986
REMARK INTER:                  -3.677
REMARK INTRA:                  -0.309
REMARK UNBOUND:                -0.309
REMARK SMILES O=[N+]([O-])c1ccc2c(c1)N[C@@H](c1cc(Cl)cc(Cl)c1)N2
REMARK SMILES IDX 7 1 8 2 5 3 6 4 20 5 10 6 4 7 11 8 9 9 12 12 14 13 13 14
REMARK SMILES IDX 16 15 17 16 19 17 15 18 18 19 2 20 3 21 1 22
REMARK H PARENT 20 10 10 11
ROOT
ATOM      1  C   UNL     1       4.624  14.454   2.234  1.00  0.00     0.060 A 
ATOM      2  C   UNL     1       3.295  14.317   2.556  1.00  0.00     0.066 A 
ATOM      3  C   UNL     1       4.430  16.800   2.155  1.00  0.00     0.088 A 
ATOM      4  C   UNL     1       5.222  15.625   2.268  1.00  0.00     0.035 A 
ATOM      5  N   UNL     1       5.236  13.142   2.163  1.00  0.00    -0.360 N 
ATOM      6  N   UNL     1       3.103  12.942   2.718  1.00  0.00    -0.360 N 
ATOM      7  C   UNL     1       3.053  16.687   2.333  1.00  0.00     0.271 A 
ATOM      8  C   UNL     1       4.398  12.425   2.976  1.00  0.00     0.205 C 
ATOM      9  C   UNL     1       2.475  15.400   2.568  1.00  0.00     0.113 A 
ATOM     10  H   UNL     1       6.072  12.833   1.646  1.00  0.00     0.163 HD
ATOM     11  H   UNL     1       2.216  12.420   2.663  1.00  0.00     0.163 HD
ENDROOT
BRANCH   8  12
ATOM     12  C   UNL     1       4.494  10.874   2.980  1.00  0.00    -0.003 A 
ATOM     13  C   UNL     1       5.060   8.831   1.700  1.00  0.00     0.042 A 
ATOM     14  C   UNL     1       5.385  10.181   2.130  1.00  0.00     0.028 A 
ATOM     15  C   UNL     1       4.195   8.040   2.583  1.00  0.00     0.041 A 
ATOM     16  C   UNL     1       3.574   8.754   3.694  1.00  0.00     0.042 A 
ATOM     17  C   UNL     1       3.561  10.165   3.818  1.00  0.00     0.028 A 
ATOM     18  Cl  UNL     1       5.765   8.036   0.560  1.00  0.00    -0.084 Cl
ATOM     19  Cl  UNL     1       2.740   7.796   4.837  1.00  0.00    -0.084 Cl
ENDBRANCH   8  12
BRANCH   7  20
ATOM     20  N   UNL     1       2.199  17.768   2.400  1.00  0.00     0.062 N 
ATOM     21  O   UNL     1       2.010  18.434   1.450  1.00  0.00    -0.258 OA
ATOM     22  O   UNL     1       1.395  17.983   3.405  1.00  0.00    -0.258 OA
ENDBRANCH   7  20
TORSDOF 2
ENDMDL
MODEL 2
REMARK VINA RESULT:    -2.395      5.006      7.422
REMARK INTER + INTRA:          -2.984
REMARK INTER:                  -2.669
REMARK INTRA:                  -0.314
REMARK UNBOUND:                -0.309
REMARK SMILES O=[N+]([O-])c1ccc2c(c1)N[C@@H](c1cc(Cl)cc(Cl)c1)N2
REMARK SMILES IDX 7 1 8 2 5 3 6 4 20 5 10 6 4 7 11 8 9 9 12 12 14 13 13 14
REMARK SMILES IDX 16 15 17 16 19 17 15 18 18 19 2 20 3 21 1 22
REMARK H PARENT 20 10 10 11
ROOT
ATOM      1  C   UNL     1       4.910  10.315   2.357  1.00  0.00     0.060 A 
ATOM      2  C   UNL     1       3.994  10.411   3.377  1.00  0.00     0.066 A 
ATOM      3  C   UNL     1       4.966   7.967   2.540  1.00  0.00     0.088 A 
ATOM      4  C   UNL     1       5.202   9.158   1.802  1.00  0.00     0.035 A 
ATOM      5  N   UNL     1       5.219  11.643   1.865  1.00  0.00    -0.360 N 
ATOM      6  N   UNL     1       3.716  11.776   3.485  1.00  0.00    -0.360 N 
ATOM      7  C   UNL     1       4.154   8.042   3.670  1.00  0.00     0.271 A 
ATOM      8  C   UNL     1       4.084  12.319   2.227  1.00  0.00     0.205 C 
ATOM      9  C   UNL     1       3.632   9.307   4.082  1.00  0.00     0.113 A 
ATOM     10  H   UNL     1       6.060  11.984   1.378  1.00  0.00     0.163 HD
ATOM     11  H   UNL     1       3.328  12.277   4.297  1.00  0.00     0.163 HD
ENDROOT
BRANCH   8  12
ATOM     12  C   UNL     1       4.075  13.872   2.157  1.00  0.00    -0.003 A 
ATOM     13  C   UNL     1       5.409  15.956   2.246  1.00  0.00     0.042 A 
ATOM     14  C   UNL     1       5.211  14.605   1.747  1.00  0.00     0.028 A 
ATOM     15  C   UNL     1       4.209  16.706   2.634  1.00  0.00     0.041 A 
ATOM     16  C   UNL     1       2.960  15.952   2.686  1.00  0.00     0.042 A 
ATOM     17  C   UNL     1       2.887  14.539   2.626  1.00  0.00     0.028 A 
ATOM     18  Cl  UNL     1       6.719  16.794   2.134  1.00  0.00    -0.084 Cl
ATOM     19  Cl  UNL     1       1.535  16.864   2.932  1.00  0.00    -0.084 Cl
ENDBRANCH   8  12
BRANCH   7  20
ATOM     20  N   UNL     1       3.727   6.938   4.380  1.00  0.00     0.062 N 
ATOM     21  O   UNL     1       2.703   6.964   4.957  1.00  0.00    -0.258 OA
ATOM     22  O   UNL     1       4.283   5.762   4.276  1.00  0.00    -0.258 OA
ENDBRANCH   7  20
TORSDOF 2
ENDMDL
MODEL 3
REMARK VINA RESULT:    -2.223      5.432      6.677
REMARK INTER + INTRA:          -2.792
REMARK INTER:                  -2.500
REMARK INTRA:                  -0.292
REMARK UNBOUND:                -0.309
REMARK SMILES O=[N+]([O-])c1ccc2c(c1)N[C@@H](c1cc(Cl)cc(Cl)c1)N2
REMARK SMILES IDX 7 1 8 2 5 3 6 4 20 5 10 6 4 7 11 8 9 9 12 12 14 13 13 14
REMARK SMILES IDX 16 15 17 16 19 17 15 18 18 19 2 20 3 21 1 22
REMARK H PARENT 20 10 10 11
ROOT
ATOM      1  C   UNL     1       9.011  11.274   5.316  1.00  0.00     0.060 A 
ATOM      2  C   UNL     1       8.200  12.211   5.912  1.00  0.00     0.066 A 
ATOM      3  C   UNL     1      10.911  12.122   6.420  1.00  0.00     0.088 A 
ATOM      4  C   UNL     1      10.246  11.077   5.722  1.00  0.00     0.035 A 
ATOM      5  N   UNL     1       8.210  10.428   4.454  1.00  0.00    -0.360 N 
ATOM      6  N   UNL     1       6.913  11.919   5.452  1.00  0.00    -0.360 N 
ATOM      7  C   UNL     1      10.144  13.171   6.922  1.00  0.00     0.271 A 
ATOM      8  C   UNL     1       6.977  10.565   5.037  1.00  0.00     0.205 C 
ATOM      9  C   UNL     1       8.736  13.196   6.678  1.00  0.00     0.113 A 
ATOM     10  H   UNL     1       8.489   9.875   3.632  1.00  0.00     0.163 HD
ATOM     11  H   UNL     1       6.098  12.549   5.421  1.00  0.00     0.163 HD
ENDROOT
BRANCH   8  12
ATOM     12  C   UNL     1       5.722  10.053   4.276  1.00  0.00    -0.003 A 
ATOM     13  C   UNL     1       3.436   9.115   4.448  1.00  0.00     0.042 A 
ATOM     14  C   UNL     1       4.433  10.091   4.856  1.00  0.00     0.028 A 
ATOM     15  C   UNL     1       3.569   8.549   3.101  1.00  0.00     0.041 A 
ATOM     16  C   UNL     1       4.803   8.857   2.385  1.00  0.00     0.042 A 
ATOM     17  C   UNL     1       5.942   9.443   2.990  1.00  0.00     0.028 A 
ATOM     18  Cl  UNL     1       2.084   8.828   5.168  1.00  0.00    -0.084 Cl
ATOM     19  Cl  UNL     1       4.868   8.376   0.746  1.00  0.00    -0.084 Cl
ENDBRANCH   8  12
BRANCH   7  20
ATOM     20  N   UNL     1      10.646  14.160   7.743  1.00  0.00     0.062 N 
ATOM     21  O   UNL     1      11.405  13.892   8.600  1.00  0.00    -0.258 OA
ATOM     22  O   UNL     1      10.506  15.434   7.496  1.00  0.00    -0.258 OA
ENDBRANCH   7  20
TORSDOF 2
ENDMDL
MODEL 4
REMARK VINA RESULT:    -2.174      5.832      8.406
REMARK INTER + INTRA:          -2.737
REMARK INTER:                  -2.418
REMARK INTRA:                  -0.318
REMARK UNBOUND:                -0.309
REMARK SMILES O=[N+]([O-])c1ccc2c(c1)N[C@@H](c1cc(Cl)cc(Cl)c1)N2
REMARK SMILES IDX 7 1 8 2 5 3 6 4 20 5 10 6 4 7 11 8 9 9 12 12 14 13 13 14
REMARK SMILES IDX 16 15 17 16 19 17 15 18 18 19 2 20 3 21 1 22
REMARK H PARENT 20 10 10 11
ROOT
ATOM      1  C   UNL     1       3.604   6.676   3.284  1.00  0.00     0.060 A 
ATOM      2  C   UNL     1       3.013   7.199   2.159  1.00  0.00     0.066 A 
ATOM      3  C   UNL     1       2.621   4.570   2.901  1.00  0.00     0.088 A 
ATOM      4  C   UNL     1       3.612   5.381   3.518  1.00  0.00     0.035 A 
ATOM      5  N   UNL     1       4.401   7.702   3.927  1.00  0.00    -0.360 N 
ATOM      6  N   UNL     1       3.471   8.518   2.091  1.00  0.00    -0.360 N 
ATOM      7  C   UNL     1       1.894   5.109   1.842  1.00  0.00     0.271 A 
ATOM      8  C   UNL     1       4.660   8.527   2.864  1.00  0.00     0.205 C 
ATOM      9  C   UNL     1       2.122   6.463   1.446  1.00  0.00     0.113 A 
ATOM     10  H   UNL     1       4.692   7.789   4.911  1.00  0.00     0.163 HD
ATOM     11  H   UNL     1       3.041   9.308   1.590  1.00  0.00     0.163 HD
ENDROOT
BRANCH   8  12
ATOM     12  C   UNL     1       5.257   9.937   3.130  1.00  0.00    -0.003 A 
ATOM     13  C   UNL     1       6.635  11.355   4.621  1.00  0.00     0.042 A 
ATOM     14  C   UNL     1       6.436  10.116   3.887  1.00  0.00     0.028 A 
ATOM     15  C   UNL     1       5.960  12.551   4.105  1.00  0.00     0.041 A 
ATOM     16  C   UNL     1       4.989  12.340   3.036  1.00  0.00     0.042 A 
ATOM     17  C   UNL     1       4.498  11.066   2.655  1.00  0.00     0.028 A 
ATOM     18  Cl  UNL     1       7.714  11.611   5.716  1.00  0.00    -0.084 Cl
ATOM     19  Cl  UNL     1       4.361  13.745   2.294  1.00  0.00    -0.084 Cl
ENDBRANCH   8  12
BRANCH   7  20
ATOM     20  N   UNL     1       1.017   4.378   1.066  1.00  0.00     0.062 N 
ATOM     21  O   UNL     1       0.642   3.324   1.427  1.00  0.00    -0.258 OA
ATOM     22  O   UNL     1       0.387   4.876   0.037  1.00  0.00    -0.258 OA
ENDBRANCH   7  20
TORSDOF 2
ENDMDL
MODEL 5
REMARK VINA RESULT:    -2.164      0.411      2.037
REMARK INTER + INTRA:          -2.726
REMARK INTER:                  -2.436
REMARK INTRA:                  -0.290
REMARK UNBOUND:                -0.309
REMARK SMILES O=[N+]([O-])c1ccc2c(c1)N[C@@H](c1cc(Cl)cc(Cl)c1)N2
REMARK SMILES IDX 7 1 8 2 5 3 6 4 20 5 10 6 4 7 11 8 9 9 12 12 14 13 13 14
REMARK SMILES IDX 16 15 17 16 19 17 15 18 18 19 2 20 3 21 1 22
REMARK H PARENT 20 10 10 11
ROOT
ATOM      1  C   UNL     1       4.664  14.222   2.146  1.00  0.00     0.060 A 
ATOM      2  C   UNL     1       3.328  14.230   2.472  1.00  0.00     0.066 A 
ATOM      3  C   UNL     1       4.760  16.575   2.204  1.00  0.00     0.088 A 
ATOM      4  C   UNL     1       5.401  15.307   2.241  1.00  0.00     0.035 A 
ATOM      5  N   UNL     1       5.110  12.851   1.993  1.00  0.00    -0.360 N 
ATOM      6  N   UNL     1       2.969  12.882   2.556  1.00  0.00    -0.360 N 
ATOM      7  C   UNL     1       3.380  16.621   2.389  1.00  0.00     0.271 A 
ATOM      8  C   UNL     1       4.191  12.196   2.771  1.00  0.00     0.205 C 
ATOM      9  C   UNL     1       2.648  15.403   2.554  1.00  0.00     0.113 A 
ATOM     10  H   UNL     1       5.899  12.474   1.451  1.00  0.00     0.163 HD
ATOM     11  H   UNL     1       2.025  12.477   2.479  1.00  0.00     0.163 HD
ENDROOT
BRANCH   8  12
ATOM     12  C   UNL     1       4.096  10.647   2.685  1.00  0.00    -0.003 A 
ATOM     13  C   UNL     1       3.477   8.543   3.835  1.00  0.00     0.042 A 
ATOM     14  C   UNL     1       3.170   9.913   3.459  1.00  0.00     0.028 A 
ATOM     15  C   UNL     1       4.380   7.797   2.951  1.00  0.00     0.041 A 
ATOM     16  C   UNL     1       5.048   8.565   1.906  1.00  0.00     0.042 A 
ATOM     17  C   UNL     1       5.066   9.980   1.853  1.00  0.00     0.028 A 
ATOM     18  Cl  UNL     1       2.725   7.693   4.902  1.00  0.00    -0.084 Cl
ATOM     19  Cl  UNL     1       5.932   7.664   0.752  1.00  0.00    -0.084 Cl
ENDBRANCH   8  12
BRANCH   7  20
ATOM     20  N   UNL     1       2.665  17.793   2.527  1.00  0.00     0.062 N 
ATOM     21  O   UNL     1       2.284  18.371   1.576  1.00  0.00    -0.258 OA
ATOM     22  O   UNL     1       2.178  18.205   3.666  1.00  0.00    -0.258 OA
ENDBRANCH   7  20
TORSDOF 2
ENDMDL
MODEL 6
REMARK VINA RESULT:    -2.160      4.985      7.347
REMARK INTER + INTRA:          -2.721
REMARK INTER:                  -2.407
REMARK INTRA:                  -0.314
REMARK UNBOUND:                -0.309
REMARK SMILES O=[N+]([O-])c1ccc2c(c1)N[C@@H](c1cc(Cl)cc(Cl)c1)N2
REMARK SMILES IDX 7 1 8 2 5 3 6 4 20 5 10 6 4 7 11 8 9 9 12 12 14 13 13 14
REMARK SMILES IDX 16 15 17 16 19 17 15 18 18 19 2 20 3 21 1 22
REMARK H PARENT 20 10 10 11
ROOT
ATOM      1  C   UNL     1       5.162  11.598   3.378  1.00  0.00     0.060 A 
ATOM      2  C   UNL     1       3.987  11.443   2.681  1.00  0.00     0.066 A 
ATOM      3  C   UNL     1       5.370   9.271   3.675  1.00  0.00     0.088 A 
ATOM      4  C   UNL     1       5.939  10.573   3.652  1.00  0.00     0.035 A 
ATOM      5  N   UNL     1       5.484  13.009   3.463  1.00  0.00    -0.360 N 
ATOM      6  N   UNL     1       3.613  12.738   2.310  1.00  0.00    -0.360 N 
ATOM      7  C   UNL     1       4.111   9.092   3.104  1.00  0.00     0.271 A 
ATOM      8  C   UNL     1       4.814  13.490   2.369  1.00  0.00     0.205 C 
ATOM      9  C   UNL     1       3.413  10.217   2.567  1.00  0.00     0.113 A 
ATOM     10  H   UNL     1       6.058  13.512   4.155  1.00  0.00     0.163 HD
ATOM     11  H   UNL     1       2.674  13.071   2.052  1.00  0.00     0.163 HD
ENDROOT
BRANCH   8  12
ATOM     12  C   UNL     1       4.632  15.025   2.209  1.00  0.00    -0.003 A 
ATOM     13  C   UNL     1       5.668  17.265   2.417  1.00  0.00     0.042 A 
ATOM     14  C   UNL     1       5.729  15.884   1.969  1.00  0.00     0.028 A 
ATOM     15  C   UNL     1       4.336  17.868   2.540  1.00  0.00     0.041 A 
ATOM     16  C   UNL     1       3.199  16.963   2.409  1.00  0.00     0.042 A 
ATOM     17  C   UNL     1       3.307  15.550   2.418  1.00  0.00     0.028 A 
ATOM     18  Cl  UNL     1       6.866  18.259   2.494  1.00  0.00    -0.084 Cl
ATOM     19  Cl  UNL     1       1.654  17.692   2.343  1.00  0.00    -0.084 Cl
ENDBRANCH   8  12
BRANCH   7  20
ATOM     20  N   UNL     1       3.520   7.857   2.928  1.00  0.00     0.062 N 
ATOM     21  O   UNL     1       4.152   6.874   3.052  1.00  0.00    -0.258 OA
ATOM     22  O   UNL     1       2.229   7.688   2.845  1.00  0.00    -0.258 OA
ENDBRANCH   7  20
TORSDOF 2
ENDMDL
MODEL 7
REMARK VINA RESULT:    -2.159      6.090      8.487
REMARK INTER + INTRA:          -2.720
REMARK INTER:                  -2.415
REMARK INTRA:                  -0.305
REMARK UNBOUND:                -0.309
REMARK SMILES O=[N+]([O-])c1ccc2c(c1)N[C@@H](c1cc(Cl)cc(Cl)c1)N2
REMARK SMILES IDX 7 1 8 2 5 3 6 4 20 5 10 6 4 7 11 8 9 9 12 12 14 13 13 14
REMARK SMILES IDX 16 15 17 16 19 17 15 18 18 19 2 20 3 21 1 22
REMARK H PARENT 20 10 10 11
ROOT
ATOM      1  C   UNL     1       3.201   7.341   1.242  1.00  0.00     0.060 A 
ATOM      2  C   UNL     1       3.079   6.804   2.501  1.00  0.00     0.066 A 
ATOM      3  C   UNL     1       2.102   5.495   0.276  1.00  0.00     0.088 A 
ATOM      4  C   UNL     1       2.544   6.845   0.216  1.00  0.00     0.035 A 
ATOM      5  N   UNL     1       3.881   8.618   1.331  1.00  0.00    -0.360 N 
ATOM      6  N   UNL     1       3.643   7.755   3.355  1.00  0.00    -0.360 N 
ATOM      7  C   UNL     1       2.096   4.858   1.514  1.00  0.00     0.271 A 
ATOM      8  C   UNL     1       3.596   8.969   2.625  1.00  0.00     0.205 C 
ATOM      9  C   UNL     1       2.578   5.552   2.668  1.00  0.00     0.113 A 
ATOM     10  H   UNL     1       4.428   9.123   0.619  1.00  0.00     0.163 HD
ATOM     11  H   UNL     1       4.011   7.606   4.306  1.00  0.00     0.163 HD
ENDROOT
BRANCH   8  12
ATOM     12  C   UNL     1       4.365  10.153   3.273  1.00  0.00    -0.003 A 
ATOM     13  C   UNL     1       5.045  12.528   3.092  1.00  0.00     0.042 A 
ATOM     14  C   UNL     1       4.023  11.499   3.009  1.00  0.00     0.028 A 
ATOM     15  C   UNL     1       6.179  12.269   3.987  1.00  0.00     0.041 A 
ATOM     16  C   UNL     1       6.279  10.922   4.538  1.00  0.00     0.042 A 
ATOM     17  C   UNL     1       5.513   9.822   4.079  1.00  0.00     0.028 A 
ATOM     18  Cl  UNL     1       4.922  13.990   2.567  1.00  0.00    -0.084 Cl
ATOM     19  Cl  UNL     1       7.471  10.680   5.738  1.00  0.00    -0.084 Cl
ENDBRANCH   8  12
BRANCH   7  20
ATOM     20  N   UNL     1       1.550   3.609   1.730  1.00  0.00     0.062 N 
ATOM     21  O   UNL     1       0.417   3.407   1.491  1.00  0.00    -0.258 OA
ATOM     22  O   UNL     1       2.268   2.548   1.979  1.00  0.00    -0.258 OA
ENDBRANCH   7  20
TORSDOF 2
ENDMDL
MODEL 8
REMARK VINA RESULT:    -2.070      6.029      7.518
REMARK INTER + INTRA:          -2.621
REMARK INTER:                  -2.305
REMARK INTRA:                  -0.316
REMARK UNBOUND:                -0.309
REMARK SMILES O=[N+]([O-])c1ccc2c(c1)N[C@@H](c1cc(Cl)cc(Cl)c1)N2
REMARK SMILES IDX 7 1 8 2 5 3 6 4 20 5 10 6 4 7 11 8 9 9 12 12 14 13 13 14
REMARK SMILES IDX 16 15 17 16 19 17 15 18 18 19 2 20 3 21 1 22
REMARK H PARENT 20 10 10 11
ROOT
ATOM      1  C   UNL     1       4.439   9.699   4.165  1.00  0.00     0.060 A 
ATOM      2  C   UNL     1       5.296   9.430   3.125  1.00  0.00     0.066 A 
ATOM      3  C   UNL     1       2.695   8.506   3.124  1.00  0.00     0.088 A 
ATOM      4  C   UNL     1       3.285   9.078   4.283  1.00  0.00     0.035 A 
ATOM      5  N   UNL     1       5.132  10.491   5.162  1.00  0.00    -0.360 N 
ATOM      6  N   UNL     1       6.509  10.015   3.496  1.00  0.00    -0.360 N 
ATOM      7  C   UNL     1       3.491   8.342   1.992  1.00  0.00     0.271 A 
ATOM      8  C   UNL     1       6.432  10.142   4.906  1.00  0.00     0.205 C 
ATOM      9  C   UNL     1       4.845   8.799   2.009  1.00  0.00     0.113 A 
ATOM     10  H   UNL     1       4.752  11.137   5.869  1.00  0.00     0.163 HD
ATOM     11  H   UNL     1       7.287  10.293   2.881  1.00  0.00     0.163 HD
ENDROOT
BRANCH   8  12
ATOM     12  C   UNL     1       7.577  10.970   5.553  1.00  0.00    -0.003 A 
ATOM     13  C   UNL     1       8.254  13.122   6.574  1.00  0.00     0.042 A 
ATOM     14  C   UNL     1       7.316  12.018   6.464  1.00  0.00     0.028 A 
ATOM     15  C   UNL     1       9.652  12.846   6.226  1.00  0.00     0.041 A 
ATOM     16  C   UNL     1       9.924  11.555   5.601  1.00  0.00     0.042 A 
ATOM     17  C   UNL     1       8.917  10.690   5.104  1.00  0.00     0.028 A 
ATOM     18  Cl  UNL     1       7.997  14.478   7.299  1.00  0.00    -0.084 Cl
ATOM     19  Cl  UNL     1      11.570  11.148   5.388  1.00  0.00    -0.084 Cl
ENDBRANCH   8  12
BRANCH   7  20
ATOM     20  N   UNL     1       3.083   7.664   0.862  1.00  0.00     0.062 N 
ATOM     21  O   UNL     1       3.865   7.082   0.205  1.00  0.00    -0.258 OA
ATOM     22  O   UNL     1       1.830   7.433   0.579  1.00  0.00    -0.258 OA
ENDBRANCH   7  20
TORSDOF 2
ENDMDL
