MODEL 1
REMARK VINA RESULT:    -4.111      0.000      0.000
REMARK INTER + INTRA:          -4.907
REMARK INTER:                  -4.591
REMARK INTRA:                  -0.316
REMARK UNBOUND:                -0.316
REMARK SMILES O=[N+]([O-])c1ccc2c(c1)N[C@@H](c1cc(Cl)cc(Cl)c1)N2
REMARK SMILES IDX 7 1 8 2 5 3 6 4 20 5 10 6 4 7 11 8 9 9 12 12 14 13 13 14
REMARK SMILES IDX 16 15 17 16 19 17 15 18 18 19 2 20 3 21 1 22
REMARK H PARENT 20 10 10 11
ROOT
ATOM      1  C   UNL     1       5.048   7.455  -7.327  1.00  0.00     0.060 A 
ATOM      2  C   UNL     1       3.859   7.920  -7.837  1.00  0.00     0.066 A 
ATOM      3  C   UNL     1       6.280   8.983  -8.631  1.00  0.00     0.088 A 
ATOM      4  C   UNL     1       6.178   8.101  -7.521  1.00  0.00     0.035 A 
ATOM      5  N   UNL     1       4.779   6.396  -6.375  1.00  0.00    -0.360 N 
ATOM      6  N   UNL     1       2.872   7.182  -7.179  1.00  0.00    -0.360 N 
ATOM      7  C   UNL     1       5.106   9.372  -9.273  1.00  0.00     0.271 A 
ATOM      8  C   UNL     1       3.500   6.712  -5.998  1.00  0.00     0.205 C 
ATOM      9  C   UNL     1       3.853   8.838  -8.839  1.00  0.00     0.113 A 
ATOM     10  H   UNL     1       5.382   5.620  -6.067  1.00  0.00     0.163 HD
ATOM     11  H   UNL     1       1.902   7.016  -7.485  1.00  0.00     0.163 HD
ENDROOT
BRANCH   8  12
ATOM     12  C   UNL     1       2.674   5.675  -5.186  1.00  0.00    -0.003 A 
ATOM     13  C   UNL     1       2.677   3.991  -3.371  1.00  0.00     0.042 A 
ATOM     14  C   UNL     1       3.027   5.311  -3.867  1.00  0.00     0.028 A 
ATOM     15  C   UNL     1       1.511   3.339  -3.977  1.00  0.00     0.041 A 
ATOM     16  C   UNL     1       0.947   3.982  -5.159  1.00  0.00     0.042 A 
ATOM     17  C   UNL     1       1.589   5.023  -5.874  1.00  0.00     0.028 A 
ATOM     18  Cl  UNL     1       3.222   3.323  -2.072  1.00  0.00    -0.084 Cl
ATOM     19  Cl  UNL     1      -0.529   3.344  -5.738  1.00  0.00    -0.084 Cl
ENDBRANCH   8  12
BRANCH   7  20
ATOM     20  N   UNL     1       5.057  10.336 -10.259  1.00  0.00     0.062 N 
ATOM     21  O   UNL     1       4.045  10.881 -10.505  1.00  0.00    -0.258 OA
ATOM     22  O   UNL     1       6.122  10.859 -10.803  1.00  0.00    -0.258 OA
ENDBRANCH   7  20
TORSDOF 2
ENDMDL
MODEL 2
REMARK VINA RESULT:    -4.107      1.110      2.724
REMARK INTER + INTRA:          -4.903
REMARK INTER:                  -4.587
REMARK INTRA:                  -0.315
REMARK UNBOUND:                -0.316
REMARK SMILES O=[N+]([O-])c1ccc2c(c1)N[C@@H](c1cc(Cl)cc(Cl)c1)N2
REMARK SMILES IDX 7 1 8 2 5 3 6 4 20 5 10 6 4 7 11 8 9 9 12 12 14 13 13 14
REMARK SMILES IDX 16 15 17 16 19 17 15 18 18 19 2 20 3 21 1 22
REMARK H PARENT 20 10 10 11
ROOT
ATOM      1  C   UNL     1       3.822   7.874  -7.860  1.00  0.00     0.060 A 
ATOM      2  C   UNL     1       5.045   7.451  -7.398  1.00  0.00     0.066 A 
ATOM      3  C   UNL     1       4.832   9.465  -9.273  1.00  0.00     0.088 A 
ATOM      4  C   UNL     1       3.718   8.661  -8.909  1.00  0.00     0.035 A 
ATOM      5  N   UNL     1       2.775   7.105  -7.215  1.00  0.00    -0.360 N 
ATOM      6  N   UNL     1       4.756   6.411  -6.510  1.00  0.00    -0.360 N 
ATOM      7  C   UNL     1       6.073   9.162  -8.717  1.00  0.00     0.271 A 
ATOM      8  C   UNL     1       3.463   5.966  -6.885  1.00  0.00     0.205 C 
ATOM      9  C   UNL     1       6.181   8.099  -7.767  1.00  0.00     0.113 A 
ATOM     10  H   UNL     1       1.788   7.347  -7.051  1.00  0.00     0.163 HD
ATOM     11  H   UNL     1       5.351   6.048  -5.752  1.00  0.00     0.163 HD
ENDROOT
BRANCH   8  12
ATOM     12  C   UNL     1       2.812   4.948  -5.908  1.00  0.00    -0.003 A 
ATOM     13  C   UNL     1       0.747   3.764  -5.224  1.00  0.00     0.042 A 
ATOM     14  C   UNL     1       1.664   4.205  -6.262  1.00  0.00     0.028 A 
ATOM     15  C   UNL     1       1.306   3.569  -3.881  1.00  0.00     0.041 A 
ATOM     16  C   UNL     1       2.670   4.041  -3.670  1.00  0.00     0.042 A 
ATOM     17  C   UNL     1       3.371   4.868  -4.582  1.00  0.00     0.028 A 
ATOM     18  Cl  UNL     1      -0.687   3.194  -5.445  1.00  0.00    -0.084 Cl
ATOM     19  Cl  UNL     1       3.392   3.629  -2.176  1.00  0.00    -0.084 Cl
ENDBRANCH   8  12
BRANCH   7  20
ATOM     20  N   UNL     1       7.252   9.765  -9.104  1.00  0.00     0.062 N 
ATOM     21  O   UNL     1       8.282   9.232  -8.911  1.00  0.00    -0.258 OA
ATOM     22  O   UNL     1       7.299  10.811  -9.884  1.00  0.00    -0.258 OA
ENDBRANCH   7  20
TORSDOF 2
ENDMDL
MODEL 3
REMARK VINA RESULT:    -3.825      3.926      5.752
REMARK INTER + INTRA:          -4.588
REMARK INTER:                  -4.277
REMARK INTRA:                  -0.311
REMARK UNBOUND:                -0.316
REMARK SMILES O=[N+]([O-])c1ccc2c(c1)N[C@@H](c1cc(Cl)cc(Cl)c1)N2
REMARK SMILES IDX 7 1 8 2 5 3 6 4 20 5 10 6 4 7 11 8 9 9 12 12 14 13 13 14
REMARK SMILES IDX 16 15 17 16 19 17 15 18 18 19 2 20 3 21 1 22
REMARK H PARENT 20 10 10 11
ROOT
ATOM      1  C   UNL     1       2.479  11.796 -10.138  1.00  0.00     0.060 A 
ATOM      2  C   UNL     1       3.439  11.504 -11.077  1.00  0.00     0.066 A 
ATOM      3  C   UNL     1       1.669  13.592 -11.429  1.00  0.00     0.088 A 
ATOM      4  C   UNL     1       1.495  12.631 -10.397  1.00  0.00     0.035 A 
ATOM      5  N   UNL     1       2.586  10.860  -9.037  1.00  0.00    -0.360 N 
ATOM      6  N   UNL     1       4.101  10.380 -10.578  1.00  0.00    -0.360 N 
ATOM      7  C   UNL     1       2.721  13.414 -12.325  1.00  0.00     0.271 A 
ATOM      8  C   UNL     1       3.187   9.799  -9.662  1.00  0.00     0.205 C 
ATOM      9  C   UNL     1       3.618  12.314 -12.153  1.00  0.00     0.113 A 
ATOM     10  H   UNL     1       2.292  10.963  -8.055  1.00  0.00     0.163 HD
ATOM     11  H   UNL     1       5.045  10.046 -10.820  1.00  0.00     0.163 HD
ENDROOT
BRANCH   8  12
ATOM     12  C   UNL     1       3.769   8.644  -8.799  1.00  0.00    -0.003 A 
ATOM     13  C   UNL     1       3.330   6.934  -7.063  1.00  0.00     0.042 A 
ATOM     14  C   UNL     1       2.952   7.608  -8.294  1.00  0.00     0.028 A 
ATOM     15  C   UNL     1       4.759   6.910  -6.729  1.00  0.00     0.041 A 
ATOM     16  C   UNL     1       5.632   7.745  -7.547  1.00  0.00     0.042 A 
ATOM     17  C   UNL     1       5.164   8.730  -8.450  1.00  0.00     0.028 A 
ATOM     18  Cl  UNL     1       2.426   5.985  -6.220  1.00  0.00    -0.084 Cl
ATOM     19  Cl  UNL     1       7.312   7.558  -7.295  1.00  0.00    -0.084 Cl
ENDBRANCH   8  12
BRANCH   7  20
ATOM     20  N   UNL     1       2.904  14.187 -13.454  1.00  0.00     0.062 N 
ATOM     21  O   UNL     1       2.329  15.206 -13.575  1.00  0.00    -0.258 OA
ATOM     22  O   UNL     1       3.856  13.974 -14.321  1.00  0.00    -0.258 OA
ENDBRANCH   7  20
TORSDOF 2
ENDMDL
MODEL 4
REMARK VINA RESULT:    -3.822      3.274      4.711
REMARK INTER + INTRA:          -4.585
REMARK INTER:                  -4.279
REMARK INTRA:                  -0.307
REMARK UNBOUND:                -0.316
REMARK SMILES O=[N+]([O-])c1ccc2c(c1)N[C@@H](c1cc(Cl)cc(Cl)c1)N2
REMARK SMILES IDX 7 1 8 2 5 3 6 4 20 5 10 6 4 7 11 8 9 9 12 12 14 13 13 14
REMARK SMILES IDX 16 15 17 16 19 17 15 18 18 19 2 20 3 21 1 22
REMARK H PARENT 20 10 10 11
ROOT
ATOM      1  C   UNL     1       3.402  10.385 -10.557  1.00  0.00     0.060 A 
ATOM      2  C   UNL     1       2.475  10.853  -9.657  1.00  0.00     0.066 A 
ATOM      3  C   UNL     1       3.201  12.327 -11.875  1.00  0.00     0.088 A 
ATOM      4  C   UNL     1       3.920  11.166 -11.480  1.00  0.00     0.035 A 
ATOM      5  N   UNL     1       3.869   9.081 -10.128  1.00  0.00    -0.360 N 
ATOM      6  N   UNL     1       2.403   9.869  -8.668  1.00  0.00    -0.360 N 
ATOM      7  C   UNL     1       2.156  12.762 -11.064  1.00  0.00     0.271 A 
ATOM      8  C   UNL     1       3.622   9.153  -8.782  1.00  0.00     0.205 C 
ATOM      9  C   UNL     1       1.803  12.008  -9.901  1.00  0.00     0.113 A 
ATOM     10  H   UNL     1       4.275   8.313 -10.681  1.00  0.00     0.163 HD
ATOM     11  H   UNL     1       1.635   9.701  -8.003  1.00  0.00     0.163 HD
ENDROOT
BRANCH   8  12
ATOM     12  C   UNL     1       3.702   7.856  -7.930  1.00  0.00    -0.003 A 
ATOM     13  C   UNL     1       3.307   5.413  -7.835  1.00  0.00     0.042 A 
ATOM     14  C   UNL     1       3.831   6.581  -8.524  1.00  0.00     0.028 A 
ATOM     15  C   UNL     1       3.223   5.485  -6.372  1.00  0.00     0.041 A 
ATOM     16  C   UNL     1       3.468   6.791  -5.770  1.00  0.00     0.042 A 
ATOM     17  C   UNL     1       3.536   8.000  -6.506  1.00  0.00     0.028 A 
ATOM     18  Cl  UNL     1       3.106   3.996  -8.452  1.00  0.00    -0.084 Cl
ATOM     19  Cl  UNL     1       3.577   6.831  -4.065  1.00  0.00    -0.084 Cl
ENDBRANCH   8  12
BRANCH   7  20
ATOM     20  N   UNL     1       1.484  13.953 -11.253  1.00  0.00     0.062 N 
ATOM     21  O   UNL     1       0.734  14.074 -12.150  1.00  0.00    -0.258 OA
ATOM     22  O   UNL     1       1.454  14.907 -10.363  1.00  0.00    -0.258 OA
ENDBRANCH   7  20
TORSDOF 2
ENDMDL
MODEL 5
REMARK VINA RESULT:    -3.739      1.509      2.151
REMARK INTER + INTRA:          -4.492
REMARK INTER:                  -4.192
REMARK INTRA:                  -0.300
REMARK UNBOUND:                -0.316
REMARK SMILES O=[N+]([O-])c1ccc2c(c1)N[C@@H](c1cc(Cl)cc(Cl)c1)N2
REMARK SMILES IDX 7 1 8 2 5 3 6 4 20 5 10 6 4 7 11 8 9 9 12 12 14 13 13 14
REMARK SMILES IDX 16 15 17 16 19 17 15 18 18 19 2 20 3 21 1 22
REMARK H PARENT 20 10 10 11
ROOT
ATOM      1  C   UNL     1       4.336   8.040  -7.691  1.00  0.00     0.060 A 
ATOM      2  C   UNL     1       5.424   7.445  -7.099  1.00  0.00     0.066 A 
ATOM      3  C   UNL     1       5.722   9.371  -9.053  1.00  0.00     0.088 A 
ATOM      4  C   UNL     1       4.460   8.781  -8.771  1.00  0.00     0.035 A 
ATOM      5  N   UNL     1       3.121   7.487  -7.125  1.00  0.00    -0.360 N 
ATOM      6  N   UNL     1       4.885   6.512  -6.209  1.00  0.00    -0.360 N 
ATOM      7  C   UNL     1       6.839   8.895  -8.370  1.00  0.00     0.271 A 
ATOM      8  C   UNL     1       3.574   6.269  -6.691  1.00  0.00     0.205 C 
ATOM      9  C   UNL     1       6.681   7.878  -7.378  1.00  0.00     0.113 A 
ATOM     10  H   UNL     1       2.178   7.897  -7.064  1.00  0.00     0.163 HD
ATOM     11  H   UNL     1       5.340   6.094  -5.384  1.00  0.00     0.163 HD
ENDROOT
BRANCH   8  12
ATOM     12  C   UNL     1       2.676   5.422  -5.747  1.00  0.00    -0.003 A 
ATOM     13  C   UNL     1       2.552   4.041  -3.695  1.00  0.00     0.042 A 
ATOM     14  C   UNL     1       2.990   5.246  -4.380  1.00  0.00     0.028 A 
ATOM     15  C   UNL     1       1.353   3.375  -4.218  1.00  0.00     0.041 A 
ATOM     16  C   UNL     1       0.845   3.861  -5.496  1.00  0.00     0.042 A 
ATOM     17  C   UNL     1       1.560   4.738  -6.349  1.00  0.00     0.028 A 
ATOM     18  Cl  UNL     1       3.039   3.550  -2.298  1.00  0.00    -0.084 Cl
ATOM     19  Cl  UNL     1      -0.662   3.231  -6.001  1.00  0.00    -0.084 Cl
ENDBRANCH   8  12
BRANCH   7  20
ATOM     20  N   UNL     1       8.133   9.276  -8.661  1.00  0.00     0.062 N 
ATOM     21  O   UNL     1       9.040   8.626  -8.291  1.00  0.00    -0.258 OA
ATOM     22  O   UNL     1       8.428  10.209  -9.526  1.00  0.00    -0.258 OA
ENDBRANCH   7  20
TORSDOF 2
ENDMDL
MODEL 6
REMARK VINA RESULT:    -3.659      4.963      7.638
REMARK INTER + INTRA:          -4.402
REMARK INTER:                  -4.103
REMARK INTRA:                  -0.299
REMARK UNBOUND:                -0.316
REMARK SMILES O=[N+]([O-])c1ccc2c(c1)N[C@@H](c1cc(Cl)cc(Cl)c1)N2
REMARK SMILES IDX 7 1 8 2 5 3 6 4 20 5 10 6 4 7 11 8 9 9 12 12 14 13 13 14
REMARK SMILES IDX 16 15 17 16 19 17 15 18 18 19 2 20 3 21 1 22
REMARK H PARENT 20 10 10 11
ROOT
ATOM      1  C   UNL     1       3.328   5.468  -4.673  1.00  0.00     0.060 A 
ATOM      2  C   UNL     1       2.235   5.460  -5.507  1.00  0.00     0.066 A 
ATOM      3  C   UNL     1       2.413   3.748  -3.349  1.00  0.00     0.088 A 
ATOM      4  C   UNL     1       3.527   4.512  -3.791  1.00  0.00     0.035 A 
ATOM      5  N   UNL     1       4.272   6.468  -5.131  1.00  0.00    -0.360 N 
ATOM      6  N   UNL     1       2.521   6.415  -6.486  1.00  0.00    -0.360 N 
ATOM      7  C   UNL     1       1.232   3.818  -4.085  1.00  0.00     0.271 A 
ATOM      8  C   UNL     1       3.933   6.550  -6.457  1.00  0.00     0.205 C 
ATOM      9  C   UNL     1       1.156   4.686  -5.218  1.00  0.00     0.113 A 
ATOM     10  H   UNL     1       4.997   6.977  -4.607  1.00  0.00     0.163 HD
ATOM     11  H   UNL     1       1.855   6.911  -7.094  1.00  0.00     0.163 HD
ENDROOT
BRANCH   8  12
ATOM     12  C   UNL     1       4.496   7.720  -7.310  1.00  0.00    -0.003 A 
ATOM     13  C   UNL     1       4.113   9.281  -9.193  1.00  0.00     0.042 A 
ATOM     14  C   UNL     1       3.647   8.629  -7.981  1.00  0.00     0.028 A 
ATOM     15  C   UNL     1       5.562   9.455  -9.342  1.00  0.00     0.041 A 
ATOM     16  C   UNL     1       6.403   8.768  -8.367  1.00  0.00     0.042 A 
ATOM     17  C   UNL     1       5.927   7.780  -7.470  1.00  0.00     0.028 A 
ATOM     18  Cl  UNL     1       3.233  10.076 -10.205  1.00  0.00    -0.084 Cl
ATOM     19  Cl  UNL     1       8.071   9.137  -8.411  1.00  0.00    -0.084 Cl
ENDBRANCH   8  12
BRANCH   7  20
ATOM     20  N   UNL     1       0.136   3.013  -3.851  1.00  0.00     0.062 N 
ATOM     21  O   UNL     1       0.103   2.316  -2.905  1.00  0.00    -0.258 OA
ATOM     22  O   UNL     1      -0.990   3.131  -4.501  1.00  0.00    -0.258 OA
ENDBRANCH   7  20
TORSDOF 2
ENDMDL
MODEL 7
REMARK VINA RESULT:    -3.635      0.986      2.241
REMARK INTER + INTRA:          -4.376
REMARK INTER:                  -4.085
REMARK INTRA:                  -0.291
REMARK UNBOUND:                -0.316
REMARK SMILES O=[N+]([O-])c1ccc2c(c1)N[C@@H](c1cc(Cl)cc(Cl)c1)N2
REMARK SMILES IDX 7 1 8 2 5 3 6 4 20 5 10 6 4 7 11 8 9 9 12 12 14 13 13 14
REMARK SMILES IDX 16 15 17 16 19 17 15 18 18 19 2 20 3 21 1 22
REMARK H PARENT 20 10 10 11
ROOT
ATOM      1  C   UNL     1       4.603   7.827  -8.033  1.00  0.00     0.060 A 
ATOM      2  C   UNL     1       3.283   8.104  -8.297  1.00  0.00     0.066 A 
ATOM      3  C   UNL     1       5.319   9.587  -9.425  1.00  0.00     0.088 A 
ATOM      4  C   UNL     1       5.562   8.660  -8.375  1.00  0.00     0.035 A 
ATOM      5  N   UNL     1       4.682   6.703  -7.121  1.00  0.00    -0.360 N 
ATOM      6  N   UNL     1       2.561   7.187  -7.529  1.00  0.00    -0.360 N 
ATOM      7  C   UNL     1       4.002   9.797  -9.827  1.00  0.00     0.271 A 
ATOM      8  C   UNL     1       3.459   6.786  -6.508  1.00  0.00     0.205 C 
ATOM      9  C   UNL     1       2.949   9.044  -9.219  1.00  0.00     0.113 A 
ATOM     10  H   UNL     1       5.446   6.029  -6.974  1.00  0.00     0.163 HD
ATOM     11  H   UNL     1       1.591   6.873  -7.672  1.00  0.00     0.163 HD
ENDROOT
BRANCH   8  12
ATOM     12  C   UNL     1       2.970   5.596  -5.636  1.00  0.00    -0.003 A 
ATOM     13  C   UNL     1       1.136   4.007  -5.143  1.00  0.00     0.042 A 
ATOM     14  C   UNL     1       1.996   4.684  -6.100  1.00  0.00     0.028 A 
ATOM     15  C   UNL     1       1.666   3.818  -3.788  1.00  0.00     0.041 A 
ATOM     16  C   UNL     1       2.909   4.513  -3.474  1.00  0.00     0.042 A 
ATOM     17  C   UNL     1       3.480   5.521  -4.291  1.00  0.00     0.028 A 
ATOM     18  Cl  UNL     1      -0.157   3.203  -5.478  1.00  0.00    -0.084 Cl
ATOM     19  Cl  UNL     1       3.634   4.129  -1.974  1.00  0.00    -0.084 Cl
ENDBRANCH   8  12
BRANCH   7  20
ATOM     20  N   UNL     1       3.622  10.775 -10.723  1.00  0.00     0.062 N 
ATOM     21  O   UNL     1       3.312  11.843 -10.340  1.00  0.00    -0.258 OA
ATOM     22  O   UNL     1       3.795  10.671 -12.013  1.00  0.00    -0.258 OA
ENDBRANCH   7  20
TORSDOF 2
ENDMDL
MODEL 8
REMARK VINA RESULT:    -3.598      4.985      7.413
REMARK INTER + INTRA:          -4.335
REMARK INTER:                  -4.018
REMARK INTRA:                  -0.317
REMARK UNBOUND:                -0.316
REMARK SMILES O=[N+]([O-])c1ccc2c(c1)N[C@@H](c1cc(Cl)cc(Cl)c1)N2
REMARK SMILES IDX 7 1 8 2 5 3 6 4 20 5 10 6 4 7 11 8 9 9 12 12 14 13 13 14
REMARK SMILES IDX 16 15 17 16 19 17 15 18 18 19 2 20 3 21 1 22
REMARK H PARENT 20 10 10 11
ROOT
ATOM      1  C   UNL     1       3.284   5.323  -4.885  1.00  0.00     0.060 A 
ATOM      2  C   UNL     1       2.194   5.206  -5.715  1.00  0.00     0.066 A 
ATOM      3  C   UNL     1       2.369   3.781  -3.358  1.00  0.00     0.088 A 
ATOM      4  C   UNL     1       3.482   4.487  -3.888  1.00  0.00     0.035 A 
ATOM      5  N   UNL     1       4.226   6.261  -5.463  1.00  0.00    -0.360 N 
ATOM      6  N   UNL     1       2.481   6.030  -6.806  1.00  0.00    -0.360 N 
ATOM      7  C   UNL     1       1.191   3.752  -4.101  1.00  0.00     0.271 A 
ATOM      8  C   UNL     1       3.892   6.173  -6.789  1.00  0.00     0.205 C 
ATOM      9  C   UNL     1       1.117   4.471  -5.335  1.00  0.00     0.113 A 
ATOM     10  H   UNL     1       4.948   6.835  -5.005  1.00  0.00     0.163 HD
ATOM     11  H   UNL     1       1.815   6.443  -7.475  1.00  0.00     0.163 HD
ENDROOT
BRANCH   8  12
ATOM     12  C   UNL     1       4.455   7.228  -7.781  1.00  0.00    -0.003 A 
ATOM     13  C   UNL     1       6.356   8.697  -8.384  1.00  0.00     0.042 A 
ATOM     14  C   UNL     1       5.844   7.398  -7.979  1.00  0.00     0.028 A 
ATOM     15  C   UNL     1       5.442   9.571  -9.129  1.00  0.00     0.041 A 
ATOM     16  C   UNL     1       4.049   9.142  -9.204  1.00  0.00     0.042 A 
ATOM     17  C   UNL     1       3.500   8.099  -8.418  1.00  0.00     0.028 A 
ATOM     18  Cl  UNL     1       7.850   9.140  -8.372  1.00  0.00    -0.084 Cl
ATOM     19  Cl  UNL     1       3.034  10.044 -10.241  1.00  0.00    -0.084 Cl
ENDBRANCH   8  12
BRANCH   7  20
ATOM     20  N   UNL     1       0.097   2.979  -3.771  1.00  0.00     0.062 N 
ATOM     21  O   UNL     1       0.112   2.311  -2.803  1.00  0.00    -0.258 OA
ATOM     22  O   UNL     1      -1.068   3.104  -4.348  1.00  0.00    -0.258 OA
ENDBRANCH   7  20
TORSDOF 2
ENDMDL
MODEL 9
REMARK VINA RESULT:    -2.962      5.396      8.188
REMARK INTER + INTRA:          -3.625
REMARK INTER:                  -3.322
REMARK INTRA:                  -0.303
REMARK UNBOUND:                -0.316
REMARK SMILES O=[N+]([O-])c1ccc2c(c1)N[C@@H](c1cc(Cl)cc(Cl)c1)N2
REMARK SMILES IDX 7 1 8 2 5 3 6 4 20 5 10 6 4 7 11 8 9 9 12 12 14 13 13 14
REMARK SMILES IDX 16 15 17 16 19 17 15 18 18 19 2 20 3 21 1 22
REMARK H PARENT 20 10 10 11
ROOT
ATOM      1  C   UNL     1       4.870   8.736  -8.489  1.00  0.00     0.060 A 
ATOM      2  C   UNL     1       3.532   8.480  -8.305  1.00  0.00     0.066 A 
ATOM      3  C   UNL     1       5.470   7.057  -6.949  1.00  0.00     0.088 A 
ATOM      4  C   UNL     1       5.795   7.921  -8.030  1.00  0.00     0.035 A 
ATOM      5  N   UNL     1       5.024   9.806  -9.455  1.00  0.00    -0.360 N 
ATOM      6  N   UNL     1       2.875   9.353  -9.176  1.00  0.00    -0.360 N 
ATOM      7  C   UNL     1       4.125   6.875  -6.633  1.00  0.00     0.271 A 
ATOM      8  C   UNL     1       3.848   9.692 -10.150  1.00  0.00     0.205 C 
ATOM      9  C   UNL     1       3.125   7.595  -7.358  1.00  0.00     0.113 A 
ATOM     10  H   UNL     1       5.802  10.468  -9.584  1.00  0.00     0.163 HD
ATOM     11  H   UNL     1       1.899   9.679  -9.122  1.00  0.00     0.163 HD
ENDROOT
BRANCH   8  12
ATOM     12  C   UNL     1       3.432  10.832 -11.122  1.00  0.00    -0.003 A 
ATOM     13  C   UNL     1       4.037  12.184 -13.106  1.00  0.00     0.042 A 
ATOM     14  C   UNL     1       3.918  10.894 -12.447  1.00  0.00     0.028 A 
ATOM     15  C   UNL     1       3.138  13.250 -12.651  1.00  0.00     0.041 A 
ATOM     16  C   UNL     1       2.364  12.978 -11.445  1.00  0.00     0.042 A 
ATOM     17  C   UNL     1       2.608  11.882 -10.580  1.00  0.00     0.028 A 
ATOM     18  Cl  UNL     1       4.804  12.470 -14.432  1.00  0.00    -0.084 Cl
ATOM     19  Cl  UNL     1       1.169  14.129 -11.035  1.00  0.00    -0.084 Cl
ENDBRANCH   8  12
BRANCH   7  20
ATOM     20  N   UNL     1       3.674   5.952  -5.712  1.00  0.00     0.062 N 
ATOM     21  O   UNL     1       3.729   4.802  -5.950  1.00  0.00    -0.258 OA
ATOM     22  O   UNL     1       3.384   6.255  -4.476  1.00  0.00    -0.258 OA
ENDBRANCH   7  20
TORSDOF 2
ENDMDL
