MODEL 1
REMARK VINA RESULT:    -3.608      0.000      0.000
REMARK INTER + INTRA:          -4.339
REMARK INTER:                  -4.029
REMARK INTRA:                  -0.309
REMARK UNBOUND:                -0.309
REMARK SMILES O=[N+]([O-])c1ccc2c(c1)N[C@@H](c1cc(Cl)cc(Cl)c1)N2
REMARK SMILES IDX 7 1 8 2 5 3 6 4 20 5 10 6 4 7 11 8 9 9 12 12 14 13 13 14
REMARK SMILES IDX 16 15 17 16 19 17 15 18 18 19 2 20 3 21 1 22
REMARK H PARENT 20 10 10 11
ROOT
ATOM      1  C   UNL     1       4.853  16.559  -7.860  1.00  0.00     0.060 A 
ATOM      2  C   UNL     1       5.879  16.778  -8.748  1.00  0.00     0.066 A 
ATOM      3  C   UNL     1       3.258  16.596  -9.594  1.00  0.00     0.088 A 
ATOM      4  C   UNL     1       3.643  16.244  -8.272  1.00  0.00     0.035 A 
ATOM      5  N   UNL     1       5.395  16.451  -6.520  1.00  0.00    -0.360 N 
ATOM      6  N   UNL     1       7.039  16.766  -7.969  1.00  0.00    -0.360 N 
ATOM      7  C   UNL     1       4.255  16.965 -10.495  1.00  0.00     0.271 A 
ATOM      8  C   UNL     1       6.678  16.057  -6.795  1.00  0.00     0.205 C 
ATOM      9  C   UNL     1       5.614  17.030 -10.056  1.00  0.00     0.113 A 
ATOM     10  H   UNL     1       4.941  16.623  -5.612  1.00  0.00     0.163 HD
ATOM     11  H   UNL     1       7.953  17.182  -8.196  1.00  0.00     0.163 HD
ENDROOT
BRANCH   8  12
ATOM     12  C   UNL     1       7.737  16.089  -5.659  1.00  0.00    -0.003 A 
ATOM     13  C   UNL     1       8.193  15.785  -3.244  1.00  0.00     0.042 A 
ATOM     14  C   UNL     1       7.591  15.320  -4.482  1.00  0.00     0.028 A 
ATOM     15  C   UNL     1       9.374  16.648  -3.360  1.00  0.00     0.041 A 
ATOM     16  C   UNL     1       9.699  17.128  -4.699  1.00  0.00     0.042 A 
ATOM     17  C   UNL     1       8.829  17.016  -5.812  1.00  0.00     0.028 A 
ATOM     18  Cl  UNL     1       7.903  15.230  -1.816  1.00  0.00    -0.084 Cl
ATOM     19  Cl  UNL     1      11.185  17.956  -4.867  1.00  0.00    -0.084 Cl
ENDBRANCH   8  12
BRANCH   7  20
ATOM     20  N   UNL     1       4.029  17.180 -11.839  1.00  0.00     0.062 N 
ATOM     21  O   UNL     1       3.609  16.315 -12.515  1.00  0.00    -0.258 OA
ATOM     22  O   UNL     1       4.042  18.365 -12.386  1.00  0.00    -0.258 OA
ENDBRANCH   7  20
TORSDOF 2
ENDMDL
MODEL 2
REMARK VINA RESULT:    -3.578      3.044      4.664
REMARK INTER + INTRA:          -4.306
REMARK INTER:                  -3.998
REMARK INTRA:                  -0.308
REMARK UNBOUND:                -0.309
REMARK SMILES O=[N+]([O-])c1ccc2c(c1)N[C@@H](c1cc(Cl)cc(Cl)c1)N2
REMARK SMILES IDX 7 1 8 2 5 3 6 4 20 5 10 6 4 7 11 8 9 9 12 12 14 13 13 14
REMARK SMILES IDX 16 15 17 16 19 17 15 18 18 19 2 20 3 21 1 22
REMARK H PARENT 20 10 10 11
ROOT
ATOM      1  C   UNL     1       7.021  17.032  -4.595  1.00  0.00     0.060 A 
ATOM      2  C   UNL     1       7.198  15.714  -4.940  1.00  0.00     0.066 A 
ATOM      3  C   UNL     1       5.897  17.480  -6.616  1.00  0.00     0.088 A 
ATOM      4  C   UNL     1       6.211  17.818  -5.272  1.00  0.00     0.035 A 
ATOM      5  N   UNL     1       7.604  17.266  -3.288  1.00  0.00    -0.360 N 
ATOM      6  N   UNL     1       7.846  15.137  -3.845  1.00  0.00    -0.360 N 
ATOM      7  C   UNL     1       6.190  16.191  -7.057  1.00  0.00     0.271 A 
ATOM      8  C   UNL     1       7.559  16.002  -2.759  1.00  0.00     0.205 C 
ATOM      9  C   UNL     1       6.839  15.273  -6.174  1.00  0.00     0.113 A 
ATOM     10  H   UNL     1       7.955  18.140  -2.872  1.00  0.00     0.163 HD
ATOM     11  H   UNL     1       8.408  14.274  -3.830  1.00  0.00     0.163 HD
ENDROOT
BRANCH   8  12
ATOM     12  C   UNL     1       8.349  15.701  -1.455  1.00  0.00    -0.003 A 
ATOM     13  C   UNL     1      10.233  16.342   0.019  1.00  0.00     0.042 A 
ATOM     14  C   UNL     1       9.069  16.707  -0.772  1.00  0.00     0.028 A 
ATOM     15  C   UNL     1      10.269  14.980   0.562  1.00  0.00     0.041 A 
ATOM     16  C   UNL     1       9.244  14.060   0.080  1.00  0.00     0.042 A 
ATOM     17  C   UNL     1       8.400  14.327  -1.026  1.00  0.00     0.028 A 
ATOM     18  Cl  UNL     1      11.296  17.325   0.596  1.00  0.00    -0.084 Cl
ATOM     19  Cl  UNL     1       9.157  12.544   0.864  1.00  0.00    -0.084 Cl
ENDBRANCH   8  12
BRANCH   7  20
ATOM     20  N   UNL     1       5.798  15.695  -8.284  1.00  0.00     0.062 N 
ATOM     21  O   UNL     1       4.827  15.039  -8.375  1.00  0.00    -0.258 OA
ATOM     22  O   UNL     1       6.316  16.090  -9.415  1.00  0.00    -0.258 OA
ENDBRANCH   7  20
TORSDOF 2
ENDMDL
MODEL 3
REMARK VINA RESULT:    -3.573      5.527      6.970
REMARK INTER + INTRA:          -4.300
REMARK INTER:                  -3.996
REMARK INTRA:                  -0.303
REMARK UNBOUND:                -0.309
REMARK SMILES O=[N+]([O-])c1ccc2c(c1)N[C@@H](c1cc(Cl)cc(Cl)c1)N2
REMARK SMILES IDX 7 1 8 2 5 3 6 4 20 5 10 6 4 7 11 8 9 9 12 12 14 13 13 14
REMARK SMILES IDX 16 15 17 16 19 17 15 18 18 19 2 20 3 21 1 22
REMARK H PARENT 20 10 10 11
ROOT
ATOM      1  C   UNL     1       5.994  13.054  -5.626  1.00  0.00     0.060 A 
ATOM      2  C   UNL     1       4.668  12.869  -5.937  1.00  0.00     0.066 A 
ATOM      3  C   UNL     1       6.088  15.026  -6.911  1.00  0.00     0.088 A 
ATOM      4  C   UNL     1       6.611  14.186  -5.891  1.00  0.00     0.035 A 
ATOM      5  N   UNL     1       6.436  11.980  -4.759  1.00  0.00    -0.360 N 
ATOM      6  N   UNL     1       4.291  11.719  -5.239  1.00  0.00    -0.360 N 
ATOM      7  C   UNL     1       4.792  14.787  -7.362  1.00  0.00     0.271 A 
ATOM      8  C   UNL     1       5.245  11.599  -4.197  1.00  0.00     0.205 C 
ATOM      9  C   UNL     1       4.052  13.684  -6.832  1.00  0.00     0.113 A 
ATOM     10  H   UNL     1       7.383  11.606  -4.606  1.00  0.00     0.163 HD
ATOM     11  H   UNL     1       3.496  11.095  -5.438  1.00  0.00     0.163 HD
ENDROOT
BRANCH   8  12
ATOM     12  C   UNL     1       5.179  10.268  -3.398  1.00  0.00    -0.003 A 
ATOM     13  C   UNL     1       5.890   7.900  -3.257  1.00  0.00     0.042 A 
ATOM     14  C   UNL     1       6.207   9.302  -3.474  1.00  0.00     0.028 A 
ATOM     15  C   UNL     1       4.727   7.603  -2.413  1.00  0.00     0.041 A 
ATOM     16  C   UNL     1       3.880   8.735  -2.052  1.00  0.00     0.042 A 
ATOM     17  C   UNL     1       3.973  10.015  -2.652  1.00  0.00     0.028 A 
ATOM     18  Cl  UNL     1       6.817   6.688  -3.576  1.00  0.00    -0.084 Cl
ATOM     19  Cl  UNL     1       2.652   8.426  -0.904  1.00  0.00    -0.084 Cl
ENDBRANCH   8  12
BRANCH   7  20
ATOM     20  N   UNL     1       4.118  15.620  -8.232  1.00  0.00     0.062 N 
ATOM     21  O   UNL     1       3.346  16.406  -7.823  1.00  0.00    -0.258 OA
ATOM     22  O   UNL     1       4.443  15.754  -9.489  1.00  0.00    -0.258 OA
ENDBRANCH   7  20
TORSDOF 2
ENDMDL
MODEL 4
REMARK VINA RESULT:    -3.570      6.194      8.956
REMARK INTER + INTRA:          -4.297
REMARK INTER:                  -3.988
REMARK INTRA:                  -0.309
REMARK UNBOUND:                -0.309
REMARK SMILES O=[N+]([O-])c1ccc2c(c1)N[C@@H](c1cc(Cl)cc(Cl)c1)N2
REMARK SMILES IDX 7 1 8 2 5 3 6 4 20 5 10 6 4 7 11 8 9 9 12 12 14 13 13 14
REMARK SMILES IDX 16 15 17 16 19 17 15 18 18 19 2 20 3 21 1 22
REMARK H PARENT 20 10 10 11
ROOT
ATOM      1  C   UNL     1       9.875  15.977  -2.528  1.00  0.00     0.060 A 
ATOM      2  C   UNL     1       8.773  15.420  -1.925  1.00  0.00     0.066 A 
ATOM      3  C   UNL     1      11.129  15.808  -0.541  1.00  0.00     0.088 A 
ATOM      4  C   UNL     1      11.058  15.955  -1.953  1.00  0.00     0.035 A 
ATOM      5  N   UNL     1       9.561  16.281  -3.910  1.00  0.00    -0.360 N 
ATOM      6  N   UNL     1       7.808  15.346  -2.933  1.00  0.00    -0.360 N 
ATOM      7  C   UNL     1       9.989  15.380   0.135  1.00  0.00     0.271 A 
ATOM      8  C   UNL     1       8.546  15.389  -4.143  1.00  0.00     0.205 C 
ATOM      9  C   UNL     1       8.779  15.154  -0.593  1.00  0.00     0.113 A 
ATOM     10  H   UNL     1       9.984  16.974  -4.544  1.00  0.00     0.163 HD
ATOM     11  H   UNL     1       6.786  15.277  -2.822  1.00  0.00     0.163 HD
ENDROOT
BRANCH   8  12
ATOM     12  C   UNL     1       7.687  15.542  -5.429  1.00  0.00    -0.003 A 
ATOM     13  C   UNL     1       6.889  17.057  -7.218  1.00  0.00     0.042 A 
ATOM     14  C   UNL     1       7.968  16.530  -6.400  1.00  0.00     0.028 A 
ATOM     15  C   UNL     1       5.734  16.180  -7.443  1.00  0.00     0.041 A 
ATOM     16  C   UNL     1       5.684  14.955  -6.651  1.00  0.00     0.042 A 
ATOM     17  C   UNL     1       6.527  14.696  -5.542  1.00  0.00     0.028 A 
ATOM     18  Cl  UNL     1       6.956  18.326  -8.120  1.00  0.00    -0.084 Cl
ATOM     19  Cl  UNL     1       4.457  13.838  -7.060  1.00  0.00    -0.084 Cl
ENDBRANCH   8  12
BRANCH   7  20
ATOM     20  N   UNL     1       9.972  15.054   1.476  1.00  0.00     0.062 N 
ATOM     21  O   UNL     1      10.066  13.932   1.815  1.00  0.00    -0.258 OA
ATOM     22  O   UNL     1      10.081  15.940   2.429  1.00  0.00    -0.258 OA
ENDBRANCH   7  20
TORSDOF 2
ENDMDL
MODEL 5
REMARK VINA RESULT:    -3.541      5.359      7.464
REMARK INTER + INTRA:          -4.264
REMARK INTER:                  -3.954
REMARK INTRA:                  -0.310
REMARK UNBOUND:                -0.309
REMARK SMILES O=[N+]([O-])c1ccc2c(c1)N[C@@H](c1cc(Cl)cc(Cl)c1)N2
REMARK SMILES IDX 7 1 8 2 5 3 6 4 20 5 10 6 4 7 11 8 9 9 12 12 14 13 13 14
REMARK SMILES IDX 16 15 17 16 19 17 15 18 18 19 2 20 3 21 1 22
REMARK H PARENT 20 10 10 11
ROOT
ATOM      1  C   UNL     1       7.591  16.467  -6.209  1.00  0.00     0.060 A 
ATOM      2  C   UNL     1       8.847  17.020  -6.142  1.00  0.00     0.066 A 
ATOM      3  C   UNL     1       7.653  15.889  -3.926  1.00  0.00     0.088 A 
ATOM      4  C   UNL     1       6.926  16.137  -5.122  1.00  0.00     0.035 A 
ATOM      5  N   UNL     1       7.082  16.599  -7.560  1.00  0.00    -0.360 N 
ATOM      6  N   UNL     1       9.090  17.520  -7.425  1.00  0.00    -0.360 N 
ATOM      7  C   UNL     1       8.980  16.307  -3.863  1.00  0.00     0.271 A 
ATOM      8  C   UNL     1       7.804  17.677  -8.000  1.00  0.00     0.205 C 
ATOM      9  C   UNL     1       9.584  16.917  -5.006  1.00  0.00     0.113 A 
ATOM     10  H   UNL     1       6.372  16.038  -8.053  1.00  0.00     0.163 HD
ATOM     11  H   UNL     1      10.002  17.727  -7.856  1.00  0.00     0.163 HD
ENDROOT
BRANCH   8  12
ATOM     12  C   UNL     1       7.803  18.018  -9.517  1.00  0.00    -0.003 A 
ATOM     13  C   UNL     1       6.502  18.084 -11.623  1.00  0.00     0.042 A 
ATOM     14  C   UNL     1       6.616  18.364 -10.201  1.00  0.00     0.028 A 
ATOM     15  C   UNL     1       7.749  18.028 -12.393  1.00  0.00     0.041 A 
ATOM     16  C   UNL     1       8.989  18.045 -11.624  1.00  0.00     0.042 A 
ATOM     17  C   UNL     1       9.051  17.868 -10.220  1.00  0.00     0.028 A 
ATOM     18  Cl  UNL     1       5.192  18.131 -12.466  1.00  0.00    -0.084 Cl
ATOM     19  Cl  UNL     1      10.436  18.191 -12.523  1.00  0.00    -0.084 Cl
ENDBRANCH   8  12
BRANCH   7  20
ATOM     20  N   UNL     1       9.742  16.262  -2.713  1.00  0.00     0.062 N 
ATOM     21  O   UNL     1      10.236  15.253  -2.367  1.00  0.00    -0.258 OA
ATOM     22  O   UNL     1      10.147  17.330  -2.081  1.00  0.00    -0.258 OA
ENDBRANCH   7  20
TORSDOF 2
ENDMDL
MODEL 6
REMARK VINA RESULT:    -3.521      9.335     10.925
REMARK INTER + INTRA:          -4.242
REMARK INTER:                  -3.935
REMARK INTRA:                  -0.307
REMARK UNBOUND:                -0.309
REMARK SMILES O=[N+]([O-])c1ccc2c(c1)N[C@@H](c1cc(Cl)cc(Cl)c1)N2
REMARK SMILES IDX 7 1 8 2 5 3 6 4 20 5 10 6 4 7 11 8 9 9 12 12 14 13 13 14
REMARK SMILES IDX 16 15 17 16 19 17 15 18 18 19 2 20 3 21 1 22
REMARK H PARENT 20 10 10 11
ROOT
ATOM      1  C   UNL     1       7.383  13.010  -0.597  1.00  0.00     0.060 A 
ATOM      2  C   UNL     1       8.151  11.976  -0.118  1.00  0.00     0.066 A 
ATOM      3  C   UNL     1       8.924  14.608   0.192  1.00  0.00     0.088 A 
ATOM      4  C   UNL     1       7.847  14.240  -0.659  1.00  0.00     0.035 A 
ATOM      5  N   UNL     1       6.201  12.470  -1.239  1.00  0.00    -0.360 N 
ATOM      6  N   UNL     1       7.470  10.816  -0.494  1.00  0.00    -0.360 N 
ATOM      7  C   UNL     1       9.647  13.594   0.816  1.00  0.00     0.271 A 
ATOM      8  C   UNL     1       6.644  11.217  -1.574  1.00  0.00     0.205 C 
ATOM      9  C   UNL     1       9.257  12.231   0.629  1.00  0.00     0.113 A 
ATOM     10  H   UNL     1       5.282  12.907  -1.400  1.00  0.00     0.163 HD
ATOM     11  H   UNL     1       7.550   9.877  -0.079  1.00  0.00     0.163 HD
ENDROOT
BRANCH   8  12
ATOM     12  C   UNL     1       5.612  10.152  -2.041  1.00  0.00    -0.003 A 
ATOM     13  C   UNL     1       3.352   9.186  -1.737  1.00  0.00     0.042 A 
ATOM     14  C   UNL     1       4.221  10.342  -1.882  1.00  0.00     0.028 A 
ATOM     15  C   UNL     1       3.811   7.929  -2.339  1.00  0.00     0.041 A 
ATOM     16  C   UNL     1       5.183   7.907  -2.834  1.00  0.00     0.042 A 
ATOM     17  C   UNL     1       6.141   8.913  -2.552  1.00  0.00     0.028 A 
ATOM     18  Cl  UNL     1       1.864   9.207  -1.275  1.00  0.00    -0.084 Cl
ATOM     19  Cl  UNL     1       5.648   6.521  -3.719  1.00  0.00    -0.084 Cl
ENDBRANCH   8  12
BRANCH   7  20
ATOM     20  N   UNL     1      10.801  13.811   1.540  1.00  0.00     0.062 N 
ATOM     21  O   UNL     1      10.778  14.478   2.508  1.00  0.00    -0.258 OA
ATOM     22  O   UNL     1      11.902  13.136   1.350  1.00  0.00    -0.258 OA
ENDBRANCH   7  20
TORSDOF 2
ENDMDL
MODEL 7
REMARK VINA RESULT:    -3.297      3.452      5.474
REMARK INTER + INTRA:          -3.992
REMARK INTER:                  -3.674
REMARK INTRA:                  -0.317
REMARK UNBOUND:                -0.309
REMARK SMILES O=[N+]([O-])c1ccc2c(c1)N[C@@H](c1cc(Cl)cc(Cl)c1)N2
REMARK SMILES IDX 7 1 8 2 5 3 6 4 20 5 10 6 4 7 11 8 9 9 12 12 14 13 13 14
REMARK SMILES IDX 16 15 17 16 19 17 15 18 18 19 2 20 3 21 1 22
REMARK H PARENT 20 10 10 11
ROOT
ATOM      1  C   UNL     1       8.693  16.069  -4.552  1.00  0.00     0.060 A 
ATOM      2  C   UNL     1       7.527  15.349  -4.653  1.00  0.00     0.066 A 
ATOM      3  C   UNL     1       8.289  17.137  -6.613  1.00  0.00     0.088 A 
ATOM      4  C   UNL     1       8.948  17.080  -5.355  1.00  0.00     0.035 A 
ATOM      5  N   UNL     1       9.363  15.722  -3.315  1.00  0.00    -0.360 N 
ATOM      6  N   UNL     1       7.463  14.599  -3.476  1.00  0.00    -0.360 N 
ATOM      7  C   UNL     1       7.181  16.316  -6.814  1.00  0.00     0.271 A 
ATOM      8  C   UNL     1       8.303  15.287  -2.564  1.00  0.00     0.205 C 
ATOM      9  C   UNL     1       6.775  15.412  -5.783  1.00  0.00     0.113 A 
ATOM     10  H   UNL     1      10.361  15.786  -3.067  1.00  0.00     0.163 HD
ATOM     11  H   UNL     1       6.925  13.737  -3.308  1.00  0.00     0.163 HD
ENDROOT
BRANCH   8  12
ATOM     12  C   UNL     1       8.580  14.533  -1.233  1.00  0.00    -0.003 A 
ATOM     13  C   UNL     1      10.231  13.978   0.527  1.00  0.00     0.042 A 
ATOM     14  C   UNL     1       9.585  14.955  -0.334  1.00  0.00     0.028 A 
ATOM     15  C   UNL     1       9.458  12.779   0.872  1.00  0.00     0.041 A 
ATOM     16  C   UNL     1       8.207  12.582   0.147  1.00  0.00     0.042 A 
ATOM     17  C   UNL     1       7.833  13.323  -1.001  1.00  0.00     0.028 A 
ATOM     18  Cl  UNL     1      11.530  14.202   1.359  1.00  0.00    -0.084 Cl
ATOM     19  Cl  UNL     1       7.209  11.306   0.692  1.00  0.00    -0.084 Cl
ENDBRANCH   8  12
BRANCH   7  20
ATOM     20  N   UNL     1       6.367  16.388  -7.926  1.00  0.00     0.062 N 
ATOM     21  O   UNL     1       5.865  15.416  -8.357  1.00  0.00    -0.258 OA
ATOM     22  O   UNL     1       5.927  17.513  -8.419  1.00  0.00    -0.258 OA
ENDBRANCH   7  20
TORSDOF 2
ENDMDL
MODEL 8
REMARK VINA RESULT:    -3.295      0.519      2.056
REMARK INTER + INTRA:          -3.990
REMARK INTER:                  -3.699
REMARK INTRA:                  -0.291
REMARK UNBOUND:                -0.309
REMARK SMILES O=[N+]([O-])c1ccc2c(c1)N[C@@H](c1cc(Cl)cc(Cl)c1)N2
REMARK SMILES IDX 7 1 8 2 5 3 6 4 20 5 10 6 4 7 11 8 9 9 12 12 14 13 13 14
REMARK SMILES IDX 16 15 17 16 19 17 15 18 18 19 2 20 3 21 1 22
REMARK H PARENT 20 10 10 11
ROOT
ATOM      1  C   UNL     1       4.968  16.626  -7.757  1.00  0.00     0.060 A 
ATOM      2  C   UNL     1       6.077  16.872  -8.531  1.00  0.00     0.066 A 
ATOM      3  C   UNL     1       3.599  16.432  -9.664  1.00  0.00     0.088 A 
ATOM      4  C   UNL     1       3.844  16.192  -8.285  1.00  0.00     0.035 A 
ATOM      5  N   UNL     1       5.349  16.643  -6.359  1.00  0.00    -0.360 N 
ATOM      6  N   UNL     1       7.131  16.999  -7.623  1.00  0.00    -0.360 N 
ATOM      7  C   UNL     1       4.669  16.824 -10.465  1.00  0.00     0.271 A 
ATOM      8  C   UNL     1       6.681  16.335  -6.453  1.00  0.00     0.205 C 
ATOM      9  C   UNL     1       5.957  17.023  -9.876  1.00  0.00     0.113 A 
ATOM     10  H   UNL     1       4.776  16.832  -5.524  1.00  0.00     0.163 HD
ATOM     11  H   UNL     1       8.035  17.471  -7.770  1.00  0.00     0.163 HD
ENDROOT
BRANCH   8  12
ATOM     12  C   UNL     1       7.589  16.519  -5.205  1.00  0.00    -0.003 A 
ATOM     13  C   UNL     1       9.784  17.263  -4.334  1.00  0.00     0.042 A 
ATOM     14  C   UNL     1       8.616  17.489  -5.168  1.00  0.00     0.028 A 
ATOM     15  C   UNL     1       9.607  16.402  -3.159  1.00  0.00     0.041 A 
ATOM     16  C   UNL     1       8.339  15.687  -3.062  1.00  0.00     0.042 A 
ATOM     17  C   UNL     1       7.404  15.587  -4.122  1.00  0.00     0.028 A 
ATOM     18  Cl  UNL     1      11.118  18.067  -4.384  1.00  0.00    -0.084 Cl
ATOM     19  Cl  UNL     1       8.049  14.853  -1.598  1.00  0.00    -0.084 Cl
ENDBRANCH   8  12
BRANCH   7  20
ATOM     20  N   UNL     1       4.595  16.939 -11.838  1.00  0.00     0.062 N 
ATOM     21  O   UNL     1       4.828  16.013 -12.525  1.00  0.00    -0.258 OA
ATOM     22  O   UNL     1       4.060  17.965 -12.443  1.00  0.00    -0.258 OA
ENDBRANCH   7  20
TORSDOF 2
ENDMDL
MODEL 9
REMARK VINA RESULT:    -3.249      3.432      4.858
REMARK INTER + INTRA:          -3.938
REMARK INTER:                  -3.646
REMARK INTRA:                  -0.293
REMARK UNBOUND:                -0.309
REMARK SMILES O=[N+]([O-])c1ccc2c(c1)N[C@@H](c1cc(Cl)cc(Cl)c1)N2
REMARK SMILES IDX 7 1 8 2 5 3 6 4 20 5 10 6 4 7 11 8 9 9 12 12 14 13 13 14
REMARK SMILES IDX 16 15 17 16 19 17 15 18 18 19 2 20 3 21 1 22
REMARK H PARENT 20 10 10 11
ROOT
ATOM      1  C   UNL     1       7.395  16.935  -4.316  1.00  0.00     0.060 A 
ATOM      2  C   UNL     1       7.467  15.573  -4.486  1.00  0.00     0.066 A 
ATOM      3  C   UNL     1       6.005  17.163  -6.205  1.00  0.00     0.088 A 
ATOM      4  C   UNL     1       6.526  17.666  -4.982  1.00  0.00     0.035 A 
ATOM      5  N   UNL     1       8.172  17.314  -3.153  1.00  0.00    -0.360 N 
ATOM      6  N   UNL     1       8.246  15.117  -3.420  1.00  0.00    -0.360 N 
ATOM      7  C   UNL     1       6.179  15.811  -6.489  1.00  0.00     0.271 A 
ATOM      8  C   UNL     1       8.156  16.141  -2.443  1.00  0.00     0.205 C 
ATOM      9  C   UNL     1       6.914  14.987  -5.580  1.00  0.00     0.113 A 
ATOM     10  H   UNL     1       8.615  18.215  -2.923  1.00  0.00     0.163 HD
ATOM     11  H   UNL     1       8.770  14.233  -3.357  1.00  0.00     0.163 HD
ENDROOT
BRANCH   8  12
ATOM     12  C   UNL     1       9.116  15.978  -1.233  1.00  0.00    -0.003 A 
ATOM     13  C   UNL     1       9.852  14.545   0.648  1.00  0.00     0.042 A 
ATOM     14  C   UNL     1       9.501  14.706  -0.753  1.00  0.00     0.028 A 
ATOM     15  C   UNL     1      10.369  15.728   1.345  1.00  0.00     0.041 A 
ATOM     16  C   UNL     1      10.277  16.996   0.630  1.00  0.00     0.042 A 
ATOM     17  C   UNL     1       9.520  17.183  -0.554  1.00  0.00     0.028 A 
ATOM     18  Cl  UNL     1      10.020  13.192   1.404  1.00  0.00    -0.084 Cl
ATOM     19  Cl  UNL     1      11.063  18.332   1.350  1.00  0.00    -0.084 Cl
ENDBRANCH   8  12
BRANCH   7  20
ATOM     20  N   UNL     1       5.592  15.173  -7.562  1.00  0.00     0.062 N 
ATOM     21  O   UNL     1       4.689  14.438  -7.394  1.00  0.00    -0.258 OA
ATOM     22  O   UNL     1       5.826  15.498  -8.804  1.00  0.00    -0.258 OA
ENDBRANCH   7  20
TORSDOF 2
ENDMDL
