MODEL 1
REMARK VINA RESULT:    -4.810      0.000      0.000
REMARK INTER + INTRA:          -5.687
REMARK INTER:                  -5.372
REMARK INTRA:                  -0.315
REMARK UNBOUND:                -0.315
REMARK SMILES O=[N+]([O-])c1ccc2c(c1)N[C@@H](c1cc(Cl)cc(Cl)c1)N2
REMARK SMILES IDX 7 1 8 2 5 3 6 4 20 5 10 6 4 7 11 8 9 9 12 12 14 13 13 14
REMARK SMILES IDX 16 15 17 16 19 17 15 18 18 19 2 20 3 21 1 22
REMARK H PARENT 20 10 10 11
ROOT
ATOM      1  C   UNL     1       6.019  -8.650  -1.136  1.00  0.00     0.060 A 
ATOM      2  C   UNL     1       4.859  -9.350  -1.368  1.00  0.00     0.066 A 
ATOM      3  C   UNL     1       7.273 -10.640  -1.012  1.00  0.00     0.088 A 
ATOM      4  C   UNL     1       7.197  -9.233  -1.194  1.00  0.00     0.035 A 
ATOM      5  N   UNL     1       5.726  -7.231  -1.124  1.00  0.00    -0.360 N 
ATOM      6  N   UNL     1       3.875  -8.373  -1.535  1.00  0.00    -0.360 N 
ATOM      7  C   UNL     1       6.096 -11.380  -1.097  1.00  0.00     0.271 A 
ATOM      8  C   UNL     1       4.588  -7.199  -1.887  1.00  0.00     0.205 C 
ATOM      9  C   UNL     1       4.853 -10.708  -1.309  1.00  0.00     0.113 A 
ATOM     10  H   UNL     1       6.233  -6.458  -0.669  1.00  0.00     0.163 HD
ATOM     11  H   UNL     1       2.856  -8.481  -1.427  1.00  0.00     0.163 HD
ENDROOT
BRANCH   8  12
ATOM     12  C   UNL     1       3.736  -5.900  -1.919  1.00  0.00    -0.003 A 
ATOM     13  C   UNL     1       3.731  -3.431  -2.108  1.00  0.00     0.042 A 
ATOM     14  C   UNL     1       4.184  -4.731  -2.575  1.00  0.00     0.028 A 
ATOM     15  C   UNL     1       2.433  -3.383  -1.425  1.00  0.00     0.041 A 
ATOM     16  C   UNL     1       1.827  -4.667  -1.091  1.00  0.00     0.042 A 
ATOM     17  C   UNL     1       2.510  -5.906  -1.163  1.00  0.00     0.028 A 
ATOM     18  Cl  UNL     1       4.330  -2.050  -2.514  1.00  0.00    -0.084 Cl
ATOM     19  Cl  UNL     1       0.228  -4.615  -0.488  1.00  0.00    -0.084 Cl
ENDBRANCH   8  12
BRANCH   7  20
ATOM     20  N   UNL     1       6.058 -12.760  -1.091  1.00  0.00     0.062 N 
ATOM     21  O   UNL     1       5.118 -13.329  -1.510  1.00  0.00    -0.258 OA
ATOM     22  O   UNL     1       7.103 -13.504  -0.851  1.00  0.00    -0.258 OA
ENDBRANCH   7  20
TORSDOF 2
ENDMDL
MODEL 2
REMARK VINA RESULT:    -4.807      0.967      2.633
REMARK INTER + INTRA:          -5.684
REMARK INTER:                  -5.369
REMARK INTRA:                  -0.315
REMARK UNBOUND:                -0.315
REMARK SMILES O=[N+]([O-])c1ccc2c(c1)N[C@@H](c1cc(Cl)cc(Cl)c1)N2
REMARK SMILES IDX 7 1 8 2 5 3 6 4 20 5 10 6 4 7 11 8 9 9 12 12 14 13 13 14
REMARK SMILES IDX 16 15 17 16 19 17 15 18 18 19 2 20 3 21 1 22
REMARK H PARENT 20 10 10 11
ROOT
ATOM      1  C   UNL     1       4.613  -9.420  -1.432  1.00  0.00     0.060 A 
ATOM      2  C   UNL     1       5.867  -8.906  -1.207  1.00  0.00     0.066 A 
ATOM      3  C   UNL     1       5.409 -11.628  -1.227  1.00  0.00     0.088 A 
ATOM      4  C   UNL     1       4.341 -10.690  -1.218  1.00  0.00     0.035 A 
ATOM      5  N   UNL     1       3.678  -8.331  -1.632  1.00  0.00    -0.360 N 
ATOM      6  N   UNL     1       5.699  -7.519  -1.230  1.00  0.00    -0.360 N 
ATOM      7  C   UNL     1       6.713 -11.144  -1.144  1.00  0.00     0.271 A 
ATOM      8  C   UNL     1       4.320  -7.320  -0.965  1.00  0.00     0.205 C 
ATOM      9  C   UNL     1       6.941  -9.733  -1.106  1.00  0.00     0.113 A 
ATOM     10  H   UNL     1       2.780  -8.319  -2.136  1.00  0.00     0.163 HD
ATOM     11  H   UNL     1       6.417  -6.801  -1.401  1.00  0.00     0.163 HD
ENDROOT
BRANCH   8  12
ATOM     12  C   UNL     1       3.823  -5.859  -1.150  1.00  0.00    -0.003 A 
ATOM     13  C   UNL     1       1.875  -4.334  -1.269  1.00  0.00     0.042 A 
ATOM     14  C   UNL     1       2.590  -5.418  -0.617  1.00  0.00     0.028 A 
ATOM     15  C   UNL     1       2.676  -3.373  -2.035  1.00  0.00     0.041 A 
ATOM     16  C   UNL     1       4.078  -3.718  -2.247  1.00  0.00     0.042 A 
ATOM     17  C   UNL     1       4.627  -4.996  -1.978  1.00  0.00     0.028 A 
ATOM     18  Cl  UNL     1       0.398  -3.914  -0.999  1.00  0.00    -0.084 Cl
ATOM     19  Cl  UNL     1       5.057  -2.509  -2.955  1.00  0.00    -0.084 Cl
ENDBRANCH   8  12
BRANCH   7  20
ATOM     20  N   UNL     1       7.821 -11.951  -0.991  1.00  0.00     0.062 N 
ATOM     21  O   UNL     1       8.832 -11.503  -0.593  1.00  0.00    -0.258 OA
ATOM     22  O   UNL     1       7.770 -13.255  -1.050  1.00  0.00    -0.258 OA
ENDBRANCH   7  20
TORSDOF 2
ENDMDL
MODEL 3
REMARK VINA RESULT:    -4.532      5.115      7.581
REMARK INTER + INTRA:          -5.377
REMARK INTER:                  -5.078
REMARK INTRA:                  -0.299
REMARK UNBOUND:                -0.315
REMARK SMILES O=[N+]([O-])c1ccc2c(c1)N[C@@H](c1cc(Cl)cc(Cl)c1)N2
REMARK SMILES IDX 7 1 8 2 5 3 6 4 20 5 10 6 4 7 11 8 9 9 12 12 14 13 13 14
REMARK SMILES IDX 16 15 17 16 19 17 15 18 18 19 2 20 3 21 1 22
REMARK H PARENT 20 10 10 11
ROOT
ATOM      1  C   UNL     1       3.024  -6.165  -1.366  1.00  0.00     0.060 A 
ATOM      2  C   UNL     1       4.212  -5.474  -1.385  1.00  0.00     0.066 A 
ATOM      3  C   UNL     1       1.801  -4.207  -1.834  1.00  0.00     0.088 A 
ATOM      4  C   UNL     1       1.907  -5.624  -1.802  1.00  0.00     0.035 A 
ATOM      5  N   UNL     1       3.289  -7.563  -1.091  1.00  0.00    -0.360 N 
ATOM      6  N   UNL     1       5.196  -6.440  -1.162  1.00  0.00    -0.360 N 
ATOM      7  C   UNL     1       2.968  -3.456  -1.713  1.00  0.00     0.271 A 
ATOM      8  C   UNL     1       4.585  -7.667  -1.526  1.00  0.00     0.205 C 
ATOM      9  C   UNL     1       4.217  -4.121  -1.508  1.00  0.00     0.113 A 
ATOM     10  H   UNL     1       2.674  -8.281  -0.683  1.00  0.00     0.163 HD
ATOM     11  H   UNL     1       6.153  -6.294  -0.812  1.00  0.00     0.163 HD
ENDROOT
BRANCH   8  12
ATOM     12  C   UNL     1       5.403  -8.938  -1.165  1.00  0.00    -0.003 A 
ATOM     13  C   UNL     1       7.647  -9.959  -0.931  1.00  0.00     0.042 A 
ATOM     14  C   UNL     1       6.730  -8.859  -0.685  1.00  0.00     0.028 A 
ATOM     15  C   UNL     1       7.057 -11.291  -1.108  1.00  0.00     0.041 A 
ATOM     16  C   UNL     1       5.605 -11.348  -1.235  1.00  0.00     0.042 A 
ATOM     17  C   UNL     1       4.784 -10.211  -1.437  1.00  0.00     0.028 A 
ATOM     18  Cl  UNL     1       9.192  -9.929  -0.732  1.00  0.00    -0.084 Cl
ATOM     19  Cl  UNL     1       4.904 -12.907  -1.230  1.00  0.00    -0.084 Cl
ENDBRANCH   8  12
BRANCH   7  20
ATOM     20  N   UNL     1       3.019  -2.087  -1.881  1.00  0.00     0.062 N 
ATOM     21  O   UNL     1       2.057  -1.433  -1.709  1.00  0.00    -0.258 OA
ATOM     22  O   UNL     1       4.135  -1.422  -2.007  1.00  0.00    -0.258 OA
ENDBRANCH   7  20
TORSDOF 2
ENDMDL
MODEL 4
REMARK VINA RESULT:    -4.515      5.009      7.643
REMARK INTER + INTRA:          -5.358
REMARK INTER:                  -5.059
REMARK INTRA:                  -0.299
REMARK UNBOUND:                -0.315
REMARK SMILES O=[N+]([O-])c1ccc2c(c1)N[C@@H](c1cc(Cl)cc(Cl)c1)N2
REMARK SMILES IDX 7 1 8 2 5 3 6 4 20 5 10 6 4 7 11 8 9 9 12 12 14 13 13 14
REMARK SMILES IDX 16 15 17 16 19 17 15 18 18 19 2 20 3 21 1 22
REMARK H PARENT 20 10 10 11
ROOT
ATOM      1  C   UNL     1       4.455  -5.464  -1.630  1.00  0.00     0.060 A 
ATOM      2  C   UNL     1       3.188  -5.996  -1.672  1.00  0.00     0.066 A 
ATOM      3  C   UNL     1       3.600  -3.274  -1.469  1.00  0.00     0.088 A 
ATOM      4  C   UNL     1       4.661  -4.206  -1.304  1.00  0.00     0.035 A 
ATOM      5  N   UNL     1       5.427  -6.536  -1.703  1.00  0.00    -0.360 N 
ATOM      6  N   UNL     1       3.380  -7.379  -1.732  1.00  0.00    -0.360 N 
ATOM      7  C   UNL     1       2.312  -3.770  -1.658  1.00  0.00     0.271 A 
ATOM      8  C   UNL     1       4.687  -7.584  -1.221  1.00  0.00     0.205 C 
ATOM      9  C   UNL     1       2.102  -5.182  -1.734  1.00  0.00     0.113 A 
ATOM     10  H   UNL     1       6.404  -6.517  -2.028  1.00  0.00     0.163 HD
ATOM     11  H   UNL     1       2.718  -8.091  -2.071  1.00  0.00     0.163 HD
ENDROOT
BRANCH   8  12
ATOM     12  C   UNL     1       5.233  -9.030  -1.382  1.00  0.00    -0.003 A 
ATOM     13  C   UNL     1       4.720 -11.453  -1.349  1.00  0.00     0.042 A 
ATOM     14  C   UNL     1       4.400 -10.101  -1.777  1.00  0.00     0.028 A 
ATOM     15  C   UNL     1       6.129 -11.746  -1.064  1.00  0.00     0.041 A 
ATOM     16  C   UNL     1       7.036 -10.604  -1.030  1.00  0.00     0.042 A 
ATOM     17  C   UNL     1       6.607  -9.253  -1.012  1.00  0.00     0.028 A 
ATOM     18  Cl  UNL     1       3.781 -12.693  -1.445  1.00  0.00    -0.084 Cl
ATOM     19  Cl  UNL     1       8.703 -10.964  -0.907  1.00  0.00    -0.084 Cl
ENDBRANCH   8  12
BRANCH   7  20
ATOM     20  N   UNL     1       1.182  -2.978  -1.677  1.00  0.00     0.062 N 
ATOM     21  O   UNL     1       1.250  -1.857  -2.025  1.00  0.00    -0.258 OA
ATOM     22  O   UNL     1      -0.027  -3.451  -1.542  1.00  0.00    -0.258 OA
ENDBRANCH   7  20
TORSDOF 2
ENDMDL
MODEL 5
REMARK VINA RESULT:    -4.408      5.031      7.440
REMARK INTER + INTRA:          -5.238
REMARK INTER:                  -4.920
REMARK INTRA:                  -0.318
REMARK UNBOUND:                -0.315
REMARK SMILES O=[N+]([O-])c1ccc2c(c1)N[C@@H](c1cc(Cl)cc(Cl)c1)N2
REMARK SMILES IDX 7 1 8 2 5 3 6 4 20 5 10 6 4 7 11 8 9 9 12 12 14 13 13 14
REMARK SMILES IDX 16 15 17 16 19 17 15 18 18 19 2 20 3 21 1 22
REMARK H PARENT 20 10 10 11
ROOT
ATOM      1  C   UNL     1       4.534  -5.313  -1.919  1.00  0.00     0.060 A 
ATOM      2  C   UNL     1       3.268  -5.702  -1.550  1.00  0.00     0.066 A 
ATOM      3  C   UNL     1       3.843  -3.075  -2.172  1.00  0.00     0.088 A 
ATOM      4  C   UNL     1       4.869  -4.042  -1.992  1.00  0.00     0.035 A 
ATOM      5  N   UNL     1       5.411  -6.466  -1.907  1.00  0.00    -0.360 N 
ATOM      6  N   UNL     1       3.376  -7.068  -1.278  1.00  0.00    -0.360 N 
ATOM      7  C   UNL     1       2.524  -3.463  -1.946  1.00  0.00     0.271 A 
ATOM      8  C   UNL     1       4.754  -7.277  -1.018  1.00  0.00     0.205 C 
ATOM      9  C   UNL     1       2.237  -4.819  -1.597  1.00  0.00     0.113 A 
ATOM     10  H   UNL     1       6.287  -6.632  -2.423  1.00  0.00     0.163 HD
ATOM     11  H   UNL     1       2.621  -7.768  -1.267  1.00  0.00     0.163 HD
ENDROOT
BRANCH   8  12
ATOM     12  C   UNL     1       5.179  -8.767  -0.898  1.00  0.00    -0.003 A 
ATOM     13  C   UNL     1       7.036 -10.403  -0.984  1.00  0.00     0.042 A 
ATOM     14  C   UNL     1       6.489  -9.139  -0.520  1.00  0.00     0.028 A 
ATOM     15  C   UNL     1       6.077 -11.472  -1.291  1.00  0.00     0.041 A 
ATOM     16  C   UNL     1       4.668 -11.095  -1.306  1.00  0.00     0.042 A 
ATOM     17  C   UNL     1       4.207  -9.756  -1.288  1.00  0.00     0.028 A 
ATOM     18  Cl  UNL     1       8.530 -10.841  -0.908  1.00  0.00    -0.084 Cl
ATOM     19  Cl  UNL     1       3.544 -12.374  -1.455  1.00  0.00    -0.084 Cl
ENDBRANCH   8  12
BRANCH   7  20
ATOM     20  N   UNL     1       1.459  -2.585  -1.938  1.00  0.00     0.062 N 
ATOM     21  O   UNL     1       0.361  -2.986  -1.815  1.00  0.00    -0.258 OA
ATOM     22  O   UNL     1       1.599  -1.291  -1.835  1.00  0.00    -0.258 OA
ENDBRANCH   7  20
TORSDOF 2
ENDMDL
MODEL 6
REMARK VINA RESULT:    -4.377      0.800      2.178
REMARK INTER + INTRA:          -5.204
REMARK INTER:                  -4.904
REMARK INTRA:                  -0.300
REMARK UNBOUND:                -0.315
REMARK SMILES O=[N+]([O-])c1ccc2c(c1)N[C@@H](c1cc(Cl)cc(Cl)c1)N2
REMARK SMILES IDX 7 1 8 2 5 3 6 4 20 5 10 6 4 7 11 8 9 9 12 12 14 13 13 14
REMARK SMILES IDX 16 15 17 16 19 17 15 18 18 19 2 20 3 21 1 22
REMARK H PARENT 20 10 10 11
ROOT
ATOM      1  C   UNL     1       5.547  -9.163  -1.033  1.00  0.00     0.060 A 
ATOM      2  C   UNL     1       4.278  -9.560  -1.381  1.00  0.00     0.066 A 
ATOM      3  C   UNL     1       6.328 -11.385  -1.093  1.00  0.00     0.088 A 
ATOM      4  C   UNL     1       6.571  -9.985  -1.118  1.00  0.00     0.035 A 
ATOM      5  N   UNL     1       5.571  -7.723  -0.872  1.00  0.00    -0.360 N 
ATOM      6  N   UNL     1       3.541  -8.375  -1.470  1.00  0.00    -0.360 N 
ATOM      7  C   UNL     1       5.024 -11.831  -1.300  1.00  0.00     0.271 A 
ATOM      8  C   UNL     1       4.513  -7.361  -1.664  1.00  0.00     0.205 C 
ATOM      9  C   UNL     1       3.972 -10.880  -1.476  1.00  0.00     0.113 A 
ATOM     10  H   UNL     1       6.207  -7.134  -0.317  1.00  0.00     0.163 HD
ATOM     11  H   UNL     1       2.519  -8.264  -1.408  1.00  0.00     0.163 HD
ENDROOT
BRANCH   8  12
ATOM     12  C   UNL     1       3.968  -5.908  -1.578  1.00  0.00    -0.003 A 
ATOM     13  C   UNL     1       1.986  -4.454  -1.272  1.00  0.00     0.042 A 
ATOM     14  C   UNL     1       2.788  -5.596  -0.865  1.00  0.00     0.028 A 
ATOM     15  C   UNL     1       2.683  -3.362  -1.962  1.00  0.00     0.041 A 
ATOM     16  C   UNL     1       4.062  -3.621  -2.361  1.00  0.00     0.042 A 
ATOM     17  C   UNL     1       4.663  -4.904  -2.342  1.00  0.00     0.028 A 
ATOM     18  Cl  UNL     1       0.537  -4.133  -0.797  1.00  0.00    -0.084 Cl
ATOM     19  Cl  UNL     1       4.937  -2.286  -2.973  1.00  0.00    -0.084 Cl
ENDBRANCH   8  12
BRANCH   7  20
ATOM     20  N   UNL     1       4.685 -13.160  -1.450  1.00  0.00     0.062 N 
ATOM     21  O   UNL     1       3.602 -13.461  -1.793  1.00  0.00    -0.258 OA
ATOM     22  O   UNL     1       5.562 -14.127  -1.451  1.00  0.00    -0.258 OA
ENDBRANCH   7  20
TORSDOF 2
ENDMDL
MODEL 7
REMARK VINA RESULT:    -4.335      1.022      1.792
REMARK INTER + INTRA:          -5.157
REMARK INTER:                  -4.858
REMARK INTRA:                  -0.299
REMARK UNBOUND:                -0.315
REMARK SMILES O=[N+]([O-])c1ccc2c(c1)N[C@@H](c1cc(Cl)cc(Cl)c1)N2
REMARK SMILES IDX 7 1 8 2 5 3 6 4 20 5 10 6 4 7 11 8 9 9 12 12 14 13 13 14
REMARK SMILES IDX 16 15 17 16 19 17 15 18 18 19 2 20 3 21 1 22
REMARK H PARENT 20 10 10 11
ROOT
ATOM      1  C   UNL     1       4.666  -9.516  -1.615  1.00  0.00     0.060 A 
ATOM      2  C   UNL     1       5.894  -8.910  -1.500  1.00  0.00     0.066 A 
ATOM      3  C   UNL     1       5.589 -11.628  -1.129  1.00  0.00     0.088 A 
ATOM      4  C   UNL     1       4.471 -10.756  -1.218  1.00  0.00     0.035 A 
ATOM      5  N   UNL     1       3.667  -8.516  -1.936  1.00  0.00    -0.360 N 
ATOM      6  N   UNL     1       5.647  -7.551  -1.710  1.00  0.00    -0.360 N 
ATOM      7  C   UNL     1       6.865 -11.069  -1.152  1.00  0.00     0.271 A 
ATOM      8  C   UNL     1       4.265  -7.389  -1.435  1.00  0.00     0.205 C 
ATOM      9  C   UNL     1       7.014  -9.657  -1.317  1.00  0.00     0.113 A 
ATOM     10  H   UNL     1       2.759  -8.622  -2.410  1.00  0.00     0.163 HD
ATOM     11  H   UNL     1       6.320  -6.827  -2.000  1.00  0.00     0.163 HD
ENDROOT
BRANCH   8  12
ATOM     12  C   UNL     1       3.683  -5.997  -1.807  1.00  0.00    -0.003 A 
ATOM     13  C   UNL     1       4.166  -3.655  -2.449  1.00  0.00     0.042 A 
ATOM     14  C   UNL     1       4.398  -5.080  -2.610  1.00  0.00     0.028 A 
ATOM     15  C   UNL     1       2.850  -3.246  -1.944  1.00  0.00     0.041 A 
ATOM     16  C   UNL     1       1.984  -4.312  -1.451  1.00  0.00     0.042 A 
ATOM     17  C   UNL     1       2.421  -5.638  -1.211  1.00  0.00     0.028 A 
ATOM     18  Cl  UNL     1       5.049  -2.509  -3.031  1.00  0.00    -0.084 Cl
ATOM     19  Cl  UNL     1       0.382  -3.865  -1.059  1.00  0.00    -0.084 Cl
ENDBRANCH   8  12
BRANCH   7  20
ATOM     20  N   UNL     1       8.020 -11.788  -0.921  1.00  0.00     0.062 N 
ATOM     21  O   UNL     1       8.936 -11.282  -0.386  1.00  0.00    -0.258 OA
ATOM     22  O   UNL     1       8.096 -13.084  -1.058  1.00  0.00    -0.258 OA
ENDBRANCH   7  20
TORSDOF 2
ENDMDL
MODEL 8
REMARK VINA RESULT:    -4.081      3.098      4.461
REMARK INTER + INTRA:          -4.873
REMARK INTER:                  -4.567
REMARK INTRA:                  -0.307
REMARK UNBOUND:                -0.315
REMARK SMILES O=[N+]([O-])c1ccc2c(c1)N[C@@H](c1cc(Cl)cc(Cl)c1)N2
REMARK SMILES IDX 7 1 8 2 5 3 6 4 20 5 10 6 4 7 11 8 9 9 12 12 14 13 13 14
REMARK SMILES IDX 16 15 17 16 19 17 15 18 18 19 2 20 3 21 1 22
REMARK H PARENT 20 10 10 11
ROOT
ATOM      1  C   UNL     1       4.224 -12.611  -1.283  1.00  0.00     0.060 A 
ATOM      2  C   UNL     1       3.501 -12.348  -2.422  1.00  0.00     0.066 A 
ATOM      3  C   UNL     1       4.099 -14.933  -1.662  1.00  0.00     0.088 A 
ATOM      4  C   UNL     1       4.707 -13.810  -1.037  1.00  0.00     0.035 A 
ATOM      5  N   UNL     1       4.572 -11.361  -0.638  1.00  0.00    -0.360 N 
ATOM      6  N   UNL     1       3.439 -10.954  -2.496  1.00  0.00    -0.360 N 
ATOM      7  C   UNL     1       3.242 -14.706  -2.736  1.00  0.00     0.271 A 
ATOM      8  C   UNL     1       4.525 -10.502  -1.705  1.00  0.00     0.205 C 
ATOM      9  C   UNL     1       2.958 -13.365  -3.142  1.00  0.00     0.113 A 
ATOM     10  H   UNL     1       4.793 -11.170   0.350  1.00  0.00     0.163 HD
ATOM     11  H   UNL     1       2.755 -10.382  -3.011  1.00  0.00     0.163 HD
ENDROOT
BRANCH   8  12
ATOM     12  C   UNL     1       4.552  -8.971  -1.443  1.00  0.00    -0.003 A 
ATOM     13  C   UNL     1       3.831  -7.107   0.021  1.00  0.00     0.042 A 
ATOM     14  C   UNL     1       4.401  -8.434  -0.144  1.00  0.00     0.028 A 
ATOM     15  C   UNL     1       3.991  -6.170  -1.097  1.00  0.00     0.041 A 
ATOM     16  C   UNL     1       4.513  -6.725  -2.341  1.00  0.00     0.042 A 
ATOM     17  C   UNL     1       4.636  -8.113  -2.597  1.00  0.00     0.028 A 
ATOM     18  Cl  UNL     1       3.333  -6.481   1.358  1.00  0.00    -0.084 Cl
ATOM     19  Cl  UNL     1       4.895  -5.601  -3.570  1.00  0.00    -0.084 Cl
ENDBRANCH   8  12
BRANCH   7  20
ATOM     20  N   UNL     1       2.712 -15.711  -3.519  1.00  0.00     0.062 N 
ATOM     21  O   UNL     1       1.925 -16.460  -3.070  1.00  0.00    -0.258 OA
ATOM     22  O   UNL     1       2.860 -15.762  -4.815  1.00  0.00    -0.258 OA
ENDBRANCH   7  20
TORSDOF 2
ENDMDL
MODEL 9
REMARK VINA RESULT:    -3.510      5.185      7.662
REMARK INTER + INTRA:          -4.235
REMARK INTER:                  -3.938
REMARK INTRA:                  -0.296
REMARK UNBOUND:                -0.315
REMARK SMILES O=[N+]([O-])c1ccc2c(c1)N[C@@H](c1cc(Cl)cc(Cl)c1)N2
REMARK SMILES IDX 7 1 8 2 5 3 6 4 20 5 10 6 4 7 11 8 9 9 12 12 14 13 13 14
REMARK SMILES IDX 16 15 17 16 19 17 15 18 18 19 2 20 3 21 1 22
REMARK H PARENT 20 10 10 11
ROOT
ATOM      1  C   UNL     1       4.275  -8.345  -0.614  1.00  0.00     0.060 A 
ATOM      2  C   UNL     1       4.716  -8.170  -1.904  1.00  0.00     0.066 A 
ATOM      3  C   UNL     1       4.099  -6.019  -0.287  1.00  0.00     0.088 A 
ATOM      4  C   UNL     1       3.764  -7.351   0.080  1.00  0.00     0.035 A 
ATOM      5  N   UNL     1       4.207  -9.763  -0.320  1.00  0.00    -0.360 N 
ATOM      6  N   UNL     1       4.880  -9.462  -2.408  1.00  0.00    -0.360 N 
ATOM      7  C   UNL     1       4.682  -5.806  -1.534  1.00  0.00     0.271 A 
ATOM      8  C   UNL     1       4.065 -10.278  -1.583  1.00  0.00     0.205 C 
ATOM      9  C   UNL     1       4.974  -6.923  -2.378  1.00  0.00     0.113 A 
ATOM     10  H   UNL     1       4.253 -10.250   0.586  1.00  0.00     0.163 HD
ATOM     11  H   UNL     1       5.464  -9.757  -3.203  1.00  0.00     0.163 HD
ENDROOT
BRANCH   8  12
ATOM     12  C   UNL     1       4.238 -11.807  -1.798  1.00  0.00    -0.003 A 
ATOM     13  C   UNL     1       3.225 -13.909  -2.629  1.00  0.00     0.042 A 
ATOM     14  C   UNL     1       3.537 -12.501  -2.810  1.00  0.00     0.028 A 
ATOM     15  C   UNL     1       4.116 -14.681  -1.755  1.00  0.00     0.041 A 
ATOM     16  C   UNL     1       5.094 -13.919  -0.987  1.00  0.00     0.042 A 
ATOM     17  C   UNL     1       5.070 -12.509  -0.854  1.00  0.00     0.028 A 
ATOM     18  Cl  UNL     1       2.232 -14.748  -3.489  1.00  0.00    -0.084 Cl
ATOM     19  Cl  UNL     1       6.263 -14.829  -0.134  1.00  0.00    -0.084 Cl
ENDBRANCH   8  12
BRANCH   7  20
ATOM     20  N   UNL     1       4.912  -4.554  -2.068  1.00  0.00     0.062 N 
ATOM     21  O   UNL     1       4.939  -4.402  -3.233  1.00  0.00    -0.258 OA
ATOM     22  O   UNL     1       4.886  -3.458  -1.359  1.00  0.00    -0.258 OA
ENDBRANCH   7  20
TORSDOF 2
ENDMDL
