MODEL 1
REMARK VINA RESULT:    -4.011      0.000      0.000
REMARK INTER + INTRA:          -4.787
REMARK INTER:                  -4.480
REMARK INTRA:                  -0.307
REMARK UNBOUND:                -0.307
REMARK SMILES O=[N+]([O-])c1ccc2c(c1)N[C@@H](c1cc(Cl)cc(Cl)c1)N2
REMARK SMILES IDX 7 1 8 2 5 3 6 4 20 5 10 6 4 7 11 8 9 9 12 12 14 13 13 14
REMARK SMILES IDX 16 15 17 16 19 17 15 18 18 19 2 20 3 21 1 22
REMARK H PARENT 20 10 10 11
ROOT
ATOM      1  C   UNL     1      -9.883  -7.086  -2.437  1.00  0.00     0.060 A 
ATOM      2  C   UNL     1      -9.401  -7.417  -1.193  1.00  0.00     0.066 A 
ATOM      3  C   UNL     1     -11.070  -9.115  -2.589  1.00  0.00     0.088 A 
ATOM      4  C   UNL     1     -10.850  -7.774  -3.005  1.00  0.00     0.035 A 
ATOM      5  N   UNL     1      -9.377  -5.781  -2.813  1.00  0.00    -0.360 N 
ATOM      6  N   UNL     1      -8.642  -6.313  -0.794  1.00  0.00    -0.360 N 
ATOM      7  C   UNL     1     -10.482  -9.541  -1.400  1.00  0.00     0.271 A 
ATOM      8  C   UNL     1      -9.129  -5.238  -1.580  1.00  0.00     0.205 C 
ATOM      9  C   UNL     1      -9.641  -8.647  -0.668  1.00  0.00     0.113 A 
ATOM     10  H   UNL     1      -9.242  -5.373  -3.750  1.00  0.00     0.163 HD
ATOM     11  H   UNL     1      -7.893  -6.287  -0.087  1.00  0.00     0.163 HD
ENDROOT
BRANCH   8  12
ATOM     12  C   UNL     1      -8.297  -3.929  -1.485  1.00  0.00    -0.003 A 
ATOM     13  C   UNL     1      -6.446  -2.578  -2.426  1.00  0.00     0.042 A 
ATOM     14  C   UNL     1      -7.647  -3.375  -2.611  1.00  0.00     0.028 A 
ATOM     15  C   UNL     1      -6.294  -1.892  -1.137  1.00  0.00     0.041 A 
ATOM     16  C   UNL     1      -7.251  -2.247  -0.095  1.00  0.00     0.042 A 
ATOM     17  C   UNL     1      -8.131  -3.355  -0.173  1.00  0.00     0.028 A 
ATOM     18  Cl  UNL     1      -5.455  -2.137  -3.544  1.00  0.00    -0.084 Cl
ATOM     19  Cl  UNL     1      -7.206  -1.302   1.328  1.00  0.00    -0.084 Cl
ENDBRANCH   8  12
BRANCH   7  20
ATOM     20  N   UNL     1     -10.741 -10.763  -0.814  1.00  0.00     0.062 N 
ATOM     21  O   UNL     1     -10.369 -11.756  -1.322  1.00  0.00    -0.258 OA
ATOM     22  O   UNL     1     -11.189 -10.891   0.406  1.00  0.00    -0.258 OA
ENDBRANCH   7  20
TORSDOF 2
ENDMDL
MODEL 2
REMARK VINA RESULT:    -3.775      3.265      4.678
REMARK INTER + INTRA:          -4.524
REMARK INTER:                  -4.208
REMARK INTRA:                  -0.316
REMARK UNBOUND:                -0.307
REMARK SMILES O=[N+]([O-])c1ccc2c(c1)N[C@@H](c1cc(Cl)cc(Cl)c1)N2
REMARK SMILES IDX 7 1 8 2 5 3 6 4 20 5 10 6 4 7 11 8 9 9 12 12 14 13 13 14
REMARK SMILES IDX 16 15 17 16 19 17 15 18 18 19 2 20 3 21 1 22
REMARK H PARENT 20 10 10 11
ROOT
ATOM      1  C   UNL     1      -9.044  -2.605  -1.623  1.00  0.00     0.060 A 
ATOM      2  C   UNL     1      -8.470  -3.847  -1.491  1.00  0.00     0.066 A 
ATOM      3  C   UNL     1     -11.077  -3.550  -2.347  1.00  0.00     0.088 A 
ATOM      4  C   UNL     1     -10.340  -2.463  -1.805  1.00  0.00     0.035 A 
ATOM      5  N   UNL     1      -8.080  -1.590  -1.249  1.00  0.00    -0.360 N 
ATOM      6  N   UNL     1      -7.184  -3.600  -1.005  1.00  0.00    -0.360 N 
ATOM      7  C   UNL     1     -10.479  -4.808  -2.366  1.00  0.00     0.271 A 
ATOM      8  C   UNL     1      -7.261  -2.311  -0.419  1.00  0.00     0.205 C 
ATOM      9  C   UNL     1      -9.137  -4.959  -1.895  1.00  0.00     0.113 A 
ATOM     10  H   UNL     1      -8.025  -0.600  -1.528  1.00  0.00     0.163 HD
ATOM     11  H   UNL     1      -6.361  -4.217  -1.060  1.00  0.00     0.163 HD
ENDROOT
BRANCH   8  12
ATOM     12  C   UNL     1      -5.896  -1.703   0.009  1.00  0.00    -0.003 A 
ATOM     13  C   UNL     1      -4.660   0.329   0.700  1.00  0.00     0.042 A 
ATOM     14  C   UNL     1      -5.817  -0.544   0.814  1.00  0.00     0.028 A 
ATOM     15  C   UNL     1      -3.405  -0.284   0.248  1.00  0.00     0.041 A 
ATOM     16  C   UNL     1      -3.491  -1.654  -0.246  1.00  0.00     0.042 A 
ATOM     17  C   UNL     1      -4.711  -2.314  -0.536  1.00  0.00     0.028 A 
ATOM     18  Cl  UNL     1      -4.534   1.768   1.285  1.00  0.00    -0.084 Cl
ATOM     19  Cl  UNL     1      -2.007  -2.435  -0.574  1.00  0.00    -0.084 Cl
ENDBRANCH   8  12
BRANCH   7  20
ATOM     20  N   UNL     1     -11.141  -5.965  -2.722  1.00  0.00     0.062 N 
ATOM     21  O   UNL     1     -10.711  -7.014  -2.411  1.00  0.00    -0.258 OA
ATOM     22  O   UNL     1     -12.355  -5.976  -3.202  1.00  0.00    -0.258 OA
ENDBRANCH   7  20
TORSDOF 2
ENDMDL
MODEL 3
REMARK VINA RESULT:    -3.752      3.917      5.000
REMARK INTER + INTRA:          -4.498
REMARK INTER:                  -4.183
REMARK INTRA:                  -0.315
REMARK UNBOUND:                -0.307
REMARK SMILES O=[N+]([O-])c1ccc2c(c1)N[C@@H](c1cc(Cl)cc(Cl)c1)N2
REMARK SMILES IDX 7 1 8 2 5 3 6 4 20 5 10 6 4 7 11 8 9 9 12 12 14 13 13 14
REMARK SMILES IDX 16 15 17 16 19 17 15 18 18 19 2 20 3 21 1 22
REMARK H PARENT 20 10 10 11
ROOT
ATOM      1  C   UNL     1      -8.503  -3.867  -1.523  1.00  0.00     0.060 A 
ATOM      2  C   UNL     1      -9.127  -2.655  -1.702  1.00  0.00     0.066 A 
ATOM      3  C   UNL     1     -10.417  -5.033  -2.249  1.00  0.00     0.088 A 
ATOM      4  C   UNL     1      -9.020  -4.982  -1.993  1.00  0.00     0.035 A 
ATOM      5  N   UNL     1      -7.156  -3.644  -1.037  1.00  0.00    -0.360 N 
ATOM      6  N   UNL     1      -8.163  -1.700  -1.368  1.00  0.00    -0.360 N 
ATOM      7  C   UNL     1     -11.122  -3.832  -2.299  1.00  0.00     0.271 A 
ATOM      8  C   UNL     1      -6.923  -2.376  -1.503  1.00  0.00     0.205 C 
ATOM      9  C   UNL     1     -10.441  -2.602  -2.042  1.00  0.00     0.113 A 
ATOM     10  H   UNL     1      -6.542  -4.266  -0.493  1.00  0.00     0.163 HD
ATOM     11  H   UNL     1      -8.318  -0.722  -1.086  1.00  0.00     0.163 HD
ENDROOT
BRANCH   8  12
ATOM     12  C   UNL     1      -5.689  -1.593  -0.976  1.00  0.00    -0.003 A 
ATOM     13  C   UNL     1      -3.284  -1.668  -0.391  1.00  0.00     0.042 A 
ATOM     14  C   UNL     1      -4.369  -1.971  -1.310  1.00  0.00     0.028 A 
ATOM     15  C   UNL     1      -3.466  -0.516   0.499  1.00  0.00     0.041 A 
ATOM     16  C   UNL     1      -4.798   0.080   0.527  1.00  0.00     0.042 A 
ATOM     17  C   UNL     1      -5.945  -0.521  -0.048  1.00  0.00     0.028 A 
ATOM     18  Cl  UNL     1      -1.838  -2.248  -0.454  1.00  0.00    -0.084 Cl
ATOM     19  Cl  UNL     1      -4.955   1.542   1.398  1.00  0.00    -0.084 Cl
ENDBRANCH   8  12
BRANCH   7  20
ATOM     20  N   UNL     1     -12.443  -3.736  -2.688  1.00  0.00     0.062 N 
ATOM     21  O   UNL     1     -12.875  -2.712  -3.070  1.00  0.00    -0.258 OA
ATOM     22  O   UNL     1     -13.211  -4.775  -2.874  1.00  0.00    -0.258 OA
ENDBRANCH   7  20
TORSDOF 2
ENDMDL
MODEL 4
REMARK VINA RESULT:    -3.532      6.106      8.526
REMARK INTER + INTRA:          -4.253
REMARK INTER:                  -3.953
REMARK INTRA:                  -0.299
REMARK UNBOUND:                -0.307
REMARK SMILES O=[N+]([O-])c1ccc2c(c1)N[C@@H](c1cc(Cl)cc(Cl)c1)N2
REMARK SMILES IDX 7 1 8 2 5 3 6 4 20 5 10 6 4 7 11 8 9 9 12 12 14 13 13 14
REMARK SMILES IDX 16 15 17 16 19 17 15 18 18 19 2 20 3 21 1 22
REMARK H PARENT 20 10 10 11
ROOT
ATOM      1  C   UNL     1      -5.110  -2.277  -0.687  1.00  0.00     0.060 A 
ATOM      2  C   UNL     1      -5.755  -1.067  -0.587  1.00  0.00     0.066 A 
ATOM      3  C   UNL     1      -3.153  -1.387   0.277  1.00  0.00     0.088 A 
ATOM      4  C   UNL     1      -3.966  -2.498  -0.076  1.00  0.00     0.035 A 
ATOM      5  N   UNL     1      -6.006  -3.249  -1.281  1.00  0.00    -0.360 N 
ATOM      6  N   UNL     1      -7.042  -1.303  -1.077  1.00  0.00    -0.360 N 
ATOM      7  C   UNL     1      -3.727  -0.118   0.255  1.00  0.00     0.271 A 
ATOM      8  C   UNL     1      -7.222  -2.705  -0.958  1.00  0.00     0.205 C 
ATOM      9  C   UNL     1      -5.084   0.037  -0.167  1.00  0.00     0.113 A 
ATOM     10  H   UNL     1      -5.790  -4.111  -1.801  1.00  0.00     0.163 HD
ATOM     11  H   UNL     1      -7.712  -0.612  -1.443  1.00  0.00     0.163 HD
ENDROOT
BRANCH   8  12
ATOM     12  C   UNL     1      -8.503  -3.261  -1.641  1.00  0.00    -0.003 A 
ATOM     13  C   UNL     1     -10.883  -2.874  -2.203  1.00  0.00     0.042 A 
ATOM     14  C   UNL     1      -9.509  -2.406  -2.146  1.00  0.00     0.028 A 
ATOM     15  C   UNL     1     -11.090  -4.322  -2.317  1.00  0.00     0.041 A 
ATOM     16  C   UNL     1      -9.909  -5.163  -2.146  1.00  0.00     0.042 A 
ATOM     17  C   UNL     1      -8.669  -4.692  -1.648  1.00  0.00     0.028 A 
ATOM     18  Cl  UNL     1     -12.144  -1.993  -2.455  1.00  0.00    -0.084 Cl
ATOM     19  Cl  UNL     1     -10.108  -6.826  -2.484  1.00  0.00    -0.084 Cl
ENDBRANCH   8  12
BRANCH   7  20
ATOM     20  N   UNL     1      -3.093   1.016   0.719  1.00  0.00     0.062 N 
ATOM     21  O   UNL     1      -1.919   1.074   0.738  1.00  0.00    -0.258 OA
ATOM     22  O   UNL     1      -3.713   2.143   0.941  1.00  0.00    -0.258 OA
ENDBRANCH   7  20
TORSDOF 2
ENDMDL
MODEL 5
REMARK VINA RESULT:    -3.437      4.312      5.623
REMARK INTER + INTRA:          -4.146
REMARK INTER:                  -3.847
REMARK INTRA:                  -0.299
REMARK UNBOUND:                -0.307
REMARK SMILES O=[N+]([O-])c1ccc2c(c1)N[C@@H](c1cc(Cl)cc(Cl)c1)N2
REMARK SMILES IDX 7 1 8 2 5 3 6 4 20 5 10 6 4 7 11 8 9 9 12 12 14 13 13 14
REMARK SMILES IDX 16 15 17 16 19 17 15 18 18 19 2 20 3 21 1 22
REMARK H PARENT 20 10 10 11
ROOT
ATOM      1  C   UNL     1      -8.959  -3.599  -1.480  1.00  0.00     0.060 A 
ATOM      2  C   UNL     1      -9.344  -2.285  -1.600  1.00  0.00     0.066 A 
ATOM      3  C   UNL     1     -11.008  -4.349  -2.368  1.00  0.00     0.088 A 
ATOM      4  C   UNL     1      -9.641  -4.570  -2.049  1.00  0.00     0.035 A 
ATOM      5  N   UNL     1      -7.622  -3.656  -0.923  1.00  0.00    -0.360 N 
ATOM      6  N   UNL     1      -8.244  -1.545  -1.159  1.00  0.00    -0.360 N 
ATOM      7  C   UNL     1     -11.482  -3.039  -2.364  1.00  0.00     0.271 A 
ATOM      8  C   UNL     1      -7.141  -2.426  -1.288  1.00  0.00     0.205 C 
ATOM      9  C   UNL     1     -10.607  -1.972  -1.992  1.00  0.00     0.113 A 
ATOM     10  H   UNL     1      -7.161  -4.412  -0.397  1.00  0.00     0.163 HD
ATOM     11  H   UNL     1      -8.237  -0.574  -0.816  1.00  0.00     0.163 HD
ENDROOT
BRANCH   8  12
ATOM     12  C   UNL     1      -5.817  -1.915  -0.654  1.00  0.00    -0.003 A 
ATOM     13  C   UNL     1      -4.640  -0.037   0.450  1.00  0.00     0.042 A 
ATOM     14  C   UNL     1      -5.805  -0.898   0.326  1.00  0.00     0.028 A 
ATOM     15  C   UNL     1      -3.352  -0.592   0.017  1.00  0.00     0.041 A 
ATOM     16  C   UNL     1      -3.399  -1.867  -0.691  1.00  0.00     0.042 A 
ATOM     17  C   UNL     1      -4.590  -2.454  -1.184  1.00  0.00     0.028 A 
ATOM     18  Cl  UNL     1      -4.562   1.291   1.261  1.00  0.00    -0.084 Cl
ATOM     19  Cl  UNL     1      -1.894  -2.612  -1.009  1.00  0.00    -0.084 Cl
ENDBRANCH   8  12
BRANCH   7  20
ATOM     20  N   UNL     1     -12.741  -2.680  -2.802  1.00  0.00     0.062 N 
ATOM     21  O   UNL     1     -12.968  -1.567  -3.103  1.00  0.00    -0.258 OA
ATOM     22  O   UNL     1     -13.662  -3.548  -3.122  1.00  0.00    -0.258 OA
ENDBRANCH   7  20
TORSDOF 2
ENDMDL
MODEL 6
REMARK VINA RESULT:    -3.437      2.753      3.850
REMARK INTER + INTRA:          -4.146
REMARK INTER:                  -3.847
REMARK INTRA:                  -0.299
REMARK UNBOUND:                -0.307
REMARK SMILES O=[N+]([O-])c1ccc2c(c1)N[C@@H](c1cc(Cl)cc(Cl)c1)N2
REMARK SMILES IDX 7 1 8 2 5 3 6 4 20 5 10 6 4 7 11 8 9 9 12 12 14 13 13 14
REMARK SMILES IDX 16 15 17 16 19 17 15 18 18 19 2 20 3 21 1 22
REMARK H PARENT 20 10 10 11
ROOT
ATOM      1  C   UNL     1      -8.985  -3.258  -1.881  1.00  0.00     0.060 A 
ATOM      2  C   UNL     1      -8.206  -4.358  -1.616  1.00  0.00     0.066 A 
ATOM      3  C   UNL     1     -10.835  -4.615  -2.416  1.00  0.00     0.088 A 
ATOM      4  C   UNL     1     -10.287  -3.359  -2.037  1.00  0.00     0.035 A 
ATOM      5  N   UNL     1      -8.204  -2.056  -1.666  1.00  0.00    -0.360 N 
ATOM      6  N   UNL     1      -6.975  -3.839  -1.206  1.00  0.00    -0.360 N 
ATOM      7  C   UNL     1     -10.031  -5.746  -2.299  1.00  0.00     0.271 A 
ATOM      8  C   UNL     1      -7.265  -2.517  -0.781  1.00  0.00     0.205 C 
ATOM      9  C   UNL     1      -8.678  -5.609  -1.857  1.00  0.00     0.113 A 
ATOM     10  H   UNL     1      -8.321  -1.114  -2.067  1.00  0.00     0.163 HD
ATOM     11  H   UNL     1      -6.060  -4.311  -1.212  1.00  0.00     0.163 HD
ENDROOT
BRANCH   8  12
ATOM     12  C   UNL     1      -6.019  -1.640  -0.477  1.00  0.00    -0.003 A 
ATOM     13  C   UNL     1      -3.554  -1.551  -0.249  1.00  0.00     0.042 A 
ATOM     14  C   UNL     1      -4.739  -1.961  -0.984  1.00  0.00     0.028 A 
ATOM     15  C   UNL     1      -3.678  -0.365   0.607  1.00  0.00     0.041 A 
ATOM     16  C   UNL     1      -5.026   0.157   0.803  1.00  0.00     0.042 A 
ATOM     17  C   UNL     1      -6.205  -0.536   0.431  1.00  0.00     0.028 A 
ATOM     18  Cl  UNL     1      -2.100  -2.052  -0.497  1.00  0.00    -0.084 Cl
ATOM     19  Cl  UNL     1      -5.148   1.652   1.623  1.00  0.00    -0.084 Cl
ENDBRANCH   8  12
BRANCH   7  20
ATOM     20  N   UNL     1     -10.490  -7.034  -2.488  1.00  0.00     0.062 N 
ATOM     21  O   UNL     1      -9.910  -7.944  -2.022  1.00  0.00    -0.258 OA
ATOM     22  O   UNL     1     -11.670  -7.309  -2.973  1.00  0.00    -0.258 OA
ENDBRANCH   7  20
TORSDOF 2
ENDMDL
MODEL 7
REMARK VINA RESULT:    -3.389      6.063      8.433
REMARK INTER + INTRA:          -4.092
REMARK INTER:                  -3.783
REMARK INTRA:                  -0.309
REMARK UNBOUND:                -0.307
REMARK SMILES O=[N+]([O-])c1ccc2c(c1)N[C@@H](c1cc(Cl)cc(Cl)c1)N2
REMARK SMILES IDX 7 1 8 2 5 3 6 4 20 5 10 6 4 7 11 8 9 9 12 12 14 13 13 14
REMARK SMILES IDX 16 15 17 16 19 17 15 18 18 19 2 20 3 21 1 22
REMARK H PARENT 20 10 10 11
ROOT
ATOM      1  C   UNL     1      -4.766  -2.274  -1.050  1.00  0.00     0.060 A 
ATOM      2  C   UNL     1      -5.291  -1.302  -0.232  1.00  0.00     0.066 A 
ATOM      3  C   UNL     1      -2.565  -1.624  -0.520  1.00  0.00     0.088 A 
ATOM      4  C   UNL     1      -3.488  -2.584  -1.017  1.00  0.00     0.035 A 
ATOM      5  N   UNL     1      -5.848  -3.020  -1.662  1.00  0.00    -0.360 N 
ATOM      6  N   UNL     1      -6.675  -1.473  -0.311  1.00  0.00    -0.360 N 
ATOM      7  C   UNL     1      -3.064  -0.540   0.197  1.00  0.00     0.271 A 
ATOM      8  C   UNL     1      -6.849  -2.811  -0.750  1.00  0.00     0.205 C 
ATOM      9  C   UNL     1      -4.477  -0.394   0.366  1.00  0.00     0.113 A 
ATOM     10  H   UNL     1      -5.862  -3.558  -2.540  1.00  0.00     0.163 HD
ATOM     11  H   UNL     1      -7.408  -0.781  -0.098  1.00  0.00     0.163 HD
ENDROOT
BRANCH   8  12
ATOM     12  C   UNL     1      -8.308  -3.191  -1.129  1.00  0.00    -0.003 A 
ATOM     13  C   UNL     1      -9.821  -4.909  -2.073  1.00  0.00     0.042 A 
ATOM     14  C   UNL     1      -8.738  -4.536  -1.178  1.00  0.00     0.028 A 
ATOM     15  C   UNL     1     -10.790  -3.863  -2.419  1.00  0.00     0.041 A 
ATOM     16  C   UNL     1     -10.455  -2.504  -2.007  1.00  0.00     0.042 A 
ATOM     17  C   UNL     1      -9.179  -2.115  -1.529  1.00  0.00     0.028 A 
ATOM     18  Cl  UNL     1     -10.230  -6.362  -2.464  1.00  0.00    -0.084 Cl
ATOM     19  Cl  UNL     1     -11.673  -1.325  -2.223  1.00  0.00    -0.084 Cl
ENDBRANCH   8  12
BRANCH   7  20
ATOM     20  N   UNL     1      -2.268   0.373   0.858  1.00  0.00     0.062 N 
ATOM     21  O   UNL     1      -1.313   0.013   1.442  1.00  0.00    -0.258 OA
ATOM     22  O   UNL     1      -2.374   1.664   0.698  1.00  0.00    -0.258 OA
ENDBRANCH   7  20
TORSDOF 2
ENDMDL
MODEL 8
REMARK VINA RESULT:    -3.349      2.036      2.647
REMARK INTER + INTRA:          -4.048
REMARK INTER:                  -3.735
REMARK INTRA:                  -0.313
REMARK UNBOUND:                -0.307
REMARK SMILES O=[N+]([O-])c1ccc2c(c1)N[C@@H](c1cc(Cl)cc(Cl)c1)N2
REMARK SMILES IDX 7 1 8 2 5 3 6 4 20 5 10 6 4 7 11 8 9 9 12 12 14 13 13 14
REMARK SMILES IDX 16 15 17 16 19 17 15 18 18 19 2 20 3 21 1 22
REMARK H PARENT 20 10 10 11
ROOT
ATOM      1  C   UNL     1     -10.057  -8.306  -1.195  1.00  0.00     0.060 A 
ATOM      2  C   UNL     1     -10.824  -8.036  -2.303  1.00  0.00     0.066 A 
ATOM      3  C   UNL     1     -10.757 -10.556  -1.179  1.00  0.00     0.088 A 
ATOM      4  C   UNL     1      -9.840  -9.541  -0.795  1.00  0.00     0.035 A 
ATOM      5  N   UNL     1      -9.360  -7.102  -0.791  1.00  0.00    -0.360 N 
ATOM      6  N   UNL     1     -10.571  -6.694  -2.599  1.00  0.00    -0.360 N 
ATOM      7  C   UNL     1     -11.655 -10.278  -2.208  1.00  0.00     0.271 A 
ATOM      8  C   UNL     1      -9.327  -6.416  -1.977  1.00  0.00     0.205 C 
ATOM      9  C   UNL     1     -11.665  -8.978  -2.804  1.00  0.00     0.113 A 
ATOM     10  H   UNL     1      -8.990  -6.835   0.132  1.00  0.00     0.163 HD
ATOM     11  H   UNL     1     -11.158  -6.049  -3.146  1.00  0.00     0.163 HD
ENDROOT
BRANCH   8  12
ATOM     12  C   UNL     1      -8.918  -4.917  -1.972  1.00  0.00    -0.003 A 
ATOM     13  C   UNL     1      -7.278  -3.221  -1.218  1.00  0.00     0.042 A 
ATOM     14  C   UNL     1      -7.573  -4.512  -1.816  1.00  0.00     0.028 A 
ATOM     15  C   UNL     1      -8.300  -2.176  -1.351  1.00  0.00     0.041 A 
ATOM     16  C   UNL     1      -9.594  -2.597  -1.879  1.00  0.00     0.042 A 
ATOM     17  C   UNL     1      -9.984  -3.950  -2.031  1.00  0.00     0.028 A 
ATOM     18  Cl  UNL     1      -5.885  -2.738  -0.714  1.00  0.00    -0.084 Cl
ATOM     19  Cl  UNL     1     -10.710  -1.350  -2.229  1.00  0.00    -0.084 Cl
ENDBRANCH   8  12
BRANCH   7  20
ATOM     20  N   UNL     1     -12.487 -11.222  -2.773  1.00  0.00     0.062 N 
ATOM     21  O   UNL     1     -12.549 -12.305  -2.320  1.00  0.00    -0.258 OA
ATOM     22  O   UNL     1     -13.397 -10.933  -3.663  1.00  0.00    -0.258 OA
ENDBRANCH   7  20
TORSDOF 2
ENDMDL
MODEL 9
REMARK VINA RESULT:    -3.123      5.123      7.662
REMARK INTER + INTRA:          -3.795
REMARK INTER:                  -3.501
REMARK INTRA:                  -0.295
REMARK UNBOUND:                -0.307
REMARK SMILES O=[N+]([O-])c1ccc2c(c1)N[C@@H](c1cc(Cl)cc(Cl)c1)N2
REMARK SMILES IDX 7 1 8 2 5 3 6 4 20 5 10 6 4 7 11 8 9 9 12 12 14 13 13 14
REMARK SMILES IDX 16 15 17 16 19 17 15 18 18 19 2 20 3 21 1 22
REMARK H PARENT 20 10 10 11
ROOT
ATOM      1  C   UNL     1      -7.609  -3.530  -2.167  1.00  0.00     0.060 A 
ATOM      2  C   UNL     1      -8.118  -3.351  -0.903  1.00  0.00     0.066 A 
ATOM      3  C   UNL     1      -6.168  -1.683  -1.919  1.00  0.00     0.088 A 
ATOM      4  C   UNL     1      -6.530  -2.893  -2.570  1.00  0.00     0.035 A 
ATOM      5  N   UNL     1      -8.252  -4.673  -2.784  1.00  0.00    -0.360 N 
ATOM      6  N   UNL     1      -9.033  -4.393  -0.731  1.00  0.00    -0.360 N 
ATOM      7  C   UNL     1      -6.767  -1.388  -0.696  1.00  0.00     0.271 A 
ATOM      8  C   UNL     1      -8.640  -5.377  -1.674  1.00  0.00     0.205 C 
ATOM      9  C   UNL     1      -7.756  -2.271  -0.162  1.00  0.00     0.113 A 
ATOM     10  H   UNL     1      -8.382  -4.895  -3.781  1.00  0.00     0.163 HD
ATOM     11  H   UNL     1      -9.820  -4.437  -0.068  1.00  0.00     0.163 HD
ENDROOT
BRANCH   8  12
ATOM     12  C   UNL     1      -9.636  -6.559  -1.840  1.00  0.00    -0.003 A 
ATOM     13  C   UNL     1     -10.102  -8.951  -1.398  1.00  0.00     0.042 A 
ATOM     14  C   UNL     1      -9.659  -7.646  -0.936  1.00  0.00     0.028 A 
ATOM     15  C   UNL     1     -11.036  -8.976  -2.529  1.00  0.00     0.041 A 
ATOM     16  C   UNL     1     -11.260  -7.708  -3.215  1.00  0.00     0.042 A 
ATOM     17  C   UNL     1     -10.469  -6.550  -3.015  1.00  0.00     0.028 A 
ATOM     18  Cl  UNL     1      -9.927 -10.301  -0.639  1.00  0.00    -0.084 Cl
ATOM     19  Cl  UNL     1     -12.500  -7.692  -4.392  1.00  0.00    -0.084 Cl
ENDBRANCH   8  12
BRANCH   7  20
ATOM     20  N   UNL     1      -6.391  -0.328   0.104  1.00  0.00     0.062 N 
ATOM     21  O   UNL     1      -6.377  -0.444   1.274  1.00  0.00    -0.258 OA
ATOM     22  O   UNL     1      -5.825   0.753  -0.359  1.00  0.00    -0.258 OA
ENDBRANCH   7  20
TORSDOF 2
ENDMDL
