MODEL 1
REMARK VINA RESULT:    -4.777      0.000      0.000
REMARK INTER + INTRA:          -5.650
REMARK INTER:                  -5.336
REMARK INTRA:                  -0.314
REMARK UNBOUND:                -0.314
REMARK SMILES O=[N+]([O-])c1ccc2c(c1)N[C@@H](c1cc(Cl)cc(Cl)c1)N2
REMARK SMILES IDX 7 1 8 2 5 3 6 4 20 5 10 6 4 7 11 8 9 9 12 12 14 13 13 14
REMARK SMILES IDX 16 15 17 16 19 17 15 18 18 19 2 20 3 21 1 22
REMARK H PARENT 20 10 10 11
ROOT
ATOM      1  C   UNL     1       6.301  -9.285  -0.562  1.00  0.00     0.060 A 
ATOM      2  C   UNL     1       5.269  -9.882  -1.245  1.00  0.00     0.066 A 
ATOM      3  C   UNL     1       7.521 -11.299  -0.513  1.00  0.00     0.088 A 
ATOM      4  C   UNL     1       7.463  -9.882  -0.413  1.00  0.00     0.035 A 
ATOM      5  N   UNL     1       5.981  -7.889  -0.338  1.00  0.00    -0.360 N 
ATOM      6  N   UNL     1       4.345  -8.858  -1.471  1.00  0.00    -0.360 N 
ATOM      7  C   UNL     1       6.433 -11.965  -1.071  1.00  0.00     0.271 A 
ATOM      8  C   UNL     1       5.098  -7.662  -1.361  1.00  0.00     0.205 C 
ATOM      9  C   UNL     1       5.280 -11.221  -1.473  1.00  0.00     0.113 A 
ATOM     10  H   UNL     1       6.322  -7.245   0.390  1.00  0.00     0.163 HD
ATOM     11  H   UNL     1       3.339  -8.952  -1.672  1.00  0.00     0.163 HD
ENDROOT
BRANCH   8  12
ATOM     12  C   UNL     1       4.256  -6.356  -1.357  1.00  0.00    -0.003 A 
ATOM     13  C   UNL     1       4.253  -3.895  -1.082  1.00  0.00     0.042 A 
ATOM     14  C   UNL     1       4.828  -5.099  -1.657  1.00  0.00     0.028 A 
ATOM     15  C   UNL     1       2.828  -3.937  -0.735  1.00  0.00     0.041 A 
ATOM     16  C   UNL     1       2.182  -5.243  -0.799  1.00  0.00     0.042 A 
ATOM     17  C   UNL     1       2.883  -6.467  -0.933  1.00  0.00     0.028 A 
ATOM     18  Cl  UNL     1       4.908  -2.480  -1.069  1.00  0.00    -0.084 Cl
ATOM     19  Cl  UNL     1       0.484  -5.259  -0.600  1.00  0.00    -0.084 Cl
ENDBRANCH   8  12
BRANCH   7  20
ATOM     20  N   UNL     1       6.428 -13.314  -1.362  1.00  0.00     0.062 N 
ATOM     21  O   UNL     1       5.657 -13.752  -2.133  1.00  0.00    -0.258 OA
ATOM     22  O   UNL     1       7.384 -14.127  -1.001  1.00  0.00    -0.258 OA
ENDBRANCH   7  20
TORSDOF 2
ENDMDL
MODEL 2
REMARK VINA RESULT:    -4.756      0.976      2.648
REMARK INTER + INTRA:          -5.627
REMARK INTER:                  -5.312
REMARK INTRA:                  -0.314
REMARK UNBOUND:                -0.314
REMARK SMILES O=[N+]([O-])c1ccc2c(c1)N[C@@H](c1cc(Cl)cc(Cl)c1)N2
REMARK SMILES IDX 7 1 8 2 5 3 6 4 20 5 10 6 4 7 11 8 9 9 12 12 14 13 13 14
REMARK SMILES IDX 16 15 17 16 19 17 15 18 18 19 2 20 3 21 1 22
REMARK H PARENT 20 10 10 11
ROOT
ATOM      1  C   UNL     1       5.015  -9.898  -1.354  1.00  0.00     0.060 A 
ATOM      2  C   UNL     1       6.121  -9.448  -0.673  1.00  0.00     0.066 A 
ATOM      3  C   UNL     1       5.869 -12.093  -1.421  1.00  0.00     0.088 A 
ATOM      4  C   UNL     1       4.780 -11.183  -1.511  1.00  0.00     0.035 A 
ATOM      5  N   UNL     1       4.102  -8.793  -1.568  1.00  0.00    -0.360 N 
ATOM      6  N   UNL     1       5.873  -8.093  -0.438  1.00  0.00    -0.360 N 
ATOM      7  C   UNL     1       7.063 -11.639  -0.865  1.00  0.00     0.271 A 
ATOM      8  C   UNL     1       4.465  -7.961  -0.540  1.00  0.00     0.205 C 
ATOM      9  C   UNL     1       7.177 -10.274  -0.454  1.00  0.00     0.113 A 
ATOM     10  H   UNL     1       3.380  -8.666  -2.291  1.00  0.00     0.163 HD
ATOM     11  H   UNL     1       6.561  -7.354  -0.234  1.00  0.00     0.163 HD
ENDROOT
BRANCH   8  12
ATOM     12  C   UNL     1       3.942  -6.498  -0.534  1.00  0.00    -0.003 A 
ATOM     13  C   UNL     1       1.992  -4.994  -0.798  1.00  0.00     0.042 A 
ATOM     14  C   UNL     1       2.596  -6.188  -0.232  1.00  0.00     0.028 A 
ATOM     15  C   UNL     1       2.894  -3.887  -1.135  1.00  0.00     0.041 A 
ATOM     16  C   UNL     1       4.324  -4.170  -1.071  1.00  0.00     0.042 A 
ATOM     17  C   UNL     1       4.867  -5.473  -0.948  1.00  0.00     0.028 A 
ATOM     18  Cl  UNL     1       0.472  -4.651  -0.810  1.00  0.00    -0.084 Cl
ATOM     19  Cl  UNL     1       5.371  -2.832  -1.258  1.00  0.00    -0.084 Cl
ENDBRANCH   8  12
BRANCH   7  20
ATOM     20  N   UNL     1       8.136 -12.459  -0.584  1.00  0.00     0.062 N 
ATOM     21  O   UNL     1       8.943 -12.130   0.205  1.00  0.00    -0.258 OA
ATOM     22  O   UNL     1       8.209 -13.702  -0.976  1.00  0.00    -0.258 OA
ENDBRANCH   7  20
TORSDOF 2
ENDMDL
MODEL 3
REMARK VINA RESULT:    -4.544      5.126      7.593
REMARK INTER + INTRA:          -5.390
REMARK INTER:                  -5.090
REMARK INTRA:                  -0.299
REMARK UNBOUND:                -0.314
REMARK SMILES O=[N+]([O-])c1ccc2c(c1)N[C@@H](c1cc(Cl)cc(Cl)c1)N2
REMARK SMILES IDX 7 1 8 2 5 3 6 4 20 5 10 6 4 7 11 8 9 9 12 12 14 13 13 14
REMARK SMILES IDX 16 15 17 16 19 17 15 18 18 19 2 20 3 21 1 22
REMARK H PARENT 20 10 10 11
ROOT
ATOM      1  C   UNL     1       3.134  -6.673  -0.747  1.00  0.00     0.060 A 
ATOM      2  C   UNL     1       4.334  -6.029  -0.568  1.00  0.00     0.066 A 
ATOM      3  C   UNL     1       1.997  -4.625  -0.997  1.00  0.00     0.088 A 
ATOM      4  C   UNL     1       2.067  -6.033  -1.176  1.00  0.00     0.035 A 
ATOM      5  N   UNL     1       3.344  -8.105  -0.672  1.00  0.00    -0.360 N 
ATOM      6  N   UNL     1       5.275  -7.051  -0.425  1.00  0.00    -0.360 N 
ATOM      7  C   UNL     1       3.167  -3.943  -0.673  1.00  0.00     0.271 A 
ATOM      8  C   UNL     1       4.668  -8.186  -1.019  1.00  0.00     0.205 C 
ATOM      9  C   UNL     1       4.380  -4.674  -0.479  1.00  0.00     0.113 A 
ATOM     10  H   UNL     1       2.682  -8.855  -0.427  1.00  0.00     0.163 HD
ATOM     11  H   UNL     1       6.205  -6.994   0.016  1.00  0.00     0.163 HD
ENDROOT
BRANCH   8  12
ATOM     12  C   UNL     1       5.425  -9.526  -0.798  1.00  0.00    -0.003 A 
ATOM     13  C   UNL     1       7.586 -10.622  -0.290  1.00  0.00     0.042 A 
ATOM     14  C   UNL     1       6.594  -9.598  -0.008  1.00  0.00     0.028 A 
ATOM     15  C   UNL     1       7.110 -11.854  -0.929  1.00  0.00     0.041 A 
ATOM     16  C   UNL     1       5.733 -11.845  -1.413  1.00  0.00     0.042 A 
ATOM     17  C   UNL     1       4.940 -10.675  -1.519  1.00  0.00     0.028 A 
ATOM     18  Cl  UNL     1       9.037 -10.677   0.277  1.00  0.00    -0.084 Cl
ATOM     19  Cl  UNL     1       5.114 -13.339  -1.965  1.00  0.00    -0.084 Cl
ENDBRANCH   8  12
BRANCH   7  20
ATOM     20  N   UNL     1       3.261  -2.567  -0.623  1.00  0.00     0.062 N 
ATOM     21  O   UNL     1       2.290  -1.905  -0.640  1.00  0.00    -0.258 OA
ATOM     22  O   UNL     1       4.366  -1.936  -0.331  1.00  0.00    -0.258 OA
ENDBRANCH   7  20
TORSDOF 2
ENDMDL
MODEL 4
REMARK VINA RESULT:    -4.498      4.988      7.634
REMARK INTER + INTRA:          -5.338
REMARK INTER:                  -5.039
REMARK INTRA:                  -0.299
REMARK UNBOUND:                -0.314
REMARK SMILES O=[N+]([O-])c1ccc2c(c1)N[C@@H](c1cc(Cl)cc(Cl)c1)N2
REMARK SMILES IDX 7 1 8 2 5 3 6 4 20 5 10 6 4 7 11 8 9 9 12 12 14 13 13 14
REMARK SMILES IDX 16 15 17 16 19 17 15 18 18 19 2 20 3 21 1 22
REMARK H PARENT 20 10 10 11
ROOT
ATOM      1  C   UNL     1       4.805  -6.024  -0.865  1.00  0.00     0.060 A 
ATOM      2  C   UNL     1       3.630  -6.529  -1.369  1.00  0.00     0.066 A 
ATOM      3  C   UNL     1       3.829  -3.905  -0.537  1.00  0.00     0.088 A 
ATOM      4  C   UNL     1       4.847  -4.857  -0.259  1.00  0.00     0.035 A 
ATOM      5  N   UNL     1       5.811  -7.067  -0.864  1.00  0.00    -0.360 N 
ATOM      6  N   UNL     1       3.900  -7.874  -1.636  1.00  0.00    -0.360 N 
ATOM      7  C   UNL     1       2.673  -4.345  -1.177  1.00  0.00     0.271 A 
ATOM      8  C   UNL     1       5.020  -8.185  -0.824  1.00  0.00     0.205 C 
ATOM      9  C   UNL     1       2.565  -5.712  -1.581  1.00  0.00     0.113 A 
ATOM     10  H   UNL     1       6.838  -6.990  -0.886  1.00  0.00     0.163 HD
ATOM     11  H   UNL     1       3.397  -8.500  -2.281  1.00  0.00     0.163 HD
ENDROOT
BRANCH   8  12
ATOM     12  C   UNL     1       5.661  -9.574  -1.097  1.00  0.00    -0.003 A 
ATOM     13  C   UNL     1       5.282 -11.954  -1.667  1.00  0.00     0.042 A 
ATOM     14  C   UNL     1       5.023 -10.543  -1.904  1.00  0.00     0.028 A 
ATOM     15  C   UNL     1       6.572 -12.303  -1.063  1.00  0.00     0.041 A 
ATOM     16  C   UNL     1       7.377 -11.193  -0.562  1.00  0.00     0.042 A 
ATOM     17  C   UNL     1       6.891  -9.871  -0.409  1.00  0.00     0.028 A 
ATOM     18  Cl  UNL     1       4.469 -13.147  -2.253  1.00  0.00    -0.084 Cl
ATOM     19  Cl  UNL     1       8.962 -11.577  -0.052  1.00  0.00    -0.084 Cl
ENDBRANCH   8  12
BRANCH   7  20
ATOM     20  N   UNL     1       1.556  -3.557  -1.365  1.00  0.00     0.062 N 
ATOM     21  O   UNL     1       0.488  -4.046  -1.420  1.00  0.00    -0.258 OA
ATOM     22  O   UNL     1       1.572  -2.255  -1.264  1.00  0.00    -0.258 OA
ENDBRANCH   7  20
TORSDOF 2
ENDMDL
MODEL 5
REMARK VINA RESULT:    -4.391      5.116      7.781
REMARK INTER + INTRA:          -5.218
REMARK INTER:                  -4.903
REMARK INTRA:                  -0.315
REMARK UNBOUND:                -0.314
REMARK SMILES O=[N+]([O-])c1ccc2c(c1)N[C@@H](c1cc(Cl)cc(Cl)c1)N2
REMARK SMILES IDX 7 1 8 2 5 3 6 4 20 5 10 6 4 7 11 8 9 9 12 12 14 13 13 14
REMARK SMILES IDX 16 15 17 16 19 17 15 18 18 19 2 20 3 21 1 22
REMARK H PARENT 20 10 10 11
ROOT
ATOM      1  C   UNL     1       3.241  -6.669  -0.776  1.00  0.00     0.060 A 
ATOM      2  C   UNL     1       4.420  -5.969  -0.867  1.00  0.00     0.066 A 
ATOM      3  C   UNL     1       1.985  -4.676  -0.730  1.00  0.00     0.088 A 
ATOM      4  C   UNL     1       2.076  -6.078  -0.941  1.00  0.00     0.035 A 
ATOM      5  N   UNL     1       3.527  -8.089  -0.773  1.00  0.00    -0.360 N 
ATOM      6  N   UNL     1       5.414  -6.946  -0.958  1.00  0.00    -0.360 N 
ATOM      7  C   UNL     1       3.167  -3.940  -0.672  1.00  0.00     0.271 A 
ATOM      8  C   UNL     1       4.738  -8.106  -1.414  1.00  0.00     0.205 C 
ATOM      9  C   UNL     1       4.424  -4.613  -0.772  1.00  0.00     0.113 A 
ATOM     10  H   UNL     1       2.974  -8.871  -0.394  1.00  0.00     0.163 HD
ATOM     11  H   UNL     1       6.416  -6.846  -0.741  1.00  0.00     0.163 HD
ENDROOT
BRANCH   8  12
ATOM     12  C   UNL     1       5.586  -9.409  -1.392  1.00  0.00    -0.003 A 
ATOM     13  C   UNL     1       5.589 -11.880  -1.553  1.00  0.00     0.042 A 
ATOM     14  C   UNL     1       5.163 -10.584  -2.054  1.00  0.00     0.028 A 
ATOM     15  C   UNL     1       6.855 -11.925  -0.811  1.00  0.00     0.041 A 
ATOM     16  C   UNL     1       7.451 -10.639  -0.464  1.00  0.00     0.042 A 
ATOM     17  C   UNL     1       6.777  -9.398  -0.581  1.00  0.00     0.028 A 
ATOM     18  Cl  UNL     1       5.004 -13.263  -1.970  1.00  0.00    -0.084 Cl
ATOM     19  Cl  UNL     1       9.020 -10.689   0.211  1.00  0.00    -0.084 Cl
ENDBRANCH   8  12
BRANCH   7  20
ATOM     20  N   UNL     1       3.208  -2.562  -0.624  1.00  0.00     0.062 N 
ATOM     21  O   UNL     1       2.216  -1.936  -0.702  1.00  0.00    -0.258 OA
ATOM     22  O   UNL     1       4.270  -1.889  -0.272  1.00  0.00    -0.258 OA
ENDBRANCH   7  20
TORSDOF 2
ENDMDL
MODEL 6
REMARK VINA RESULT:    -4.377      0.704      2.129
REMARK INTER + INTRA:          -5.202
REMARK INTER:                  -4.903
REMARK INTRA:                  -0.300
REMARK UNBOUND:                -0.314
REMARK SMILES O=[N+]([O-])c1ccc2c(c1)N[C@@H](c1cc(Cl)cc(Cl)c1)N2
REMARK SMILES IDX 7 1 8 2 5 3 6 4 20 5 10 6 4 7 11 8 9 9 12 12 14 13 13 14
REMARK SMILES IDX 16 15 17 16 19 17 15 18 18 19 2 20 3 21 1 22
REMARK H PARENT 20 10 10 11
ROOT
ATOM      1  C   UNL     1       5.900  -9.749  -0.646  1.00  0.00     0.060 A 
ATOM      2  C   UNL     1       4.767 -10.084  -1.348  1.00  0.00     0.066 A 
ATOM      3  C   UNL     1       6.805 -11.902  -0.950  1.00  0.00     0.088 A 
ATOM      4  C   UNL     1       6.964 -10.523  -0.648  1.00  0.00     0.035 A 
ATOM      5  N   UNL     1       5.801  -8.370  -0.209  1.00  0.00    -0.360 N 
ATOM      6  N   UNL     1       4.000  -8.916  -1.375  1.00  0.00    -0.360 N 
ATOM      7  C   UNL     1       5.610 -12.315  -1.536  1.00  0.00     0.271 A 
ATOM      8  C   UNL     1       4.928  -7.870  -1.139  1.00  0.00     0.205 C 
ATOM      9  C   UNL     1       4.569 -11.362  -1.764  1.00  0.00     0.113 A 
ATOM     10  H   UNL     1       6.260  -7.897   0.582  1.00  0.00     0.163 HD
ATOM     11  H   UNL     1       2.985  -8.833  -1.531  1.00  0.00     0.163 HD
ENDROOT
BRANCH   8  12
ATOM     12  C   UNL     1       4.292  -6.472  -0.903  1.00  0.00    -0.003 A 
ATOM     13  C   UNL     1       2.209  -5.137  -0.786  1.00  0.00     0.042 A 
ATOM     14  C   UNL     1       2.967  -6.326  -0.432  1.00  0.00     0.028 A 
ATOM     15  C   UNL     1       2.975  -3.920  -1.075  1.00  0.00     0.041 A 
ATOM     16  C   UNL     1       4.421  -4.073  -1.190  1.00  0.00     0.042 A 
ATOM     17  C   UNL     1       5.078  -5.325  -1.281  1.00  0.00     0.028 A 
ATOM     18  Cl  UNL     1       0.674  -4.939  -0.602  1.00  0.00    -0.084 Cl
ATOM     19  Cl  UNL     1       5.329  -2.631  -1.318  1.00  0.00    -0.084 Cl
ENDBRANCH   8  12
BRANCH   7  20
ATOM     20  N   UNL     1       5.393 -13.591  -2.014  1.00  0.00     0.062 N 
ATOM     21  O   UNL     1       4.478 -13.813  -2.718  1.00  0.00    -0.258 OA
ATOM     22  O   UNL     1       6.273 -14.550  -1.919  1.00  0.00    -0.258 OA
ENDBRANCH   7  20
TORSDOF 2
ENDMDL
MODEL 7
REMARK VINA RESULT:    -4.366      1.363      2.047
REMARK INTER + INTRA:          -5.191
REMARK INTER:                  -4.891
REMARK INTRA:                  -0.299
REMARK UNBOUND:                -0.314
REMARK SMILES O=[N+]([O-])c1ccc2c(c1)N[C@@H](c1cc(Cl)cc(Cl)c1)N2
REMARK SMILES IDX 7 1 8 2 5 3 6 4 20 5 10 6 4 7 11 8 9 9 12 12 14 13 13 14
REMARK SMILES IDX 16 15 17 16 19 17 15 18 18 19 2 20 3 21 1 22
REMARK H PARENT 20 10 10 11
ROOT
ATOM      1  C   UNL     1       5.661  -9.880  -1.274  1.00  0.00     0.060 A 
ATOM      2  C   UNL     1       6.607  -9.187  -0.557  1.00  0.00     0.066 A 
ATOM      3  C   UNL     1       6.830 -11.905  -0.987  1.00  0.00     0.088 A 
ATOM      4  C   UNL     1       5.636 -11.195  -1.289  1.00  0.00     0.035 A 
ATOM      5  N   UNL     1       4.624  -8.964  -1.707  1.00  0.00    -0.360 N 
ATOM      6  N   UNL     1       6.138  -7.872  -0.517  1.00  0.00    -0.360 N 
ATOM      7  C   UNL     1       7.876 -11.208  -0.385  1.00  0.00     0.271 A 
ATOM      8  C   UNL     1       4.746  -7.977  -0.764  1.00  0.00     0.205 C 
ATOM      9  C   UNL     1       7.742  -9.806  -0.140  1.00  0.00     0.113 A 
ATOM     10  H   UNL     1       3.975  -9.034  -2.504  1.00  0.00     0.163 HD
ATOM     11  H   UNL     1       6.683  -7.015  -0.346  1.00  0.00     0.163 HD
ENDROOT
BRANCH   8  12
ATOM     12  C   UNL     1       4.016  -6.623  -0.989  1.00  0.00    -0.003 A 
ATOM     13  C   UNL     1       4.214  -4.157  -1.093  1.00  0.00     0.042 A 
ATOM     14  C   UNL     1       4.699  -5.478  -1.457  1.00  0.00     0.028 A 
ATOM     15  C   UNL     1       2.783  -4.031  -0.795  1.00  0.00     0.041 A 
ATOM     16  C   UNL     1       2.030  -5.276  -0.683  1.00  0.00     0.042 A 
ATOM     17  C   UNL     1       2.630  -6.558  -0.603  1.00  0.00     0.028 A 
ATOM     18  Cl  UNL     1       4.984  -2.814  -1.273  1.00  0.00    -0.084 Cl
ATOM     19  Cl  UNL     1       0.333  -5.126  -0.545  1.00  0.00    -0.084 Cl
ENDBRANCH   8  12
BRANCH   7  20
ATOM     20  N   UNL     1       9.020 -11.812   0.094  1.00  0.00     0.062 N 
ATOM     21  O   UNL     1       9.728 -11.236   0.835  1.00  0.00    -0.258 OA
ATOM     22  O   UNL     1       9.270 -13.085  -0.046  1.00  0.00    -0.258 OA
ENDBRANCH   7  20
TORSDOF 2
ENDMDL
MODEL 8
REMARK VINA RESULT:    -4.364      5.016      7.437
REMARK INTER + INTRA:          -5.188
REMARK INTER:                  -4.870
REMARK INTRA:                  -0.318
REMARK UNBOUND:                -0.314
REMARK SMILES O=[N+]([O-])c1ccc2c(c1)N[C@@H](c1cc(Cl)cc(Cl)c1)N2
REMARK SMILES IDX 7 1 8 2 5 3 6 4 20 5 10 6 4 7 11 8 9 9 12 12 14 13 13 14
REMARK SMILES IDX 16 15 17 16 19 17 15 18 18 19 2 20 3 21 1 22
REMARK H PARENT 20 10 10 11
ROOT
ATOM      1  C   UNL     1       4.701  -5.867  -0.816  1.00  0.00     0.060 A 
ATOM      2  C   UNL     1       3.450  -6.392  -1.031  1.00  0.00     0.066 A 
ATOM      3  C   UNL     1       3.843  -3.673  -0.763  1.00  0.00     0.088 A 
ATOM      4  C   UNL     1       4.868  -4.611  -0.461  1.00  0.00     0.035 A 
ATOM      5  N   UNL     1       5.669  -6.944  -0.762  1.00  0.00    -0.360 N 
ATOM      6  N   UNL     1       3.641  -7.776  -1.069  1.00  0.00    -0.360 N 
ATOM      7  C   UNL     1       2.590  -4.161  -1.127  1.00  0.00     0.271 A 
ATOM      8  C   UNL     1       4.866  -7.990  -0.388  1.00  0.00     0.205 C 
ATOM      9  C   UNL     1       2.386  -5.572  -1.236  1.00  0.00     0.113 A 
ATOM     10  H   UNL     1       6.682  -6.929  -0.951  1.00  0.00     0.163 HD
ATOM     11  H   UNL     1       3.028  -8.484  -1.498  1.00  0.00     0.163 HD
ENDROOT
BRANCH   8  12
ATOM     12  C   UNL     1       5.422  -9.438  -0.479  1.00  0.00    -0.003 A 
ATOM     13  C   UNL     1       7.419 -10.899  -0.390  1.00  0.00     0.042 A 
ATOM     14  C   UNL     1       6.622  -9.818   0.163  1.00  0.00     0.028 A 
ATOM     15  C   UNL     1       6.710 -11.914  -1.179  1.00  0.00     0.041 A 
ATOM     16  C   UNL     1       5.319 -11.624  -1.510  1.00  0.00     0.042 A 
ATOM     17  C   UNL     1       4.711 -10.356  -1.332  1.00  0.00     0.028 A 
ATOM     18  Cl  UNL     1       8.883 -11.258   0.007  1.00  0.00    -0.084 Cl
ATOM     19  Cl  UNL     1       4.436 -12.890  -2.244  1.00  0.00    -0.084 Cl
ENDBRANCH   8  12
BRANCH   7  20
ATOM     20  N   UNL     1       1.477  -3.363  -1.295  1.00  0.00     0.062 N 
ATOM     21  O   UNL     1       1.590  -2.194  -1.358  1.00  0.00    -0.258 OA
ATOM     22  O   UNL     1       0.302  -3.831  -1.617  1.00  0.00    -0.258 OA
ENDBRANCH   7  20
TORSDOF 2
ENDMDL
MODEL 9
REMARK VINA RESULT:    -3.838      3.392      4.328
REMARK INTER + INTRA:          -4.601
REMARK INTER:                  -4.296
REMARK INTRA:                  -0.306
REMARK UNBOUND:                -0.314
REMARK SMILES O=[N+]([O-])c1ccc2c(c1)N[C@@H](c1cc(Cl)cc(Cl)c1)N2
REMARK SMILES IDX 7 1 8 2 5 3 6 4 20 5 10 6 4 7 11 8 9 9 12 12 14 13 13 14
REMARK SMILES IDX 16 15 17 16 19 17 15 18 18 19 2 20 3 21 1 22
REMARK H PARENT 20 10 10 11
ROOT
ATOM      1  C   UNL     1       8.676 -10.774   0.078  1.00  0.00     0.060 A 
ATOM      2  C   UNL     1       8.495 -10.176   1.302  1.00  0.00     0.066 A 
ATOM      3  C   UNL     1      10.319 -12.218   0.952  1.00  0.00     0.088 A 
ATOM      4  C   UNL     1       9.365 -11.888  -0.048  1.00  0.00     0.035 A 
ATOM      5  N   UNL     1       7.786 -10.163  -0.889  1.00  0.00    -0.360 N 
ATOM      6  N   UNL     1       7.481  -9.236   1.099  1.00  0.00    -0.360 N 
ATOM      7  C   UNL     1      10.266 -11.535   2.165  1.00  0.00     0.271 A 
ATOM      8  C   UNL     1       6.802  -9.684  -0.062  1.00  0.00     0.205 C 
ATOM      9  C   UNL     1       9.300 -10.497   2.349  1.00  0.00     0.113 A 
ATOM     10  H   UNL     1       7.868 -10.103  -1.914  1.00  0.00     0.163 HD
ATOM     11  H   UNL     1       7.273  -8.403   1.667  1.00  0.00     0.163 HD
ENDROOT
BRANCH   8  12
ATOM     12  C   UNL     1       5.755  -8.688  -0.633  1.00  0.00    -0.003 A 
ATOM     13  C   UNL     1       5.322  -6.790  -2.164  1.00  0.00     0.042 A 
ATOM     14  C   UNL     1       5.908  -8.095  -1.907  1.00  0.00     0.028 A 
ATOM     15  C   UNL     1       4.147  -6.419  -1.368  1.00  0.00     0.041 A 
ATOM     16  C   UNL     1       3.811  -7.299  -0.254  1.00  0.00     0.042 A 
ATOM     17  C   UNL     1       4.668  -8.315   0.236  1.00  0.00     0.028 A 
ATOM     18  Cl  UNL     1       5.624  -5.872  -3.387  1.00  0.00    -0.084 Cl
ATOM     19  Cl  UNL     1       2.330  -6.987   0.539  1.00  0.00    -0.084 Cl
ENDBRANCH   8  12
BRANCH   7  20
ATOM     20  N   UNL     1      11.032 -11.866   3.264  1.00  0.00     0.062 N 
ATOM     21  O   UNL     1      11.955 -11.203   3.564  1.00  0.00    -0.258 OA
ATOM     22  O   UNL     1      10.671 -12.758   4.146  1.00  0.00    -0.258 OA
ENDBRANCH   7  20
TORSDOF 2
ENDMDL
