MODEL 1
REMARK VINA RESULT:    -5.042      0.000      0.000
REMARK INTER + INTRA:          -5.947
REMARK INTER:                  -5.632
REMARK INTRA:                  -0.315
REMARK UNBOUND:                -0.315
REMARK SMILES O=[N+]([O-])c1ccc2c(c1)N[C@@H](c1cc(Cl)cc(Cl)c1)N2
REMARK SMILES IDX 7 1 8 2 5 3 6 4 20 5 10 6 4 7 11 8 9 9 12 12 14 13 13 14
REMARK SMILES IDX 16 15 17 16 19 17 15 18 18 19 2 20 3 21 1 22
REMARK H PARENT 20 10 10 11
ROOT
ATOM      1  C   UNL     1       4.886   0.154 -11.589  1.00  0.00     0.060 A 
ATOM      2  C   UNL     1       4.738   1.515 -11.467  1.00  0.00     0.066 A 
ATOM      3  C   UNL     1       5.595   0.367 -13.825  1.00  0.00     0.088 A 
ATOM      4  C   UNL     1       5.507  -0.379 -12.619  1.00  0.00     0.035 A 
ATOM      5  N   UNL     1       4.534  -0.480 -10.334  1.00  0.00    -0.360 N 
ATOM      6  N   UNL     1       4.337   1.717 -10.143  1.00  0.00    -0.360 N 
ATOM      7  C   UNL     1       5.314   1.731 -13.779  1.00  0.00     0.271 A 
ATOM      8  C   UNL     1       4.757   0.549  -9.457  1.00  0.00     0.205 C 
ATOM      9  C   UNL     1       4.896   2.324 -12.547  1.00  0.00     0.113 A 
ATOM     10  H   UNL     1       4.207  -1.439 -10.151  1.00  0.00     0.163 HD
ATOM     11  H   UNL     1       3.845   2.533  -9.753  1.00  0.00     0.163 HD
ENDROOT
BRANCH   8  12
ATOM     12  C   UNL     1       4.237   0.424  -7.998  1.00  0.00    -0.003 A 
ATOM     13  C   UNL     1       3.993  -1.024  -6.004  1.00  0.00     0.042 A 
ATOM     14  C   UNL     1       4.809  -0.484  -7.078  1.00  0.00     0.028 A 
ATOM     15  C   UNL     1       2.861  -0.207  -5.551  1.00  0.00     0.041 A 
ATOM     16  C   UNL     1       2.537   0.962  -6.363  1.00  0.00     0.042 A 
ATOM     17  C   UNL     1       3.076   1.203  -7.651  1.00  0.00     0.028 A 
ATOM     18  Cl  UNL     1       4.362  -2.229  -5.087  1.00  0.00    -0.084 Cl
ATOM     19  Cl  UNL     1       1.360   2.025  -5.725  1.00  0.00    -0.084 Cl
ENDBRANCH   8  12
BRANCH   7  20
ATOM     20  N   UNL     1       5.510   2.589 -14.841  1.00  0.00     0.062 N 
ATOM     21  O   UNL     1       5.595   3.748 -14.659  1.00  0.00    -0.258 OA
ATOM     22  O   UNL     1       5.836   2.184 -16.038  1.00  0.00    -0.258 OA
ENDBRANCH   7  20
TORSDOF 2
ENDMDL
MODEL 2
REMARK VINA RESULT:    -5.026      0.985      2.652
REMARK INTER + INTRA:          -5.929
REMARK INTER:                  -5.613
REMARK INTRA:                  -0.315
REMARK UNBOUND:                -0.315
REMARK SMILES O=[N+]([O-])c1ccc2c(c1)N[C@@H](c1cc(Cl)cc(Cl)c1)N2
REMARK SMILES IDX 7 1 8 2 5 3 6 4 20 5 10 6 4 7 11 8 9 9 12 12 14 13 13 14
REMARK SMILES IDX 16 15 17 16 19 17 15 18 18 19 2 20 3 21 1 22
REMARK H PARENT 20 10 10 11
ROOT
ATOM      1  C   UNL     1       4.653   1.746 -11.378  1.00  0.00     0.060 A 
ATOM      2  C   UNL     1       4.832   0.412 -11.660  1.00  0.00     0.066 A 
ATOM      3  C   UNL     1       5.227   2.355 -13.580  1.00  0.00     0.088 A 
ATOM      4  C   UNL     1       4.613   2.650 -12.333  1.00  0.00     0.035 A 
ATOM      5  N   UNL     1       4.249   1.892  -9.994  1.00  0.00    -0.360 N 
ATOM      6  N   UNL     1       4.505  -0.253 -10.475  1.00  0.00    -0.360 N 
ATOM      7  C   UNL     1       5.558   1.030 -13.854  1.00  0.00     0.271 A 
ATOM      8  C   UNL     1       3.692   0.662  -9.760  1.00  0.00     0.205 C 
ATOM      9  C   UNL     1       5.325   0.024 -12.864  1.00  0.00     0.113 A 
ATOM     10  H   UNL     1       4.351   2.698  -9.361  1.00  0.00     0.163 HD
ATOM     11  H   UNL     1       4.790  -1.200 -10.187  1.00  0.00     0.163 HD
ENDROOT
BRANCH   8  12
ATOM     12  C   UNL     1       3.368   0.246  -8.298  1.00  0.00    -0.003 A 
ATOM     13  C   UNL     1       2.402   0.919  -6.119  1.00  0.00     0.042 A 
ATOM     14  C   UNL     1       2.317   0.845  -7.568  1.00  0.00     0.028 A 
ATOM     15  C   UNL     1       3.211  -0.104  -5.446  1.00  0.00     0.041 A 
ATOM     16  C   UNL     1       4.021  -0.961  -6.306  1.00  0.00     0.042 A 
ATOM     17  C   UNL     1       4.253  -0.709  -7.681  1.00  0.00     0.028 A 
ATOM     18  Cl  UNL     1       1.496   1.779  -5.188  1.00  0.00    -0.084 Cl
ATOM     19  Cl  UNL     1       4.797  -2.281  -5.545  1.00  0.00    -0.084 Cl
ENDBRANCH   8  12
BRANCH   7  20
ATOM     20  N   UNL     1       6.014   0.593 -15.081  1.00  0.00     0.062 N 
ATOM     21  O   UNL     1       5.960  -0.547 -15.362  1.00  0.00    -0.258 OA
ATOM     22  O   UNL     1       6.308   1.400 -16.064  1.00  0.00    -0.258 OA
ENDBRANCH   7  20
TORSDOF 2
ENDMDL
MODEL 3
REMARK VINA RESULT:    -4.614      1.392      2.067
REMARK INTER + INTRA:          -5.469
REMARK INTER:                  -5.169
REMARK INTRA:                  -0.300
REMARK UNBOUND:                -0.315
REMARK SMILES O=[N+]([O-])c1ccc2c(c1)N[C@@H](c1cc(Cl)cc(Cl)c1)N2
REMARK SMILES IDX 7 1 8 2 5 3 6 4 20 5 10 6 4 7 11 8 9 9 12 12 14 13 13 14
REMARK SMILES IDX 16 15 17 16 19 17 15 18 18 19 2 20 3 21 1 22
REMARK H PARENT 20 10 10 11
ROOT
ATOM      1  C   UNL     1       4.997   1.248 -11.640  1.00  0.00     0.060 A 
ATOM      2  C   UNL     1       5.061  -0.125 -11.647  1.00  0.00     0.066 A 
ATOM      3  C   UNL     1       5.504   1.348 -13.939  1.00  0.00     0.088 A 
ATOM      4  C   UNL     1       4.978   1.941 -12.758  1.00  0.00     0.035 A 
ATOM      5  N   UNL     1       4.676   1.704 -10.303  1.00  0.00    -0.360 N 
ATOM      6  N   UNL     1       4.744  -0.508 -10.341  1.00  0.00    -0.360 N 
ATOM      7  C   UNL     1       5.720  -0.028 -13.945  1.00  0.00     0.271 A 
ATOM      8  C   UNL     1       4.040   0.598  -9.802  1.00  0.00     0.205 C 
ATOM      9  C   UNL     1       5.462  -0.789 -12.763  1.00  0.00     0.113 A 
ATOM     10  H   UNL     1       4.870   2.610  -9.853  1.00  0.00     0.163 HD
ATOM     11  H   UNL     1       4.972  -1.397  -9.874  1.00  0.00     0.163 HD
ENDROOT
BRANCH   8  12
ATOM     12  C   UNL     1       3.760   0.515  -8.275  1.00  0.00    -0.003 A 
ATOM     13  C   UNL     1       3.926  -0.842  -6.211  1.00  0.00     0.042 A 
ATOM     14  C   UNL     1       4.528  -0.308  -7.421  1.00  0.00     0.028 A 
ATOM     15  C   UNL     1       2.824  -0.075  -5.620  1.00  0.00     0.041 A 
ATOM     16  C   UNL     1       2.299   1.028  -6.417  1.00  0.00     0.042 A 
ATOM     17  C   UNL     1       2.615   1.237  -7.782  1.00  0.00     0.028 A 
ATOM     18  Cl  UNL     1       4.515  -1.974  -5.315  1.00  0.00    -0.084 Cl
ATOM     19  Cl  UNL     1       1.164   2.047  -5.646  1.00  0.00    -0.084 Cl
ENDBRANCH   8  12
BRANCH   7  20
ATOM     20  N   UNL     1       6.080  -0.740 -15.071  1.00  0.00     0.062 N 
ATOM     21  O   UNL     1       6.000  -1.913 -15.081  1.00  0.00    -0.258 OA
ATOM     22  O   UNL     1       6.301  -0.183 -16.230  1.00  0.00    -0.258 OA
ENDBRANCH   7  20
TORSDOF 2
ENDMDL
MODEL 4
REMARK VINA RESULT:    -4.605      0.730      2.140
REMARK INTER + INTRA:          -5.458
REMARK INTER:                  -5.159
REMARK INTRA:                  -0.300
REMARK UNBOUND:                -0.315
REMARK SMILES O=[N+]([O-])c1ccc2c(c1)N[C@@H](c1cc(Cl)cc(Cl)c1)N2
REMARK SMILES IDX 7 1 8 2 5 3 6 4 20 5 10 6 4 7 11 8 9 9 12 12 14 13 13 14
REMARK SMILES IDX 16 15 17 16 19 17 15 18 18 19 2 20 3 21 1 22
REMARK H PARENT 20 10 10 11
ROOT
ATOM      1  C   UNL     1       4.672   0.708 -11.809  1.00  0.00     0.060 A 
ATOM      2  C   UNL     1       4.483   2.006 -11.399  1.00  0.00     0.066 A 
ATOM      3  C   UNL     1       5.433   1.416 -13.923  1.00  0.00     0.088 A 
ATOM      4  C   UNL     1       5.333   0.424 -12.910  1.00  0.00     0.035 A 
ATOM      5  N   UNL     1       4.304  -0.191 -10.733  1.00  0.00    -0.360 N 
ATOM      6  N   UNL     1       4.042   1.907 -10.077  1.00  0.00    -0.360 N 
ATOM      7  C   UNL     1       5.114   2.731 -13.590  1.00  0.00     0.271 A 
ATOM      8  C   UNL     1       4.476   0.627  -9.647  1.00  0.00     0.205 C 
ATOM      9  C   UNL     1       4.648   3.033 -12.273  1.00  0.00     0.113 A 
ATOM     10  H   UNL     1       3.998  -1.174 -10.773  1.00  0.00     0.163 HD
ATOM     11  H   UNL     1       3.518   2.608  -9.535  1.00  0.00     0.163 HD
ENDROOT
BRANCH   8  12
ATOM     12  C   UNL     1       3.921   0.177  -8.267  1.00  0.00    -0.003 A 
ATOM     13  C   UNL     1       2.603   0.795  -6.264  1.00  0.00     0.042 A 
ATOM     14  C   UNL     1       2.758   0.753  -7.708  1.00  0.00     0.028 A 
ATOM     15  C   UNL     1       3.301  -0.237  -5.489  1.00  0.00     0.041 A 
ATOM     16  C   UNL     1       4.250  -1.069  -6.220  1.00  0.00     0.042 A 
ATOM     17  C   UNL     1       4.702  -0.786  -7.533  1.00  0.00     0.028 A 
ATOM     18  Cl  UNL     1       1.547   1.629  -5.477  1.00  0.00    -0.084 Cl
ATOM     19  Cl  UNL     1       4.904  -2.400  -5.370  1.00  0.00    -0.084 Cl
ENDBRANCH   8  12
BRANCH   7  20
ATOM     20  N   UNL     1       5.315   3.804 -14.434  1.00  0.00     0.062 N 
ATOM     21  O   UNL     1       5.223   4.903 -14.028  1.00  0.00    -0.258 OA
ATOM     22  O   UNL     1       5.827   3.688 -15.630  1.00  0.00    -0.258 OA
ENDBRANCH   7  20
TORSDOF 2
ENDMDL
MODEL 5
REMARK VINA RESULT:    -4.535      5.110      7.578
REMARK INTER + INTRA:          -5.380
REMARK INTER:                  -5.081
REMARK INTRA:                  -0.299
REMARK UNBOUND:                -0.315
REMARK SMILES O=[N+]([O-])c1ccc2c(c1)N[C@@H](c1cc(Cl)cc(Cl)c1)N2
REMARK SMILES IDX 7 1 8 2 5 3 6 4 20 5 10 6 4 7 11 8 9 9 12 12 14 13 13 14
REMARK SMILES IDX 16 15 17 16 19 17 15 18 18 19 2 20 3 21 1 22
REMARK H PARENT 20 10 10 11
ROOT
ATOM      1  C   UNL     1       3.217   1.041  -8.073  1.00  0.00     0.060 A 
ATOM      2  C   UNL     1       3.732  -0.233  -8.092  1.00  0.00     0.066 A 
ATOM      3  C   UNL     1       2.760   0.892  -5.766  1.00  0.00     0.088 A 
ATOM      4  C   UNL     1       2.968   1.665  -6.941  1.00  0.00     0.035 A 
ATOM      5  N   UNL     1       3.293   1.608  -9.404  1.00  0.00    -0.360 N 
ATOM      6  N   UNL     1       4.153  -0.432  -9.410  1.00  0.00    -0.360 N 
ATOM      7  C   UNL     1       3.137  -0.449  -5.785  1.00  0.00     0.271 A 
ATOM      8  C   UNL     1       4.322   0.875  -9.935  1.00  0.00     0.205 C 
ATOM      9  C   UNL     1       3.665  -1.018  -6.986  1.00  0.00     0.113 A 
ATOM     10  H   UNL     1       2.731   2.356  -9.834  1.00  0.00     0.163 HD
ATOM     11  H   UNL     1       4.307  -1.329  -9.892  1.00  0.00     0.163 HD
ENDROOT
BRANCH   8  12
ATOM     12  C   UNL     1       4.581   0.936 -11.466  1.00  0.00    -0.003 A 
ATOM     13  C   UNL     1       5.508  -0.210 -13.457  1.00  0.00     0.042 A 
ATOM     14  C   UNL     1       4.700  -0.235 -12.249  1.00  0.00     0.028 A 
ATOM     15  C   UNL     1       5.663   1.086 -14.128  1.00  0.00     0.041 A 
ATOM     16  C   UNL     1       5.174   2.255 -13.405  1.00  0.00     0.042 A 
ATOM     17  C   UNL     1       4.798   2.240 -12.039  1.00  0.00     0.028 A 
ATOM     18  Cl  UNL     1       5.977  -1.451 -14.274  1.00  0.00    -0.084 Cl
ATOM     19  Cl  UNL     1       5.163   3.730 -14.269  1.00  0.00    -0.084 Cl
ENDBRANCH   8  12
BRANCH   7  20
ATOM     20  N   UNL     1       3.129  -1.262  -4.670  1.00  0.00     0.062 N 
ATOM     21  O   UNL     1       2.487  -0.971  -3.729  1.00  0.00    -0.258 OA
ATOM     22  O   UNL     1       3.621  -2.471  -4.661  1.00  0.00    -0.258 OA
ENDBRANCH   7  20
TORSDOF 2
ENDMDL
MODEL 6
REMARK VINA RESULT:    -4.518      4.995      7.639
REMARK INTER + INTRA:          -5.361
REMARK INTER:                  -5.062
REMARK INTRA:                  -0.299
REMARK UNBOUND:                -0.315
REMARK SMILES O=[N+]([O-])c1ccc2c(c1)N[C@@H](c1cc(Cl)cc(Cl)c1)N2
REMARK SMILES IDX 7 1 8 2 5 3 6 4 20 5 10 6 4 7 11 8 9 9 12 12 14 13 13 14
REMARK SMILES IDX 16 15 17 16 19 17 15 18 18 19 2 20 3 21 1 22
REMARK H PARENT 20 10 10 11
ROOT
ATOM      1  C   UNL     1       4.189  -0.433  -8.085  1.00  0.00     0.060 A 
ATOM      2  C   UNL     1       3.734   0.852  -7.907  1.00  0.00     0.066 A 
ATOM      3  C   UNL     1       3.333  -1.096  -5.993  1.00  0.00     0.088 A 
ATOM      4  C   UNL     1       3.808  -1.413  -7.294  1.00  0.00     0.035 A 
ATOM      5  N   UNL     1       4.854  -0.531  -9.369  1.00  0.00    -0.360 N 
ATOM      6  N   UNL     1       4.080   1.524  -9.082  1.00  0.00    -0.360 N 
ATOM      7  C   UNL     1       2.992   0.227  -5.720  1.00  0.00     0.271 A 
ATOM      8  C   UNL     1       4.253   0.498 -10.046  1.00  0.00     0.205 C 
ATOM      9  C   UNL     1       3.176   1.226  -6.726  1.00  0.00     0.113 A 
ATOM     10  H   UNL     1       5.579  -1.191  -9.686  1.00  0.00     0.163 HD
ATOM     11  H   UNL     1       4.186   2.539  -9.218  1.00  0.00     0.163 HD
ENDROOT
BRANCH   8  12
ATOM     12  C   UNL     1       4.858   0.966 -11.399  1.00  0.00    -0.003 A 
ATOM     13  C   UNL     1       5.039   2.789 -13.065  1.00  0.00     0.042 A 
ATOM     14  C   UNL     1       5.072   2.333 -11.686  1.00  0.00     0.028 A 
ATOM     15  C   UNL     1       5.382   1.807 -14.100  1.00  0.00     0.041 A 
ATOM     16  C   UNL     1       5.511   0.421 -13.663  1.00  0.00     0.042 A 
ATOM     17  C   UNL     1       5.097  -0.049 -12.393  1.00  0.00     0.028 A 
ATOM     18  Cl  UNL     1       4.971   4.272 -13.541  1.00  0.00    -0.084 Cl
ATOM     19  Cl  UNL     1       6.112  -0.685 -14.820  1.00  0.00    -0.084 Cl
ENDBRANCH   8  12
BRANCH   7  20
ATOM     20  N   UNL     1       2.379   0.634  -4.552  1.00  0.00     0.062 N 
ATOM     21  O   UNL     1       2.486  -0.006  -3.572  1.00  0.00    -0.258 OA
ATOM     22  O   UNL     1       1.857   1.820  -4.394  1.00  0.00    -0.258 OA
ENDBRANCH   7  20
TORSDOF 2
ENDMDL
MODEL 7
REMARK VINA RESULT:    -4.483      5.116      7.786
REMARK INTER + INTRA:          -5.323
REMARK INTER:                  -5.005
REMARK INTRA:                  -0.318
REMARK UNBOUND:                -0.315
REMARK SMILES O=[N+]([O-])c1ccc2c(c1)N[C@@H](c1cc(Cl)cc(Cl)c1)N2
REMARK SMILES IDX 7 1 8 2 5 3 6 4 20 5 10 6 4 7 11 8 9 9 12 12 14 13 13 14
REMARK SMILES IDX 16 15 17 16 19 17 15 18 18 19 2 20 3 21 1 22
REMARK H PARENT 20 10 10 11
ROOT
ATOM      1  C   UNL     1       3.385   1.022  -7.938  1.00  0.00     0.060 A 
ATOM      2  C   UNL     1       3.974  -0.218  -7.873  1.00  0.00     0.066 A 
ATOM      3  C   UNL     1       2.655   0.864  -5.704  1.00  0.00     0.088 A 
ATOM      4  C   UNL     1       2.960   1.638  -6.856  1.00  0.00     0.035 A 
ATOM      5  N   UNL     1       3.591   1.581  -9.259  1.00  0.00    -0.360 N 
ATOM      6  N   UNL     1       4.567  -0.401  -9.125  1.00  0.00    -0.360 N 
ATOM      7  C   UNL     1       3.112  -0.451  -5.654  1.00  0.00     0.271 A 
ATOM      8  C   UNL     1       4.721   0.908  -9.647  1.00  0.00     0.205 C 
ATOM      9  C   UNL     1       3.818  -0.996  -6.771  1.00  0.00     0.113 A 
ATOM     10  H   UNL     1       3.042   2.289  -9.767  1.00  0.00     0.163 HD
ATOM     11  H   UNL     1       4.834  -1.291  -9.570  1.00  0.00     0.163 HD
ENDROOT
BRANCH   8  12
ATOM     12  C   UNL     1       5.164   0.972 -11.135  1.00  0.00    -0.003 A 
ATOM     13  C   UNL     1       5.211   2.298 -13.227  1.00  0.00     0.042 A 
ATOM     14  C   UNL     1       5.403   2.202 -11.789  1.00  0.00     0.028 A 
ATOM     15  C   UNL     1       5.369   1.063 -14.004  1.00  0.00     0.041 A 
ATOM     16  C   UNL     1       5.489  -0.175 -13.240  1.00  0.00     0.042 A 
ATOM     17  C   UNL     1       5.223  -0.276 -11.852  1.00  0.00     0.028 A 
ATOM     18  Cl  UNL     1       5.150   3.614 -14.060  1.00  0.00    -0.084 Cl
ATOM     19  Cl  UNL     1       5.880  -1.580 -14.132  1.00  0.00    -0.084 Cl
ENDBRANCH   8  12
BRANCH   7  20
ATOM     20  N   UNL     1       3.014  -1.253  -4.535  1.00  0.00     0.062 N 
ATOM     21  O   UNL     1       2.382  -0.903  -3.608  1.00  0.00    -0.258 OA
ATOM     22  O   UNL     1       3.402  -2.499  -4.512  1.00  0.00    -0.258 OA
ENDBRANCH   7  20
TORSDOF 2
ENDMDL
MODEL 8
REMARK VINA RESULT:    -4.470      5.014      7.430
REMARK INTER + INTRA:          -5.308
REMARK INTER:                  -4.990
REMARK INTRA:                  -0.317
REMARK UNBOUND:                -0.315
REMARK SMILES O=[N+]([O-])c1ccc2c(c1)N[C@@H](c1cc(Cl)cc(Cl)c1)N2
REMARK SMILES IDX 7 1 8 2 5 3 6 4 20 5 10 6 4 7 11 8 9 9 12 12 14 13 13 14
REMARK SMILES IDX 16 15 17 16 19 17 15 18 18 19 2 20 3 21 1 22
REMARK H PARENT 20 10 10 11
ROOT
ATOM      1  C   UNL     1       4.192  -0.414  -8.018  1.00  0.00     0.060 A 
ATOM      2  C   UNL     1       3.469   0.747  -7.886  1.00  0.00     0.066 A 
ATOM      3  C   UNL     1       3.670  -1.066  -5.815  1.00  0.00     0.088 A 
ATOM      4  C   UNL     1       4.106  -1.382  -7.130  1.00  0.00     0.035 A 
ATOM      5  N   UNL     1       4.764  -0.473  -9.348  1.00  0.00    -0.360 N 
ATOM      6  N   UNL     1       3.564   1.374  -9.131  1.00  0.00    -0.360 N 
ATOM      7  C   UNL     1       3.056   0.166  -5.602  1.00  0.00     0.271 A 
ATOM      8  C   UNL     1       3.894   0.333 -10.035  1.00  0.00     0.205 C 
ATOM      9  C   UNL     1       2.930   1.089  -6.687  1.00  0.00     0.113 A 
ATOM     10  H   UNL     1       5.595  -0.981  -9.685  1.00  0.00     0.163 HD
ATOM     11  H   UNL     1       3.424   2.372  -9.345  1.00  0.00     0.163 HD
ENDROOT
BRANCH   8  12
ATOM     12  C   UNL     1       4.273   0.804 -11.467  1.00  0.00    -0.003 A 
ATOM     13  C   UNL     1       5.435   0.263 -13.586  1.00  0.00     0.042 A 
ATOM     14  C   UNL     1       4.534  -0.114 -12.509  1.00  0.00     0.028 A 
ATOM     15  C   UNL     1       5.555   1.694 -13.884  1.00  0.00     0.041 A 
ATOM     16  C   UNL     1       4.929   2.610 -12.936  1.00  0.00     0.042 A 
ATOM     17  C   UNL     1       4.445   2.221 -11.662  1.00  0.00     0.028 A 
ATOM     18  Cl  UNL     1       6.053  -0.699 -14.645  1.00  0.00    -0.084 Cl
ATOM     19  Cl  UNL     1       4.888   4.258 -13.389  1.00  0.00    -0.084 Cl
ENDBRANCH   8  12
BRANCH   7  20
ATOM     20  N   UNL     1       2.455   0.526  -4.414  1.00  0.00     0.062 N 
ATOM     21  O   UNL     1       2.528  -0.178  -3.475  1.00  0.00    -0.258 OA
ATOM     22  O   UNL     1       1.985   1.722  -4.183  1.00  0.00    -0.258 OA
ENDBRANCH   7  20
TORSDOF 2
ENDMDL
MODEL 9
REMARK VINA RESULT:    -3.995      3.485      4.455
REMARK INTER + INTRA:          -4.777
REMARK INTER:                  -4.472
REMARK INTRA:                  -0.306
REMARK UNBOUND:                -0.315
REMARK SMILES O=[N+]([O-])c1ccc2c(c1)N[C@@H](c1cc(Cl)cc(Cl)c1)N2
REMARK SMILES IDX 7 1 8 2 5 3 6 4 20 5 10 6 4 7 11 8 9 9 12 12 14 13 13 14
REMARK SMILES IDX 16 15 17 16 19 17 15 18 18 19 2 20 3 21 1 22
REMARK H PARENT 20 10 10 11
ROOT
ATOM      1  C   UNL     1       5.945  -0.975 -14.221  1.00  0.00     0.060 A 
ATOM      2  C   UNL     1       4.944  -1.890 -14.000  1.00  0.00     0.066 A 
ATOM      3  C   UNL     1       6.329  -1.819 -16.386  1.00  0.00     0.088 A 
ATOM      4  C   UNL     1       6.448  -0.782 -15.421  1.00  0.00     0.035 A 
ATOM      5  N   UNL     1       6.096  -0.138 -13.047  1.00  0.00    -0.360 N 
ATOM      6  N   UNL     1       4.461  -1.595 -12.722  1.00  0.00    -0.360 N 
ATOM      7  C   UNL     1       5.425  -2.849 -16.138  1.00  0.00     0.271 A 
ATOM      8  C   UNL     1       4.847  -0.250 -12.493  1.00  0.00     0.205 C 
ATOM      9  C   UNL     1       4.691  -2.865 -14.911  1.00  0.00     0.113 A 
ATOM     10  H   UNL     1       6.914   0.395 -12.719  1.00  0.00     0.163 HD
ATOM     11  H   UNL     1       3.939  -2.216 -12.088  1.00  0.00     0.163 HD
ENDROOT
BRANCH   8  12
ATOM     12  C   UNL     1       4.617   0.259 -11.042  1.00  0.00    -0.003 A 
ATOM     13  C   UNL     1       5.519   0.439  -8.743  1.00  0.00     0.042 A 
ATOM     14  C   UNL     1       5.694   0.565 -10.180  1.00  0.00     0.028 A 
ATOM     15  C   UNL     1       4.156   0.590  -8.222  1.00  0.00     0.041 A 
ATOM     16  C   UNL     1       3.083   0.637  -9.210  1.00  0.00     0.042 A 
ATOM     17  C   UNL     1       3.254   0.309 -10.578  1.00  0.00     0.028 A 
ATOM     18  Cl  UNL     1       6.654   0.455  -7.675  1.00  0.00    -0.084 Cl
ATOM     19  Cl  UNL     1       1.526   1.022  -8.620  1.00  0.00    -0.084 Cl
ENDBRANCH   8  12
BRANCH   7  20
ATOM     20  N   UNL     1       5.107  -3.827 -17.059  1.00  0.00     0.062 N 
ATOM     21  O   UNL     1       4.043  -3.847 -17.559  1.00  0.00    -0.258 OA
ATOM     22  O   UNL     1       5.994  -4.622 -17.594  1.00  0.00    -0.258 OA
ENDBRANCH   7  20
TORSDOF 2
ENDMDL
