MODEL 1
REMARK VINA RESULT:    -5.049      0.000      0.000
REMARK INTER + INTRA:          -5.954
REMARK INTER:                  -5.640
REMARK INTRA:                  -0.314
REMARK UNBOUND:                -0.314
REMARK SMILES O=[N+]([O-])c1ccc2c(c1)N[C@@H](c1cc(Cl)cc(Cl)c1)N2
REMARK SMILES IDX 7 1 8 2 5 3 6 4 20 5 10 6 4 7 11 8 9 9 12 12 14 13 13 14
REMARK SMILES IDX 16 15 17 16 19 17 15 18 18 19 2 20 3 21 1 22
REMARK H PARENT 20 10 10 11
ROOT
ATOM      1  C   UNL     1       9.176  -3.408   4.701  1.00  0.00     0.060 A 
ATOM      2  C   UNL     1       9.007  -4.625   4.084  1.00  0.00     0.066 A 
ATOM      3  C   UNL     1      11.342  -3.996   5.415  1.00  0.00     0.088 A 
ATOM      4  C   UNL     1      10.354  -3.014   5.134  1.00  0.00     0.035 A 
ATOM      5  N   UNL     1       7.981  -2.609   4.514  1.00  0.00    -0.360 N 
ATOM      6  N   UNL     1       7.743  -4.559   3.494  1.00  0.00    -0.360 N 
ATOM      7  C   UNL     1      11.146  -5.287   4.930  1.00  0.00     0.271 A 
ATOM      8  C   UNL     1       7.474  -3.172   3.372  1.00  0.00     0.205 C 
ATOM      9  C   UNL     1       9.946  -5.598   4.217  1.00  0.00     0.113 A 
ATOM     10  H   UNL     1       7.615  -1.831   5.082  1.00  0.00     0.163 HD
ATOM     11  H   UNL     1       7.139  -5.344   3.210  1.00  0.00     0.163 HD
ENDROOT
BRANCH   8  12
ATOM     12  C   UNL     1       6.023  -2.822   2.939  1.00  0.00    -0.003 A 
ATOM     13  C   UNL     1       4.347  -1.038   2.565  1.00  0.00     0.042 A 
ATOM     14  C   UNL     1       5.692  -1.561   2.394  1.00  0.00     0.028 A 
ATOM     15  C   UNL     1       3.268  -2.017   2.739  1.00  0.00     0.041 A 
ATOM     16  C   UNL     1       3.675  -3.404   2.938  1.00  0.00     0.042 A 
ATOM     17  C   UNL     1       5.006  -3.806   3.210  1.00  0.00     0.028 A 
ATOM     18  Cl  UNL     1       3.888   0.426   2.289  1.00  0.00    -0.084 Cl
ATOM     19  Cl  UNL     1       2.424  -4.569   2.930  1.00  0.00    -0.084 Cl
ENDBRANCH   8  12
BRANCH   7  20
ATOM     20  N   UNL     1      12.096  -6.284   5.003  1.00  0.00     0.062 N 
ATOM     21  O   UNL     1      12.044  -7.208   4.277  1.00  0.00    -0.258 OA
ATOM     22  O   UNL     1      13.202  -6.171   5.688  1.00  0.00    -0.258 OA
ENDBRANCH   7  20
TORSDOF 2
ENDMDL
MODEL 2
REMARK VINA RESULT:    -5.038      1.057      2.678
REMARK INTER + INTRA:          -5.941
REMARK INTER:                  -5.629
REMARK INTRA:                  -0.312
REMARK UNBOUND:                -0.314
REMARK SMILES O=[N+]([O-])c1ccc2c(c1)N[C@@H](c1cc(Cl)cc(Cl)c1)N2
REMARK SMILES IDX 7 1 8 2 5 3 6 4 20 5 10 6 4 7 11 8 9 9 12 12 14 13 13 14
REMARK SMILES IDX 16 15 17 16 19 17 15 18 18 19 2 20 3 21 1 22
REMARK H PARENT 20 10 10 11
ROOT
ATOM      1  C   UNL     1       8.964  -4.891   4.034  1.00  0.00     0.060 A 
ATOM      2  C   UNL     1       9.236  -3.724   4.707  1.00  0.00     0.066 A 
ATOM      3  C   UNL     1      11.065  -5.789   4.608  1.00  0.00     0.088 A 
ATOM      4  C   UNL     1       9.723  -5.957   4.172  1.00  0.00     0.035 A 
ATOM      5  N   UNL     1       7.640  -4.809   3.452  1.00  0.00    -0.360 N 
ATOM      6  N   UNL     1       8.080  -2.951   4.573  1.00  0.00    -0.360 N 
ATOM      7  C   UNL     1      11.427  -4.567   5.170  1.00  0.00     0.271 A 
ATOM      8  C   UNL     1       7.055  -3.886   4.278  1.00  0.00     0.205 C 
ATOM      9  C   UNL     1      10.467  -3.511   5.243  1.00  0.00     0.113 A 
ATOM     10  H   UNL     1       7.246  -5.307   2.641  1.00  0.00     0.163 HD
ATOM     11  H   UNL     1       7.992  -1.930   4.666  1.00  0.00     0.163 HD
ENDROOT
BRANCH   8  12
ATOM     12  C   UNL     1       5.695  -3.257   3.865  1.00  0.00    -0.003 A 
ATOM     13  C   UNL     1       3.382  -3.658   3.077  1.00  0.00     0.042 A 
ATOM     14  C   UNL     1       4.480  -3.969   3.977  1.00  0.00     0.028 A 
ATOM     15  C   UNL     1       3.334  -2.298   2.528  1.00  0.00     0.041 A 
ATOM     16  C   UNL     1       4.504  -1.460   2.767  1.00  0.00     0.042 A 
ATOM     17  C   UNL     1       5.738  -1.947   3.265  1.00  0.00     0.028 A 
ATOM     18  Cl  UNL     1       2.096  -4.514   2.867  1.00  0.00    -0.084 Cl
ATOM     19  Cl  UNL     1       4.365   0.182   2.313  1.00  0.00    -0.084 Cl
ENDBRANCH   8  12
BRANCH   7  20
ATOM     20  N   UNL     1      12.649  -4.331   5.766  1.00  0.00     0.062 N 
ATOM     21  O   UNL     1      12.721  -3.653   6.724  1.00  0.00    -0.258 OA
ATOM     22  O   UNL     1      13.732  -4.997   5.468  1.00  0.00    -0.258 OA
ENDBRANCH   7  20
TORSDOF 2
ENDMDL
MODEL 3
REMARK VINA RESULT:    -5.004      5.110      7.621
REMARK INTER + INTRA:          -5.903
REMARK INTER:                  -5.604
REMARK INTRA:                  -0.299
REMARK UNBOUND:                -0.314
REMARK SMILES O=[N+]([O-])c1ccc2c(c1)N[C@@H](c1cc(Cl)cc(Cl)c1)N2
REMARK SMILES IDX 7 1 8 2 5 3 6 4 20 5 10 6 4 7 11 8 9 9 12 12 14 13 13 14
REMARK SMILES IDX 16 15 17 16 19 17 15 18 18 19 2 20 3 21 1 22
REMARK H PARENT 20 10 10 11
ROOT
ATOM      1  C   UNL     1       5.640  -3.521   2.998  1.00  0.00     0.060 A 
ATOM      2  C   UNL     1       5.821  -2.306   3.614  1.00  0.00     0.066 A 
ATOM      3  C   UNL     1       3.655  -2.778   1.970  1.00  0.00     0.088 A 
ATOM      4  C   UNL     1       4.750  -3.681   2.042  1.00  0.00     0.035 A 
ATOM      5  N   UNL     1       6.728  -4.408   3.361  1.00  0.00    -0.360 N 
ATOM      6  N   UNL     1       7.024  -2.432   4.315  1.00  0.00    -0.360 N 
ATOM      7  C   UNL     1       3.732  -1.591   2.695  1.00  0.00     0.271 A 
ATOM      8  C   UNL     1       7.704  -3.499   3.674  1.00  0.00     0.205 C 
ATOM      9  C   UNL     1       4.870  -1.341   3.523  1.00  0.00     0.113 A 
ATOM     10  H   UNL     1       6.759  -5.437   3.378  1.00  0.00     0.163 HD
ATOM     11  H   UNL     1       7.345  -1.874   5.119  1.00  0.00     0.163 HD
ENDROOT
BRANCH   8  12
ATOM     12  C   UNL     1       8.987  -3.989   4.403  1.00  0.00    -0.003 A 
ATOM     13  C   UNL     1      11.076  -3.353   5.569  1.00  0.00     0.042 A 
ATOM     14  C   UNL     1       9.646  -3.193   5.366  1.00  0.00     0.028 A 
ATOM     15  C   UNL     1      11.653  -4.663   5.248  1.00  0.00     0.041 A 
ATOM     16  C   UNL     1      10.779  -5.605   4.556  1.00  0.00     0.042 A 
ATOM     17  C   UNL     1       9.534  -5.252   3.979  1.00  0.00     0.028 A 
ATOM     18  Cl  UNL     1      12.005  -2.386   6.365  1.00  0.00    -0.084 Cl
ATOM     19  Cl  UNL     1      11.377  -7.196   4.369  1.00  0.00    -0.084 Cl
ENDBRANCH   8  12
BRANCH   7  20
ATOM     20  N   UNL     1       2.810  -0.569   2.589  1.00  0.00     0.062 N 
ATOM     21  O   UNL     1       3.153   0.551   2.687  1.00  0.00    -0.258 OA
ATOM     22  O   UNL     1       1.590  -0.747   2.161  1.00  0.00    -0.258 OA
ENDBRANCH   7  20
TORSDOF 2
ENDMDL
MODEL 4
REMARK VINA RESULT:    -4.983      5.026      7.637
REMARK INTER + INTRA:          -5.880
REMARK INTER:                  -5.581
REMARK INTRA:                  -0.298
REMARK UNBOUND:                -0.314
REMARK SMILES O=[N+]([O-])c1ccc2c(c1)N[C@@H](c1cc(Cl)cc(Cl)c1)N2
REMARK SMILES IDX 7 1 8 2 5 3 6 4 20 5 10 6 4 7 11 8 9 9 12 12 14 13 13 14
REMARK SMILES IDX 16 15 17 16 19 17 15 18 18 19 2 20 3 21 1 22
REMARK H PARENT 20 10 10 11
ROOT
ATOM      1  C   UNL     1       6.137  -2.204   3.534  1.00  0.00     0.060 A 
ATOM      2  C   UNL     1       5.720  -3.381   2.960  1.00  0.00     0.066 A 
ATOM      3  C   UNL     1       4.004  -1.241   3.264  1.00  0.00     0.088 A 
ATOM      4  C   UNL     1       5.280  -1.271   3.890  1.00  0.00     0.035 A 
ATOM      5  N   UNL     1       7.532  -2.323   3.909  1.00  0.00    -0.360 N 
ATOM      6  N   UNL     1       6.833  -4.225   3.018  1.00  0.00    -0.360 N 
ATOM      7  C   UNL     1       3.595  -2.363   2.548  1.00  0.00     0.271 A 
ATOM      8  C   UNL     1       7.644  -3.682   4.047  1.00  0.00     0.205 C 
ATOM      9  C   UNL     1       4.478  -3.479   2.418  1.00  0.00     0.113 A 
ATOM     10  H   UNL     1       8.243  -1.589   4.038  1.00  0.00     0.163 HD
ATOM     11  H   UNL     1       7.022  -5.057   2.441  1.00  0.00     0.163 HD
ENDROOT
BRANCH   8  12
ATOM     12  C   UNL     1       9.058  -4.314   4.168  1.00  0.00    -0.003 A 
ATOM     13  C   UNL     1      10.413  -6.386   4.097  1.00  0.00     0.042 A 
ATOM     14  C   UNL     1       9.389  -5.528   3.524  1.00  0.00     0.028 A 
ATOM     15  C   UNL     1      11.443  -5.738   4.917  1.00  0.00     0.041 A 
ATOM     16  C   UNL     1      11.220  -4.336   5.253  1.00  0.00     0.042 A 
ATOM     17  C   UNL     1       9.991  -3.661   5.050  1.00  0.00     0.028 A 
ATOM     18  Cl  UNL     1      10.703  -7.864   3.695  1.00  0.00    -0.084 Cl
ATOM     19  Cl  UNL     1      12.512  -3.528   6.026  1.00  0.00    -0.084 Cl
ENDBRANCH   8  12
BRANCH   7  20
ATOM     20  N   UNL     1       2.326  -2.517   2.026  1.00  0.00     0.062 N 
ATOM     21  O   UNL     1       1.720  -1.581   1.654  1.00  0.00    -0.258 OA
ATOM     22  O   UNL     1       1.821  -3.677   1.705  1.00  0.00    -0.258 OA
ENDBRANCH   7  20
TORSDOF 2
ENDMDL
MODEL 5
REMARK VINA RESULT:    -4.927      5.101      7.818
REMARK INTER + INTRA:          -5.817
REMARK INTER:                  -5.498
REMARK INTRA:                  -0.319
REMARK UNBOUND:                -0.314
REMARK SMILES O=[N+]([O-])c1ccc2c(c1)N[C@@H](c1cc(Cl)cc(Cl)c1)N2
REMARK SMILES IDX 7 1 8 2 5 3 6 4 20 5 10 6 4 7 11 8 9 9 12 12 14 13 13 14
REMARK SMILES IDX 16 15 17 16 19 17 15 18 18 19 2 20 3 21 1 22
REMARK H PARENT 20 10 10 11
ROOT
ATOM      1  C   UNL     1       5.448  -3.544   3.117  1.00  0.00     0.060 A 
ATOM      2  C   UNL     1       5.769  -2.228   3.353  1.00  0.00     0.066 A 
ATOM      3  C   UNL     1       3.285  -2.955   2.395  1.00  0.00     0.088 A 
ATOM      4  C   UNL     1       4.364  -3.878   2.451  1.00  0.00     0.035 A 
ATOM      5  N   UNL     1       6.586  -4.379   3.444  1.00  0.00    -0.360 N 
ATOM      6  N   UNL     1       7.099  -2.252   3.782  1.00  0.00    -0.360 N 
ATOM      7  C   UNL     1       3.528  -1.633   2.763  1.00  0.00     0.271 A 
ATOM      8  C   UNL     1       7.612  -3.482   3.297  1.00  0.00     0.205 C 
ATOM      9  C   UNL     1       4.825  -1.258   3.232  1.00  0.00     0.113 A 
ATOM     10  H   UNL     1       6.617  -5.373   3.712  1.00  0.00     0.163 HD
ATOM     11  H   UNL     1       7.596  -1.535   4.330  1.00  0.00     0.163 HD
ENDROOT
BRANCH   8  12
ATOM     12  C   UNL     1       9.024  -3.856   3.827  1.00  0.00    -0.003 A 
ATOM     13  C   UNL     1      10.618  -5.673   4.369  1.00  0.00     0.042 A 
ATOM     14  C   UNL     1       9.662  -5.063   3.460  1.00  0.00     0.028 A 
ATOM     15  C   UNL     1      11.320  -4.778   5.296  1.00  0.00     0.041 A 
ATOM     16  C   UNL     1      10.836  -3.403   5.364  1.00  0.00     0.042 A 
ATOM     17  C   UNL     1       9.616  -2.965   4.791  1.00  0.00     0.028 A 
ATOM     18  Cl  UNL     1      11.192  -7.118   4.264  1.00  0.00    -0.084 Cl
ATOM     19  Cl  UNL     1      11.779  -2.313   6.282  1.00  0.00    -0.084 Cl
ENDBRANCH   8  12
BRANCH   7  20
ATOM     20  N   UNL     1       2.610  -0.614   2.608  1.00  0.00     0.062 N 
ATOM     21  O   UNL     1       2.946   0.507   2.712  1.00  0.00    -0.258 OA
ATOM     22  O   UNL     1       1.411  -0.799   2.126  1.00  0.00    -0.258 OA
ENDBRANCH   7  20
TORSDOF 2
ENDMDL
MODEL 6
REMARK VINA RESULT:    -4.709      1.708      2.149
REMARK INTER + INTRA:          -5.574
REMARK INTER:                  -5.284
REMARK INTRA:                  -0.290
REMARK UNBOUND:                -0.314
REMARK SMILES O=[N+]([O-])c1ccc2c(c1)N[C@@H](c1cc(Cl)cc(Cl)c1)N2
REMARK SMILES IDX 7 1 8 2 5 3 6 4 20 5 10 6 4 7 11 8 9 9 12 12 14 13 13 14
REMARK SMILES IDX 16 15 17 16 19 17 15 18 18 19 2 20 3 21 1 22
REMARK H PARENT 20 10 10 11
ROOT
ATOM      1  C   UNL     1       9.445  -4.184   4.238  1.00  0.00     0.060 A 
ATOM      2  C   UNL     1       9.441  -2.953   4.850  1.00  0.00     0.066 A 
ATOM      3  C   UNL     1      11.528  -4.726   5.196  1.00  0.00     0.088 A 
ATOM      4  C   UNL     1      10.310  -5.116   4.575  1.00  0.00     0.035 A 
ATOM      5  N   UNL     1       8.235  -4.332   3.455  1.00  0.00    -0.360 N 
ATOM      6  N   UNL     1       8.227  -2.369   4.478  1.00  0.00    -0.360 N 
ATOM      7  C   UNL     1      11.623  -3.434   5.707  1.00  0.00     0.271 A 
ATOM      8  C   UNL     1       7.402  -3.460   4.106  1.00  0.00     0.205 C 
ATOM      9  C   UNL     1      10.527  -2.529   5.548  1.00  0.00     0.113 A 
ATOM     10  H   UNL     1       8.050  -4.929   2.636  1.00  0.00     0.163 HD
ATOM     11  H   UNL     1       7.986  -1.368   4.475  1.00  0.00     0.163 HD
ENDROOT
BRANCH   8  12
ATOM     12  C   UNL     1       6.054  -3.064   3.441  1.00  0.00    -0.003 A 
ATOM     13  C   UNL     1       4.587  -1.223   2.671  1.00  0.00     0.042 A 
ATOM     14  C   UNL     1       5.898  -1.846   2.741  1.00  0.00     0.028 A 
ATOM     15  C   UNL     1       3.422  -2.109   2.779  1.00  0.00     0.041 A 
ATOM     16  C   UNL     1       3.690  -3.492   3.160  1.00  0.00     0.042 A 
ATOM     17  C   UNL     1       4.937  -3.948   3.654  1.00  0.00     0.028 A 
ATOM     18  Cl  UNL     1       4.285   0.231   2.200  1.00  0.00    -0.084 Cl
ATOM     19  Cl  UNL     1       2.365  -4.569   3.082  1.00  0.00    -0.084 Cl
ENDBRANCH   8  12
BRANCH   7  20
ATOM     20  N   UNL     1      12.687  -2.986   6.463  1.00  0.00     0.062 N 
ATOM     21  O   UNL     1      12.739  -3.223   7.613  1.00  0.00    -0.258 OA
ATOM     22  O   UNL     1      13.777  -2.492   5.942  1.00  0.00    -0.258 OA
ENDBRANCH   7  20
TORSDOF 2
ENDMDL
MODEL 7
REMARK VINA RESULT:    -4.673      0.886      2.230
REMARK INTER + INTRA:          -5.533
REMARK INTER:                  -5.233
REMARK INTRA:                  -0.300
REMARK UNBOUND:                -0.314
REMARK SMILES O=[N+]([O-])c1ccc2c(c1)N[C@@H](c1cc(Cl)cc(Cl)c1)N2
REMARK SMILES IDX 7 1 8 2 5 3 6 4 20 5 10 6 4 7 11 8 9 9 12 12 14 13 13 14
REMARK SMILES IDX 16 15 17 16 19 17 15 18 18 19 2 20 3 21 1 22
REMARK H PARENT 20 10 10 11
ROOT
ATOM      1  C   UNL     1       9.220  -4.264   4.591  1.00  0.00     0.060 A 
ATOM      2  C   UNL     1       8.796  -5.284   3.773  1.00  0.00     0.066 A 
ATOM      3  C   UNL     1      11.289  -5.330   4.957  1.00  0.00     0.088 A 
ATOM      4  C   UNL     1      10.476  -4.164   4.970  1.00  0.00     0.035 A 
ATOM      5  N   UNL     1       8.179  -3.261   4.683  1.00  0.00    -0.360 N 
ATOM      6  N   UNL     1       7.528  -4.893   3.337  1.00  0.00    -0.360 N 
ATOM      7  C   UNL     1      10.833  -6.443   4.254  1.00  0.00     0.271 A 
ATOM      8  C   UNL     1       7.504  -3.486   3.512  1.00  0.00     0.205 C 
ATOM      9  C   UNL     1       9.552  -6.402   3.620  1.00  0.00     0.113 A 
ATOM     10  H   UNL     1       7.996  -2.569   5.424  1.00  0.00     0.163 HD
ATOM     11  H   UNL     1       6.776  -5.494   2.970  1.00  0.00     0.163 HD
ENDROOT
BRANCH   8  12
ATOM     12  C   UNL     1       6.113  -2.823   3.303  1.00  0.00    -0.003 A 
ATOM     13  C   UNL     1       3.709  -3.165   2.817  1.00  0.00     0.042 A 
ATOM     14  C   UNL     1       4.910  -3.521   3.554  1.00  0.00     0.028 A 
ATOM     15  C   UNL     1       3.615  -1.787   2.322  1.00  0.00     0.041 A 
ATOM     16  C   UNL     1       4.822  -0.974   2.429  1.00  0.00     0.042 A 
ATOM     17  C   UNL     1       6.101  -1.496   2.743  1.00  0.00     0.028 A 
ATOM     18  Cl  UNL     1       2.391  -3.994   2.754  1.00  0.00    -0.084 Cl
ATOM     19  Cl  UNL     1       4.655   0.684   2.049  1.00  0.00    -0.084 Cl
ENDBRANCH   8  12
BRANCH   7  20
ATOM     20  N   UNL     1      11.592  -7.575   4.038  1.00  0.00     0.062 N 
ATOM     21  O   UNL     1      11.186  -8.439   3.352  1.00  0.00    -0.258 OA
ATOM     22  O   UNL     1      12.851  -7.667   4.370  1.00  0.00    -0.258 OA
ENDBRANCH   7  20
TORSDOF 2
ENDMDL
MODEL 8
REMARK VINA RESULT:    -4.184      2.991      4.328
REMARK INTER + INTRA:          -4.988
REMARK INTER:                  -4.684
REMARK INTRA:                  -0.304
REMARK UNBOUND:                -0.314
REMARK SMILES O=[N+]([O-])c1ccc2c(c1)N[C@@H](c1cc(Cl)cc(Cl)c1)N2
REMARK SMILES IDX 7 1 8 2 5 3 6 4 20 5 10 6 4 7 11 8 9 9 12 12 14 13 13 14
REMARK SMILES IDX 16 15 17 16 19 17 15 18 18 19 2 20 3 21 1 22
REMARK H PARENT 20 10 10 11
ROOT
ATOM      1  C   UNL     1      10.747  -7.226   4.081  1.00  0.00     0.060 A 
ATOM      2  C   UNL     1      10.406  -7.343   2.754  1.00  0.00     0.066 A 
ATOM      3  C   UNL     1      12.431  -8.858   3.860  1.00  0.00     0.088 A 
ATOM      4  C   UNL     1      11.847  -7.766   4.559  1.00  0.00     0.035 A 
ATOM      5  N   UNL     1       9.898  -6.231   4.706  1.00  0.00    -0.360 N 
ATOM      6  N   UNL     1       9.389  -6.405   2.559  1.00  0.00    -0.360 N 
ATOM      7  C   UNL     1      12.012  -9.105   2.555  1.00  0.00     0.271 A 
ATOM      8  C   UNL     1       9.547  -5.475   3.618  1.00  0.00     0.205 C 
ATOM      9  C   UNL     1      10.982  -8.298   1.979  1.00  0.00     0.113 A 
ATOM     10  H   UNL     1       9.633  -6.121   5.695  1.00  0.00     0.163 HD
ATOM     11  H   UNL     1       8.682  -6.391   1.811  1.00  0.00     0.163 HD
ENDROOT
BRANCH   8  12
ATOM     12  C   UNL     1       8.397  -4.440   3.757  1.00  0.00    -0.003 A 
ATOM     13  C   UNL     1       6.140  -3.960   4.658  1.00  0.00     0.042 A 
ATOM     14  C   UNL     1       7.486  -4.479   4.837  1.00  0.00     0.028 A 
ATOM     15  C   UNL     1       5.958  -2.919   3.640  1.00  0.00     0.041 A 
ATOM     16  C   UNL     1       7.095  -2.659   2.764  1.00  0.00     0.042 A 
ATOM     17  C   UNL     1       8.236  -3.495   2.681  1.00  0.00     0.028 A 
ATOM     18  Cl  UNL     1       4.936  -4.176   5.624  1.00  0.00    -0.084 Cl
ATOM     19  Cl  UNL     1       6.957  -1.311   1.723  1.00  0.00    -0.084 Cl
ENDBRANCH   8  12
BRANCH   7  20
ATOM     20  N   UNL     1      12.607 -10.032   1.723  1.00  0.00     0.062 N 
ATOM     21  O   UNL     1      13.326  -9.681   0.862  1.00  0.00    -0.258 OA
ATOM     22  O   UNL     1      12.602 -11.315   1.963  1.00  0.00    -0.258 OA
ENDBRANCH   7  20
TORSDOF 2
ENDMDL
MODEL 9
REMARK VINA RESULT:    -4.177      3.387      4.364
REMARK INTER + INTRA:          -4.979
REMARK INTER:                  -4.676
REMARK INTRA:                  -0.303
REMARK UNBOUND:                -0.314
REMARK SMILES O=[N+]([O-])c1ccc2c(c1)N[C@@H](c1cc(Cl)cc(Cl)c1)N2
REMARK SMILES IDX 7 1 8 2 5 3 6 4 20 5 10 6 4 7 11 8 9 9 12 12 14 13 13 14
REMARK SMILES IDX 16 15 17 16 19 17 15 18 18 19 2 20 3 21 1 22
REMARK H PARENT 20 10 10 11
ROOT
ATOM      1  C   UNL     1      11.844  -2.957   5.953  1.00  0.00     0.060 A 
ATOM      2  C   UNL     1      11.054  -2.370   6.913  1.00  0.00     0.066 A 
ATOM      3  C   UNL     1      13.748  -2.801   7.332  1.00  0.00     0.088 A 
ATOM      4  C   UNL     1      13.063  -3.373   6.226  1.00  0.00     0.035 A 
ATOM      5  N   UNL     1      11.034  -3.271   4.793  1.00  0.00    -0.360 N 
ATOM      6  N   UNL     1       9.769  -2.360   6.364  1.00  0.00    -0.360 N 
ATOM      7  C   UNL     1      13.008  -2.074   8.261  1.00  0.00     0.271 A 
ATOM      8  C   UNL     1       9.794  -3.367   5.367  1.00  0.00     0.205 C 
ATOM      9  C   UNL     1      11.607  -1.878   8.052  1.00  0.00     0.113 A 
ATOM     10  H   UNL     1      11.313  -3.389   3.809  1.00  0.00     0.163 HD
ATOM     11  H   UNL     1       8.978  -1.754   6.627  1.00  0.00     0.163 HD
ENDROOT
BRANCH   8  12
ATOM     12  C   UNL     1       8.539  -3.413   4.451  1.00  0.00    -0.003 A 
ATOM     13  C   UNL     1       7.393  -2.484   2.462  1.00  0.00     0.042 A 
ATOM     14  C   UNL     1       8.590  -3.009   3.098  1.00  0.00     0.028 A 
ATOM     15  C   UNL     1       6.103  -2.931   2.999  1.00  0.00     0.041 A 
ATOM     16  C   UNL     1       6.144  -3.684   4.248  1.00  0.00     0.042 A 
ATOM     17  C   UNL     1       7.294  -3.790   5.069  1.00  0.00     0.028 A 
ATOM     18  Cl  UNL     1       7.331  -1.738   1.095  1.00  0.00    -0.084 Cl
ATOM     19  Cl  UNL     1       4.670  -4.381   4.761  1.00  0.00    -0.084 Cl
ENDBRANCH   8  12
BRANCH   7  20
ATOM     20  N   UNL     1      13.525  -1.602   9.451  1.00  0.00     0.062 N 
ATOM     21  O   UNL     1      13.917  -0.497   9.530  1.00  0.00    -0.258 OA
ATOM     22  O   UNL     1      13.407  -2.238  10.585  1.00  0.00    -0.258 OA
ENDBRANCH   7  20
TORSDOF 2
ENDMDL
