MODEL 1
REMARK VINA RESULT:    -4.197      0.000      0.000
REMARK INTER + INTRA:          -5.003
REMARK INTER:                  -4.688
REMARK INTRA:                  -0.315
REMARK UNBOUND:                -0.315
REMARK SMILES O=[N+]([O-])c1ccc2c(c1)N[C@@H](c1cc(Cl)cc(Cl)c1)N2
REMARK SMILES IDX 7 1 8 2 5 3 6 4 20 5 10 6 4 7 11 8 9 9 12 12 14 13 13 14
REMARK SMILES IDX 16 15 17 16 19 17 15 18 18 19 2 20 3 21 1 22
REMARK H PARENT 20 10 10 11
ROOT
ATOM      1  C   UNL     1       9.388   0.259   1.972  1.00  0.00     0.060 A 
ATOM      2  C   UNL     1       9.566   0.243   0.609  1.00  0.00     0.066 A 
ATOM      3  C   UNL     1      11.713   0.340   2.341  1.00  0.00     0.088 A 
ATOM      4  C   UNL     1      10.380   0.536   2.791  1.00  0.00     0.035 A 
ATOM      5  N   UNL     1       7.970   0.223   2.269  1.00  0.00    -0.360 N 
ATOM      6  N   UNL     1       8.274   0.235   0.076  1.00  0.00    -0.360 N 
ATOM      7  C   UNL     1      11.930   0.176   0.974  1.00  0.00     0.271 A 
ATOM      8  C   UNL     1       7.454   0.747   1.113  1.00  0.00     0.205 C 
ATOM      9  C   UNL     1      10.814   0.154   0.080  1.00  0.00     0.113 A 
ATOM     10  H   UNL     1       7.484  -0.106   3.115  1.00  0.00     0.163 HD
ATOM     11  H   UNL     1       7.983  -0.074  -0.862  1.00  0.00     0.163 HD
ENDROOT
BRANCH   8  12
ATOM     12  C   UNL     1       5.925   0.640   0.852  1.00  0.00    -0.003 A 
ATOM     13  C   UNL     1       3.644   0.846   1.794  1.00  0.00     0.042 A 
ATOM     14  C   UNL     1       4.986   1.373   1.612  1.00  0.00     0.028 A 
ATOM     15  C   UNL     1       3.135  -0.054   0.752  1.00  0.00     0.041 A 
ATOM     16  C   UNL     1       4.098  -0.500  -0.249  1.00  0.00     0.042 A 
ATOM     17  C   UNL     1       5.498  -0.320  -0.134  1.00  0.00     0.028 A 
ATOM     18  Cl  UNL     1       2.585   1.362   2.814  1.00  0.00    -0.084 Cl
ATOM     19  Cl  UNL     1       3.463  -1.374  -1.574  1.00  0.00    -0.084 Cl
ENDBRANCH   8  12
BRANCH   7  20
ATOM     20  N   UNL     1      13.183   0.131   0.398  1.00  0.00     0.062 N 
ATOM     21  O   UNL     1      13.323   0.399  -0.738  1.00  0.00    -0.258 OA
ATOM     22  O   UNL     1      14.285   0.023   1.089  1.00  0.00    -0.258 OA
ENDBRANCH   7  20
TORSDOF 2
ENDMDL
MODEL 2
REMARK VINA RESULT:    -4.194      1.219      2.780
REMARK INTER + INTRA:          -4.999
REMARK INTER:                  -4.684
REMARK INTRA:                  -0.315
REMARK UNBOUND:                -0.315
REMARK SMILES O=[N+]([O-])c1ccc2c(c1)N[C@@H](c1cc(Cl)cc(Cl)c1)N2
REMARK SMILES IDX 7 1 8 2 5 3 6 4 20 5 10 6 4 7 11 8 9 9 12 12 14 13 13 14
REMARK SMILES IDX 16 15 17 16 19 17 15 18 18 19 2 20 3 21 1 22
REMARK H PARENT 20 10 10 11
ROOT
ATOM      1  C   UNL     1       9.523   0.194   0.739  1.00  0.00     0.060 A 
ATOM      2  C   UNL     1       9.369   0.217   2.104  1.00  0.00     0.066 A 
ATOM      3  C   UNL     1      11.868   0.290   0.936  1.00  0.00     0.088 A 
ATOM      4  C   UNL     1      10.699  -0.003   0.183  1.00  0.00     0.035 A 
ATOM      5  N   UNL     1       8.218   0.126   0.111  1.00  0.00    -0.360 N 
ATOM      6  N   UNL     1       7.990   0.125   2.313  1.00  0.00    -0.360 N 
ATOM      7  C   UNL     1      11.739   0.463   2.312  1.00  0.00     0.271 A 
ATOM      8  C   UNL     1       7.481  -0.442   1.117  1.00  0.00     0.205 C 
ATOM      9  C   UNL     1      10.444   0.397   2.914  1.00  0.00     0.113 A 
ATOM     10  H   UNL     1       7.925   0.422  -0.831  1.00  0.00     0.163 HD
ATOM     11  H   UNL     1       7.461   0.407   3.151  1.00  0.00     0.163 HD
ENDROOT
BRANCH   8  12
ATOM     12  C   UNL     1       5.931  -0.450   1.005  1.00  0.00    -0.003 A 
ATOM     13  C   UNL     1       3.963  -0.805  -0.455  1.00  0.00     0.042 A 
ATOM     14  C   UNL     1       5.258  -1.236   0.043  1.00  0.00     0.028 A 
ATOM     15  C   UNL     1       3.154   0.037   0.433  1.00  0.00     0.041 A 
ATOM     16  C   UNL     1       3.813   0.534   1.636  1.00  0.00     0.042 A 
ATOM     17  C   UNL     1       5.210   0.459   1.860  1.00  0.00     0.028 A 
ATOM     18  Cl  UNL     1       3.219  -1.379  -1.700  1.00  0.00    -0.084 Cl
ATOM     19  Cl  UNL     1       2.817   1.336   2.770  1.00  0.00    -0.084 Cl
ENDBRANCH   8  12
BRANCH   7  20
ATOM     20  N   UNL     1      12.812   0.598   3.170  1.00  0.00     0.062 N 
ATOM     21  O   UNL     1      12.699   0.326   4.308  1.00  0.00    -0.258 OA
ATOM     22  O   UNL     1      14.034   0.803   2.761  1.00  0.00    -0.258 OA
ENDBRANCH   7  20
TORSDOF 2
ENDMDL
MODEL 3
REMARK VINA RESULT:    -3.922      3.784      4.803
REMARK INTER + INTRA:          -4.695
REMARK INTER:                  -4.389
REMARK INTRA:                  -0.307
REMARK UNBOUND:                -0.315
REMARK SMILES O=[N+]([O-])c1ccc2c(c1)N[C@@H](c1cc(Cl)cc(Cl)c1)N2
REMARK SMILES IDX 7 1 8 2 5 3 6 4 20 5 10 6 4 7 11 8 9 9 12 12 14 13 13 14
REMARK SMILES IDX 16 15 17 16 19 17 15 18 18 19 2 20 3 21 1 22
REMARK H PARENT 20 10 10 11
ROOT
ATOM      1  C   UNL     1      11.795   0.615   4.274  1.00  0.00     0.060 A 
ATOM      2  C   UNL     1      11.128  -0.419   4.886  1.00  0.00     0.066 A 
ATOM      3  C   UNL     1      13.624   0.391   5.741  1.00  0.00     0.088 A 
ATOM      4  C   UNL     1      13.065   0.855   4.519  1.00  0.00     0.035 A 
ATOM      5  N   UNL     1      10.984   1.131   3.189  1.00  0.00    -0.360 N 
ATOM      6  N   UNL     1       9.941  -0.562   4.163  1.00  0.00    -0.360 N 
ATOM      7  C   UNL     1      12.914  -0.558   6.473  1.00  0.00     0.271 A 
ATOM      8  C   UNL     1      10.211   0.035   2.905  1.00  0.00     0.205 C 
ATOM      9  C   UNL     1      11.633  -0.993   6.009  1.00  0.00     0.113 A 
ATOM     10  H   UNL     1      10.987   2.063   2.751  1.00  0.00     0.163 HD
ATOM     11  H   UNL     1       9.064  -1.003   4.475  1.00  0.00     0.163 HD
ENDROOT
BRANCH   8  12
ATOM     12  C   UNL     1       8.973   0.203   1.981  1.00  0.00    -0.003 A 
ATOM     13  C   UNL     1       7.126   1.678   1.242  1.00  0.00     0.042 A 
ATOM     14  C   UNL     1       8.531   1.475   1.551  1.00  0.00     0.028 A 
ATOM     15  C   UNL     1       6.362   0.501   0.810  1.00  0.00     0.041 A 
ATOM     16  C   UNL     1       7.029  -0.790   0.939  1.00  0.00     0.042 A 
ATOM     17  C   UNL     1       8.231  -0.990   1.661  1.00  0.00     0.028 A 
ATOM     18  Cl  UNL     1       6.420   3.052   1.034  1.00  0.00    -0.084 Cl
ATOM     19  Cl  UNL     1       6.225  -2.130   0.246  1.00  0.00    -0.084 Cl
ENDBRANCH   8  12
BRANCH   7  20
ATOM     20  N   UNL     1      13.415  -1.196   7.588  1.00  0.00     0.062 N 
ATOM     21  O   UNL     1      13.445  -0.643   8.625  1.00  0.00    -0.258 OA
ATOM     22  O   UNL     1      13.664  -2.477   7.628  1.00  0.00    -0.258 OA
ENDBRANCH   7  20
TORSDOF 2
ENDMDL
MODEL 4
REMARK VINA RESULT:    -3.797      0.615      2.087
REMARK INTER + INTRA:          -4.556
REMARK INTER:                  -4.257
REMARK INTRA:                  -0.299
REMARK UNBOUND:                -0.315
REMARK SMILES O=[N+]([O-])c1ccc2c(c1)N[C@@H](c1cc(Cl)cc(Cl)c1)N2
REMARK SMILES IDX 7 1 8 2 5 3 6 4 20 5 10 6 4 7 11 8 9 9 12 12 14 13 13 14
REMARK SMILES IDX 16 15 17 16 19 17 15 18 18 19 2 20 3 21 1 22
REMARK H PARENT 20 10 10 11
ROOT
ATOM      1  C   UNL     1       9.673   0.024   1.611  1.00  0.00     0.060 A 
ATOM      2  C   UNL     1       9.625   0.001   0.237  1.00  0.00     0.066 A 
ATOM      3  C   UNL     1      12.014   0.289   1.591  1.00  0.00     0.088 A 
ATOM      4  C   UNL     1      10.761   0.388   2.255  1.00  0.00     0.035 A 
ATOM      5  N   UNL     1       8.330  -0.117   2.138  1.00  0.00    -0.360 N 
ATOM      6  N   UNL     1       8.268  -0.114  -0.075  1.00  0.00    -0.360 N 
ATOM      7  C   UNL     1      12.015   0.122   0.208  1.00  0.00     0.271 A 
ATOM      8  C   UNL     1       7.591   0.349   1.082  1.00  0.00     0.205 C 
ATOM      9  C   UNL     1      10.773   0.001  -0.490  1.00  0.00     0.113 A 
ATOM     10  H   UNL     1       8.017  -0.470   3.054  1.00  0.00     0.163 HD
ATOM     11  H   UNL     1       7.852  -0.458  -0.951  1.00  0.00     0.163 HD
ENDROOT
BRANCH   8  12
ATOM     12  C   UNL     1       6.054   0.121   1.077  1.00  0.00    -0.003 A 
ATOM     13  C   UNL     1       4.075  -0.616  -0.216  1.00  0.00     0.042 A 
ATOM     14  C   UNL     1       5.445  -0.825   0.222  1.00  0.00     0.028 A 
ATOM     15  C   UNL     1       3.208   0.177   0.663  1.00  0.00     0.041 A 
ATOM     16  C   UNL     1       3.859   0.855   1.779  1.00  0.00     0.042 A 
ATOM     17  C   UNL     1       5.263   0.989   1.912  1.00  0.00     0.028 A 
ATOM     18  Cl  UNL     1       3.349  -1.385  -1.362  1.00  0.00    -0.084 Cl
ATOM     19  Cl  UNL     1       2.826   1.602   2.917  1.00  0.00    -0.084 Cl
ENDBRANCH   8  12
BRANCH   7  20
ATOM     20  N   UNL     1      13.155   0.165  -0.568  1.00  0.00     0.062 N 
ATOM     21  O   UNL     1      13.086   0.434  -1.710  1.00  0.00    -0.258 OA
ATOM     22  O   UNL     1      14.361   0.143  -0.068  1.00  0.00    -0.258 OA
ENDBRANCH   7  20
TORSDOF 2
ENDMDL
MODEL 5
REMARK VINA RESULT:    -3.797      1.650      2.260
REMARK INTER + INTRA:          -4.556
REMARK INTER:                  -4.256
REMARK INTRA:                  -0.299
REMARK UNBOUND:                -0.315
REMARK SMILES O=[N+]([O-])c1ccc2c(c1)N[C@@H](c1cc(Cl)cc(Cl)c1)N2
REMARK SMILES IDX 7 1 8 2 5 3 6 4 20 5 10 6 4 7 11 8 9 9 12 12 14 13 13 14
REMARK SMILES IDX 16 15 17 16 19 17 15 18 18 19 2 20 3 21 1 22
REMARK H PARENT 20 10 10 11
ROOT
ATOM      1  C   UNL     1       9.732   0.455   1.250  1.00  0.00     0.060 A 
ATOM      2  C   UNL     1       9.334   0.422   2.566  1.00  0.00     0.066 A 
ATOM      3  C   UNL     1      12.004   0.383   1.867  1.00  0.00     0.088 A 
ATOM      4  C   UNL     1      10.976   0.206   0.902  1.00  0.00     0.035 A 
ATOM      5  N   UNL     1       8.560   0.504   0.398  1.00  0.00    -0.360 N 
ATOM      6  N   UNL     1       7.938   0.413   2.521  1.00  0.00    -0.360 N 
ATOM      7  C   UNL     1      11.638   0.499   3.206  1.00  0.00     0.271 A 
ATOM      8  C   UNL     1       7.622  -0.060   1.222  1.00  0.00     0.205 C 
ATOM      9  C   UNL     1      10.254   0.491   3.563  1.00  0.00     0.113 A 
ATOM     10  H   UNL     1       8.460   0.864  -0.562  1.00  0.00     0.163 HD
ATOM     11  H   UNL     1       7.282   0.690   3.266  1.00  0.00     0.163 HD
ENDROOT
BRANCH   8  12
ATOM     12  C   UNL     1       6.120   0.040   0.835  1.00  0.00    -0.003 A 
ATOM     13  C   UNL     1       3.826   0.614   1.573  1.00  0.00     0.042 A 
ATOM     14  C   UNL     1       5.241   0.935   1.488  1.00  0.00     0.028 A 
ATOM     15  C   UNL     1       3.275  -0.250   0.522  1.00  0.00     0.041 A 
ATOM     16  C   UNL     1       4.238  -0.875  -0.378  1.00  0.00     0.042 A 
ATOM     17  C   UNL     1       5.636  -0.892  -0.151  1.00  0.00     0.028 A 
ATOM     18  Cl  UNL     1       2.777   1.322   2.482  1.00  0.00    -0.084 Cl
ATOM     19  Cl  UNL     1       3.589  -1.708  -1.722  1.00  0.00    -0.084 Cl
ENDBRANCH   8  12
BRANCH   7  20
ATOM     20  N   UNL     1      12.543   0.521   4.248  1.00  0.00     0.062 N 
ATOM     21  O   UNL     1      12.204   0.228   5.335  1.00  0.00    -0.258 OA
ATOM     22  O   UNL     1      13.832   0.634   4.074  1.00  0.00    -0.258 OA
ENDBRANCH   7  20
TORSDOF 2
ENDMDL
MODEL 6
REMARK VINA RESULT:    -3.517      5.115      7.578
REMARK INTER + INTRA:          -4.243
REMARK INTER:                  -3.943
REMARK INTRA:                  -0.300
REMARK UNBOUND:                -0.315
REMARK SMILES O=[N+]([O-])c1ccc2c(c1)N[C@@H](c1cc(Cl)cc(Cl)c1)N2
REMARK SMILES IDX 7 1 8 2 5 3 6 4 20 5 10 6 4 7 11 8 9 9 12 12 14 13 13 14
REMARK SMILES IDX 16 15 17 16 19 17 15 18 18 19 2 20 3 21 1 22
REMARK H PARENT 20 10 10 11
ROOT
ATOM      1  C   UNL     1       5.905  -0.612   0.154  1.00  0.00     0.060 A 
ATOM      2  C   UNL     1       5.699  -0.056   1.394  1.00  0.00     0.066 A 
ATOM      3  C   UNL     1       3.601  -0.541  -0.331  1.00  0.00     0.088 A 
ATOM      4  C   UNL     1       4.954  -0.633  -0.755  1.00  0.00     0.035 A 
ATOM      5  N   UNL     1       7.321  -0.858  -0.031  1.00  0.00    -0.360 N 
ATOM      6  N   UNL     1       6.976   0.073   1.948  1.00  0.00    -0.360 N 
ATOM      7  C   UNL     1       3.346  -0.117   0.971  1.00  0.00     0.271 A 
ATOM      8  C   UNL     1       7.854   0.061   0.835  1.00  0.00     0.205 C 
ATOM      9  C   UNL     1       4.438   0.159   1.851  1.00  0.00     0.113 A 
ATOM     10  H   UNL     1       7.796  -1.535  -0.644  1.00  0.00     0.163 HD
ATOM     11  H   UNL     1       7.224   0.157   2.944  1.00  0.00     0.163 HD
ENDROOT
BRANCH   8  12
ATOM     12  C   UNL     1       9.364  -0.027   1.193  1.00  0.00    -0.003 A 
ATOM     13  C   UNL     1      11.117   0.389   2.893  1.00  0.00     0.042 A 
ATOM     14  C   UNL     1       9.807  -0.129   2.531  1.00  0.00     0.028 A 
ATOM     15  C   UNL     1      12.131   0.436   1.833  1.00  0.00     0.041 A 
ATOM     16  C   UNL     1      11.667   0.162   0.477  1.00  0.00     0.042 A 
ATOM     17  C   UNL     1      10.301   0.101   0.106  1.00  0.00     0.028 A 
ATOM     18  Cl  UNL     1      11.645   0.620   4.341  1.00  0.00    -0.084 Cl
ATOM     19  Cl  UNL     1      12.877   0.010  -0.721  1.00  0.00    -0.084 Cl
ENDBRANCH   8  12
BRANCH   7  20
ATOM     20  N   UNL     1       2.082   0.159   1.452  1.00  0.00     0.062 N 
ATOM     21  O   UNL     1       1.131  -0.188   0.854  1.00  0.00    -0.258 OA
ATOM     22  O   UNL     1       1.856   0.597   2.661  1.00  0.00    -0.258 OA
ENDBRANCH   7  20
TORSDOF 2
ENDMDL
MODEL 7
REMARK VINA RESULT:    -3.478      5.105      7.779
REMARK INTER + INTRA:          -4.199
REMARK INTER:                  -3.882
REMARK INTRA:                  -0.317
REMARK UNBOUND:                -0.315
REMARK SMILES O=[N+]([O-])c1ccc2c(c1)N[C@@H](c1cc(Cl)cc(Cl)c1)N2
REMARK SMILES IDX 7 1 8 2 5 3 6 4 20 5 10 6 4 7 11 8 9 9 12 12 14 13 13 14
REMARK SMILES IDX 16 15 17 16 19 17 15 18 18 19 2 20 3 21 1 22
REMARK H PARENT 20 10 10 11
ROOT
ATOM      1  C   UNL     1       5.906  -0.395   0.143  1.00  0.00     0.060 A 
ATOM      2  C   UNL     1       5.644   0.261   1.322  1.00  0.00     0.066 A 
ATOM      3  C   UNL     1       3.608  -0.600  -0.332  1.00  0.00     0.088 A 
ATOM      4  C   UNL     1       4.965  -0.602  -0.753  1.00  0.00     0.035 A 
ATOM      5  N   UNL     1       7.340  -0.519  -0.026  1.00  0.00    -0.360 N 
ATOM      6  N   UNL     1       6.900   0.570   1.850  1.00  0.00    -0.360 N 
ATOM      7  C   UNL     1       3.308  -0.072   0.922  1.00  0.00     0.271 A 
ATOM      8  C   UNL     1       7.778   0.531   0.738  1.00  0.00     0.205 C 
ATOM      9  C   UNL     1       4.366   0.397   1.762  1.00  0.00     0.113 A 
ATOM     10  H   UNL     1       7.882  -1.206  -0.571  1.00  0.00     0.163 HD
ATOM     11  H   UNL     1       7.135   0.780   2.831  1.00  0.00     0.163 HD
ENDROOT
BRANCH   8  12
ATOM     12  C   UNL     1       9.288   0.628   1.093  1.00  0.00    -0.003 A 
ATOM     13  C   UNL     1      11.618   0.219   0.360  1.00  0.00     0.042 A 
ATOM     14  C   UNL     1      10.283   0.729   0.095  1.00  0.00     0.028 A 
ATOM     15  C   UNL     1      12.051   0.181   1.762  1.00  0.00     0.041 A 
ATOM     16  C   UNL     1      11.028   0.454   2.765  1.00  0.00     0.042 A 
ATOM     17  C   UNL     1       9.640   0.507   2.485  1.00  0.00     0.028 A 
ATOM     18  Cl  UNL     1      12.741  -0.011  -0.697  1.00  0.00    -0.084 Cl
ATOM     19  Cl  UNL     1      11.572   0.616   4.378  1.00  0.00    -0.084 Cl
ENDBRANCH   8  12
BRANCH   7  20
ATOM     20  N   UNL     1       2.022   0.126   1.382  1.00  0.00     0.062 N 
ATOM     21  O   UNL     1       1.102  -0.216   0.735  1.00  0.00    -0.258 OA
ATOM     22  O   UNL     1       1.746   0.478   2.608  1.00  0.00    -0.258 OA
ENDBRANCH   7  20
TORSDOF 2
ENDMDL
MODEL 8
REMARK VINA RESULT:    -3.458      4.967      7.402
REMARK INTER + INTRA:          -4.177
REMARK INTER:                  -3.860
REMARK INTRA:                  -0.317
REMARK UNBOUND:                -0.315
REMARK SMILES O=[N+]([O-])c1ccc2c(c1)N[C@@H](c1cc(Cl)cc(Cl)c1)N2
REMARK SMILES IDX 7 1 8 2 5 3 6 4 20 5 10 6 4 7 11 8 9 9 12 12 14 13 13 14
REMARK SMILES IDX 16 15 17 16 19 17 15 18 18 19 2 20 3 21 1 22
REMARK H PARENT 20 10 10 11
ROOT
ATOM      1  C   UNL     1       5.681   0.470   1.663  1.00  0.00     0.060 A 
ATOM      2  C   UNL     1       5.772  -0.139   0.435  1.00  0.00     0.066 A 
ATOM      3  C   UNL     1       3.328   0.470   1.561  1.00  0.00     0.088 A 
ATOM      4  C   UNL     1       4.536   0.555   2.305  1.00  0.00     0.035 A 
ATOM      5  N   UNL     1       7.014   0.696   2.185  1.00  0.00    -0.360 N 
ATOM      6  N   UNL     1       7.142  -0.321   0.223  1.00  0.00    -0.360 N 
ATOM      7  C   UNL     1       3.390  -0.011   0.255  1.00  0.00     0.271 A 
ATOM      8  C   UNL     1       7.716  -0.274   1.518  1.00  0.00     0.205 C 
ATOM      9  C   UNL     1       4.657  -0.351  -0.312  1.00  0.00     0.113 A 
ATOM     10  H   UNL     1       7.344   1.392   2.869  1.00  0.00     0.163 HD
ATOM     11  H   UNL     1       7.626  -0.458  -0.676  1.00  0.00     0.163 HD
ENDROOT
BRANCH   8  12
ATOM     12  C   UNL     1       9.270  -0.234   1.544  1.00  0.00    -0.003 A 
ATOM     13  C   UNL     1      11.304   0.375   2.818  1.00  0.00     0.042 A 
ATOM     14  C   UNL     1       9.995  -0.254   2.757  1.00  0.00     0.028 A 
ATOM     15  C   UNL     1      12.062   0.461   1.564  1.00  0.00     0.041 A 
ATOM     16  C   UNL     1      11.343   0.105   0.345  1.00  0.00     0.042 A 
ATOM     17  C   UNL     1       9.939  -0.073   0.278  1.00  0.00     0.028 A 
ATOM     18  Cl  UNL     1      12.109   0.696   4.113  1.00  0.00    -0.084 Cl
ATOM     19  Cl  UNL     1      12.277   0.004  -1.083  1.00  0.00    -0.084 Cl
ENDBRANCH   8  12
BRANCH   7  20
ATOM     20  N   UNL     1       2.277  -0.284  -0.514  1.00  0.00     0.062 N 
ATOM     21  O   UNL     1       1.205   0.011  -0.131  1.00  0.00    -0.258 OA
ATOM     22  O   UNL     1       2.344  -0.656  -1.763  1.00  0.00    -0.258 OA
ENDBRANCH   7  20
TORSDOF 2
ENDMDL
MODEL 9
REMARK VINA RESULT:    -2.708      5.101      7.443
REMARK INTER + INTRA:          -3.340
REMARK INTER:                  -3.043
REMARK INTRA:                  -0.296
REMARK UNBOUND:                -0.315
REMARK SMILES O=[N+]([O-])c1ccc2c(c1)N[C@@H](c1cc(Cl)cc(Cl)c1)N2
REMARK SMILES IDX 7 1 8 2 5 3 6 4 20 5 10 6 4 7 11 8 9 9 12 12 14 13 13 14
REMARK SMILES IDX 16 15 17 16 19 17 15 18 18 19 2 20 3 21 1 22
REMARK H PARENT 20 10 10 11
ROOT
ATOM      1  C   UNL     1       8.139   0.806   1.531  1.00  0.00     0.060 A 
ATOM      2  C   UNL     1       8.144  -0.566   1.447  1.00  0.00     0.066 A 
ATOM      3  C   UNL     1       6.133   0.940   0.304  1.00  0.00     0.088 A 
ATOM      4  C   UNL     1       7.080   1.512   1.195  1.00  0.00     0.035 A 
ATOM      5  N   UNL     1       9.301   1.243   2.280  1.00  0.00    -0.360 N 
ATOM      6  N   UNL     1       9.272  -0.968   2.167  1.00  0.00    -0.360 N 
ATOM      7  C   UNL     1       6.189  -0.433   0.075  1.00  0.00     0.271 A 
ATOM      8  C   UNL     1       9.559   0.123   3.026  1.00  0.00     0.205 C 
ATOM      9  C   UNL     1       7.217  -1.211   0.693  1.00  0.00     0.113 A 
ATOM     10  H   UNL     1       9.796   2.146   2.258  1.00  0.00     0.163 HD
ATOM     11  H   UNL     1       9.783  -1.859   2.090  1.00  0.00     0.163 HD
ENDROOT
BRANCH   8  12
ATOM     12  C   UNL     1      10.909   0.019   3.789  1.00  0.00    -0.003 A 
ATOM     13  C   UNL     1      12.054  -0.589   5.899  1.00  0.00     0.042 A 
ATOM     14  C   UNL     1      11.097  -0.897   4.849  1.00  0.00     0.028 A 
ATOM     15  C   UNL     1      13.172   0.293   5.544  1.00  0.00     0.041 A 
ATOM     16  C   UNL     1      13.098   0.945   4.241  1.00  0.00     0.042 A 
ATOM     17  C   UNL     1      11.933   0.968   3.434  1.00  0.00     0.028 A 
ATOM     18  Cl  UNL     1      12.186  -1.325   7.266  1.00  0.00    -0.084 Cl
ATOM     19  Cl  UNL     1      14.490   1.801   3.741  1.00  0.00    -0.084 Cl
ENDBRANCH   8  12
BRANCH   7  20
ATOM     20  N   UNL     1       5.238  -1.128  -0.644  1.00  0.00     0.062 N 
ATOM     21  O   UNL     1       5.107  -2.286  -0.490  1.00  0.00    -0.258 OA
ATOM     22  O   UNL     1       4.301  -0.546  -1.342  1.00  0.00    -0.258 OA
ENDBRANCH   7  20
TORSDOF 2
ENDMDL
