MODEL 1
REMARK VINA RESULT:    -4.237      0.000      0.000
REMARK INTER + INTRA:          -5.048
REMARK INTER:                  -4.732
REMARK INTRA:                  -0.315
REMARK UNBOUND:                -0.315
REMARK SMILES O=[N+]([O-])c1ccc2c(c1)N[C@@H](c1cc(Cl)cc(Cl)c1)N2
REMARK SMILES IDX 7 1 8 2 5 3 6 4 20 5 10 6 4 7 11 8 9 9 12 12 14 13 13 14
REMARK SMILES IDX 16 15 17 16 19 17 15 18 18 19 2 20 3 21 1 22
REMARK H PARENT 20 10 10 11
ROOT
ATOM      1  C   UNL     1       3.156   5.947  -9.236  1.00  0.00     0.060 A 
ATOM      2  C   UNL     1       2.442   6.938  -8.606  1.00  0.00     0.066 A 
ATOM      3  C   UNL     1       3.714   7.389 -11.014  1.00  0.00     0.088 A 
ATOM      4  C   UNL     1       3.948   6.211 -10.254  1.00  0.00     0.035 A 
ATOM      5  N   UNL     1       3.103   4.738  -8.438  1.00  0.00    -0.360 N 
ATOM      6  N   UNL     1       1.990   6.357  -7.419  1.00  0.00    -0.360 N 
ATOM      7  C   UNL     1       2.879   8.365 -10.476  1.00  0.00     0.271 A 
ATOM      8  C   UNL     1       2.865   5.264  -7.195  1.00  0.00     0.205 C 
ATOM      9  C   UNL     1       2.245   8.136  -9.215  1.00  0.00     0.113 A 
ATOM     10  H   UNL     1       3.214   3.755  -8.725  1.00  0.00     0.163 HD
ATOM     11  H   UNL     1       1.196   6.657  -6.835  1.00  0.00     0.163 HD
ENDROOT
BRANCH   8  12
ATOM     12  C   UNL     1       2.442   4.312  -6.042  1.00  0.00    -0.003 A 
ATOM     13  C   UNL     1       2.808   2.139  -4.911  1.00  0.00     0.042 A 
ATOM     14  C   UNL     1       3.334   3.361  -5.496  1.00  0.00     0.028 A 
ATOM     15  C   UNL     1       1.444   2.192  -4.373  1.00  0.00     0.041 A 
ATOM     16  C   UNL     1       0.674   3.396  -4.668  1.00  0.00     0.042 A 
ATOM     17  C   UNL     1       1.066   4.371  -5.618  1.00  0.00     0.028 A 
ATOM     18  Cl  UNL     1       3.634   0.874  -4.529  1.00  0.00    -0.084 Cl
ATOM     19  Cl  UNL     1      -0.830   3.549  -3.871  1.00  0.00    -0.084 Cl
ENDBRANCH   8  12
BRANCH   7  20
ATOM     20  N   UNL     1       2.695   9.611 -11.041  1.00  0.00     0.062 N 
ATOM     21  O   UNL     1       2.297  10.505 -10.389  1.00  0.00    -0.258 OA
ATOM     22  O   UNL     1       3.147   9.935 -12.222  1.00  0.00    -0.258 OA
ENDBRANCH   7  20
TORSDOF 2
ENDMDL
MODEL 2
REMARK VINA RESULT:    -4.233      1.066      2.700
REMARK INTER + INTRA:          -5.043
REMARK INTER:                  -4.727
REMARK INTRA:                  -0.316
REMARK UNBOUND:                -0.315
REMARK SMILES O=[N+]([O-])c1ccc2c(c1)N[C@@H](c1cc(Cl)cc(Cl)c1)N2
REMARK SMILES IDX 7 1 8 2 5 3 6 4 20 5 10 6 4 7 11 8 9 9 12 12 14 13 13 14
REMARK SMILES IDX 16 15 17 16 19 17 15 18 18 19 2 20 3 21 1 22
REMARK H PARENT 20 10 10 11
ROOT
ATOM      1  C   UNL     1       2.357   6.940  -8.545  1.00  0.00     0.060 A 
ATOM      2  C   UNL     1       3.111   6.021  -9.235  1.00  0.00     0.066 A 
ATOM      3  C   UNL     1       2.711   8.574 -10.205  1.00  0.00     0.088 A 
ATOM      4  C   UNL     1       1.973   8.070  -9.100  1.00  0.00     0.035 A 
ATOM      5  N   UNL     1       1.866   6.335  -7.323  1.00  0.00    -0.360 N 
ATOM      6  N   UNL     1       3.051   4.855  -8.467  1.00  0.00    -0.360 N 
ATOM      7  C   UNL     1       3.597   7.716 -10.852  1.00  0.00     0.271 A 
ATOM      8  C   UNL     1       1.889   5.009  -7.668  1.00  0.00     0.205 C 
ATOM      9  C   UNL     1       3.779   6.386 -10.360  1.00  0.00     0.113 A 
ATOM     10  H   UNL     1       1.579   6.779  -6.439  1.00  0.00     0.163 HD
ATOM     11  H   UNL     1       3.706   4.061  -8.478  1.00  0.00     0.163 HD
ENDROOT
BRANCH   8  12
ATOM     12  C   UNL     1       1.711   3.936  -6.558  1.00  0.00    -0.003 A 
ATOM     13  C   UNL     1       0.505   3.265  -4.502  1.00  0.00     0.042 A 
ATOM     14  C   UNL     1       0.492   3.781  -5.861  1.00  0.00     0.028 A 
ATOM     15  C   UNL     1       1.626   2.394  -4.131  1.00  0.00     0.041 A 
ATOM     16  C   UNL     1       2.724   2.305  -5.087  1.00  0.00     0.042 A 
ATOM     17  C   UNL     1       2.877   3.171  -6.198  1.00  0.00     0.028 A 
ATOM     18  Cl  UNL     1      -0.686   3.294  -3.497  1.00  0.00    -0.084 Cl
ATOM     19  Cl  UNL     1       3.925   1.136  -4.754  1.00  0.00    -0.084 Cl
ENDBRANCH   8  12
BRANCH   7  20
ATOM     20  N   UNL     1       4.254   8.035 -12.023  1.00  0.00     0.062 N 
ATOM     21  O   UNL     1       4.712   7.187 -12.696  1.00  0.00    -0.258 OA
ATOM     22  O   UNL     1       4.215   9.223 -12.564  1.00  0.00    -0.258 OA
ENDBRANCH   7  20
TORSDOF 2
ENDMDL
MODEL 3
REMARK VINA RESULT:    -3.915      4.973      7.642
REMARK INTER + INTRA:          -4.688
REMARK INTER:                  -4.389
REMARK INTRA:                  -0.299
REMARK UNBOUND:                -0.315
REMARK SMILES O=[N+]([O-])c1ccc2c(c1)N[C@@H](c1cc(Cl)cc(Cl)c1)N2
REMARK SMILES IDX 7 1 8 2 5 3 6 4 20 5 10 6 4 7 11 8 9 9 12 12 14 13 13 14
REMARK SMILES IDX 16 15 17 16 19 17 15 18 18 19 2 20 3 21 1 22
REMARK H PARENT 20 10 10 11
ROOT
ATOM      1  C   UNL     1       2.795   3.589  -6.353  1.00  0.00     0.060 A 
ATOM      2  C   UNL     1       1.820   4.405  -5.830  1.00  0.00     0.066 A 
ATOM      3  C   UNL     1       2.249   1.861  -4.848  1.00  0.00     0.088 A 
ATOM      4  C   UNL     1       2.854   2.309  -6.053  1.00  0.00     0.035 A 
ATOM      5  N   UNL     1       3.476   4.285  -7.426  1.00  0.00    -0.360 N 
ATOM      6  N   UNL     1       1.876   5.571  -6.597  1.00  0.00    -0.360 N 
ATOM      7  C   UNL     1       1.356   2.714  -4.202  1.00  0.00     0.271 A 
ATOM      8  C   UNL     1       2.508   5.179  -7.804  1.00  0.00     0.205 C 
ATOM      9  C   UNL     1       1.119   4.020  -4.732  1.00  0.00     0.113 A 
ATOM     10  H   UNL     1       4.425   4.147  -7.802  1.00  0.00     0.163 HD
ATOM     11  H   UNL     1       1.534   6.508  -6.342  1.00  0.00     0.163 HD
ENDROOT
BRANCH   8  12
ATOM     12  C   UNL     1       2.891   6.349  -8.753  1.00  0.00    -0.003 A 
ATOM     13  C   UNL     1       2.301   8.596  -9.611  1.00  0.00     0.042 A 
ATOM     14  C   UNL     1       2.483   7.678  -8.499  1.00  0.00     0.028 A 
ATOM     15  C   UNL     1       3.085   8.336 -10.824  1.00  0.00     0.041 A 
ATOM     16  C   UNL     1       3.804   7.067 -10.875  1.00  0.00     0.042 A 
ATOM     17  C   UNL     1       3.596   6.004  -9.962  1.00  0.00     0.028 A 
ATOM     18  Cl  UNL     1       1.595   9.984  -9.550  1.00  0.00    -0.084 Cl
ATOM     19  Cl  UNL     1       4.878   6.857 -12.187  1.00  0.00    -0.084 Cl
ENDBRANCH   8  12
BRANCH   7  20
ATOM     20  N   UNL     1       0.592   2.341  -3.115  1.00  0.00     0.062 N 
ATOM     21  O   UNL     1       0.939   1.459  -2.420  1.00  0.00    -0.258 OA
ATOM     22  O   UNL     1      -0.404   3.054  -2.662  1.00  0.00    -0.258 OA
ENDBRANCH   7  20
TORSDOF 2
ENDMDL
MODEL 4
REMARK VINA RESULT:    -3.872      5.123      7.586
REMARK INTER + INTRA:          -4.640
REMARK INTER:                  -4.341
REMARK INTRA:                  -0.299
REMARK UNBOUND:                -0.315
REMARK SMILES O=[N+]([O-])c1ccc2c(c1)N[C@@H](c1cc(Cl)cc(Cl)c1)N2
REMARK SMILES IDX 7 1 8 2 5 3 6 4 20 5 10 6 4 7 11 8 9 9 12 12 14 13 13 14
REMARK SMILES IDX 16 15 17 16 19 17 15 18 18 19 2 20 3 21 1 22
REMARK H PARENT 20 10 10 11
ROOT
ATOM      1  C   UNL     1       1.415   4.452  -5.969  1.00  0.00     0.060 A 
ATOM      2  C   UNL     1       2.304   3.538  -6.482  1.00  0.00     0.066 A 
ATOM      3  C   UNL     1       1.076   3.139  -4.043  1.00  0.00     0.088 A 
ATOM      4  C   UNL     1       1.006   4.387  -4.720  1.00  0.00     0.035 A 
ATOM      5  N   UNL     1       1.282   5.560  -6.894  1.00  0.00    -0.360 N 
ATOM      6  N   UNL     1       2.740   4.095  -7.687  1.00  0.00    -0.360 N 
ATOM      7  C   UNL     1       1.855   2.129  -4.602  1.00  0.00     0.271 A 
ATOM      8  C   UNL     1       2.478   5.483  -7.558  1.00  0.00     0.205 C 
ATOM      9  C   UNL     1       2.511   2.352  -5.852  1.00  0.00     0.113 A 
ATOM     10  H   UNL     1       0.504   6.223  -7.018  1.00  0.00     0.163 HD
ATOM     11  H   UNL     1       3.158   3.606  -8.491  1.00  0.00     0.163 HD
ENDROOT
BRANCH   8  12
ATOM     12  C   UNL     1       2.674   6.310  -8.859  1.00  0.00    -0.003 A 
ATOM     13  C   UNL     1       4.009   6.646 -10.918  1.00  0.00     0.042 A 
ATOM     14  C   UNL     1       3.306   5.765 -10.000  1.00  0.00     0.028 A 
ATOM     15  C   UNL     1       3.557   8.041 -10.981  1.00  0.00     0.041 A 
ATOM     16  C   UNL     1       2.595   8.459  -9.967  1.00  0.00     0.042 A 
ATOM     17  C   UNL     1       2.273   7.693  -8.819  1.00  0.00     0.028 A 
ATOM     18  Cl  UNL     1       4.986   6.203 -12.049  1.00  0.00    -0.084 Cl
ATOM     19  Cl  UNL     1       1.912  10.013 -10.166  1.00  0.00    -0.084 Cl
ENDBRANCH   8  12
BRANCH   7  20
ATOM     20  N   UNL     1       2.126   0.933  -3.969  1.00  0.00     0.062 N 
ATOM     21  O   UNL     1       1.361   0.483  -3.197  1.00  0.00    -0.258 OA
ATOM     22  O   UNL     1       3.090   0.132  -4.334  1.00  0.00    -0.258 OA
ENDBRANCH   7  20
TORSDOF 2
ENDMDL
MODEL 5
REMARK VINA RESULT:    -3.826      1.493      2.138
REMARK INTER + INTRA:          -4.588
REMARK INTER:                  -4.289
REMARK INTRA:                  -0.299
REMARK UNBOUND:                -0.315
REMARK SMILES O=[N+]([O-])c1ccc2c(c1)N[C@@H](c1cc(Cl)cc(Cl)c1)N2
REMARK SMILES IDX 7 1 8 2 5 3 6 4 20 5 10 6 4 7 11 8 9 9 12 12 14 13 13 14
REMARK SMILES IDX 16 15 17 16 19 17 15 18 18 19 2 20 3 21 1 22
REMARK H PARENT 20 10 10 11
ROOT
ATOM      1  C   UNL     1       2.875   6.836  -8.900  1.00  0.00     0.060 A 
ATOM      2  C   UNL     1       3.533   5.742  -9.410  1.00  0.00     0.066 A 
ATOM      3  C   UNL     1       3.350   8.103 -10.828  1.00  0.00     0.088 A 
ATOM      4  C   UNL     1       2.586   7.877  -9.652  1.00  0.00     0.035 A 
ATOM      5  N   UNL     1       2.349   6.509  -7.590  1.00  0.00    -0.360 N 
ATOM      6  N   UNL     1       3.379   4.745  -8.444  1.00  0.00    -0.360 N 
ATOM      7  C   UNL     1       4.147   7.065 -11.307  1.00  0.00     0.271 A 
ATOM      8  C   UNL     1       2.247   5.146  -7.689  1.00  0.00     0.205 C 
ATOM      9  C   UNL     1       4.215   5.835 -10.582  1.00  0.00     0.113 A 
ATOM     10  H   UNL     1       2.115   7.129  -6.802  1.00  0.00     0.163 HD
ATOM     11  H   UNL     1       3.959   3.905  -8.309  1.00  0.00     0.163 HD
ENDROOT
BRANCH   8  12
ATOM     12  C   UNL     1       1.989   4.313  -6.403  1.00  0.00    -0.003 A 
ATOM     13  C   UNL     1       2.635   2.343  -5.048  1.00  0.00     0.042 A 
ATOM     14  C   UNL     1       3.002   3.525  -5.810  1.00  0.00     0.028 A 
ATOM     15  C   UNL     1       1.305   2.337  -4.427  1.00  0.00     0.041 A 
ATOM     16  C   UNL     1       0.403   3.417  -4.811  1.00  0.00     0.042 A 
ATOM     17  C   UNL     1       0.640   4.297  -5.896  1.00  0.00     0.028 A 
ATOM     18  Cl  UNL     1       3.604   1.219  -4.574  1.00  0.00    -0.084 Cl
ATOM     19  Cl  UNL     1      -1.060   3.530  -3.935  1.00  0.00    -0.084 Cl
ENDBRANCH   8  12
BRANCH   7  20
ATOM     20  N   UNL     1       4.813   7.107 -12.515  1.00  0.00     0.062 N 
ATOM     21  O   UNL     1       5.165   6.111 -13.032  1.00  0.00    -0.258 OA
ATOM     22  O   UNL     1       4.893   8.181 -13.252  1.00  0.00    -0.258 OA
ENDBRANCH   7  20
TORSDOF 2
ENDMDL
MODEL 6
REMARK VINA RESULT:    -3.792      3.061      4.420
REMARK INTER + INTRA:          -4.551
REMARK INTER:                  -4.244
REMARK INTRA:                  -0.307
REMARK UNBOUND:                -0.315
REMARK SMILES O=[N+]([O-])c1ccc2c(c1)N[C@@H](c1cc(Cl)cc(Cl)c1)N2
REMARK SMILES IDX 7 1 8 2 5 3 6 4 20 5 10 6 4 7 11 8 9 9 12 12 14 13 13 14
REMARK SMILES IDX 16 15 17 16 19 17 15 18 18 19 2 20 3 21 1 22
REMARK H PARENT 20 10 10 11
ROOT
ATOM      1  C   UNL     1       1.799   9.987  -9.752  1.00  0.00     0.060 A 
ATOM      2  C   UNL     1       2.145  10.333  -8.468  1.00  0.00     0.066 A 
ATOM      3  C   UNL     1       1.839  12.241 -10.438  1.00  0.00     0.088 A 
ATOM      4  C   UNL     1       1.875  10.852 -10.741  1.00  0.00     0.035 A 
ATOM      5  N   UNL     1       1.649   8.548  -9.836  1.00  0.00    -0.360 N 
ATOM      6  N   UNL     1       2.245   9.119  -7.782  1.00  0.00    -0.360 N 
ATOM      7  C   UNL     1       2.045  12.633  -9.118  1.00  0.00     0.271 A 
ATOM      8  C   UNL     1       2.446   8.148  -8.796  1.00  0.00     0.205 C 
ATOM      9  C   UNL     1       2.230  11.640  -8.106  1.00  0.00     0.113 A 
ATOM     10  H   UNL     1       1.097   7.982 -10.496  1.00  0.00     0.163 HD
ATOM     11  H   UNL     1       2.186   8.964  -6.766  1.00  0.00     0.163 HD
ENDROOT
BRANCH   8  12
ATOM     12  C   UNL     1       2.372   6.672  -8.313  1.00  0.00    -0.003 A 
ATOM     13  C   UNL     1       0.943   4.684  -7.942  1.00  0.00     0.042 A 
ATOM     14  C   UNL     1       1.382   5.782  -8.787  1.00  0.00     0.028 A 
ATOM     15  C   UNL     1       1.899   4.184  -6.948  1.00  0.00     0.041 A 
ATOM     16  C   UNL     1       3.111   4.973  -6.758  1.00  0.00     0.042 A 
ATOM     17  C   UNL     1       3.296   6.278  -7.280  1.00  0.00     0.028 A 
ATOM     18  Cl  UNL     1      -0.314   3.792  -8.176  1.00  0.00    -0.084 Cl
ATOM     19  Cl  UNL     1       4.314   4.285  -5.758  1.00  0.00    -0.084 Cl
ENDBRANCH   8  12
BRANCH   7  20
ATOM     20  N   UNL     1       2.185  13.948  -8.723  1.00  0.00     0.062 N 
ATOM     21  O   UNL     1       1.245  14.651  -8.659  1.00  0.00    -0.258 OA
ATOM     22  O   UNL     1       3.279  14.423  -8.192  1.00  0.00    -0.258 OA
ENDBRANCH   7  20
TORSDOF 2
ENDMDL
MODEL 7
REMARK VINA RESULT:    -3.773      0.527      2.062
REMARK INTER + INTRA:          -4.530
REMARK INTER:                  -4.232
REMARK INTRA:                  -0.298
REMARK UNBOUND:                -0.315
REMARK SMILES O=[N+]([O-])c1ccc2c(c1)N[C@@H](c1cc(Cl)cc(Cl)c1)N2
REMARK SMILES IDX 7 1 8 2 5 3 6 4 20 5 10 6 4 7 11 8 9 9 12 12 14 13 13 14
REMARK SMILES IDX 16 15 17 16 19 17 15 18 18 19 2 20 3 21 1 22
REMARK H PARENT 20 10 10 11
ROOT
ATOM      1  C   UNL     1       2.873   6.201  -9.356  1.00  0.00     0.060 A 
ATOM      2  C   UNL     1       2.152   7.064  -8.566  1.00  0.00     0.066 A 
ATOM      3  C   UNL     1       3.406   7.927 -10.868  1.00  0.00     0.088 A 
ATOM      4  C   UNL     1       3.656   6.641 -10.318  1.00  0.00     0.035 A 
ATOM      5  N   UNL     1       2.836   4.875  -8.773  1.00  0.00    -0.360 N 
ATOM      6  N   UNL     1       1.712   6.288  -7.491  1.00  0.00    -0.360 N 
ATOM      7  C   UNL     1       2.565   8.790 -10.171  1.00  0.00     0.271 A 
ATOM      8  C   UNL     1       2.599   5.182  -7.458  1.00  0.00     0.205 C 
ATOM      9  C   UNL     1       1.940   8.346  -8.964  1.00  0.00     0.113 A 
ATOM     10  H   UNL     1       2.955   3.956  -9.221  1.00  0.00     0.163 HD
ATOM     11  H   UNL     1       0.919   6.476  -6.862  1.00  0.00     0.163 HD
ENDROOT
BRANCH   8  12
ATOM     12  C   UNL     1       2.193   4.045  -6.479  1.00  0.00    -0.003 A 
ATOM     13  C   UNL     1       0.659   3.314  -4.678  1.00  0.00     0.042 A 
ATOM     14  C   UNL     1       0.877   3.931  -5.976  1.00  0.00     0.028 A 
ATOM     15  C   UNL     1       1.655   2.335  -4.228  1.00  0.00     0.041 A 
ATOM     16  C   UNL     1       2.873   2.236  -5.025  1.00  0.00     0.042 A 
ATOM     17  C   UNL     1       3.243   3.169  -6.025  1.00  0.00     0.028 A 
ATOM     18  Cl  UNL     1      -0.662   3.358  -3.851  1.00  0.00    -0.084 Cl
ATOM     19  Cl  UNL     1       3.936   0.957  -4.628  1.00  0.00    -0.084 Cl
ENDBRANCH   8  12
BRANCH   7  20
ATOM     20  N   UNL     1       2.365  10.111 -10.518  1.00  0.00     0.062 N 
ATOM     21  O   UNL     1       2.215  10.927  -9.685  1.00  0.00    -0.258 OA
ATOM     22  O   UNL     1       2.552  10.570 -11.726  1.00  0.00    -0.258 OA
ENDBRANCH   7  20
TORSDOF 2
ENDMDL
MODEL 8
REMARK VINA RESULT:    -3.764      3.745      4.778
REMARK INTER + INTRA:          -4.520
REMARK INTER:                  -4.213
REMARK INTRA:                  -0.307
REMARK UNBOUND:                -0.315
REMARK SMILES O=[N+]([O-])c1ccc2c(c1)N[C@@H](c1cc(Cl)cc(Cl)c1)N2
REMARK SMILES IDX 7 1 8 2 5 3 6 4 20 5 10 6 4 7 11 8 9 9 12 12 14 13 13 14
REMARK SMILES IDX 16 15 17 16 19 17 15 18 18 19 2 20 3 21 1 22
REMARK H PARENT 20 10 10 11
ROOT
ATOM      1  C   UNL     1       4.872   6.435 -12.077  1.00  0.00     0.060 A 
ATOM      2  C   UNL     1       4.281   5.240 -12.411  1.00  0.00     0.066 A 
ATOM      3  C   UNL     1       5.617   6.760 -14.288  1.00  0.00     0.088 A 
ATOM      4  C   UNL     1       5.305   7.269 -12.998  1.00  0.00     0.035 A 
ATOM      5  N   UNL     1       4.658   6.697 -10.668  1.00  0.00    -0.360 N 
ATOM      6  N   UNL     1       3.679   4.793 -11.232  1.00  0.00    -0.360 N 
ATOM      7  C   UNL     1       5.158   5.488 -14.623  1.00  0.00     0.271 A 
ATOM      8  C   UNL     1       3.525   5.960 -10.441  1.00  0.00     0.205 C 
ATOM      9  C   UNL     1       4.443   4.717 -13.654  1.00  0.00     0.113 A 
ATOM     10  H   UNL     1       5.205   7.278 -10.016  1.00  0.00     0.163 HD
ATOM     11  H   UNL     1       3.408   3.830 -10.990  1.00  0.00     0.163 HD
ENDROOT
BRANCH   8  12
ATOM     12  C   UNL     1       3.071   5.704  -8.977  1.00  0.00    -0.003 A 
ATOM     13  C   UNL     1       3.767   5.282  -6.638  1.00  0.00     0.042 A 
ATOM     14  C   UNL     1       3.891   6.036  -7.874  1.00  0.00     0.028 A 
ATOM     15  C   UNL     1       2.468   4.657  -6.366  1.00  0.00     0.041 A 
ATOM     16  C   UNL     1       1.499   4.669  -7.457  1.00  0.00     0.042 A 
ATOM     17  C   UNL     1       1.818   5.018  -8.793  1.00  0.00     0.028 A 
ATOM     18  Cl  UNL     1       4.762   5.315  -5.438  1.00  0.00    -0.084 Cl
ATOM     19  Cl  UNL     1      -0.077   4.131  -7.076  1.00  0.00    -0.084 Cl
ENDBRANCH   8  12
BRANCH   7  20
ATOM     20  N   UNL     1       5.261   4.945 -15.888  1.00  0.00     0.062 N 
ATOM     21  O   UNL     1       6.314   4.666 -16.329  1.00  0.00    -0.258 OA
ATOM     22  O   UNL     1       4.235   4.504 -16.563  1.00  0.00    -0.258 OA
ENDBRANCH   7  20
TORSDOF 2
ENDMDL
MODEL 9
REMARK VINA RESULT:    -3.498     10.350     11.080
REMARK INTER + INTRA:          -4.222
REMARK INTER:                  -3.923
REMARK INTRA:                  -0.299
REMARK UNBOUND:                -0.315
REMARK SMILES O=[N+]([O-])c1ccc2c(c1)N[C@@H](c1cc(Cl)cc(Cl)c1)N2
REMARK SMILES IDX 7 1 8 2 5 3 6 4 20 5 10 6 4 7 11 8 9 9 12 12 14 13 13 14
REMARK SMILES IDX 16 15 17 16 19 17 15 18 18 19 2 20 3 21 1 22
REMARK H PARENT 20 10 10 11
ROOT
ATOM      1  C   UNL     1       4.181   9.132 -16.491  1.00  0.00     0.060 A 
ATOM      2  C   UNL     1       5.404   9.218 -15.868  1.00  0.00     0.066 A 
ATOM      3  C   UNL     1       4.646   6.949 -17.245  1.00  0.00     0.088 A 
ATOM      4  C   UNL     1       3.722   7.987 -16.947  1.00  0.00     0.035 A 
ATOM      5  N   UNL     1       3.451  10.367 -16.283  1.00  0.00    -0.360 N 
ATOM      6  N   UNL     1       5.408  10.473 -15.254  1.00  0.00    -0.360 N 
ATOM      7  C   UNL     1       5.944   7.062 -16.752  1.00  0.00     0.271 A 
ATOM      8  C   UNL     1       4.038  10.819 -15.131  1.00  0.00     0.205 C 
ATOM      9  C   UNL     1       6.322   8.228 -16.016  1.00  0.00     0.113 A 
ATOM     10  H   UNL     1       2.698  10.788 -16.846  1.00  0.00     0.163 HD
ATOM     11  H   UNL     1       6.225  11.025 -14.956  1.00  0.00     0.163 HD
ENDROOT
BRANCH   8  12
ATOM     12  C   UNL     1       3.771  12.279 -14.670  1.00  0.00    -0.003 A 
ATOM     13  C   UNL     1       4.279  14.057 -13.022  1.00  0.00     0.042 A 
ATOM     14  C   UNL     1       4.725  13.014 -13.931  1.00  0.00     0.028 A 
ATOM     15  C   UNL     1       2.998  14.704 -13.328  1.00  0.00     0.041 A 
ATOM     16  C   UNL     1       2.199  14.096 -14.386  1.00  0.00     0.042 A 
ATOM     17  C   UNL     1       2.463  12.820 -14.942  1.00  0.00     0.028 A 
ATOM     18  Cl  UNL     1       5.146  14.761 -11.935  1.00  0.00    -0.084 Cl
ATOM     19  Cl  UNL     1       0.814  14.965 -14.884  1.00  0.00    -0.084 Cl
ENDBRANCH   8  12
BRANCH   7  20
ATOM     20  N   UNL     1       6.886   6.058 -16.841  1.00  0.00     0.062 N 
ATOM     21  O   UNL     1       8.032   6.311 -16.772  1.00  0.00    -0.258 OA
ATOM     22  O   UNL     1       6.588   4.788 -16.777  1.00  0.00    -0.258 OA
ENDBRANCH   7  20
TORSDOF 2
ENDMDL
