MODEL 1
REMARK VINA RESULT:    -4.092      0.000      0.000
REMARK INTER + INTRA:          -4.885
REMARK INTER:                  -4.570
REMARK INTRA:                  -0.315
REMARK UNBOUND:                -0.315
REMARK SMILES O=[N+]([O-])c1ccc2c(c1)N[C@@H](c1cc(Cl)cc(Cl)c1)N2
REMARK SMILES IDX 7 1 8 2 5 3 6 4 20 5 10 6 4 7 11 8 9 9 12 12 14 13 13 14
REMARK SMILES IDX 16 15 17 16 19 17 15 18 18 19 2 20 3 21 1 22
REMARK H PARENT 20 10 10 11
ROOT
ATOM      1  C   UNL     1       9.646   7.094   3.319  1.00  0.00     0.060 A 
ATOM      2  C   UNL     1       8.781   8.131   3.061  1.00  0.00     0.066 A 
ATOM      3  C   UNL     1      11.260   8.571   4.193  1.00  0.00     0.088 A 
ATOM      4  C   UNL     1      10.720   7.263   4.060  1.00  0.00     0.035 A 
ATOM      5  N   UNL     1       9.031   5.847   2.912  1.00  0.00    -0.360 N 
ATOM      6  N   UNL     1       7.636   7.525   2.539  1.00  0.00    -0.360 N 
ATOM      7  C   UNL     1      10.470   9.652   3.809  1.00  0.00     0.271 A 
ATOM      8  C   UNL     1       7.704   6.181   2.986  1.00  0.00     0.205 C 
ATOM      9  C   UNL     1       9.175   9.418   3.249  1.00  0.00     0.113 A 
ATOM     10  H   UNL     1       9.469   4.955   2.641  1.00  0.00     0.163 HD
ATOM     11  H   UNL     1       6.904   7.958   1.958  1.00  0.00     0.163 HD
ENDROOT
BRANCH   8  12
ATOM     12  C   UNL     1       6.649   5.228   2.357  1.00  0.00    -0.003 A 
ATOM     13  C   UNL     1       5.869   2.893   2.086  1.00  0.00     0.042 A 
ATOM     14  C   UNL     1       6.339   3.976   2.934  1.00  0.00     0.028 A 
ATOM     15  C   UNL     1       5.181   3.269   0.845  1.00  0.00     0.041 A 
ATOM     16  C   UNL     1       5.225   4.681   0.480  1.00  0.00     0.042 A 
ATOM     17  C   UNL     1       6.072   5.632   1.100  1.00  0.00     0.028 A 
ATOM     18  Cl  UNL     1       5.754   1.392   2.491  1.00  0.00    -0.084 Cl
ATOM     19  Cl  UNL     1       4.253   5.151  -0.845  1.00  0.00    -0.084 Cl
ENDBRANCH   8  12
BRANCH   7  20
ATOM     20  N   UNL     1      10.817  10.969   4.029  1.00  0.00     0.062 N 
ATOM     21  O   UNL     1       9.988  11.803   4.064  1.00  0.00    -0.258 OA
ATOM     22  O   UNL     1      12.003  11.340   4.429  1.00  0.00    -0.258 OA
ENDBRANCH   7  20
TORSDOF 2
ENDMDL
MODEL 2
REMARK VINA RESULT:    -4.032      1.356      2.826
REMARK INTER + INTRA:          -4.818
REMARK INTER:                  -4.503
REMARK INTRA:                  -0.315
REMARK UNBOUND:                -0.315
REMARK SMILES O=[N+]([O-])c1ccc2c(c1)N[C@@H](c1cc(Cl)cc(Cl)c1)N2
REMARK SMILES IDX 7 1 8 2 5 3 6 4 20 5 10 6 4 7 11 8 9 9 12 12 14 13 13 14
REMARK SMILES IDX 16 15 17 16 19 17 15 18 18 19 2 20 3 21 1 22
REMARK H PARENT 20 10 10 11
ROOT
ATOM      1  C   UNL     1       8.914   8.167   2.903  1.00  0.00     0.060 A 
ATOM      2  C   UNL     1       9.740   7.106   3.188  1.00  0.00     0.066 A 
ATOM      3  C   UNL     1      10.422   9.689   3.882  1.00  0.00     0.088 A 
ATOM      4  C   UNL     1       9.327   9.411   3.020  1.00  0.00     0.035 A 
ATOM      5  N   UNL     1       7.728   7.682   2.225  1.00  0.00    -0.360 N 
ATOM      6  N   UNL     1       9.089   5.990   2.656  1.00  0.00    -0.360 N 
ATOM      7  C   UNL     1      11.208   8.623   4.314  1.00  0.00     0.271 A 
ATOM      8  C   UNL     1       8.205   6.518   1.681  1.00  0.00     0.205 C 
ATOM      9  C   UNL     1      10.865   7.290   3.927  1.00  0.00     0.113 A 
ATOM     10  H   UNL     1       6.788   8.097   2.166  1.00  0.00     0.163 HD
ATOM     11  H   UNL     1       9.222   5.002   2.916  1.00  0.00     0.163 HD
ENDROOT
BRANCH   8  12
ATOM     12  C   UNL     1       7.198   5.493   1.088  1.00  0.00    -0.003 A 
ATOM     13  C   UNL     1       5.187   5.141  -0.314  1.00  0.00     0.042 A 
ATOM     14  C   UNL     1       6.490   5.752  -0.107  1.00  0.00     0.028 A 
ATOM     15  C   UNL     1       4.928   3.874   0.380  1.00  0.00     0.041 A 
ATOM     16  C   UNL     1       5.914   3.463   1.374  1.00  0.00     0.042 A 
ATOM     17  C   UNL     1       6.940   4.308   1.865  1.00  0.00     0.028 A 
ATOM     18  Cl  UNL     1       4.156   5.528  -1.417  1.00  0.00    -0.084 Cl
ATOM     19  Cl  UNL     1       5.722   1.896   2.028  1.00  0.00    -0.084 Cl
ENDBRANCH   8  12
BRANCH   7  20
ATOM     20  N   UNL     1      12.382   8.776   5.023  1.00  0.00     0.062 N 
ATOM     21  O   UNL     1      12.741   9.846   5.352  1.00  0.00    -0.258 OA
ATOM     22  O   UNL     1      13.029   7.777   5.559  1.00  0.00    -0.258 OA
ENDBRANCH   7  20
TORSDOF 2
ENDMDL
MODEL 3
REMARK VINA RESULT:    -3.998      3.196      4.647
REMARK INTER + INTRA:          -4.780
REMARK INTER:                  -4.477
REMARK INTRA:                  -0.303
REMARK UNBOUND:                -0.315
REMARK SMILES O=[N+]([O-])c1ccc2c(c1)N[C@@H](c1cc(Cl)cc(Cl)c1)N2
REMARK SMILES IDX 7 1 8 2 5 3 6 4 20 5 10 6 4 7 11 8 9 9 12 12 14 13 13 14
REMARK SMILES IDX 16 15 17 16 19 17 15 18 18 19 2 20 3 21 1 22
REMARK H PARENT 20 10 10 11
ROOT
ATOM      1  C   UNL     1       9.627  11.648   3.461  1.00  0.00     0.060 A 
ATOM      2  C   UNL     1       8.304  11.674   3.833  1.00  0.00     0.066 A 
ATOM      3  C   UNL     1       9.969  13.829   4.284  1.00  0.00     0.088 A 
ATOM      4  C   UNL     1      10.475  12.565   3.873  1.00  0.00     0.035 A 
ATOM      5  N   UNL     1       9.926  10.370   2.847  1.00  0.00    -0.360 N 
ATOM      6  N   UNL     1       7.807  10.415   3.486  1.00  0.00    -0.360 N 
ATOM      7  C   UNL     1       8.604  13.941   4.537  1.00  0.00     0.271 A 
ATOM      8  C   UNL     1       8.954   9.584   3.408  1.00  0.00     0.205 C 
ATOM      9  C   UNL     1       7.752  12.812   4.327  1.00  0.00     0.113 A 
ATOM     10  H   UNL     1      10.665  10.120   2.174  1.00  0.00     0.163 HD
ATOM     11  H   UNL     1       6.825  10.149   3.324  1.00  0.00     0.163 HD
ENDROOT
BRANCH   8  12
ATOM     12  C   UNL     1       8.696   8.167   2.822  1.00  0.00    -0.003 A 
ATOM     13  C   UNL     1       8.433   6.786   0.784  1.00  0.00     0.042 A 
ATOM     14  C   UNL     1       9.154   7.798   1.537  1.00  0.00     0.028 A 
ATOM     15  C   UNL     1       7.675   5.795   1.555  1.00  0.00     0.041 A 
ATOM     16  C   UNL     1       7.543   6.048   2.986  1.00  0.00     0.042 A 
ATOM     17  C   UNL     1       7.881   7.276   3.607  1.00  0.00     0.028 A 
ATOM     18  Cl  UNL     1       8.617   6.463  -0.730  1.00  0.00    -0.084 Cl
ATOM     19  Cl  UNL     1       6.844   4.795   3.915  1.00  0.00    -0.084 Cl
ENDBRANCH   8  12
BRANCH   7  20
ATOM     20  N   UNL     1       8.017  15.063   5.084  1.00  0.00     0.062 N 
ATOM     21  O   UNL     1       7.662  15.945   4.392  1.00  0.00    -0.258 OA
ATOM     22  O   UNL     1       7.617  15.129   6.325  1.00  0.00    -0.258 OA
ENDBRANCH   7  20
TORSDOF 2
ENDMDL
MODEL 4
REMARK VINA RESULT:    -3.835      0.738      2.142
REMARK INTER + INTRA:          -4.598
REMARK INTER:                  -4.299
REMARK INTRA:                  -0.300
REMARK UNBOUND:                -0.315
REMARK SMILES O=[N+]([O-])c1ccc2c(c1)N[C@@H](c1cc(Cl)cc(Cl)c1)N2
REMARK SMILES IDX 7 1 8 2 5 3 6 4 20 5 10 6 4 7 11 8 9 9 12 12 14 13 13 14
REMARK SMILES IDX 16 15 17 16 19 17 15 18 18 19 2 20 3 21 1 22
REMARK H PARENT 20 10 10 11
ROOT
ATOM      1  C   UNL     1       9.555   7.743   3.032  1.00  0.00     0.060 A 
ATOM      2  C   UNL     1       8.535   8.596   2.683  1.00  0.00     0.066 A 
ATOM      3  C   UNL     1      10.794   9.509   3.979  1.00  0.00     0.088 A 
ATOM      4  C   UNL     1      10.519   8.121   3.845  1.00  0.00     0.035 A 
ATOM      5  N   UNL     1       9.216   6.397   2.617  1.00  0.00    -0.360 N 
ATOM      6  N   UNL     1       7.566   7.778   2.096  1.00  0.00    -0.360 N 
ATOM      7  C   UNL     1       9.849  10.417   3.507  1.00  0.00     0.271 A 
ATOM      8  C   UNL     1       7.848   6.477   2.585  1.00  0.00     0.205 C 
ATOM      9  C   UNL     1       8.668   9.936   2.861  1.00  0.00     0.113 A 
ATOM     10  H   UNL     1       9.832   5.599   2.406  1.00  0.00     0.163 HD
ATOM     11  H   UNL     1       6.814   8.058   1.451  1.00  0.00     0.163 HD
ENDROOT
BRANCH   8  12
ATOM     12  C   UNL     1       7.040   5.334   1.909  1.00  0.00    -0.003 A 
ATOM     13  C   UNL     1       5.271   4.729   0.285  1.00  0.00     0.042 A 
ATOM     14  C   UNL     1       6.463   5.487   0.628  1.00  0.00     0.028 A 
ATOM     15  C   UNL     1       5.066   3.456   0.985  1.00  0.00     0.041 A 
ATOM     16  C   UNL     1       5.960   3.179   2.105  1.00  0.00     0.042 A 
ATOM     17  C   UNL     1       6.818   4.143   2.688  1.00  0.00     0.028 A 
ATOM     18  Cl  UNL     1       4.349   4.975  -0.947  1.00  0.00    -0.084 Cl
ATOM     19  Cl  UNL     1       5.861   1.613   2.784  1.00  0.00    -0.084 Cl
ENDBRANCH   8  12
BRANCH   7  20
ATOM     20  N   UNL     1       9.927  11.779   3.714  1.00  0.00     0.062 N 
ATOM     21  O   UNL     1       9.007  12.470   3.473  1.00  0.00    -0.258 OA
ATOM     22  O   UNL     1      10.896  12.348   4.380  1.00  0.00    -0.258 OA
ENDBRANCH   7  20
TORSDOF 2
ENDMDL
MODEL 5
REMARK VINA RESULT:    -3.825      1.663      2.271
REMARK INTER + INTRA:          -4.586
REMARK INTER:                  -4.287
REMARK INTRA:                  -0.300
REMARK UNBOUND:                -0.315
REMARK SMILES O=[N+]([O-])c1ccc2c(c1)N[C@@H](c1cc(Cl)cc(Cl)c1)N2
REMARK SMILES IDX 7 1 8 2 5 3 6 4 20 5 10 6 4 7 11 8 9 9 12 12 14 13 13 14
REMARK SMILES IDX 16 15 17 16 19 17 15 18 18 19 2 20 3 21 1 22
REMARK H PARENT 20 10 10 11
ROOT
ATOM      1  C   UNL     1       9.231   7.844   3.386  1.00  0.00     0.060 A 
ATOM      2  C   UNL     1       9.935   6.671   3.513  1.00  0.00     0.066 A 
ATOM      3  C   UNL     1      11.051   9.100   4.198  1.00  0.00     0.088 A 
ATOM      4  C   UNL     1       9.823   9.015   3.489  1.00  0.00     0.035 A 
ATOM      5  N   UNL     1       7.910   7.556   2.863  1.00  0.00    -0.360 N 
ATOM      6  N   UNL     1       9.072   5.679   3.038  1.00  0.00    -0.360 N 
ATOM      7  C   UNL     1      11.735   7.918   4.477  1.00  0.00     0.271 A 
ATOM      8  C   UNL     1       8.146   6.371   2.217  1.00  0.00     0.205 C 
ATOM      9  C   UNL     1      11.163   6.665   4.094  1.00  0.00     0.113 A 
ATOM     10  H   UNL     1       7.036   8.093   2.952  1.00  0.00     0.163 HD
ATOM     11  H   UNL     1       9.102   4.670   3.241  1.00  0.00     0.163 HD
ENDROOT
BRANCH   8  12
ATOM     12  C   UNL     1       6.938   5.521   1.734  1.00  0.00    -0.003 A 
ATOM     13  C   UNL     1       5.851   3.296   1.705  1.00  0.00     0.042 A 
ATOM     14  C   UNL     1       6.512   4.367   2.431  1.00  0.00     0.028 A 
ATOM     15  C   UNL     1       5.131   3.665   0.481  1.00  0.00     0.041 A 
ATOM     16  C   UNL     1       5.328   5.028  -0.003  1.00  0.00     0.042 A 
ATOM     17  C   UNL     1       6.330   5.902   0.485  1.00  0.00     0.028 A 
ATOM     18  Cl  UNL     1       5.575   1.858   2.240  1.00  0.00    -0.084 Cl
ATOM     19  Cl  UNL     1       4.332   5.521  -1.301  1.00  0.00    -0.084 Cl
ENDBRANCH   8  12
BRANCH   7  20
ATOM     20  N   UNL     1      13.002   7.878   5.020  1.00  0.00     0.062 N 
ATOM     21  O   UNL     1      13.609   6.871   5.035  1.00  0.00    -0.258 OA
ATOM     22  O   UNL     1      13.683   8.948   5.329  1.00  0.00    -0.258 OA
ENDBRANCH   7  20
TORSDOF 2
ENDMDL
MODEL 6
REMARK VINA RESULT:    -3.790      5.116      7.807
REMARK INTER + INTRA:          -4.547
REMARK INTER:                  -4.231
REMARK INTRA:                  -0.316
REMARK UNBOUND:                -0.315
REMARK SMILES O=[N+]([O-])c1ccc2c(c1)N[C@@H](c1cc(Cl)cc(Cl)c1)N2
REMARK SMILES IDX 7 1 8 2 5 3 6 4 20 5 10 6 4 7 11 8 9 9 12 12 14 13 13 14
REMARK SMILES IDX 16 15 17 16 19 17 15 18 18 19 2 20 3 21 1 22
REMARK H PARENT 20 10 10 11
ROOT
ATOM      1  C   UNL     1       6.429   5.909   0.841  1.00  0.00     0.060 A 
ATOM      2  C   UNL     1       6.685   4.816   1.633  1.00  0.00     0.066 A 
ATOM      3  C   UNL     1       4.737   4.753  -0.321  1.00  0.00     0.088 A 
ATOM      4  C   UNL     1       5.362   5.967   0.073  1.00  0.00     0.035 A 
ATOM      5  N   UNL     1       7.314   6.993   1.221  1.00  0.00    -0.360 N 
ATOM      6  N   UNL     1       7.686   5.234   2.513  1.00  0.00    -0.360 N 
ATOM      7  C   UNL     1       5.073   3.587   0.362  1.00  0.00     0.271 A 
ATOM      8  C   UNL     1       7.594   6.649   2.518  1.00  0.00     0.205 C 
ATOM      9  C   UNL     1       6.063   3.632   1.393  1.00  0.00     0.113 A 
ATOM     10  H   UNL     1       7.641   7.799   0.670  1.00  0.00     0.163 HD
ATOM     11  H   UNL     1       8.345   4.645   3.042  1.00  0.00     0.163 HD
ENDROOT
BRANCH   8  12
ATOM     12  C   UNL     1       8.749   7.378   3.259  1.00  0.00    -0.003 A 
ATOM     13  C   UNL     1       9.943   9.515   3.638  1.00  0.00     0.042 A 
ATOM     14  C   UNL     1       8.703   8.765   3.529  1.00  0.00     0.028 A 
ATOM     15  C   UNL     1      11.137   8.771   4.057  1.00  0.00     0.041 A 
ATOM     16  C   UNL     1      11.011   7.319   4.114  1.00  0.00     0.042 A 
ATOM     17  C   UNL     1       9.919   6.598   3.570  1.00  0.00     0.028 A 
ATOM     18  Cl  UNL     1      10.080  11.067   3.647  1.00  0.00    -0.084 Cl
ATOM     19  Cl  UNL     1      12.328   6.471   4.799  1.00  0.00    -0.084 Cl
ENDBRANCH   8  12
BRANCH   7  20
ATOM     20  N   UNL     1       4.429   2.380   0.179  1.00  0.00     0.062 N 
ATOM     21  O   UNL     1       4.940   1.377   0.519  1.00  0.00    -0.258 OA
ATOM     22  O   UNL     1       3.170   2.284  -0.153  1.00  0.00    -0.258 OA
ENDBRANCH   7  20
TORSDOF 2
ENDMDL
MODEL 7
REMARK VINA RESULT:    -3.781      5.000      7.426
REMARK INTER + INTRA:          -4.538
REMARK INTER:                  -4.221
REMARK INTRA:                  -0.317
REMARK UNBOUND:                -0.315
REMARK SMILES O=[N+]([O-])c1ccc2c(c1)N[C@@H](c1cc(Cl)cc(Cl)c1)N2
REMARK SMILES IDX 7 1 8 2 5 3 6 4 20 5 10 6 4 7 11 8 9 9 12 12 14 13 13 14
REMARK SMILES IDX 16 15 17 16 19 17 15 18 18 19 2 20 3 21 1 22
REMARK H PARENT 20 10 10 11
ROOT
ATOM      1  C   UNL     1       7.023   4.626   2.142  1.00  0.00     0.060 A 
ATOM      2  C   UNL     1       6.412   5.544   1.321  1.00  0.00     0.066 A 
ATOM      3  C   UNL     1       5.599   2.907   1.389  1.00  0.00     0.088 A 
ATOM      4  C   UNL     1       6.802   3.335   2.015  1.00  0.00     0.035 A 
ATOM      5  N   UNL     1       8.083   5.279   2.884  1.00  0.00    -0.360 N 
ATOM      6  N   UNL     1       7.112   6.735   1.529  1.00  0.00    -0.360 N 
ATOM      7  C   UNL     1       4.867   3.841   0.660  1.00  0.00     0.271 A 
ATOM      8  C   UNL     1       8.366   6.331   2.052  1.00  0.00     0.205 C 
ATOM      9  C   UNL     1       5.309   5.199   0.607  1.00  0.00     0.113 A 
ATOM     10  H   UNL     1       8.507   5.024   3.788  1.00  0.00     0.163 HD
ATOM     11  H   UNL     1       6.788   7.695   1.342  1.00  0.00     0.163 HD
ENDROOT
BRANCH   8  12
ATOM     12  C   UNL     1       9.261   7.488   2.576  1.00  0.00    -0.003 A 
ATOM     13  C   UNL     1      11.133   8.152   4.056  1.00  0.00     0.042 A 
ATOM     14  C   UNL     1      10.570   7.259   3.056  1.00  0.00     0.028 A 
ATOM     15  C   UNL     1      10.618   9.526   4.087  1.00  0.00     0.041 A 
ATOM     16  C   UNL     1       9.448   9.801   3.261  1.00  0.00     0.042 A 
ATOM     17  C   UNL     1       8.660   8.796   2.647  1.00  0.00     0.028 A 
ATOM     18  Cl  UNL     1      12.422   7.896   4.894  1.00  0.00    -0.084 Cl
ATOM     19  Cl  UNL     1       8.978  11.439   3.135  1.00  0.00    -0.084 Cl
ENDBRANCH   8  12
BRANCH   7  20
ATOM     20  N   UNL     1       3.772   3.518  -0.115  1.00  0.00     0.062 N 
ATOM     21  O   UNL     1       3.344   2.423  -0.110  1.00  0.00    -0.258 OA
ATOM     22  O   UNL     1       3.022   4.411  -0.701  1.00  0.00    -0.258 OA
ENDBRANCH   7  20
TORSDOF 2
ENDMDL
MODEL 8
REMARK VINA RESULT:    -3.517      5.243      7.796
REMARK INTER + INTRA:          -4.243
REMARK INTER:                  -3.948
REMARK INTRA:                  -0.295
REMARK UNBOUND:                -0.315
REMARK SMILES O=[N+]([O-])c1ccc2c(c1)N[C@@H](c1cc(Cl)cc(Cl)c1)N2
REMARK SMILES IDX 7 1 8 2 5 3 6 4 20 5 10 6 4 7 11 8 9 9 12 12 14 13 13 14
REMARK SMILES IDX 16 15 17 16 19 17 15 18 18 19 2 20 3 21 1 22
REMARK H PARENT 20 10 10 11
ROOT
ATOM      1  C   UNL     1       8.686   7.733   1.874  1.00  0.00     0.060 A 
ATOM      2  C   UNL     1       8.302   7.368   3.142  1.00  0.00     0.066 A 
ATOM      3  C   UNL     1       8.020   5.650   1.001  1.00  0.00     0.088 A 
ATOM      4  C   UNL     1       8.348   7.021   0.821  1.00  0.00     0.035 A 
ATOM      5  N   UNL     1       9.214   9.083   1.905  1.00  0.00    -0.360 N 
ATOM      6  N   UNL     1       8.554   8.491   3.934  1.00  0.00    -0.360 N 
ATOM      7  C   UNL     1       7.760   5.198   2.292  1.00  0.00     0.271 A 
ATOM      8  C   UNL     1       8.589   9.576   3.021  1.00  0.00     0.205 C 
ATOM      9  C   UNL     1       7.881   6.101   3.394  1.00  0.00     0.113 A 
ATOM     10  H   UNL     1       9.876   9.545   1.266  1.00  0.00     0.163 HD
ATOM     11  H   UNL     1       8.686   8.524   4.955  1.00  0.00     0.163 HD
ENDROOT
BRANCH   8  12
ATOM     12  C   UNL     1       9.072  10.924   3.624  1.00  0.00    -0.003 A 
ATOM     13  C   UNL     1       8.483  13.254   4.220  1.00  0.00     0.042 A 
ATOM     14  C   UNL     1       8.174  11.834   4.227  1.00  0.00     0.028 A 
ATOM     15  C   UNL     1       9.900  13.628   4.152  1.00  0.00     0.041 A 
ATOM     16  C   UNL     1      10.845  12.549   3.881  1.00  0.00     0.042 A 
ATOM     17  C   UNL     1      10.463  11.254   3.450  1.00  0.00     0.028 A 
ATOM     18  Cl  UNL     1       7.499  14.410   4.575  1.00  0.00    -0.084 Cl
ATOM     19  Cl  UNL     1      12.503  12.944   4.008  1.00  0.00    -0.084 Cl
ENDBRANCH   8  12
BRANCH   7  20
ATOM     20  N   UNL     1       7.285   3.935   2.580  1.00  0.00     0.062 N 
ATOM     21  O   UNL     1       6.491   3.780   3.432  1.00  0.00    -0.258 OA
ATOM     22  O   UNL     1       7.493   2.900   1.812  1.00  0.00    -0.258 OA
ENDBRANCH   7  20
TORSDOF 2
ENDMDL
MODEL 9
REMARK VINA RESULT:    -3.344      5.268      7.713
REMARK INTER + INTRA:          -4.050
REMARK INTER:                  -3.742
REMARK INTRA:                  -0.308
REMARK UNBOUND:                -0.315
REMARK SMILES O=[N+]([O-])c1ccc2c(c1)N[C@@H](c1cc(Cl)cc(Cl)c1)N2
REMARK SMILES IDX 7 1 8 2 5 3 6 4 20 5 10 6 4 7 11 8 9 9 12 12 14 13 13 14
REMARK SMILES IDX 16 15 17 16 19 17 15 18 18 19 2 20 3 21 1 22
REMARK H PARENT 20 10 10 11
ROOT
ATOM      1  C   UNL     1       8.645   7.765   1.884  1.00  0.00     0.060 A 
ATOM      2  C   UNL     1       8.222   7.536   3.172  1.00  0.00     0.066 A 
ATOM      3  C   UNL     1       8.019   5.592   1.223  1.00  0.00     0.088 A 
ATOM      4  C   UNL     1       8.345   6.938   0.906  1.00  0.00     0.035 A 
ATOM      5  N   UNL     1       9.163   9.115   1.784  1.00  0.00    -0.360 N 
ATOM      6  N   UNL     1       8.442   8.741   3.844  1.00  0.00    -0.360 N 
ATOM      7  C   UNL     1       7.721   5.281   2.548  1.00  0.00     0.271 A 
ATOM      8  C   UNL     1       8.499   9.720   2.819  1.00  0.00     0.205 C 
ATOM      9  C   UNL     1       7.801   6.300   3.548  1.00  0.00     0.113 A 
ATOM     10  H   UNL     1       9.842   9.510   1.119  1.00  0.00     0.163 HD
ATOM     11  H   UNL     1       8.542   8.886   4.859  1.00  0.00     0.163 HD
ENDROOT
BRANCH   8  12
ATOM     12  C   UNL     1       8.955  11.130   3.286  1.00  0.00    -0.003 A 
ATOM     13  C   UNL     1      10.858  12.608   3.858  1.00  0.00     0.042 A 
ATOM     14  C   UNL     1      10.233  11.643   2.969  1.00  0.00     0.028 A 
ATOM     15  C   UNL     1       9.965  13.439   4.673  1.00  0.00     0.041 A 
ATOM     16  C   UNL     1       8.553  13.072   4.671  1.00  0.00     0.042 A 
ATOM     17  C   UNL     1       8.053  11.856   4.145  1.00  0.00     0.028 A 
ATOM     18  Cl  UNL     1      12.350  13.057   3.823  1.00  0.00    -0.084 Cl
ATOM     19  Cl  UNL     1       7.487  14.160   5.447  1.00  0.00    -0.084 Cl
ENDBRANCH   8  12
BRANCH   7  20
ATOM     20  N   UNL     1       7.244   4.052   2.957  1.00  0.00     0.062 N 
ATOM     21  O   UNL     1       6.354   3.986   3.722  1.00  0.00    -0.258 OA
ATOM     22  O   UNL     1       7.571   2.929   2.378  1.00  0.00    -0.258 OA
ENDBRANCH   7  20
TORSDOF 2
ENDMDL
