MODEL 1
REMARK VINA RESULT:    -5.500      0.000      0.000
REMARK INTER + INTRA:          -6.453
REMARK INTER:                  -6.143
REMARK INTRA:                  -0.311
REMARK UNBOUND:                -0.311
REMARK SMILES O=[N+]([O-])c1ccc2c(c1)N[C@@H](c1cc(Cl)cc(Cl)c1)N2
REMARK SMILES IDX 7 1 8 2 5 3 6 4 20 5 10 6 4 7 11 8 9 9 12 12 14 13 13 14
REMARK SMILES IDX 16 15 17 16 19 17 15 18 18 19 2 20 3 21 1 22
REMARK H PARENT 20 10 10 11
ROOT
ATOM      1  C   UNL     1      11.498   2.504  -3.505  1.00  0.00     0.060 A 
ATOM      2  C   UNL     1      11.399   3.852  -3.254  1.00  0.00     0.066 A 
ATOM      3  C   UNL     1      13.821   2.674  -3.859  1.00  0.00     0.088 A 
ATOM      4  C   UNL     1      12.666   1.900  -3.566  1.00  0.00     0.035 A 
ATOM      5  N   UNL     1      10.186   1.899  -3.391  1.00  0.00    -0.360 N 
ATOM      6  N   UNL     1      10.052   4.064  -2.952  1.00  0.00    -0.360 N 
ATOM      7  C   UNL     1      13.729   4.060  -3.756  1.00  0.00     0.271 A 
ATOM      8  C   UNL     1       9.566   2.792  -2.557  1.00  0.00     0.205 C 
ATOM      9  C   UNL     1      12.478   4.662  -3.415  1.00  0.00     0.113 A 
ATOM     10  H   UNL     1       9.821   1.035  -3.817  1.00  0.00     0.163 HD
ATOM     11  H   UNL     1       9.528   4.949  -3.004  1.00  0.00     0.163 HD
ENDROOT
BRANCH   8  12
ATOM     12  C   UNL     1       8.025   2.708  -2.373  1.00  0.00    -0.003 A 
ATOM     13  C   UNL     1       6.078   1.274  -1.839  1.00  0.00     0.042 A 
ATOM     14  C   UNL     1       7.425   1.733  -1.544  1.00  0.00     0.028 A 
ATOM     15  C   UNL     1       5.198   2.204  -2.554  1.00  0.00     0.041 A 
ATOM     16  C   UNL     1       5.823   3.410  -3.087  1.00  0.00     0.042 A 
ATOM     17  C   UNL     1       7.224   3.606  -3.166  1.00  0.00     0.028 A 
ATOM     18  Cl  UNL     1       5.378   0.025  -1.221  1.00  0.00    -0.084 Cl
ATOM     19  Cl  UNL     1       4.766   4.588  -3.733  1.00  0.00    -0.084 Cl
ENDBRANCH   8  12
BRANCH   7  20
ATOM     20  N   UNL     1      14.812   4.908  -3.864  1.00  0.00     0.062 N 
ATOM     21  O   UNL     1      14.926   5.821  -3.132  1.00  0.00    -0.258 OA
ATOM     22  O   UNL     1      15.860   4.642  -4.595  1.00  0.00    -0.258 OA
ENDBRANCH   7  20
TORSDOF 2
ENDMDL
MODEL 2
REMARK VINA RESULT:    -5.440      5.115      7.617
REMARK INTER + INTRA:          -6.386
REMARK INTER:                  -6.088
REMARK INTRA:                  -0.298
REMARK UNBOUND:                -0.311
REMARK SMILES O=[N+]([O-])c1ccc2c(c1)N[C@@H](c1cc(Cl)cc(Cl)c1)N2
REMARK SMILES IDX 7 1 8 2 5 3 6 4 20 5 10 6 4 7 11 8 9 9 12 12 14 13 13 14
REMARK SMILES IDX 16 15 17 16 19 17 15 18 18 19 2 20 3 21 1 22
REMARK H PARENT 20 10 10 11
ROOT
ATOM      1  C   UNL     1       7.840   3.490  -2.802  1.00  0.00     0.060 A 
ATOM      2  C   UNL     1       7.909   2.131  -3.001  1.00  0.00     0.066 A 
ATOM      3  C   UNL     1       5.593   3.339  -2.110  1.00  0.00     0.088 A 
ATOM      4  C   UNL     1       6.828   4.040  -2.166  1.00  0.00     0.035 A 
ATOM      5  N   UNL     1       9.120   4.087  -3.125  1.00  0.00    -0.360 N 
ATOM      6  N   UNL     1       9.226   1.893  -3.404  1.00  0.00    -0.360 N 
ATOM      7  C   UNL     1       5.587   1.986  -2.443  1.00  0.00     0.271 A 
ATOM      8  C   UNL     1       9.955   3.016  -2.937  1.00  0.00     0.205 C 
ATOM      9  C   UNL     1       6.798   1.361  -2.877  1.00  0.00     0.113 A 
ATOM     10  H   UNL     1       9.343   5.049  -3.415  1.00  0.00     0.163 HD
ATOM     11  H   UNL     1       9.587   1.081  -3.925  1.00  0.00     0.163 HD
ENDROOT
BRANCH   8  12
ATOM     12  C   UNL     1      11.421   3.103  -3.446  1.00  0.00    -0.003 A 
ATOM     13  C   UNL     1      13.523   1.884  -3.923  1.00  0.00     0.042 A 
ATOM     14  C   UNL     1      12.077   1.991  -4.021  1.00  0.00     0.028 A 
ATOM     15  C   UNL     1      14.277   3.136  -3.792  1.00  0.00     0.041 A 
ATOM     16  C   UNL     1      13.494   4.344  -3.557  1.00  0.00     0.042 A 
ATOM     17  C   UNL     1      12.119   4.342  -3.214  1.00  0.00     0.028 A 
ATOM     18  Cl  UNL     1      14.373   0.616  -4.239  1.00  0.00    -0.084 Cl
ATOM     19  Cl  UNL     1      14.349   5.823  -3.613  1.00  0.00    -0.084 Cl
ENDBRANCH   8  12
BRANCH   7  20
ATOM     20  N   UNL     1       4.491   1.163  -2.284  1.00  0.00     0.062 N 
ATOM     21  O   UNL     1       4.632   0.046  -1.945  1.00  0.00    -0.258 OA
ATOM     22  O   UNL     1       3.262   1.603  -2.268  1.00  0.00    -0.258 OA
ENDBRANCH   7  20
TORSDOF 2
ENDMDL
MODEL 3
REMARK VINA RESULT:    -5.421      5.036      7.633
REMARK INTER + INTRA:          -6.366
REMARK INTER:                  -6.067
REMARK INTRA:                  -0.298
REMARK UNBOUND:                -0.311
REMARK SMILES O=[N+]([O-])c1ccc2c(c1)N[C@@H](c1cc(Cl)cc(Cl)c1)N2
REMARK SMILES IDX 7 1 8 2 5 3 6 4 20 5 10 6 4 7 11 8 9 9 12 12 14 13 13 14
REMARK SMILES IDX 16 15 17 16 19 17 15 18 18 19 2 20 3 21 1 22
REMARK H PARENT 20 10 10 11
ROOT
ATOM      1  C   UNL     1       8.057   2.029  -2.987  1.00  0.00     0.060 A 
ATOM      2  C   UNL     1       7.782   3.354  -2.743  1.00  0.00     0.066 A 
ATOM      3  C   UNL     1       5.763   1.496  -3.039  1.00  0.00     0.088 A 
ATOM      4  C   UNL     1       7.114   1.188  -3.355  1.00  0.00     0.035 A 
ATOM      5  N   UNL     1       9.493   1.842  -3.052  1.00  0.00    -0.360 N 
ATOM      6  N   UNL     1       9.031   3.978  -2.697  1.00  0.00    -0.360 N 
ATOM      7  C   UNL     1       5.457   2.797  -2.647  1.00  0.00     0.271 A 
ATOM      8  C   UNL     1       9.898   3.104  -3.401  1.00  0.00     0.205 C 
ATOM      9  C   UNL     1       6.505   3.762  -2.522  1.00  0.00     0.113 A 
ATOM     10  H   UNL     1      10.054   0.996  -2.883  1.00  0.00     0.163 HD
ATOM     11  H   UNL     1       9.270   4.876  -2.251  1.00  0.00     0.163 HD
ENDROOT
BRANCH   8  12
ATOM     12  C   UNL     1      11.407   3.465  -3.310  1.00  0.00    -0.003 A 
ATOM     13  C   UNL     1      13.116   5.256  -3.378  1.00  0.00     0.042 A 
ATOM     14  C   UNL     1      11.844   4.744  -2.897  1.00  0.00     0.028 A 
ATOM     15  C   UNL     1      14.134   4.267  -3.750  1.00  0.00     0.041 A 
ATOM     16  C   UNL     1      13.700   2.876  -3.805  1.00  0.00     0.042 A 
ATOM     17  C   UNL     1      12.344   2.468  -3.763  1.00  0.00     0.028 A 
ATOM     18  Cl  UNL     1      13.616   6.727  -3.262  1.00  0.00    -0.084 Cl
ATOM     19  Cl  UNL     1      14.927   1.708  -4.031  1.00  0.00    -0.084 Cl
ENDBRANCH   8  12
BRANCH   7  20
ATOM     20  N   UNL     1       4.170   3.259  -2.463  1.00  0.00     0.062 N 
ATOM     21  O   UNL     1       3.880   4.351  -2.785  1.00  0.00    -0.258 OA
ATOM     22  O   UNL     1       3.169   2.481  -2.150  1.00  0.00    -0.258 OA
ENDBRANCH   7  20
TORSDOF 2
ENDMDL
MODEL 4
REMARK VINA RESULT:    -5.391      1.087      2.633
REMARK INTER + INTRA:          -6.332
REMARK INTER:                  -6.021
REMARK INTRA:                  -0.310
REMARK UNBOUND:                -0.311
REMARK SMILES O=[N+]([O-])c1ccc2c(c1)N[C@@H](c1cc(Cl)cc(Cl)c1)N2
REMARK SMILES IDX 7 1 8 2 5 3 6 4 20 5 10 6 4 7 11 8 9 9 12 12 14 13 13 14
REMARK SMILES IDX 16 15 17 16 19 17 15 18 18 19 2 20 3 21 1 22
REMARK H PARENT 20 10 10 11
ROOT
ATOM      1  C   UNL     1      11.223   4.060  -3.262  1.00  0.00     0.060 A 
ATOM      2  C   UNL     1      11.464   2.727  -3.494  1.00  0.00     0.066 A 
ATOM      3  C   UNL     1      13.490   4.597  -3.612  1.00  0.00     0.088 A 
ATOM      4  C   UNL     1      12.123   4.979  -3.539  1.00  0.00     0.035 A 
ATOM      5  N   UNL     1       9.815   4.249  -2.976  1.00  0.00    -0.360 N 
ATOM      6  N   UNL     1      10.214   2.111  -3.389  1.00  0.00    -0.360 N 
ATOM      7  C   UNL     1      13.791   3.240  -3.704  1.00  0.00     0.271 A 
ATOM      8  C   UNL     1       9.278   3.155  -3.604  1.00  0.00     0.205 C 
ATOM      9  C   UNL     1      12.734   2.278  -3.670  1.00  0.00     0.113 A 
ATOM     10  H   UNL     1       9.346   4.999  -2.448  1.00  0.00     0.163 HD
ATOM     11  H   UNL     1      10.016   1.118  -3.199  1.00  0.00     0.163 HD
ENDROOT
BRANCH   8  12
ATOM     12  C   UNL     1       7.797   2.775  -3.324  1.00  0.00    -0.003 A 
ATOM     13  C   UNL     1       5.453   3.557  -3.172  1.00  0.00     0.042 A 
ATOM     14  C   UNL     1       6.723   3.509  -3.876  1.00  0.00     0.028 A 
ATOM     15  C   UNL     1       5.134   2.425  -2.294  1.00  0.00     0.041 A 
ATOM     16  C   UNL     1       6.210   1.471  -2.047  1.00  0.00     0.042 A 
ATOM     17  C   UNL     1       7.565   1.700  -2.393  1.00  0.00     0.028 A 
ATOM     18  Cl  UNL     1       4.271   4.527  -3.475  1.00  0.00    -0.084 Cl
ATOM     19  Cl  UNL     1       5.783   0.049  -1.200  1.00  0.00    -0.084 Cl
ENDBRANCH   8  12
BRANCH   7  20
ATOM     20  N   UNL     1      15.061   2.752  -3.933  1.00  0.00     0.062 N 
ATOM     21  O   UNL     1      15.970   3.143  -3.297  1.00  0.00    -0.258 OA
ATOM     22  O   UNL     1      15.303   1.703  -4.671  1.00  0.00    -0.258 OA
ENDBRANCH   7  20
TORSDOF 2
ENDMDL
MODEL 5
REMARK VINA RESULT:    -5.065      1.275      1.935
REMARK INTER + INTRA:          -5.967
REMARK INTER:                  -5.670
REMARK INTRA:                  -0.298
REMARK UNBOUND:                -0.311
REMARK SMILES O=[N+]([O-])c1ccc2c(c1)N[C@@H](c1cc(Cl)cc(Cl)c1)N2
REMARK SMILES IDX 7 1 8 2 5 3 6 4 20 5 10 6 4 7 11 8 9 9 12 12 14 13 13 14
REMARK SMILES IDX 16 15 17 16 19 17 15 18 18 19 2 20 3 21 1 22
REMARK H PARENT 20 10 10 11
ROOT
ATOM      1  C   UNL     1      11.495   3.729  -3.108  1.00  0.00     0.060 A 
ATOM      2  C   UNL     1      11.518   2.380  -3.371  1.00  0.00     0.066 A 
ATOM      3  C   UNL     1      13.770   3.946  -3.678  1.00  0.00     0.088 A 
ATOM      4  C   UNL     1      12.485   4.517  -3.467  1.00  0.00     0.035 A 
ATOM      5  N   UNL     1      10.163   4.110  -2.681  1.00  0.00    -0.360 N 
ATOM      6  N   UNL     1      10.208   1.946  -3.146  1.00  0.00    -0.360 N 
ATOM      7  C   UNL     1      13.863   2.562  -3.810  1.00  0.00     0.271 A 
ATOM      8  C   UNL     1       9.416   3.117  -3.259  1.00  0.00     0.205 C 
ATOM      9  C   UNL     1      12.687   1.760  -3.677  1.00  0.00     0.113 A 
ATOM     10  H   UNL     1       9.860   4.907  -2.103  1.00  0.00     0.163 HD
ATOM     11  H   UNL     1       9.890   0.988  -2.944  1.00  0.00     0.163 HD
ENDROOT
BRANCH   8  12
ATOM     12  C   UNL     1       7.931   2.945  -2.835  1.00  0.00    -0.003 A 
ATOM     13  C   UNL     1       6.184   1.409  -1.986  1.00  0.00     0.042 A 
ATOM     14  C   UNL     1       7.529   1.954  -1.912  1.00  0.00     0.028 A 
ATOM     15  C   UNL     1       5.147   2.271  -2.565  1.00  0.00     0.041 A 
ATOM     16  C   UNL     1       5.605   3.500  -3.204  1.00  0.00     0.042 A 
ATOM     17  C   UNL     1       6.962   3.777  -3.503  1.00  0.00     0.028 A 
ATOM     18  Cl  UNL     1       5.668   0.134  -1.253  1.00  0.00    -0.084 Cl
ATOM     19  Cl  UNL     1       4.390   4.599  -3.690  1.00  0.00    -0.084 Cl
ENDBRANCH   8  12
BRANCH   7  20
ATOM     20  N   UNL     1      15.021   1.904  -4.167  1.00  0.00     0.062 N 
ATOM     21  O   UNL     1      15.947   2.507  -4.569  1.00  0.00    -0.258 OA
ATOM     22  O   UNL     1      15.250   0.651  -3.881  1.00  0.00    -0.258 OA
ENDBRANCH   7  20
TORSDOF 2
ENDMDL
MODEL 6
REMARK VINA RESULT:    -5.017      0.358      2.028
REMARK INTER + INTRA:          -5.914
REMARK INTER:                  -5.619
REMARK INTRA:                  -0.295
REMARK UNBOUND:                -0.311
REMARK SMILES O=[N+]([O-])c1ccc2c(c1)N[C@@H](c1cc(Cl)cc(Cl)c1)N2
REMARK SMILES IDX 7 1 8 2 5 3 6 4 20 5 10 6 4 7 11 8 9 9 12 12 14 13 13 14
REMARK SMILES IDX 16 15 17 16 19 17 15 18 18 19 2 20 3 21 1 22
REMARK H PARENT 20 10 10 11
ROOT
ATOM      1  C   UNL     1      11.593   2.519  -3.687  1.00  0.00     0.060 A 
ATOM      2  C   UNL     1      11.360   3.864  -3.528  1.00  0.00     0.066 A 
ATOM      3  C   UNL     1      13.921   2.867  -3.780  1.00  0.00     0.088 A 
ATOM      4  C   UNL     1      12.803   2.013  -3.577  1.00  0.00     0.035 A 
ATOM      5  N   UNL     1      10.329   1.811  -3.689  1.00  0.00    -0.360 N 
ATOM      6  N   UNL     1       9.974   3.976  -3.395  1.00  0.00    -0.360 N 
ATOM      7  C   UNL     1      13.710   4.244  -3.769  1.00  0.00     0.271 A 
ATOM      8  C   UNL     1       9.545   2.688  -2.985  1.00  0.00     0.205 C 
ATOM      9  C   UNL     1      12.383   4.753  -3.610  1.00  0.00     0.113 A 
ATOM     10  H   UNL     1      10.085   0.900  -4.103  1.00  0.00     0.163 HD
ATOM     11  H   UNL     1       9.392   4.810  -3.559  1.00  0.00     0.163 HD
ENDROOT
BRANCH   8  12
ATOM     12  C   UNL     1       8.004   2.483  -2.976  1.00  0.00    -0.003 A 
ATOM     13  C   UNL     1       5.776   3.521  -3.275  1.00  0.00     0.042 A 
ATOM     14  C   UNL     1       7.139   3.306  -3.731  1.00  0.00     0.028 A 
ATOM     15  C   UNL     1       5.176   2.467  -2.447  1.00  0.00     0.041 A 
ATOM     16  C   UNL     1       6.074   1.413  -1.986  1.00  0.00     0.042 A 
ATOM     17  C   UNL     1       7.486   1.480  -2.081  1.00  0.00     0.028 A 
ATOM     18  Cl  UNL     1       4.787   4.600  -3.810  1.00  0.00    -0.084 Cl
ATOM     19  Cl  UNL     1       5.340   0.083  -1.203  1.00  0.00    -0.084 Cl
ENDBRANCH   8  12
BRANCH   7  20
ATOM     20  N   UNL     1      14.728   5.175  -3.801  1.00  0.00     0.062 N 
ATOM     21  O   UNL     1      14.829   5.973  -2.944  1.00  0.00    -0.258 OA
ATOM     22  O   UNL     1      15.743   5.097  -4.618  1.00  0.00    -0.258 OA
ENDBRANCH   7  20
TORSDOF 2
ENDMDL
MODEL 7
REMARK VINA RESULT:    -4.955      5.131      7.596
REMARK INTER + INTRA:          -5.845
REMARK INTER:                  -5.549
REMARK INTRA:                  -0.296
REMARK UNBOUND:                -0.311
REMARK SMILES O=[N+]([O-])c1ccc2c(c1)N[C@@H](c1cc(Cl)cc(Cl)c1)N2
REMARK SMILES IDX 7 1 8 2 5 3 6 4 20 5 10 6 4 7 11 8 9 9 12 12 14 13 13 14
REMARK SMILES IDX 16 15 17 16 19 17 15 18 18 19 2 20 3 21 1 22
REMARK H PARENT 20 10 10 11
ROOT
ATOM      1  C   UNL     1       7.788   3.275  -2.810  1.00  0.00     0.060 A 
ATOM      2  C   UNL     1       8.001   1.919  -2.882  1.00  0.00     0.066 A 
ATOM      3  C   UNL     1       5.566   2.953  -2.096  1.00  0.00     0.088 A 
ATOM      4  C   UNL     1       6.720   3.772  -2.223  1.00  0.00     0.035 A 
ATOM      5  N   UNL     1       9.000   3.971  -3.194  1.00  0.00    -0.360 N 
ATOM      6  N   UNL     1       9.338   1.784  -3.267  1.00  0.00    -0.360 N 
ATOM      7  C   UNL     1       5.705   1.582  -2.301  1.00  0.00     0.271 A 
ATOM      8  C   UNL     1       9.942   3.017  -2.911  1.00  0.00     0.205 C 
ATOM      9  C   UNL     1       6.977   1.050  -2.681  1.00  0.00     0.113 A 
ATOM     10  H   UNL     1       9.120   4.920  -3.574  1.00  0.00     0.163 HD
ATOM     11  H   UNL     1       9.785   0.970  -3.712  1.00  0.00     0.163 HD
ENDROOT
BRANCH   8  12
ATOM     12  C   UNL     1      11.393   3.210  -3.434  1.00  0.00    -0.003 A 
ATOM     13  C   UNL     1      13.602   2.168  -3.844  1.00  0.00     0.042 A 
ATOM     14  C   UNL     1      12.152   2.131  -3.940  1.00  0.00     0.028 A 
ATOM     15  C   UNL     1      14.232   3.493  -3.798  1.00  0.00     0.041 A 
ATOM     16  C   UNL     1      13.338   4.634  -3.638  1.00  0.00     0.042 A 
ATOM     17  C   UNL     1      11.969   4.522  -3.287  1.00  0.00     0.028 A 
ATOM     18  Cl  UNL     1      14.570   0.970  -4.081  1.00  0.00    -0.084 Cl
ATOM     19  Cl  UNL     1      14.047   6.181  -3.795  1.00  0.00    -0.084 Cl
ENDBRANCH   8  12
BRANCH   7  20
ATOM     20  N   UNL     1       4.701   0.667  -2.060  1.00  0.00     0.062 N 
ATOM     21  O   UNL     1       3.647   0.796  -2.563  1.00  0.00    -0.258 OA
ATOM     22  O   UNL     1       4.905  -0.481  -1.473  1.00  0.00    -0.258 OA
ENDBRANCH   7  20
TORSDOF 2
ENDMDL
MODEL 8
REMARK VINA RESULT:    -4.113      2.590      3.842
REMARK INTER + INTRA:          -4.905
REMARK INTER:                  -4.600
REMARK INTRA:                  -0.304
REMARK UNBOUND:                -0.311
REMARK SMILES O=[N+]([O-])c1ccc2c(c1)N[C@@H](c1cc(Cl)cc(Cl)c1)N2
REMARK SMILES IDX 7 1 8 2 5 3 6 4 20 5 10 6 4 7 11 8 9 9 12 12 14 13 13 14
REMARK SMILES IDX 16 15 17 16 19 17 15 18 18 19 2 20 3 21 1 22
REMARK H PARENT 20 10 10 11
ROOT
ATOM      1  C   UNL     1      13.169   5.611  -3.506  1.00  0.00     0.060 A 
ATOM      2  C   UNL     1      12.584   6.255  -2.441  1.00  0.00     0.066 A 
ATOM      3  C   UNL     1      15.119   6.918  -3.310  1.00  0.00     0.088 A 
ATOM      4  C   UNL     1      14.447   5.757  -3.780  1.00  0.00     0.035 A 
ATOM      5  N   UNL     1      12.256   4.607  -4.017  1.00  0.00    -0.360 N 
ATOM      6  N   UNL     1      11.346   5.629  -2.276  1.00  0.00    -0.360 N 
ATOM      7  C   UNL     1      14.498   7.686  -2.327  1.00  0.00     0.271 A 
ATOM      8  C   UNL     1      11.494   4.366  -2.904  1.00  0.00     0.205 C 
ATOM      9  C   UNL     1      13.197   7.321  -1.862  1.00  0.00     0.113 A 
ATOM     10  H   UNL     1      12.197   4.190  -4.957  1.00  0.00     0.163 HD
ATOM     11  H   UNL     1      10.511   6.002  -1.804  1.00  0.00     0.163 HD
ENDROOT
BRANCH   8  12
ATOM     12  C   UNL     1      10.180   3.550  -3.052  1.00  0.00    -0.003 A 
ATOM     13  C   UNL     1       8.094   3.199  -4.340  1.00  0.00     0.042 A 
ATOM     14  C   UNL     1       9.533   3.399  -4.299  1.00  0.00     0.028 A 
ATOM     15  C   UNL     1       7.473   2.581  -3.163  1.00  0.00     0.041 A 
ATOM     16  C   UNL     1       8.322   2.424  -1.987  1.00  0.00     0.042 A 
ATOM     17  C   UNL     1       9.591   3.037  -1.841  1.00  0.00     0.028 A 
ATOM     18  Cl  UNL     1       7.189   3.298  -5.605  1.00  0.00    -0.084 Cl
ATOM     19  Cl  UNL     1       7.666   1.519  -0.694  1.00  0.00    -0.084 Cl
ENDBRANCH   8  12
BRANCH   7  20
ATOM     20  N   UNL     1      15.108   8.743  -1.684  1.00  0.00     0.062 N 
ATOM     21  O   UNL     1      15.404   9.711  -2.282  1.00  0.00    -0.258 OA
ATOM     22  O   UNL     1      15.186   8.841  -0.384  1.00  0.00    -0.258 OA
ENDBRANCH   7  20
TORSDOF 2
ENDMDL
MODEL 9
REMARK VINA RESULT:    -4.113      3.831      5.544
REMARK INTER + INTRA:          -4.904
REMARK INTER:                  -4.612
REMARK INTRA:                  -0.292
REMARK UNBOUND:                -0.311
REMARK SMILES O=[N+]([O-])c1ccc2c(c1)N[C@@H](c1cc(Cl)cc(Cl)c1)N2
REMARK SMILES IDX 7 1 8 2 5 3 6 4 20 5 10 6 4 7 11 8 9 9 12 12 14 13 13 14
REMARK SMILES IDX 16 15 17 16 19 17 15 18 18 19 2 20 3 21 1 22
REMARK H PARENT 20 10 10 11
ROOT
ATOM      1  C   UNL     1      14.475   6.900  -3.349  1.00  0.00     0.060 A 
ATOM      2  C   UNL     1      13.730   7.164  -2.225  1.00  0.00     0.066 A 
ATOM      3  C   UNL     1      15.968   8.652  -2.851  1.00  0.00     0.088 A 
ATOM      4  C   UNL     1      15.658   7.444  -3.533  1.00  0.00     0.035 A 
ATOM      5  N   UNL     1      13.889   5.780  -4.059  1.00  0.00    -0.360 N 
ATOM      6  N   UNL     1      12.723   6.195  -2.223  1.00  0.00    -0.360 N 
ATOM      7  C   UNL     1      15.153   9.037  -1.789  1.00  0.00     0.271 A 
ATOM      8  C   UNL     1      13.227   5.149  -3.037  1.00  0.00     0.205 C 
ATOM      9  C   UNL     1      14.010   8.246  -1.453  1.00  0.00     0.113 A 
ATOM     10  H   UNL     1      13.952   5.527  -5.055  1.00  0.00     0.163 HD
ATOM     11  H   UNL     1      11.815   6.232  -1.738  1.00  0.00     0.163 HD
ENDROOT
BRANCH   8  12
ATOM     12  C   UNL     1      12.202   4.032  -3.378  1.00  0.00    -0.003 A 
ATOM     13  C   UNL     1       9.881   3.206  -3.128  1.00  0.00     0.042 A 
ATOM     14  C   UNL     1      10.811   4.284  -3.417  1.00  0.00     0.028 A 
ATOM     15  C   UNL     1      10.340   1.839  -3.396  1.00  0.00     0.041 A 
ATOM     16  C   UNL     1      11.754   1.680  -3.721  1.00  0.00     0.042 A 
ATOM     17  C   UNL     1      12.723   2.701  -3.555  1.00  0.00     0.028 A 
ATOM     18  Cl  UNL     1       8.355   3.360  -2.848  1.00  0.00    -0.084 Cl
ATOM     19  Cl  UNL     1      12.243   0.125  -4.236  1.00  0.00    -0.084 Cl
ENDBRANCH   8  12
BRANCH   7  20
ATOM     20  N   UNL     1      15.434  10.100  -0.955  1.00  0.00     0.062 N 
ATOM     21  O   UNL     1      15.197  11.200  -1.295  1.00  0.00    -0.258 OA
ATOM     22  O   UNL     1      15.749   9.958   0.304  1.00  0.00    -0.258 OA
ENDBRANCH   7  20
TORSDOF 2
ENDMDL
