MODEL 1
REMARK VINA RESULT:    -4.785      0.000      0.000
REMARK INTER + INTRA:          -5.659
REMARK INTER:                  -5.345
REMARK INTRA:                  -0.315
REMARK UNBOUND:                -0.315
REMARK SMILES O=[N+]([O-])c1ccc2c(c1)N[C@@H](c1cc(Cl)cc(Cl)c1)N2
REMARK SMILES IDX 7 1 8 2 5 3 6 4 20 5 10 6 4 7 11 8 9 9 12 12 14 13 13 14
REMARK SMILES IDX 16 15 17 16 19 17 15 18 18 19 2 20 3 21 1 22
REMARK H PARENT 20 10 10 11
ROOT
ATOM      1  C   UNL     1       4.151  -8.011  -6.557  1.00  0.00     0.060 A 
ATOM      2  C   UNL     1       5.362  -8.152  -5.922  1.00  0.00     0.066 A 
ATOM      3  C   UNL     1       4.710  -9.671  -8.132  1.00  0.00     0.088 A 
ATOM      4  C   UNL     1       3.742  -8.879  -7.457  1.00  0.00     0.035 A 
ATOM      5  N   UNL     1       3.371  -6.996  -5.877  1.00  0.00    -0.360 N 
ATOM      6  N   UNL     1       5.310  -7.263  -4.845  1.00  0.00    -0.360 N 
ATOM      7  C   UNL     1       5.997  -9.732  -7.603  1.00  0.00     0.271 A 
ATOM      8  C   UNL     1       3.927  -7.042  -4.626  1.00  0.00     0.205 C 
ATOM      9  C   UNL     1       6.320  -8.963  -6.441  1.00  0.00     0.113 A 
ATOM     10  H   UNL     1       2.608  -6.404  -6.235  1.00  0.00     0.163 HD
ATOM     11  H   UNL     1       6.102  -6.859  -4.325  1.00  0.00     0.163 HD
ENDROOT
BRANCH   8  12
ATOM     12  C   UNL     1       3.597  -5.912  -3.611  1.00  0.00    -0.003 A 
ATOM     13  C   UNL     1       1.841  -4.505  -2.577  1.00  0.00     0.042 A 
ATOM     14  C   UNL     1       2.328  -5.808  -2.998  1.00  0.00     0.028 A 
ATOM     15  C   UNL     1       2.849  -3.491  -2.248  1.00  0.00     0.041 A 
ATOM     16  C   UNL     1       4.232  -3.818  -2.580  1.00  0.00     0.042 A 
ATOM     17  C   UNL     1       4.612  -4.912  -3.397  1.00  0.00     0.028 A 
ATOM     18  Cl  UNL     1       0.380  -4.163  -2.155  1.00  0.00    -0.084 Cl
ATOM     19  Cl  UNL     1       5.424  -2.734  -2.010  1.00  0.00    -0.084 Cl
ENDBRANCH   8  12
BRANCH   7  20
ATOM     20  N   UNL     1       6.979 -10.580  -8.074  1.00  0.00     0.062 N 
ATOM     21  O   UNL     1       7.895 -10.861  -7.394  1.00  0.00    -0.258 OA
ATOM     22  O   UNL     1       6.852 -11.284  -9.165  1.00  0.00    -0.258 OA
ENDBRANCH   7  20
TORSDOF 2
ENDMDL
MODEL 2
REMARK VINA RESULT:    -4.782      0.949      2.626
REMARK INTER + INTRA:          -5.655
REMARK INTER:                  -5.340
REMARK INTRA:                  -0.315
REMARK UNBOUND:                -0.315
REMARK SMILES O=[N+]([O-])c1ccc2c(c1)N[C@@H](c1cc(Cl)cc(Cl)c1)N2
REMARK SMILES IDX 7 1 8 2 5 3 6 4 20 5 10 6 4 7 11 8 9 9 12 12 14 13 13 14
REMARK SMILES IDX 16 15 17 16 19 17 15 18 18 19 2 20 3 21 1 22
REMARK H PARENT 20 10 10 11
ROOT
ATOM      1  C   UNL     1       5.579  -8.090  -5.681  1.00  0.00     0.060 A 
ATOM      2  C   UNL     1       4.440  -8.097  -6.450  1.00  0.00     0.066 A 
ATOM      3  C   UNL     1       6.622  -9.660  -7.094  1.00  0.00     0.088 A 
ATOM      4  C   UNL     1       6.695  -8.646  -6.100  1.00  0.00     0.035 A 
ATOM      5  N   UNL     1       5.402  -7.172  -4.573  1.00  0.00    -0.360 N 
ATOM      6  N   UNL     1       3.590  -7.167  -5.845  1.00  0.00    -0.360 N 
ATOM      7  C   UNL     1       5.433  -9.800  -7.806  1.00  0.00     0.271 A 
ATOM      8  C   UNL     1       4.450  -6.331  -5.089  1.00  0.00     0.205 C 
ATOM      9  C   UNL     1       4.316  -8.968  -7.486  1.00  0.00     0.113 A 
ATOM     10  H   UNL     1       5.864  -7.155  -3.653  1.00  0.00     0.163 HD
ATOM     11  H   UNL     1       2.566  -7.103  -5.930  1.00  0.00     0.163 HD
ENDROOT
BRANCH   8  12
ATOM     12  C   UNL     1       3.727  -5.337  -4.138  1.00  0.00    -0.003 A 
ATOM     13  C   UNL     1       3.956  -3.673  -2.318  1.00  0.00     0.042 A 
ATOM     14  C   UNL     1       4.385  -4.208  -3.600  1.00  0.00     0.028 A 
ATOM     15  C   UNL     1       2.558  -3.903  -1.934  1.00  0.00     0.041 A 
ATOM     16  C   UNL     1       1.798  -4.825  -2.771  1.00  0.00     0.042 A 
ATOM     17  C   UNL     1       2.381  -5.670  -3.748  1.00  0.00     0.028 A 
ATOM     18  Cl  UNL     1       4.730  -2.635  -1.450  1.00  0.00    -0.084 Cl
ATOM     19  Cl  UNL     1       0.122  -4.932  -2.451  1.00  0.00    -0.084 Cl
ENDBRANCH   8  12
BRANCH   7  20
ATOM     20  N   UNL     1       5.286 -10.637  -8.893  1.00  0.00     0.062 N 
ATOM     21  O   UNL     1       4.400 -10.479  -9.648  1.00  0.00    -0.258 OA
ATOM     22  O   UNL     1       6.207 -11.480  -9.276  1.00  0.00    -0.258 OA
ENDBRANCH   7  20
TORSDOF 2
ENDMDL
MODEL 3
REMARK VINA RESULT:    -4.580      5.132      7.600
REMARK INTER + INTRA:          -5.431
REMARK INTER:                  -5.131
REMARK INTRA:                  -0.299
REMARK UNBOUND:                -0.315
REMARK SMILES O=[N+]([O-])c1ccc2c(c1)N[C@@H](c1cc(Cl)cc(Cl)c1)N2
REMARK SMILES IDX 7 1 8 2 5 3 6 4 20 5 10 6 4 7 11 8 9 9 12 12 14 13 13 14
REMARK SMILES IDX 16 15 17 16 19 17 15 18 18 19 2 20 3 21 1 22
REMARK H PARENT 20 10 10 11
ROOT
ATOM      1  C   UNL     1       4.434  -5.093  -3.652  1.00  0.00     0.060 A 
ATOM      2  C   UNL     1       3.132  -5.306  -4.035  1.00  0.00     0.066 A 
ATOM      3  C   UNL     1       3.758  -3.635  -1.929  1.00  0.00     0.088 A 
ATOM      4  C   UNL     1       4.728  -4.490  -2.519  1.00  0.00     0.035 A 
ATOM      5  N   UNL     1       5.316  -5.863  -4.506  1.00  0.00    -0.360 N 
ATOM      6  N   UNL     1       3.210  -6.224  -5.085  1.00  0.00    -0.360 N 
ATOM      7  C   UNL     1       2.444  -3.715  -2.386  1.00  0.00     0.271 A 
ATOM      8  C   UNL     1       4.468  -6.857  -4.918  1.00  0.00     0.205 C 
ATOM      9  C   UNL     1       2.122  -4.603  -3.459  1.00  0.00     0.113 A 
ATOM     10  H   UNL     1       6.307  -5.706  -4.740  1.00  0.00     0.163 HD
ATOM     11  H   UNL     1       2.509  -6.401  -5.819  1.00  0.00     0.163 HD
ENDROOT
BRANCH   8  12
ATOM     12  C   UNL     1       4.898  -7.779  -6.092  1.00  0.00    -0.003 A 
ATOM     13  C   UNL     1       4.168  -9.205  -7.981  1.00  0.00     0.042 A 
ATOM     14  C   UNL     1       4.085  -7.961  -7.233  1.00  0.00     0.028 A 
ATOM     15  C   UNL     1       5.438  -9.937  -7.917  1.00  0.00     0.041 A 
ATOM     16  C   UNL     1       6.415  -9.460  -6.944  1.00  0.00     0.042 A 
ATOM     17  C   UNL     1       6.121  -8.522  -5.924  1.00  0.00     0.028 A 
ATOM     18  Cl  UNL     1       3.165  -9.690  -9.072  1.00  0.00    -0.084 Cl
ATOM     19  Cl  UNL     1       7.965 -10.176  -7.014  1.00  0.00    -0.084 Cl
ENDBRANCH   8  12
BRANCH   7  20
ATOM     20  N   UNL     1       1.387  -3.054  -1.794  1.00  0.00     0.062 N 
ATOM     21  O   UNL     1       1.584  -2.157  -1.060  1.00  0.00    -0.258 OA
ATOM     22  O   UNL     1       0.146  -3.211  -2.167  1.00  0.00    -0.258 OA
ENDBRANCH   7  20
TORSDOF 2
ENDMDL
MODEL 4
REMARK VINA RESULT:    -4.559      5.013      7.644
REMARK INTER + INTRA:          -5.407
REMARK INTER:                  -5.108
REMARK INTRA:                  -0.299
REMARK UNBOUND:                -0.315
REMARK SMILES O=[N+]([O-])c1ccc2c(c1)N[C@@H](c1cc(Cl)cc(Cl)c1)N2
REMARK SMILES IDX 7 1 8 2 5 3 6 4 20 5 10 6 4 7 11 8 9 9 12 12 14 13 13 14
REMARK SMILES IDX 16 15 17 16 19 17 15 18 18 19 2 20 3 21 1 22
REMARK H PARENT 20 10 10 11
ROOT
ATOM      1  C   UNL     1       2.893  -5.655  -4.090  1.00  0.00     0.060 A 
ATOM      2  C   UNL     1       4.104  -5.555  -3.448  1.00  0.00     0.066 A 
ATOM      3  C   UNL     1       2.032  -3.820  -2.891  1.00  0.00     0.088 A 
ATOM      4  C   UNL     1       1.988  -4.704  -4.003  1.00  0.00     0.035 A 
ATOM      5  N   UNL     1       2.940  -6.757  -5.031  1.00  0.00    -0.360 N 
ATOM      6  N   UNL     1       4.896  -6.557  -4.015  1.00  0.00    -0.360 N 
ATOM      7  C   UNL     1       3.192  -3.787  -2.120  1.00  0.00     0.271 A 
ATOM      8  C   UNL     1       4.288  -6.834  -5.265  1.00  0.00     0.205 C 
ATOM      9  C   UNL     1       4.272  -4.669  -2.432  1.00  0.00     0.113 A 
ATOM     10  H   UNL     1       2.173  -7.324  -5.418  1.00  0.00     0.163 HD
ATOM     11  H   UNL     1       5.736  -6.997  -3.613  1.00  0.00     0.163 HD
ENDROOT
BRANCH   8  12
ATOM     12  C   UNL     1       4.855  -8.076  -6.008  1.00  0.00    -0.003 A 
ATOM     13  C   UNL     1       6.860  -9.418  -6.567  1.00  0.00     0.042 A 
ATOM     14  C   UNL     1       6.044  -8.715  -5.591  1.00  0.00     0.028 A 
ATOM     15  C   UNL     1       6.175  -9.945  -7.752  1.00  0.00     0.041 A 
ATOM     16  C   UNL     1       4.789  -9.530  -7.941  1.00  0.00     0.042 A 
ATOM     17  C   UNL     1       4.169  -8.488  -7.206  1.00  0.00     0.028 A 
ATOM     18  Cl  UNL     1       8.318  -9.926  -6.351  1.00  0.00    -0.084 Cl
ATOM     19  Cl  UNL     1       3.930 -10.305  -9.198  1.00  0.00    -0.084 Cl
ENDBRANCH   8  12
BRANCH   7  20
ATOM     20  N   UNL     1       3.416  -2.869  -1.114  1.00  0.00     0.062 N 
ATOM     21  O   UNL     1       2.515  -2.427  -0.503  1.00  0.00    -0.258 OA
ATOM     22  O   UNL     1       4.601  -2.612  -0.631  1.00  0.00    -0.258 OA
ENDBRANCH   7  20
TORSDOF 2
ENDMDL
MODEL 5
REMARK VINA RESULT:    -4.399      1.022      2.260
REMARK INTER + INTRA:          -5.228
REMARK INTER:                  -4.937
REMARK INTRA:                  -0.291
REMARK UNBOUND:                -0.315
REMARK SMILES O=[N+]([O-])c1ccc2c(c1)N[C@@H](c1cc(Cl)cc(Cl)c1)N2
REMARK SMILES IDX 7 1 8 2 5 3 6 4 20 5 10 6 4 7 11 8 9 9 12 12 14 13 13 14
REMARK SMILES IDX 16 15 17 16 19 17 15 18 18 19 2 20 3 21 1 22
REMARK H PARENT 20 10 10 11
ROOT
ATOM      1  C   UNL     1       5.001  -8.163  -6.500  1.00  0.00     0.060 A 
ATOM      2  C   UNL     1       6.043  -8.089  -5.607  1.00  0.00     0.066 A 
ATOM      3  C   UNL     1       6.074  -9.874  -7.711  1.00  0.00     0.088 A 
ATOM      4  C   UNL     1       4.900  -9.154  -7.359  1.00  0.00     0.035 A 
ATOM      5  N   UNL     1       3.984  -7.198  -6.129  1.00  0.00    -0.360 N 
ATOM      6  N   UNL     1       5.655  -7.120  -4.678  1.00  0.00    -0.360 N 
ATOM      7  C   UNL     1       7.206  -9.721  -6.914  1.00  0.00     0.271 A 
ATOM      8  C   UNL     1       4.242  -7.059  -4.790  1.00  0.00     0.205 C 
ATOM      9  C   UNL     1       7.173  -8.815  -5.808  1.00  0.00     0.113 A 
ATOM     10  H   UNL     1       3.266  -6.744  -6.710  1.00  0.00     0.163 HD
ATOM     11  H   UNL     1       6.260  -6.572  -4.050  1.00  0.00     0.163 HD
ENDROOT
BRANCH   8  12
ATOM     12  C   UNL     1       3.574  -5.893  -4.010  1.00  0.00    -0.003 A 
ATOM     13  C   UNL     1       3.901  -3.947  -2.513  1.00  0.00     0.042 A 
ATOM     14  C   UNL     1       4.278  -4.709  -3.691  1.00  0.00     0.028 A 
ATOM     15  C   UNL     1       2.509  -4.063  -2.061  1.00  0.00     0.041 A 
ATOM     16  C   UNL     1       1.700  -5.092  -2.706  1.00  0.00     0.042 A 
ATOM     17  C   UNL     1       2.231  -6.111  -3.535  1.00  0.00     0.028 A 
ATOM     18  Cl  UNL     1       4.727  -2.800  -1.857  1.00  0.00    -0.084 Cl
ATOM     19  Cl  UNL     1       0.032  -5.089  -2.332  1.00  0.00    -0.084 Cl
ENDBRANCH   8  12
BRANCH   7  20
ATOM     20  N   UNL     1       8.352 -10.476  -7.059  1.00  0.00     0.062 N 
ATOM     21  O   UNL     1       8.539 -11.409  -6.369  1.00  0.00    -0.258 OA
ATOM     22  O   UNL     1       9.162 -10.359  -8.076  1.00  0.00    -0.258 OA
ENDBRANCH   7  20
TORSDOF 2
ENDMDL
MODEL 6
REMARK VINA RESULT:    -4.362      1.517      2.069
REMARK INTER + INTRA:          -5.187
REMARK INTER:                  -4.894
REMARK INTRA:                  -0.293
REMARK UNBOUND:                -0.315
REMARK SMILES O=[N+]([O-])c1ccc2c(c1)N[C@@H](c1cc(Cl)cc(Cl)c1)N2
REMARK SMILES IDX 7 1 8 2 5 3 6 4 20 5 10 6 4 7 11 8 9 9 12 12 14 13 13 14
REMARK SMILES IDX 16 15 17 16 19 17 15 18 18 19 2 20 3 21 1 22
REMARK H PARENT 20 10 10 11
ROOT
ATOM      1  C   UNL     1       5.053  -8.415  -6.151  1.00  0.00     0.060 A 
ATOM      2  C   UNL     1       3.829  -8.154  -6.720  1.00  0.00     0.066 A 
ATOM      3  C   UNL     1       5.615  -9.905  -7.887  1.00  0.00     0.088 A 
ATOM      4  C   UNL     1       5.993  -9.060  -6.808  1.00  0.00     0.035 A 
ATOM      5  N   UNL     1       5.187  -7.644  -4.931  1.00  0.00    -0.360 N 
ATOM      6  N   UNL     1       3.236  -7.207  -5.881  1.00  0.00    -0.360 N 
ATOM      7  C   UNL     1       4.329  -9.775  -8.407  1.00  0.00     0.271 A 
ATOM      8  C   UNL     1       4.320  -6.614  -5.184  1.00  0.00     0.205 C 
ATOM      9  C   UNL     1       3.419  -8.846  -7.814  1.00  0.00     0.113 A 
ATOM     10  H   UNL     1       5.773  -7.821  -4.103  1.00  0.00     0.163 HD
ATOM     11  H   UNL     1       2.234  -6.987  -5.790  1.00  0.00     0.163 HD
ENDROOT
BRANCH   8  12
ATOM     12  C   UNL     1       3.910  -5.669  -4.020  1.00  0.00    -0.003 A 
ATOM     13  C   UNL     1       2.055  -4.610  -2.768  1.00  0.00     0.042 A 
ATOM     14  C   UNL     1       2.661  -5.786  -3.370  1.00  0.00     0.028 A 
ATOM     15  C   UNL     1       2.962  -3.543  -2.329  1.00  0.00     0.041 A 
ATOM     16  C   UNL     1       4.358  -3.670  -2.734  1.00  0.00     0.042 A 
ATOM     17  C   UNL     1       4.820  -4.600  -3.697  1.00  0.00     0.028 A 
ATOM     18  Cl  UNL     1       0.582  -4.489  -2.270  1.00  0.00    -0.084 Cl
ATOM     19  Cl  UNL     1       5.449  -2.545  -2.051  1.00  0.00    -0.084 Cl
ENDBRANCH   8  12
BRANCH   7  20
ATOM     20  N   UNL     1       3.895 -10.425  -9.544  1.00  0.00     0.062 N 
ATOM     21  O   UNL     1       3.680  -9.818 -10.528  1.00  0.00    -0.258 OA
ATOM     22  O   UNL     1       3.914 -11.723  -9.679  1.00  0.00    -0.258 OA
ENDBRANCH   7  20
TORSDOF 2
ENDMDL
MODEL 7
REMARK VINA RESULT:    -4.340     11.068     11.681
REMARK INTER + INTRA:          -5.163
REMARK INTER:                  -4.866
REMARK INTRA:                  -0.297
REMARK UNBOUND:                -0.315
REMARK SMILES O=[N+]([O-])c1ccc2c(c1)N[C@@H](c1cc(Cl)cc(Cl)c1)N2
REMARK SMILES IDX 7 1 8 2 5 3 6 4 20 5 10 6 4 7 11 8 9 9 12 12 14 13 13 14
REMARK SMILES IDX 16 15 17 16 19 17 15 18 18 19 2 20 3 21 1 22
REMARK H PARENT 20 10 10 11
ROOT
ATOM      1  C   UNL     1       1.022   1.259   0.244  1.00  0.00     0.060 A 
ATOM      2  C   UNL     1      -0.012   0.376   0.045  1.00  0.00     0.066 A 
ATOM      3  C   UNL     1       0.149   2.744  -1.363  1.00  0.00     0.088 A 
ATOM      4  C   UNL     1       0.987   2.479  -0.246  1.00  0.00     0.035 A 
ATOM      5  N   UNL     1       1.915   0.729   1.254  1.00  0.00    -0.360 N 
ATOM      6  N   UNL     1       0.222  -0.664   0.949  1.00  0.00    -0.360 N 
ATOM      7  C   UNL     1      -0.826   1.806  -1.692  1.00  0.00     0.271 A 
ATOM      8  C   UNL     1       1.063  -0.097   1.940  1.00  0.00     0.205 C 
ATOM      9  C   UNL     1      -0.922   0.593  -0.940  1.00  0.00     0.113 A 
ATOM     10  H   UNL     1       2.915   0.920   1.415  1.00  0.00     0.163 HD
ATOM     11  H   UNL     1      -0.137  -1.628   0.905  1.00  0.00     0.163 HD
ENDROOT
BRANCH   8  12
ATOM     12  C   UNL     1       1.652  -1.113   2.957  1.00  0.00    -0.003 A 
ATOM     13  C   UNL     1       1.227  -3.077   4.405  1.00  0.00     0.042 A 
ATOM     14  C   UNL     1       1.104  -2.406   3.122  1.00  0.00     0.028 A 
ATOM     15  C   UNL     1       2.368  -2.700   5.248  1.00  0.00     0.041 A 
ATOM     16  C   UNL     1       3.142  -1.542   4.815  1.00  0.00     0.042 A 
ATOM     17  C   UNL     1       2.722  -0.645   3.801  1.00  0.00     0.028 A 
ATOM     18  Cl  UNL     1       0.454  -4.355   4.850  1.00  0.00    -0.084 Cl
ATOM     19  Cl  UNL     1       4.586  -1.231   5.675  1.00  0.00    -0.084 Cl
ENDBRANCH   8  12
BRANCH   7  20
ATOM     20  N   UNL     1      -1.795   2.014  -2.652  1.00  0.00     0.062 N 
ATOM     21  O   UNL     1      -2.921   1.761  -2.424  1.00  0.00    -0.258 OA
ATOM     22  O   UNL     1      -1.584   2.693  -3.747  1.00  0.00    -0.258 OA
ENDBRANCH   7  20
TORSDOF 2
ENDMDL
MODEL 8
REMARK VINA RESULT:    -3.908      2.805      4.053
REMARK INTER + INTRA:          -4.680
REMARK INTER:                  -4.372
REMARK INTRA:                  -0.308
REMARK UNBOUND:                -0.315
REMARK SMILES O=[N+]([O-])c1ccc2c(c1)N[C@@H](c1cc(Cl)cc(Cl)c1)N2
REMARK SMILES IDX 7 1 8 2 5 3 6 4 20 5 10 6 4 7 11 8 9 9 12 12 14 13 13 14
REMARK SMILES IDX 16 15 17 16 19 17 15 18 18 19 2 20 3 21 1 22
REMARK H PARENT 20 10 10 11
ROOT
ATOM      1  C   UNL     1       7.664  -9.608  -6.588  1.00  0.00     0.060 A 
ATOM      2  C   UNL     1       7.755  -9.910  -5.250  1.00  0.00     0.066 A 
ATOM      3  C   UNL     1       9.208 -11.298  -7.142  1.00  0.00     0.088 A 
ATOM      4  C   UNL     1       8.167 -10.403  -7.508  1.00  0.00     0.035 A 
ATOM      5  N   UNL     1       6.729  -8.515  -6.768  1.00  0.00    -0.360 N 
ATOM      6  N   UNL     1       6.860  -9.040  -4.622  1.00  0.00    -0.360 N 
ATOM      7  C   UNL     1       9.433 -11.528  -5.786  1.00  0.00     0.271 A 
ATOM      8  C   UNL     1       5.957  -8.651  -5.644  1.00  0.00     0.205 C 
ATOM      9  C   UNL     1       8.658 -10.826  -4.812  1.00  0.00     0.113 A 
ATOM     10  H   UNL     1       6.662  -7.826  -7.531  1.00  0.00     0.163 HD
ATOM     11  H   UNL     1       6.856  -8.746  -3.635  1.00  0.00     0.163 HD
ENDROOT
BRANCH   8  12
ATOM     12  C   UNL     1       4.981  -7.506  -5.255  1.00  0.00    -0.003 A 
ATOM     13  C   UNL     1       4.615  -5.062  -5.095  1.00  0.00     0.042 A 
ATOM     14  C   UNL     1       5.064  -6.224  -5.844  1.00  0.00     0.028 A 
ATOM     15  C   UNL     1       3.586  -5.285  -4.073  1.00  0.00     0.041 A 
ATOM     16  C   UNL     1       3.271  -6.674  -3.760  1.00  0.00     0.042 A 
ATOM     17  C   UNL     1       4.048  -7.778  -4.191  1.00  0.00     0.028 A 
ATOM     18  Cl  UNL     1       4.889  -3.572  -5.461  1.00  0.00    -0.084 Cl
ATOM     19  Cl  UNL     1       1.934  -6.934  -2.728  1.00  0.00    -0.084 Cl
ENDBRANCH   8  12
BRANCH   7  20
ATOM     20  N   UNL     1      10.306 -12.484  -5.307  1.00  0.00     0.062 N 
ATOM     21  O   UNL     1       9.945 -13.270  -4.511  1.00  0.00    -0.258 OA
ATOM     22  O   UNL     1      11.470 -12.725  -5.846  1.00  0.00    -0.258 OA
ENDBRANCH   7  20
TORSDOF 2
ENDMDL
MODEL 9
REMARK VINA RESULT:    -3.881     11.204     11.877
REMARK INTER + INTRA:          -4.649
REMARK INTER:                  -4.331
REMARK INTRA:                  -0.318
REMARK UNBOUND:                -0.315
REMARK SMILES O=[N+]([O-])c1ccc2c(c1)N[C@@H](c1cc(Cl)cc(Cl)c1)N2
REMARK SMILES IDX 7 1 8 2 5 3 6 4 20 5 10 6 4 7 11 8 9 9 12 12 14 13 13 14
REMARK SMILES IDX 16 15 17 16 19 17 15 18 18 19 2 20 3 21 1 22
REMARK H PARENT 20 10 10 11
ROOT
ATOM      1  C   UNL     1       1.009   1.338   0.454  1.00  0.00     0.060 A 
ATOM      2  C   UNL     1      -0.025   0.460   0.231  1.00  0.00     0.066 A 
ATOM      3  C   UNL     1       0.294   2.729  -1.308  1.00  0.00     0.088 A 
ATOM      4  C   UNL     1       1.037   2.524  -0.114  1.00  0.00     0.035 A 
ATOM      5  N   UNL     1       1.811   0.861   1.563  1.00  0.00    -0.360 N 
ATOM      6  N   UNL     1       0.118  -0.522   1.215  1.00  0.00    -0.360 N 
ATOM      7  C   UNL     1      -0.673   1.786  -1.652  1.00  0.00     0.271 A 
ATOM      8  C   UNL     1       0.891   0.095   2.231  1.00  0.00     0.205 C 
ATOM      9  C   UNL     1      -0.851   0.627  -0.834  1.00  0.00     0.113 A 
ATOM     10  H   UNL     1       2.798   1.047   1.789  1.00  0.00     0.163 HD
ATOM     11  H   UNL     1      -0.257  -1.482   1.205  1.00  0.00     0.163 HD
ENDROOT
BRANCH   8  12
ATOM     12  C   UNL     1       1.380  -0.862   3.354  1.00  0.00    -0.003 A 
ATOM     13  C   UNL     1       3.243  -1.525   4.845  1.00  0.00     0.042 A 
ATOM     14  C   UNL     1       2.407  -0.494   4.252  1.00  0.00     0.028 A 
ATOM     15  C   UNL     1       2.654  -2.862   4.982  1.00  0.00     0.041 A 
ATOM     16  C   UNL     1       1.373  -3.081   4.319  1.00  0.00     0.042 A 
ATOM     17  C   UNL     1       0.808  -2.185   3.378  1.00  0.00     0.028 A 
ATOM     18  Cl  UNL     1       4.578  -1.295   5.615  1.00  0.00    -0.084 Cl
ATOM     19  Cl  UNL     1       0.591  -4.563   4.651  1.00  0.00    -0.084 Cl
ENDBRANCH   8  12
BRANCH   7  20
ATOM     20  N   UNL     1      -1.560   1.946  -2.696  1.00  0.00     0.062 N 
ATOM     21  O   UNL     1      -2.677   1.594  -2.585  1.00  0.00    -0.258 OA
ATOM     22  O   UNL     1      -1.304   2.677  -3.747  1.00  0.00    -0.258 OA
ENDBRANCH   7  20
TORSDOF 2
ENDMDL
