MODEL 1
REMARK VINA RESULT:    -4.291      0.000      0.000
REMARK INTER + INTRA:          -5.109
REMARK INTER:                  -4.793
REMARK INTRA:                  -0.316
REMARK UNBOUND:                -0.316
REMARK SMILES O=[N+]([O-])c1ccc2c(c1)N[C@@H](c1cc(Cl)cc(Cl)c1)N2
REMARK SMILES IDX 7 1 8 2 5 3 6 4 20 5 10 6 4 7 11 8 9 9 12 12 14 13 13 14
REMARK SMILES IDX 16 15 17 16 19 17 15 18 18 19 2 20 3 21 1 22
REMARK H PARENT 20 10 10 11
ROOT
ATOM      1  C   UNL     1       4.627  -0.277  11.271  1.00  0.00     0.060 A 
ATOM      2  C   UNL     1       4.177  -1.560  11.071  1.00  0.00     0.066 A 
ATOM      3  C   UNL     1       5.270  -0.776  13.482  1.00  0.00     0.088 A 
ATOM      4  C   UNL     1       5.351   0.042  12.322  1.00  0.00     0.035 A 
ATOM      5  N   UNL     1       4.426   0.494  10.060  1.00  0.00    -0.360 N 
ATOM      6  N   UNL     1       3.742  -1.588   9.744  1.00  0.00    -0.360 N 
ATOM      7  C   UNL     1       4.690  -2.037  13.359  1.00  0.00     0.271 A 
ATOM      8  C   UNL     1       4.413  -0.504   9.122  1.00  0.00     0.205 C 
ATOM      9  C   UNL     1       4.151  -2.447  12.100  1.00  0.00     0.113 A 
ATOM     10  H   UNL     1       4.321   1.511   9.938  1.00  0.00     0.163 HD
ATOM     11  H   UNL     1       3.080  -2.248   9.313  1.00  0.00     0.163 HD
ENDROOT
BRANCH   8  12
ATOM     12  C   UNL     1       3.934  -0.179   7.679  1.00  0.00    -0.003 A 
ATOM     13  C   UNL     1       3.936   1.451   5.815  1.00  0.00     0.042 A 
ATOM     14  C   UNL     1       4.648   0.704   6.839  1.00  0.00     0.028 A 
ATOM     15  C   UNL     1       2.698   0.858   5.297  1.00  0.00     0.041 A 
ATOM     16  C   UNL     1       2.191  -0.311   6.008  1.00  0.00     0.042 A 
ATOM     17  C   UNL     1       2.672  -0.740   7.270  1.00  0.00     0.028 A 
ATOM     18  Cl  UNL     1       4.495   2.658   5.003  1.00  0.00    -0.084 Cl
ATOM     19  Cl  UNL     1       0.873  -1.124   5.284  1.00  0.00    -0.084 Cl
ENDBRANCH   8  12
BRANCH   7  20
ATOM     20  N   UNL     1       4.689  -2.979  14.367  1.00  0.00     0.062 N 
ATOM     21  O   UNL     1       4.527  -4.116  14.115  1.00  0.00    -0.258 OA
ATOM     22  O   UNL     1       5.083  -2.725  15.585  1.00  0.00    -0.258 OA
ENDBRANCH   7  20
TORSDOF 2
ENDMDL
MODEL 2
REMARK VINA RESULT:    -4.270      1.146      2.742
REMARK INTER + INTRA:          -5.085
REMARK INTER:                  -4.769
REMARK INTRA:                  -0.316
REMARK UNBOUND:                -0.316
REMARK SMILES O=[N+]([O-])c1ccc2c(c1)N[C@@H](c1cc(Cl)cc(Cl)c1)N2
REMARK SMILES IDX 7 1 8 2 5 3 6 4 20 5 10 6 4 7 11 8 9 9 12 12 14 13 13 14
REMARK SMILES IDX 16 15 17 16 19 17 15 18 18 19 2 20 3 21 1 22
REMARK H PARENT 20 10 10 11
ROOT
ATOM      1  C   UNL     1       4.048  -1.568  11.053  1.00  0.00     0.060 A 
ATOM      2  C   UNL     1       4.513  -0.298  11.295  1.00  0.00     0.066 A 
ATOM      3  C   UNL     1       4.626  -2.265  13.227  1.00  0.00     0.088 A 
ATOM      4  C   UNL     1       3.886  -2.438  12.026  1.00  0.00     0.035 A 
ATOM      5  N   UNL     1       3.534  -1.640   9.699  1.00  0.00    -0.360 N 
ATOM      6  N   UNL     1       4.253   0.412  10.119  1.00  0.00    -0.360 N 
ATOM      7  C   UNL     1       5.238  -1.034  13.453  1.00  0.00     0.271 A 
ATOM      8  C   UNL     1       3.226  -0.323   9.474  1.00  0.00     0.205 C 
ATOM      9  C   UNL     1       5.152  -0.010  12.459  1.00  0.00     0.113 A 
ATOM     10  H   UNL     1       3.429  -2.454   9.078  1.00  0.00     0.163 HD
ATOM     11  H   UNL     1       4.706   1.277   9.794  1.00  0.00     0.163 HD
ENDROOT
BRANCH   8  12
ATOM     12  C   UNL     1       2.900   0.139   8.026  1.00  0.00    -0.003 A 
ATOM     13  C   UNL     1       1.785  -0.400   5.882  1.00  0.00     0.042 A 
ATOM     14  C   UNL     1       1.761  -0.328   7.334  1.00  0.00     0.028 A 
ATOM     15  C   UNL     1       2.683   0.527   5.184  1.00  0.00     0.041 A 
ATOM     16  C   UNL     1       3.618   1.277   6.016  1.00  0.00     0.042 A 
ATOM     17  C   UNL     1       3.868   0.989   7.381  1.00  0.00     0.028 A 
ATOM     18  Cl  UNL     1       0.751  -1.142   4.982  1.00  0.00    -0.084 Cl
ATOM     19  Cl  UNL     1       4.514   2.503   5.232  1.00  0.00    -0.084 Cl
ENDBRANCH   8  12
BRANCH   7  20
ATOM     20  N   UNL     1       5.852  -0.690  14.640  1.00  0.00     0.062 N 
ATOM     21  O   UNL     1       5.993   0.441  14.929  1.00  0.00    -0.258 OA
ATOM     22  O   UNL     1       6.098  -1.548  15.593  1.00  0.00    -0.258 OA
ENDBRANCH   7  20
TORSDOF 2
ENDMDL
MODEL 3
REMARK VINA RESULT:    -4.120      3.917      5.039
REMARK INTER + INTRA:          -4.918
REMARK INTER:                  -4.611
REMARK INTRA:                  -0.307
REMARK UNBOUND:                -0.316
REMARK SMILES O=[N+]([O-])c1ccc2c(c1)N[C@@H](c1cc(Cl)cc(Cl)c1)N2
REMARK SMILES IDX 7 1 8 2 5 3 6 4 20 5 10 6 4 7 11 8 9 9 12 12 14 13 13 14
REMARK SMILES IDX 16 15 17 16 19 17 15 18 18 19 2 20 3 21 1 22
REMARK H PARENT 20 10 10 11
ROOT
ATOM      1  C   UNL     1       6.320   0.769  14.347  1.00  0.00     0.060 A 
ATOM      2  C   UNL     1       5.465   1.834  14.196  1.00  0.00     0.066 A 
ATOM      3  C   UNL     1       6.995   1.528  16.472  1.00  0.00     0.088 A 
ATOM      4  C   UNL     1       6.874   0.491  15.508  1.00  0.00     0.035 A 
ATOM      5  N   UNL     1       6.246  -0.075  13.170  1.00  0.00    -0.360 N 
ATOM      6  N   UNL     1       4.846   1.627  12.960  1.00  0.00    -0.360 N 
ATOM      7  C   UNL     1       6.252   2.691  16.286  1.00  0.00     0.271 A 
ATOM      8  C   UNL     1       4.994   0.239  12.710  1.00  0.00     0.205 C 
ATOM      9  C   UNL     1       5.440   2.831  15.118  1.00  0.00     0.113 A 
ATOM     10  H   UNL     1       6.942  -0.729  12.786  1.00  0.00     0.163 HD
ATOM     11  H   UNL     1       4.384   2.328  12.363  1.00  0.00     0.163 HD
ENDROOT
BRANCH   8  12
ATOM     12  C   UNL     1       4.577  -0.218  11.285  1.00  0.00    -0.003 A 
ATOM     13  C   UNL     1       5.291  -0.623   8.948  1.00  0.00     0.042 A 
ATOM     14  C   UNL     1       5.508  -0.772  10.378  1.00  0.00     0.028 A 
ATOM     15  C   UNL     1       3.904  -0.462   8.498  1.00  0.00     0.041 A 
ATOM     16  C   UNL     1       2.903  -0.252   9.539  1.00  0.00     0.042 A 
ATOM     17  C   UNL     1       3.216   0.042  10.889  1.00  0.00     0.028 A 
ATOM     18  Cl  UNL     1       6.334  -0.911   7.826  1.00  0.00    -0.084 Cl
ATOM     19  Cl  UNL     1       1.270  -0.274   9.034  1.00  0.00    -0.084 Cl
ENDBRANCH   8  12
BRANCH   7  20
ATOM     20  N   UNL     1       6.164   3.701  17.222  1.00  0.00     0.062 N 
ATOM     21  O   UNL     1       7.109   4.351  17.484  1.00  0.00    -0.258 OA
ATOM     22  O   UNL     1       5.030   4.145  17.692  1.00  0.00    -0.258 OA
ENDBRANCH   7  20
TORSDOF 2
ENDMDL
MODEL 4
REMARK VINA RESULT:    -4.109      3.263      4.695
REMARK INTER + INTRA:          -4.906
REMARK INTER:                  -4.599
REMARK INTRA:                  -0.307
REMARK UNBOUND:                -0.316
REMARK SMILES O=[N+]([O-])c1ccc2c(c1)N[C@@H](c1cc(Cl)cc(Cl)c1)N2
REMARK SMILES IDX 7 1 8 2 5 3 6 4 20 5 10 6 4 7 11 8 9 9 12 12 14 13 13 14
REMARK SMILES IDX 16 15 17 16 19 17 15 18 18 19 2 20 3 21 1 22
REMARK H PARENT 20 10 10 11
ROOT
ATOM      1  C   UNL     1       3.948  -4.190  13.688  1.00  0.00     0.060 A 
ATOM      2  C   UNL     1       4.431  -4.940  12.643  1.00  0.00     0.066 A 
ATOM      3  C   UNL     1       4.323  -5.949  15.209  1.00  0.00     0.088 A 
ATOM      4  C   UNL     1       4.104  -4.572  14.938  1.00  0.00     0.035 A 
ATOM      5  N   UNL     1       3.552  -2.885  13.198  1.00  0.00    -0.360 N 
ATOM      6  N   UNL     1       4.368  -4.094  11.532  1.00  0.00    -0.360 N 
ATOM      7  C   UNL     1       4.678  -6.782  14.150  1.00  0.00     0.271 A 
ATOM      8  C   UNL     1       4.336  -2.786  12.078  1.00  0.00     0.205 C 
ATOM      9  C   UNL     1       4.758  -6.246  12.827  1.00  0.00     0.113 A 
ATOM     10  H   UNL     1       2.870  -2.216  13.584  1.00  0.00     0.163 HD
ATOM     11  H   UNL     1       4.350  -4.362  10.538  1.00  0.00     0.163 HD
ENDROOT
BRANCH   8  12
ATOM     12  C   UNL     1       4.045  -1.656  11.051  1.00  0.00    -0.003 A 
ATOM     13  C   UNL     1       2.326  -0.289   9.908  1.00  0.00     0.042 A 
ATOM     14  C   UNL     1       2.875  -0.867  11.123  1.00  0.00     0.028 A 
ATOM     15  C   UNL     1       3.264  -0.030   8.809  1.00  0.00     0.041 A 
ATOM     16  C   UNL     1       4.609  -0.574   8.962  1.00  0.00     0.042 A 
ATOM     17  C   UNL     1       4.974  -1.513   9.959  1.00  0.00     0.028 A 
ATOM     18  Cl  UNL     1       0.915   0.356   9.753  1.00  0.00    -0.084 Cl
ATOM     19  Cl  UNL     1       5.756  -0.098   7.788  1.00  0.00    -0.084 Cl
ENDBRANCH   8  12
BRANCH   7  20
ATOM     20  N   UNL     1       5.063  -8.097  14.307  1.00  0.00     0.062 N 
ATOM     21  O   UNL     1       4.273  -8.916  14.603  1.00  0.00    -0.258 OA
ATOM     22  O   UNL     1       6.227  -8.552  13.928  1.00  0.00    -0.258 OA
ENDBRANCH   7  20
TORSDOF 2
ENDMDL
MODEL 5
REMARK VINA RESULT:    -4.006      3.940      5.788
REMARK INTER + INTRA:          -4.791
REMARK INTER:                  -4.479
REMARK INTRA:                  -0.312
REMARK UNBOUND:                -0.316
REMARK SMILES O=[N+]([O-])c1ccc2c(c1)N[C@@H](c1cc(Cl)cc(Cl)c1)N2
REMARK SMILES IDX 7 1 8 2 5 3 6 4 20 5 10 6 4 7 11 8 9 9 12 12 14 13 13 14
REMARK SMILES IDX 16 15 17 16 19 17 15 18 18 19 2 20 3 21 1 22
REMARK H PARENT 20 10 10 11
ROOT
ATOM      1  C   UNL     1       4.756  -5.699  13.337  1.00  0.00     0.060 A 
ATOM      2  C   UNL     1       4.308  -5.076  14.478  1.00  0.00     0.066 A 
ATOM      3  C   UNL     1       4.809  -7.790  14.420  1.00  0.00     0.088 A 
ATOM      4  C   UNL     1       4.777  -7.010  13.233  1.00  0.00     0.035 A 
ATOM      5  N   UNL     1       4.891  -4.718  12.279  1.00  0.00    -0.360 N 
ATOM      6  N   UNL     1       4.132  -3.739  14.114  1.00  0.00    -0.360 N 
ATOM      7  C   UNL     1       4.498  -7.166  15.627  1.00  0.00     0.271 A 
ATOM      8  C   UNL     1       4.003  -3.763  12.702  1.00  0.00     0.205 C 
ATOM      9  C   UNL     1       4.212  -5.765  15.645  1.00  0.00     0.113 A 
ATOM     10  H   UNL     1       5.488  -4.733  11.440  1.00  0.00     0.163 HD
ATOM     11  H   UNL     1       4.102  -2.917  14.734  1.00  0.00     0.163 HD
ENDROOT
BRANCH   8  12
ATOM     12  C   UNL     1       4.013  -2.367  12.019  1.00  0.00    -0.003 A 
ATOM     13  C   UNL     1       3.878  -1.099   9.896  1.00  0.00     0.042 A 
ATOM     14  C   UNL     1       3.376  -2.140  10.778  1.00  0.00     0.028 A 
ATOM     15  C   UNL     1       4.582   0.024  10.524  1.00  0.00     0.041 A 
ATOM     16  C   UNL     1       4.898  -0.117  11.942  1.00  0.00     0.042 A 
ATOM     17  C   UNL     1       4.788  -1.334  12.658  1.00  0.00     0.028 A 
ATOM     18  Cl  UNL     1       3.493  -0.900   8.399  1.00  0.00    -0.084 Cl
ATOM     19  Cl  UNL     1       5.527   1.269  12.720  1.00  0.00    -0.084 Cl
ENDBRANCH   8  12
BRANCH   7  20
ATOM     20  N   UNL     1       4.345  -7.842  16.820  1.00  0.00     0.062 N 
ATOM     21  O   UNL     1       4.767  -8.932  16.943  1.00  0.00    -0.258 OA
ATOM     22  O   UNL     1       3.949  -7.266  17.923  1.00  0.00    -0.258 OA
ENDBRANCH   7  20
TORSDOF 2
ENDMDL
MODEL 6
REMARK VINA RESULT:    -3.915      5.111      7.578
REMARK INTER + INTRA:          -4.689
REMARK INTER:                  -4.389
REMARK INTRA:                  -0.300
REMARK UNBOUND:                -0.316
REMARK SMILES O=[N+]([O-])c1ccc2c(c1)N[C@@H](c1cc(Cl)cc(Cl)c1)N2
REMARK SMILES IDX 7 1 8 2 5 3 6 4 20 5 10 6 4 7 11 8 9 9 12 12 14 13 13 14
REMARK SMILES IDX 16 15 17 16 19 17 15 18 18 19 2 20 3 21 1 22
REMARK H PARENT 20 10 10 11
ROOT
ATOM      1  C   UNL     1       2.682  -0.594   7.731  1.00  0.00     0.060 A 
ATOM      2  C   UNL     1       3.427   0.560   7.792  1.00  0.00     0.066 A 
ATOM      3  C   UNL     1       2.201  -0.241   5.452  1.00  0.00     0.088 A 
ATOM      4  C   UNL     1       2.290  -1.100   6.581  1.00  0.00     0.035 A 
ATOM      5  N   UNL     1       2.684  -1.234   9.032  1.00  0.00    -0.360 N 
ATOM      6  N   UNL     1       3.912   0.607   9.102  1.00  0.00    -0.360 N 
ATOM      7  C   UNL     1       2.823   1.004   5.520  1.00  0.00     0.271 A 
ATOM      8  C   UNL     1       3.846  -0.734   9.559  1.00  0.00     0.205 C 
ATOM      9  C   UNL     1       3.480   1.400   6.726  1.00  0.00     0.113 A 
ATOM     10  H   UNL     1       2.002  -1.885   9.445  1.00  0.00     0.163 HD
ATOM     11  H   UNL     1       4.244   1.433   9.620  1.00  0.00     0.163 HD
ENDROOT
BRANCH   8  12
ATOM     12  C   UNL     1       4.129  -0.922  11.076  1.00  0.00    -0.003 A 
ATOM     13  C   UNL     1       5.346  -0.106  13.072  1.00  0.00     0.042 A 
ATOM     14  C   UNL     1       4.529   0.155  11.899  1.00  0.00     0.028 A 
ATOM     15  C   UNL     1       5.226  -1.433  13.686  1.00  0.00     0.041 A 
ATOM     16  C   UNL     1       4.466  -2.429  12.938  1.00  0.00     0.042 A 
ATOM     17  C   UNL     1       4.063  -2.267  11.589  1.00  0.00     0.028 A 
ATOM     18  Cl  UNL     1       6.105   0.960  13.918  1.00  0.00    -0.084 Cl
ATOM     19  Cl  UNL     1       4.149  -3.903  13.744  1.00  0.00    -0.084 Cl
ENDBRANCH   8  12
BRANCH   7  20
ATOM     20  N   UNL     1       2.939   1.861   4.445  1.00  0.00     0.062 N 
ATOM     21  O   UNL     1       2.208   1.766   3.529  1.00  0.00    -0.258 OA
ATOM     22  O   UNL     1       3.678   2.937   4.464  1.00  0.00    -0.258 OA
ENDBRANCH   7  20
TORSDOF 2
ENDMDL
MODEL 7
REMARK VINA RESULT:    -3.910      5.105      7.785
REMARK INTER + INTRA:          -4.684
REMARK INTER:                  -4.366
REMARK INTRA:                  -0.318
REMARK UNBOUND:                -0.316
REMARK SMILES O=[N+]([O-])c1ccc2c(c1)N[C@@H](c1cc(Cl)cc(Cl)c1)N2
REMARK SMILES IDX 7 1 8 2 5 3 6 4 20 5 10 6 4 7 11 8 9 9 12 12 14 13 13 14
REMARK SMILES IDX 16 15 17 16 19 17 15 18 18 19 2 20 3 21 1 22
REMARK H PARENT 20 10 10 11
ROOT
ATOM      1  C   UNL     1       2.835  -0.592   7.692  1.00  0.00     0.060 A 
ATOM      2  C   UNL     1       3.680   0.491   7.639  1.00  0.00     0.066 A 
ATOM      3  C   UNL     1       2.073  -0.188   5.500  1.00  0.00     0.088 A 
ATOM      4  C   UNL     1       2.243  -1.056   6.612  1.00  0.00     0.035 A 
ATOM      5  N   UNL     1       2.963  -1.236   8.984  1.00  0.00    -0.360 N 
ATOM      6  N   UNL     1       4.346   0.489   8.867  1.00  0.00    -0.360 N 
ATOM      7  C   UNL     1       2.806   0.997   5.470  1.00  0.00     0.271 A 
ATOM      8  C   UNL     1       4.227  -0.843   9.340  1.00  0.00     0.205 C 
ATOM      9  C   UNL     1       3.657   1.328   6.569  1.00  0.00     0.113 A 
ATOM     10  H   UNL     1       2.291  -1.827   9.494  1.00  0.00     0.163 HD
ATOM     11  H   UNL     1       4.819   1.280   9.327  1.00  0.00     0.163 HD
ENDROOT
BRANCH   8  12
ATOM     12  C   UNL     1       4.702  -1.063  10.804  1.00  0.00    -0.003 A 
ATOM     13  C   UNL     1       4.502  -2.423  12.863  1.00  0.00     0.042 A 
ATOM     14  C   UNL     1       4.651  -2.333  11.420  1.00  0.00     0.028 A 
ATOM     15  C   UNL     1       4.997  -1.292  13.656  1.00  0.00     0.041 A 
ATOM     16  C   UNL     1       5.392  -0.101  12.913  1.00  0.00     0.042 A 
ATOM     17  C   UNL     1       5.103   0.108  11.542  1.00  0.00     0.028 A 
ATOM     18  Cl  UNL     1       4.147  -3.708  13.671  1.00  0.00    -0.084 Cl
ATOM     19  Cl  UNL     1       6.161   1.133  13.812  1.00  0.00    -0.084 Cl
ENDBRANCH   8  12
BRANCH   7  20
ATOM     20  N   UNL     1       2.845   1.845   4.382  1.00  0.00     0.062 N 
ATOM     21  O   UNL     1       2.092   1.702   3.491  1.00  0.00    -0.258 OA
ATOM     22  O   UNL     1       3.528   2.957   4.367  1.00  0.00    -0.258 OA
ENDBRANCH   7  20
TORSDOF 2
ENDMDL
MODEL 8
REMARK VINA RESULT:    -3.862      1.570      2.194
REMARK INTER + INTRA:          -4.629
REMARK INTER:                  -4.329
REMARK INTRA:                  -0.300
REMARK UNBOUND:                -0.316
REMARK SMILES O=[N+]([O-])c1ccc2c(c1)N[C@@H](c1cc(Cl)cc(Cl)c1)N2
REMARK SMILES IDX 7 1 8 2 5 3 6 4 20 5 10 6 4 7 11 8 9 9 12 12 14 13 13 14
REMARK SMILES IDX 16 15 17 16 19 17 15 18 18 19 2 20 3 21 1 22
REMARK H PARENT 20 10 10 11
ROOT
ATOM      1  C   UNL     1       4.514  -1.253  11.364  1.00  0.00     0.060 A 
ATOM      2  C   UNL     1       4.872   0.074  11.380  1.00  0.00     0.066 A 
ATOM      3  C   UNL     1       5.104  -1.507  13.630  1.00  0.00     0.088 A 
ATOM      4  C   UNL     1       4.403  -1.949  12.475  1.00  0.00     0.035 A 
ATOM      5  N   UNL     1       4.033  -1.602  10.042  1.00  0.00    -0.360 N 
ATOM      6  N   UNL     1       4.579   0.543  10.097  1.00  0.00    -0.360 N 
ATOM      7  C   UNL     1       5.612  -0.210  13.637  1.00  0.00     0.271 A 
ATOM      8  C   UNL     1       3.626  -0.375   9.587  1.00  0.00     0.205 C 
ATOM      9  C   UNL     1       5.464   0.613  12.478  1.00  0.00     0.113 A 
ATOM     10  H   UNL     1       4.004  -2.519   9.574  1.00  0.00     0.163 HD
ATOM     11  H   UNL     1       4.969   1.371   9.625  1.00  0.00     0.163 HD
ENDROOT
BRANCH   8  12
ATOM     12  C   UNL     1       3.292  -0.202   8.079  1.00  0.00    -0.003 A 
ATOM     13  C   UNL     1       3.566   1.181   6.043  1.00  0.00     0.042 A 
ATOM     14  C   UNL     1       4.135   0.524   7.208  1.00  0.00     0.028 A 
ATOM     15  C   UNL     1       2.335   0.605   5.488  1.00  0.00     0.041 A 
ATOM     16  C   UNL     1       1.688  -0.433   6.283  1.00  0.00     0.042 A 
ATOM     17  C   UNL     1       2.031  -0.730   7.625  1.00  0.00     0.028 A 
ATOM     18  Cl  UNL     1       4.276   2.241   5.147  1.00  0.00    -0.084 Cl
ATOM     19  Cl  UNL     1       0.379  -1.247   5.544  1.00  0.00    -0.084 Cl
ENDBRANCH   8  12
BRANCH   7  20
ATOM     20  N   UNL     1       6.174   0.385  14.748  1.00  0.00     0.062 N 
ATOM     21  O   UNL     1       6.341   1.548  14.777  1.00  0.00    -0.258 OA
ATOM     22  O   UNL     1       6.339  -0.234  15.886  1.00  0.00    -0.258 OA
ENDBRANCH   7  20
TORSDOF 2
ENDMDL
MODEL 9
REMARK VINA RESULT:    -3.843      0.648      2.099
REMARK INTER + INTRA:          -4.609
REMARK INTER:                  -4.309
REMARK INTRA:                  -0.300
REMARK UNBOUND:                -0.316
REMARK SMILES O=[N+]([O-])c1ccc2c(c1)N[C@@H](c1cc(Cl)cc(Cl)c1)N2
REMARK SMILES IDX 7 1 8 2 5 3 6 4 20 5 10 6 4 7 11 8 9 9 12 12 14 13 13 14
REMARK SMILES IDX 16 15 17 16 19 17 15 18 18 19 2 20 3 21 1 22
REMARK H PARENT 20 10 10 11
ROOT
ATOM      1  C   UNL     1       4.296  -0.695  11.474  1.00  0.00     0.060 A 
ATOM      2  C   UNL     1       3.806  -1.910  11.060  1.00  0.00     0.066 A 
ATOM      3  C   UNL     1       4.963  -1.596  13.546  1.00  0.00     0.088 A 
ATOM      4  C   UNL     1       5.047  -0.586  12.549  1.00  0.00     0.035 A 
ATOM      5  N   UNL     1       4.096   0.285  10.424  1.00  0.00    -0.360 N 
ATOM      6  N   UNL     1       3.346  -1.689   9.759  1.00  0.00    -0.360 N 
ATOM      7  C   UNL     1       4.345  -2.799  13.215  1.00  0.00     0.271 A 
ATOM      8  C   UNL     1       4.038  -0.530   9.324  1.00  0.00     0.205 C 
ATOM      9  C   UNL     1       3.772  -2.965  11.915  1.00  0.00     0.113 A 
ATOM     10  H   UNL     1       4.019   1.310  10.487  1.00  0.00     0.163 HD
ATOM     11  H   UNL     1       2.658  -2.246   9.233  1.00  0.00     0.163 HD
ENDROOT
BRANCH   8  12
ATOM     12  C   UNL     1       3.543   0.059   7.974  1.00  0.00    -0.003 A 
ATOM     13  C   UNL     1       2.136  -0.271   5.962  1.00  0.00     0.042 A 
ATOM     14  C   UNL     1       2.305  -0.319   7.405  1.00  0.00     0.028 A 
ATOM     15  C   UNL     1       2.969   0.687   5.225  1.00  0.00     0.041 A 
ATOM     16  C   UNL     1       4.032   1.340   5.981  1.00  0.00     0.042 A 
ATOM     17  C   UNL     1       4.448   0.934   7.273  1.00  0.00     0.028 A 
ATOM     18  Cl  UNL     1       0.966  -0.908   5.153  1.00  0.00    -0.084 Cl
ATOM     19  Cl  UNL     1       4.863   2.602   5.183  1.00  0.00    -0.084 Cl
ENDBRANCH   8  12
BRANCH   7  20
ATOM     20  N   UNL     1       4.335  -3.906  14.039  1.00  0.00     0.062 N 
ATOM     21  O   UNL     1       4.120  -4.974  13.595  1.00  0.00    -0.258 OA
ATOM     22  O   UNL     1       4.772  -3.887  15.268  1.00  0.00    -0.258 OA
ENDBRANCH   7  20
TORSDOF 2
ENDMDL
