MODEL 1
REMARK VINA RESULT:    -4.842      0.000      0.000
REMARK INTER + INTRA:          -5.724
REMARK INTER:                  -5.409
REMARK INTRA:                  -0.315
REMARK UNBOUND:                -0.315
REMARK SMILES O=[N+]([O-])c1ccc2c(c1)N[C@@H](c1cc(Cl)cc(Cl)c1)N2
REMARK SMILES IDX 7 1 8 2 5 3 6 4 20 5 10 6 4 7 11 8 9 9 12 12 14 13 13 14
REMARK SMILES IDX 16 15 17 16 19 17 15 18 18 19 2 20 3 21 1 22
REMARK H PARENT 20 10 10 11
ROOT
ATOM      1  C   UNL     1      -7.589  -8.746  -2.498  1.00  0.00     0.060 A 
ATOM      2  C   UNL     1      -7.647  -9.058  -1.161  1.00  0.00     0.066 A 
ATOM      3  C   UNL     1      -9.222 -10.365  -3.013  1.00  0.00     0.088 A 
ATOM      4  C   UNL     1      -8.489  -9.194  -3.348  1.00  0.00     0.035 A 
ATOM      5  N   UNL     1      -6.622  -7.685  -2.701  1.00  0.00    -0.360 N 
ATOM      6  N   UNL     1      -6.755  -8.175  -0.546  1.00  0.00    -0.360 N 
ATOM      7  C   UNL     1      -9.195 -10.803  -1.691  1.00  0.00     0.271 A 
ATOM      8  C   UNL     1      -6.623  -7.100  -1.462  1.00  0.00     0.205 C 
ATOM      9  C   UNL     1      -8.398 -10.105  -0.731  1.00  0.00     0.113 A 
ATOM     10  H   UNL     1      -6.083  -7.439  -3.543  1.00  0.00     0.163 HD
ATOM     11  H   UNL     1      -6.296  -8.281   0.370  1.00  0.00     0.163 HD
ENDROOT
BRANCH   8  12
ATOM     12  C   UNL     1      -5.509  -6.075  -1.111  1.00  0.00    -0.003 A 
ATOM     13  C   UNL     1      -4.153  -4.148  -1.874  1.00  0.00     0.042 A 
ATOM     14  C   UNL     1      -5.441  -4.807  -1.732  1.00  0.00     0.028 A 
ATOM     15  C   UNL     1      -3.117  -4.490  -0.893  1.00  0.00     0.041 A 
ATOM     16  C   UNL     1      -3.408  -5.611  -0.005  1.00  0.00     0.042 A 
ATOM     17  C   UNL     1      -4.486  -6.511  -0.195  1.00  0.00     0.028 A 
ATOM     18  Cl  UNL     1      -3.850  -2.907  -2.768  1.00  0.00    -0.084 Cl
ATOM     19  Cl  UNL     1      -2.300  -5.876   1.269  1.00  0.00    -0.084 Cl
ENDBRANCH   8  12
BRANCH   7  20
ATOM     20  N   UNL     1      -9.980 -11.830  -1.209  1.00  0.00     0.062 N 
ATOM     21  O   UNL     1     -10.180 -11.934  -0.055  1.00  0.00    -0.258 OA
ATOM     22  O   UNL     1     -10.717 -12.588  -1.976  1.00  0.00    -0.258 OA
ENDBRANCH   7  20
TORSDOF 2
ENDMDL
MODEL 2
REMARK VINA RESULT:    -4.832      0.985      2.650
REMARK INTER + INTRA:          -5.712
REMARK INTER:                  -5.397
REMARK INTRA:                  -0.315
REMARK UNBOUND:                -0.315
REMARK SMILES O=[N+]([O-])c1ccc2c(c1)N[C@@H](c1cc(Cl)cc(Cl)c1)N2
REMARK SMILES IDX 7 1 8 2 5 3 6 4 20 5 10 6 4 7 11 8 9 9 12 12 14 13 13 14
REMARK SMILES IDX 16 15 17 16 19 17 15 18 18 19 2 20 3 21 1 22
REMARK H PARENT 20 10 10 11
ROOT
ATOM      1  C   UNL     1      -7.590  -9.094  -0.910  1.00  0.00     0.060 A 
ATOM      2  C   UNL     1      -7.641  -8.905  -2.271  1.00  0.00     0.066 A 
ATOM      3  C   UNL     1      -9.145 -10.859  -1.031  1.00  0.00     0.088 A 
ATOM      4  C   UNL     1      -8.118 -10.157  -0.343  1.00  0.00     0.035 A 
ATOM      5  N   UNL     1      -6.664  -8.141  -0.330  1.00  0.00    -0.360 N 
ATOM      6  N   UNL     1      -6.730  -7.877  -2.527  1.00  0.00    -0.360 N 
ATOM      7  C   UNL     1      -9.329 -10.597  -2.386  1.00  0.00     0.271 A 
ATOM      8  C   UNL     1      -5.859  -7.879  -1.408  1.00  0.00     0.205 C 
ATOM      9  C   UNL     1      -8.527  -9.602  -3.028  1.00  0.00     0.113 A 
ATOM     10  H   UNL     1      -6.622  -7.765   0.628  1.00  0.00     0.163 HD
ATOM     11  H   UNL     1      -6.698  -7.255  -3.348  1.00  0.00     0.163 HD
ENDROOT
BRANCH   8  12
ATOM     12  C   UNL     1      -4.876  -6.678  -1.341  1.00  0.00    -0.003 A 
ATOM     13  C   UNL     1      -3.227  -5.424   0.016  1.00  0.00     0.042 A 
ATOM     14  C   UNL     1      -3.749  -6.683  -0.488  1.00  0.00     0.028 A 
ATOM     15  C   UNL     1      -3.466  -4.229  -0.801  1.00  0.00     0.041 A 
ATOM     16  C   UNL     1      -4.384  -4.382  -1.924  1.00  0.00     0.042 A 
ATOM     17  C   UNL     1      -5.218  -5.511  -2.115  1.00  0.00     0.028 A 
ATOM     18  Cl  UNL     1      -2.193  -5.256   1.170  1.00  0.00    -0.084 Cl
ATOM     19  Cl  UNL     1      -4.501  -3.054  -2.994  1.00  0.00    -0.084 Cl
ENDBRANCH   8  12
BRANCH   7  20
ATOM     20  N   UNL     1     -10.184 -11.317  -3.196  1.00  0.00     0.062 N 
ATOM     21  O   UNL     1     -10.036 -11.317  -4.362  1.00  0.00    -0.258 OA
ATOM     22  O   UNL     1     -11.033 -12.196  -2.737  1.00  0.00    -0.258 OA
ENDBRANCH   7  20
TORSDOF 2
ENDMDL
MODEL 3
REMARK VINA RESULT:    -4.461      5.093      7.819
REMARK INTER + INTRA:          -5.298
REMARK INTER:                  -4.978
REMARK INTRA:                  -0.320
REMARK UNBOUND:                -0.315
REMARK SMILES O=[N+]([O-])c1ccc2c(c1)N[C@@H](c1cc(Cl)cc(Cl)c1)N2
REMARK SMILES IDX 7 1 8 2 5 3 6 4 20 5 10 6 4 7 11 8 9 9 12 12 14 13 13 14
REMARK SMILES IDX 16 15 17 16 19 17 15 18 18 19 2 20 3 21 1 22
REMARK H PARENT 20 10 10 11
ROOT
ATOM      1  C   UNL     1      -4.910  -6.471  -0.478  1.00  0.00     0.060 A 
ATOM      2  C   UNL     1      -5.091  -5.928  -1.728  1.00  0.00     0.066 A 
ATOM      3  C   UNL     1      -3.283  -4.855   0.060  1.00  0.00     0.088 A 
ATOM      4  C   UNL     1      -4.230  -5.839   0.454  1.00  0.00     0.035 A 
ATOM      5  N   UNL     1      -5.791  -7.611  -0.320  1.00  0.00    -0.360 N 
ATOM      6  N   UNL     1      -6.096  -6.701  -2.315  1.00  0.00    -0.360 N 
ATOM      7  C   UNL     1      -3.336  -4.375  -1.247  1.00  0.00     0.271 A 
ATOM      8  C   UNL     1      -6.774  -7.301  -1.223  1.00  0.00     0.205 C 
ATOM      9  C   UNL     1      -4.294  -4.916  -2.160  1.00  0.00     0.113 A 
ATOM     10  H   UNL     1      -5.703  -8.429   0.300  1.00  0.00     0.163 HD
ATOM     11  H   UNL     1      -6.300  -6.810  -3.318  1.00  0.00     0.163 HD
ENDROOT
BRANCH   8  12
ATOM     12  C   UNL     1      -7.811  -8.390  -1.615  1.00  0.00    -0.003 A 
ATOM     13  C   UNL     1      -8.957 -10.487  -0.964  1.00  0.00     0.042 A 
ATOM     14  C   UNL     1      -8.503  -9.145  -0.641  1.00  0.00     0.028 A 
ATOM     15  C   UNL     1      -9.224 -10.777  -2.378  1.00  0.00     0.041 A 
ATOM     16  C   UNL     1      -8.805  -9.764  -3.340  1.00  0.00     0.042 A 
ATOM     17  C   UNL     1      -7.963  -8.670  -3.020  1.00  0.00     0.028 A 
ATOM     18  Cl  UNL     1      -9.472 -11.552   0.051  1.00  0.00    -0.084 Cl
ATOM     19  Cl  UNL     1      -9.301 -10.004  -4.958  1.00  0.00    -0.084 Cl
ENDBRANCH   8  12
BRANCH   7  20
ATOM     20  N   UNL     1      -2.577  -3.317  -1.705  1.00  0.00     0.062 N 
ATOM     21  O   UNL     1      -2.846  -2.791  -2.721  1.00  0.00    -0.258 OA
ATOM     22  O   UNL     1      -1.692  -2.700  -0.970  1.00  0.00    -0.258 OA
ENDBRANCH   7  20
TORSDOF 2
ENDMDL
MODEL 4
REMARK VINA RESULT:    -4.444      5.115      7.583
REMARK INTER + INTRA:          -5.279
REMARK INTER:                  -4.979
REMARK INTRA:                  -0.299
REMARK UNBOUND:                -0.315
REMARK SMILES O=[N+]([O-])c1ccc2c(c1)N[C@@H](c1cc(Cl)cc(Cl)c1)N2
REMARK SMILES IDX 7 1 8 2 5 3 6 4 20 5 10 6 4 7 11 8 9 9 12 12 14 13 13 14
REMARK SMILES IDX 16 15 17 16 19 17 15 18 18 19 2 20 3 21 1 22
REMARK H PARENT 20 10 10 11
ROOT
ATOM      1  C   UNL     1      -4.877  -6.600  -0.467  1.00  0.00     0.060 A 
ATOM      2  C   UNL     1      -5.019  -6.138  -1.753  1.00  0.00     0.066 A 
ATOM      3  C   UNL     1      -3.492  -4.781   0.103  1.00  0.00     0.088 A 
ATOM      4  C   UNL     1      -4.349  -5.851   0.478  1.00  0.00     0.035 A 
ATOM      5  N   UNL     1      -5.632  -7.828  -0.313  1.00  0.00    -0.360 N 
ATOM      6  N   UNL     1      -5.881  -7.049  -2.371  1.00  0.00    -0.360 N 
ATOM      7  C   UNL     1      -3.497  -4.369  -1.228  1.00  0.00     0.271 A 
ATOM      8  C   UNL     1      -6.569  -7.676  -1.301  1.00  0.00     0.205 C 
ATOM      9  C   UNL     1      -4.311  -5.059  -2.178  1.00  0.00     0.113 A 
ATOM     10  H   UNL     1      -5.500  -8.602   0.354  1.00  0.00     0.163 HD
ATOM     11  H   UNL     1      -5.991  -7.226  -3.379  1.00  0.00     0.163 HD
ENDROOT
BRANCH   8  12
ATOM     12  C   UNL     1      -7.441  -8.896  -1.710  1.00  0.00    -0.003 A 
ATOM     13  C   UNL     1      -8.881  -9.925  -3.442  1.00  0.00     0.042 A 
ATOM     14  C   UNL     1      -7.658  -9.236  -3.064  1.00  0.00     0.028 A 
ATOM     15  C   UNL     1      -9.527 -10.748  -2.413  1.00  0.00     0.041 A 
ATOM     16  C   UNL     1      -9.002 -10.624  -1.057  1.00  0.00     0.042 A 
ATOM     17  C   UNL     1      -8.102  -9.609  -0.647  1.00  0.00     0.028 A 
ATOM     18  Cl  UNL     1      -9.414 -10.121  -4.893  1.00  0.00    -0.084 Cl
ATOM     19  Cl  UNL     1      -9.611 -11.731   0.095  1.00  0.00    -0.084 Cl
ENDBRANCH   8  12
BRANCH   7  20
ATOM     20  N   UNL     1      -2.830  -3.251  -1.684  1.00  0.00     0.062 N 
ATOM     21  O   UNL     1      -1.898  -2.836  -1.100  1.00  0.00    -0.258 OA
ATOM     22  O   UNL     1      -3.027  -2.733  -2.866  1.00  0.00    -0.258 OA
ENDBRANCH   7  20
TORSDOF 2
ENDMDL
MODEL 5
REMARK VINA RESULT:    -4.406      0.736      2.142
REMARK INTER + INTRA:          -5.237
REMARK INTER:                  -4.937
REMARK INTRA:                  -0.300
REMARK UNBOUND:                -0.315
REMARK SMILES O=[N+]([O-])c1ccc2c(c1)N[C@@H](c1cc(Cl)cc(Cl)c1)N2
REMARK SMILES IDX 7 1 8 2 5 3 6 4 20 5 10 6 4 7 11 8 9 9 12 12 14 13 13 14
REMARK SMILES IDX 16 15 17 16 19 17 15 18 18 19 2 20 3 21 1 22
REMARK H PARENT 20 10 10 11
ROOT
ATOM      1  C   UNL     1      -7.602  -9.129  -2.021  1.00  0.00     0.060 A 
ATOM      2  C   UNL     1      -7.483  -9.204  -0.654  1.00  0.00     0.066 A 
ATOM      3  C   UNL     1      -9.303 -10.758  -2.029  1.00  0.00     0.088 A 
ATOM      4  C   UNL     1      -8.610  -9.686  -2.655  1.00  0.00     0.035 A 
ATOM      5  N   UNL     1      -6.660  -8.151  -2.529  1.00  0.00    -0.360 N 
ATOM      6  N   UNL     1      -6.510  -8.257  -0.323  1.00  0.00    -0.360 N 
ATOM      7  C   UNL     1      -9.104 -10.963  -0.665  1.00  0.00     0.271 A 
ATOM      8  C   UNL     1      -6.490  -7.361  -1.422  1.00  0.00     0.205 C 
ATOM      9  C   UNL     1      -8.180 -10.136   0.046  1.00  0.00     0.113 A 
ATOM     10  H   UNL     1      -6.236  -8.071  -3.464  1.00  0.00     0.163 HD
ATOM     11  H   UNL     1      -5.934  -8.219   0.530  1.00  0.00     0.163 HD
ENDROOT
BRANCH   8  12
ATOM     12  C   UNL     1      -5.330  -6.327  -1.403  1.00  0.00    -0.003 A 
ATOM     13  C   UNL     1      -3.449  -5.349  -0.124  1.00  0.00     0.042 A 
ATOM     14  C   UNL     1      -4.182  -6.510  -0.600  1.00  0.00     0.028 A 
ATOM     15  C   UNL     1      -3.534  -4.129  -0.934  1.00  0.00     0.041 A 
ATOM     16  C   UNL     1      -4.513  -4.134  -2.016  1.00  0.00     0.042 A 
ATOM     17  C   UNL     1      -5.520  -5.120  -2.166  1.00  0.00     0.028 A 
ATOM     18  Cl  UNL     1      -2.352  -5.346   0.984  1.00  0.00    -0.084 Cl
ATOM     19  Cl  UNL     1      -4.468  -2.802  -3.085  1.00  0.00    -0.084 Cl
ENDBRANCH   8  12
BRANCH   7  20
ATOM     20  N   UNL     1      -9.829 -11.866   0.086  1.00  0.00     0.062 N 
ATOM     21  O   UNL     1      -9.771 -11.842   1.260  1.00  0.00    -0.258 OA
ATOM     22  O   UNL     1     -10.767 -12.623  -0.414  1.00  0.00    -0.258 OA
ENDBRANCH   7  20
TORSDOF 2
ENDMDL
MODEL 6
REMARK VINA RESULT:    -4.304      1.156      1.894
REMARK INTER + INTRA:          -5.122
REMARK INTER:                  -4.824
REMARK INTRA:                  -0.298
REMARK UNBOUND:                -0.315
REMARK SMILES O=[N+]([O-])c1ccc2c(c1)N[C@@H](c1cc(Cl)cc(Cl)c1)N2
REMARK SMILES IDX 7 1 8 2 5 3 6 4 20 5 10 6 4 7 11 8 9 9 12 12 14 13 13 14
REMARK SMILES IDX 16 15 17 16 19 17 15 18 18 19 2 20 3 21 1 22
REMARK H PARENT 20 10 10 11
ROOT
ATOM      1  C   UNL     1      -7.797  -8.945  -1.155  1.00  0.00     0.060 A 
ATOM      2  C   UNL     1      -7.692  -8.637  -2.490  1.00  0.00     0.066 A 
ATOM      3  C   UNL     1      -9.205 -10.776  -1.621  1.00  0.00     0.088 A 
ATOM      4  C   UNL     1      -8.319 -10.084  -0.751  1.00  0.00     0.035 A 
ATOM      5  N   UNL     1      -7.015  -8.000  -0.383  1.00  0.00    -0.360 N 
ATOM      6  N   UNL     1      -6.827  -7.541  -2.541  1.00  0.00    -0.360 N 
ATOM      7  C   UNL     1      -9.238 -10.401  -2.962  1.00  0.00     0.271 A 
ATOM      8  C   UNL     1      -6.102  -7.597  -1.323  1.00  0.00     0.205 C 
ATOM      9  C   UNL     1      -8.431  -9.310  -3.411  1.00  0.00     0.113 A 
ATOM     10  H   UNL     1      -7.116  -7.710   0.600  1.00  0.00     0.163 HD
ATOM     11  H   UNL     1      -6.735  -6.846  -3.296  1.00  0.00     0.163 HD
ENDROOT
BRANCH   8  12
ATOM     12  C   UNL     1      -5.216  -6.354  -1.031  1.00  0.00    -0.003 A 
ATOM     13  C   UNL     1      -4.250  -4.248  -1.905  1.00  0.00     0.042 A 
ATOM     14  C   UNL     1      -5.386  -5.137  -1.729  1.00  0.00     0.028 A 
ATOM     15  C   UNL     1      -3.184  -4.322  -0.900  1.00  0.00     0.041 A 
ATOM     16  C   UNL     1      -3.264  -5.424   0.053  1.00  0.00     0.042 A 
ATOM     17  C   UNL     1      -4.142  -6.527  -0.086  1.00  0.00     0.028 A 
ATOM     18  Cl  UNL     1      -4.181  -3.027  -2.871  1.00  0.00    -0.084 Cl
ATOM     19  Cl  UNL     1      -2.146  -5.390   1.345  1.00  0.00    -0.084 Cl
ENDBRANCH   8  12
BRANCH   7  20
ATOM     20  N   UNL     1      -9.937 -11.090  -3.932  1.00  0.00     0.062 N 
ATOM     21  O   UNL     1      -9.527 -11.146  -5.032  1.00  0.00    -0.258 OA
ATOM     22  O   UNL     1     -10.934 -11.889  -3.664  1.00  0.00    -0.258 OA
ENDBRANCH   7  20
TORSDOF 2
ENDMDL
MODEL 7
REMARK VINA RESULT:    -4.248      3.258      4.671
REMARK INTER + INTRA:          -5.060
REMARK INTER:                  -4.753
REMARK INTRA:                  -0.308
REMARK UNBOUND:                -0.315
REMARK SMILES O=[N+]([O-])c1ccc2c(c1)N[C@@H](c1cc(Cl)cc(Cl)c1)N2
REMARK SMILES IDX 7 1 8 2 5 3 6 4 20 5 10 6 4 7 11 8 9 9 12 12 14 13 13 14
REMARK SMILES IDX 16 15 17 16 19 17 15 18 18 19 2 20 3 21 1 22
REMARK H PARENT 20 10 10 11
ROOT
ATOM      1  C   UNL     1      -9.383 -11.681   0.564  1.00  0.00     0.060 A 
ATOM      2  C   UNL     1      -9.684 -10.673   1.449  1.00  0.00     0.066 A 
ATOM      3  C   UNL     1     -10.945 -13.125   1.576  1.00  0.00     0.088 A 
ATOM      4  C   UNL     1     -10.132 -12.759   0.470  1.00  0.00     0.035 A 
ATOM      5  N   UNL     1      -8.366 -11.219  -0.359  1.00  0.00    -0.360 N 
ATOM      6  N   UNL     1      -8.890  -9.595   1.050  1.00  0.00    -0.360 N 
ATOM      7  C   UNL     1     -11.164 -12.178   2.575  1.00  0.00     0.271 A 
ATOM      8  C   UNL     1      -8.567  -9.865  -0.304  1.00  0.00     0.205 C 
ATOM      9  C   UNL     1     -10.529 -10.901   2.488  1.00  0.00     0.113 A 
ATOM     10  H   UNL     1      -7.680 -11.759  -0.906  1.00  0.00     0.163 HD
ATOM     11  H   UNL     1      -8.602  -8.783   1.616  1.00  0.00     0.163 HD
ENDROOT
BRANCH   8  12
ATOM     12  C   UNL     1      -7.504  -8.917  -0.925  1.00  0.00    -0.003 A 
ATOM     13  C   UNL     1      -5.099  -8.488  -1.332  1.00  0.00     0.042 A 
ATOM     14  C   UNL     1      -6.239  -9.389  -1.343  1.00  0.00     0.028 A 
ATOM     15  C   UNL     1      -5.381  -7.055  -1.477  1.00  0.00     0.041 A 
ATOM     16  C   UNL     1      -6.783  -6.658  -1.401  1.00  0.00     0.042 A 
ATOM     17  C   UNL     1      -7.825  -7.513  -0.964  1.00  0.00     0.028 A 
ATOM     18  Cl  UNL     1      -3.603  -8.897  -1.482  1.00  0.00    -0.084 Cl
ATOM     19  Cl  UNL     1      -7.130  -5.027  -1.776  1.00  0.00    -0.084 Cl
ENDBRANCH   8  12
BRANCH   7  20
ATOM     20  N   UNL     1     -12.051 -12.356   3.617  1.00  0.00     0.062 N 
ATOM     21  O   UNL     1     -11.892 -13.227   4.390  1.00  0.00    -0.258 OA
ATOM     22  O   UNL     1     -12.957 -11.474   3.944  1.00  0.00    -0.258 OA
ENDBRANCH   7  20
TORSDOF 2
ENDMDL
MODEL 8
REMARK VINA RESULT:    -4.246      3.685      4.745
REMARK INTER + INTRA:          -5.058
REMARK INTER:                  -4.753
REMARK INTRA:                  -0.305
REMARK UNBOUND:                -0.315
REMARK SMILES O=[N+]([O-])c1ccc2c(c1)N[C@@H](c1cc(Cl)cc(Cl)c1)N2
REMARK SMILES IDX 7 1 8 2 5 3 6 4 20 5 10 6 4 7 11 8 9 9 12 12 14 13 13 14
REMARK SMILES IDX 16 15 17 16 19 17 15 18 18 19 2 20 3 21 1 22
REMARK H PARENT 20 10 10 11
ROOT
ATOM      1  C   UNL     1      -9.645 -10.320  -4.677  1.00  0.00     0.060 A 
ATOM      2  C   UNL     1      -8.469 -10.379  -5.385  1.00  0.00     0.066 A 
ATOM      3  C   UNL     1     -10.714 -11.760  -6.204  1.00  0.00     0.088 A 
ATOM      4  C   UNL     1     -10.639 -11.145  -4.925  1.00  0.00     0.035 A 
ATOM      5  N   UNL     1      -9.465  -9.463  -3.521  1.00  0.00    -0.360 N 
ATOM      6  N   UNL     1      -7.568  -9.601  -4.654  1.00  0.00    -0.360 N 
ATOM      7  C   UNL     1      -9.585 -11.722  -7.020  1.00  0.00     0.271 A 
ATOM      8  C   UNL     1      -8.109  -9.557  -3.344  1.00  0.00     0.205 C 
ATOM      9  C   UNL     1      -8.417 -11.028  -6.578  1.00  0.00     0.113 A 
ATOM     10  H   UNL     1     -10.163  -8.932  -2.982  1.00  0.00     0.163 HD
ATOM     11  H   UNL     1      -6.702  -9.157  -4.991  1.00  0.00     0.163 HD
ENDROOT
BRANCH   8  12
ATOM     12  C   UNL     1      -7.404  -8.566  -2.377  1.00  0.00    -0.003 A 
ATOM     13  C   UNL     1      -7.299  -6.253  -1.497  1.00  0.00     0.042 A 
ATOM     14  C   UNL     1      -8.069  -7.432  -1.857  1.00  0.00     0.028 A 
ATOM     15  C   UNL     1      -5.897  -6.464  -1.117  1.00  0.00     0.041 A 
ATOM     16  C   UNL     1      -5.356  -7.799  -1.344  1.00  0.00     0.042 A 
ATOM     17  C   UNL     1      -6.007  -8.797  -2.111  1.00  0.00     0.028 A 
ATOM     18  Cl  UNL     1      -7.875  -4.839  -1.185  1.00  0.00    -0.084 Cl
ATOM     19  Cl  UNL     1      -3.797  -8.102  -0.712  1.00  0.00    -0.084 Cl
ENDBRANCH   8  12
BRANCH   7  20
ATOM     20  N   UNL     1      -9.480 -12.409  -8.212  1.00  0.00     0.062 N 
ATOM     21  O   UNL     1      -9.928 -11.955  -9.200  1.00  0.00    -0.258 OA
ATOM     22  O   UNL     1      -8.709 -13.450  -8.373  1.00  0.00    -0.258 OA
ENDBRANCH   7  20
TORSDOF 2
ENDMDL
MODEL 9
REMARK VINA RESULT:    -4.118      4.053      5.823
REMARK INTER + INTRA:          -4.915
REMARK INTER:                  -4.609
REMARK INTRA:                  -0.306
REMARK UNBOUND:                -0.315
REMARK SMILES O=[N+]([O-])c1ccc2c(c1)N[C@@H](c1cc(Cl)cc(Cl)c1)N2
REMARK SMILES IDX 7 1 8 2 5 3 6 4 20 5 10 6 4 7 11 8 9 9 12 12 14 13 13 14
REMARK SMILES IDX 16 15 17 16 19 17 15 18 18 19 2 20 3 21 1 22
REMARK H PARENT 20 10 10 11
ROOT
ATOM      1  C   UNL     1     -10.596 -11.125   1.914  1.00  0.00     0.060 A 
ATOM      2  C   UNL     1     -10.434 -12.280   1.187  1.00  0.00     0.066 A 
ATOM      3  C   UNL     1     -11.895 -12.245   3.528  1.00  0.00     0.088 A 
ATOM      4  C   UNL     1     -11.088 -11.144   3.134  1.00  0.00     0.035 A 
ATOM      5  N   UNL     1      -9.899 -10.041   1.251  1.00  0.00    -0.360 N 
ATOM      6  N   UNL     1      -9.616 -11.918   0.113  1.00  0.00    -0.360 N 
ATOM      7  C   UNL     1     -11.873 -13.394   2.740  1.00  0.00     0.271 A 
ATOM      8  C   UNL     1      -8.956 -10.739   0.543  1.00  0.00     0.205 C 
ATOM      9  C   UNL     1     -11.092 -13.414   1.543  1.00  0.00     0.113 A 
ATOM     10  H   UNL     1     -10.065  -9.025   1.298  1.00  0.00     0.163 HD
ATOM     11  H   UNL     1      -9.515 -12.402  -0.791  1.00  0.00     0.163 HD
ENDROOT
BRANCH   8  12
ATOM     12  C   UNL     1      -8.142 -10.006  -0.559  1.00  0.00    -0.003 A 
ATOM     13  C   UNL     1      -6.614  -8.135  -1.105  1.00  0.00     0.042 A 
ATOM     14  C   UNL     1      -6.985  -9.254  -0.255  1.00  0.00     0.028 A 
ATOM     15  C   UNL     1      -7.053  -8.188  -2.505  1.00  0.00     0.041 A 
ATOM     16  C   UNL     1      -7.996  -9.246  -2.851  1.00  0.00     0.042 A 
ATOM     17  C   UNL     1      -8.677 -10.041  -1.897  1.00  0.00     0.028 A 
ATOM     18  Cl  UNL     1      -5.557  -7.039  -0.772  1.00  0.00    -0.084 Cl
ATOM     19  Cl  UNL     1      -8.343  -9.437  -4.514  1.00  0.00    -0.084 Cl
ENDBRANCH   8  12
BRANCH   7  20
ATOM     20  N   UNL     1     -12.488 -14.577   3.095  1.00  0.00     0.062 N 
ATOM     21  O   UNL     1     -12.446 -14.957   4.206  1.00  0.00    -0.258 OA
ATOM     22  O   UNL     1     -13.320 -15.213   2.315  1.00  0.00    -0.258 OA
ENDBRANCH   7  20
TORSDOF 2
ENDMDL
