MODEL 1
REMARK VINA RESULT:    -4.797      0.000      0.000
REMARK INTER + INTRA:          -5.672
REMARK INTER:                  -5.358
REMARK INTRA:                  -0.314
REMARK UNBOUND:                -0.314
REMARK SMILES O=[N+]([O-])c1ccc2c(c1)N[C@@H](c1cc(Cl)cc(Cl)c1)N2
REMARK SMILES IDX 7 1 8 2 5 3 6 4 20 5 10 6 4 7 11 8 9 9 12 12 14 13 13 14
REMARK SMILES IDX 16 15 17 16 19 17 15 18 18 19 2 20 3 21 1 22
REMARK H PARENT 20 10 10 11
ROOT
ATOM      1  C   UNL     1       4.602  -6.651  -9.134  1.00  0.00     0.060 A 
ATOM      2  C   UNL     1       4.321  -7.714  -8.309  1.00  0.00     0.066 A 
ATOM      3  C   UNL     1       5.279  -8.092 -10.870  1.00  0.00     0.088 A 
ATOM      4  C   UNL     1       4.835  -6.820 -10.418  1.00  0.00     0.035 A 
ATOM      5  N   UNL     1       4.310  -5.415  -8.436  1.00  0.00    -0.360 N 
ATOM      6  N   UNL     1       3.827  -7.140  -7.135  1.00  0.00    -0.360 N 
ATOM      7  C   UNL     1       5.145  -9.180 -10.011  1.00  0.00     0.271 A 
ATOM      8  C   UNL     1       3.385  -5.850  -7.524  1.00  0.00     0.205 C 
ATOM      9  C   UNL     1       4.623  -8.982  -8.695  1.00  0.00     0.113 A 
ATOM     10  H   UNL     1       4.692  -4.470  -8.585  1.00  0.00     0.163 HD
ATOM     11  H   UNL     1       3.793  -7.560  -6.196  1.00  0.00     0.163 HD
ENDROOT
BRANCH   8  12
ATOM     12  C   UNL     1       2.985  -4.914  -6.349  1.00  0.00    -0.003 A 
ATOM     13  C   UNL     1       2.281  -2.642  -5.659  1.00  0.00     0.042 A 
ATOM     14  C   UNL     1       2.152  -3.789  -6.543  1.00  0.00     0.028 A 
ATOM     15  C   UNL     1       2.789  -2.897  -4.306  1.00  0.00     0.041 A 
ATOM     16  C   UNL     1       3.316  -4.233  -4.051  1.00  0.00     0.042 A 
ATOM     17  C   UNL     1       3.584  -5.185  -5.067  1.00  0.00     0.028 A 
ATOM     18  Cl  UNL     1       1.663  -1.230  -5.891  1.00  0.00    -0.084 Cl
ATOM     19  Cl  UNL     1       3.712  -4.595  -2.428  1.00  0.00    -0.084 Cl
ENDBRANCH   8  12
BRANCH   7  20
ATOM     20  N   UNL     1       5.395 -10.485 -10.384  1.00  0.00     0.062 N 
ATOM     21  O   UNL     1       4.920 -11.376  -9.782  1.00  0.00    -0.258 OA
ATOM     22  O   UNL     1       5.956 -10.811 -11.517  1.00  0.00    -0.258 OA
ENDBRANCH   7  20
TORSDOF 2
ENDMDL
MODEL 2
REMARK VINA RESULT:    -4.788      1.191      2.772
REMARK INTER + INTRA:          -5.661
REMARK INTER:                  -5.347
REMARK INTRA:                  -0.314
REMARK UNBOUND:                -0.314
REMARK SMILES O=[N+]([O-])c1ccc2c(c1)N[C@@H](c1cc(Cl)cc(Cl)c1)N2
REMARK SMILES IDX 7 1 8 2 5 3 6 4 20 5 10 6 4 7 11 8 9 9 12 12 14 13 13 14
REMARK SMILES IDX 16 15 17 16 19 17 15 18 18 19 2 20 3 21 1 22
REMARK H PARENT 20 10 10 11
ROOT
ATOM      1  C   UNL     1       4.471  -7.860  -8.094  1.00  0.00     0.060 A 
ATOM      2  C   UNL     1       4.756  -6.827  -8.954  1.00  0.00     0.066 A 
ATOM      3  C   UNL     1       5.004  -9.462  -9.737  1.00  0.00     0.088 A 
ATOM      4  C   UNL     1       4.803  -9.102  -8.377  1.00  0.00     0.035 A 
ATOM      5  N   UNL     1       4.058  -7.317  -6.815  1.00  0.00    -0.360 N 
ATOM      6  N   UNL     1       4.558  -5.666  -8.202  1.00  0.00    -0.360 N 
ATOM      7  C   UNL     1       5.157  -8.442 -10.673  1.00  0.00     0.271 A 
ATOM      8  C   UNL     1       4.664  -6.088  -6.853  1.00  0.00     0.205 C 
ATOM      9  C   UNL     1       5.054  -7.079 -10.256  1.00  0.00     0.113 A 
ATOM     10  H   UNL     1       3.472  -7.739  -6.080  1.00  0.00     0.163 HD
ATOM     11  H   UNL     1       4.376  -4.714  -8.551  1.00  0.00     0.163 HD
ENDROOT
BRANCH   8  12
ATOM     12  C   UNL     1       4.265  -5.018  -5.799  1.00  0.00    -0.003 A 
ATOM     13  C   UNL     1       3.868  -4.515  -3.407  1.00  0.00     0.042 A 
ATOM     14  C   UNL     1       4.687  -5.105  -4.453  1.00  0.00     0.028 A 
ATOM     15  C   UNL     1       3.010  -3.387  -3.789  1.00  0.00     0.041 A 
ATOM     16  C   UNL     1       2.901  -3.107  -5.216  1.00  0.00     0.042 A 
ATOM     17  C   UNL     1       3.360  -3.983  -6.231  1.00  0.00     0.028 A 
ATOM     18  Cl  UNL     1       4.022  -4.755  -1.875  1.00  0.00    -0.084 Cl
ATOM     19  Cl  UNL     1       2.076  -1.674  -5.646  1.00  0.00    -0.084 Cl
ENDBRANCH   8  12
BRANCH   7  20
ATOM     20  N   UNL     1       5.508  -8.659 -11.990  1.00  0.00     0.062 N 
ATOM     21  O   UNL     1       5.988  -7.795 -12.626  1.00  0.00    -0.258 OA
ATOM     22  O   UNL     1       5.549  -9.845 -12.534  1.00  0.00    -0.258 OA
ENDBRANCH   7  20
TORSDOF 2
ENDMDL
MODEL 3
REMARK VINA RESULT:    -4.444      5.119      7.582
REMARK INTER + INTRA:          -5.277
REMARK INTER:                  -4.978
REMARK INTRA:                  -0.299
REMARK UNBOUND:                -0.314
REMARK SMILES O=[N+]([O-])c1ccc2c(c1)N[C@@H](c1cc(Cl)cc(Cl)c1)N2
REMARK SMILES IDX 7 1 8 2 5 3 6 4 20 5 10 6 4 7 11 8 9 9 12 12 14 13 13 14
REMARK SMILES IDX 16 15 17 16 19 17 15 18 18 19 2 20 3 21 1 22
REMARK H PARENT 20 10 10 11
ROOT
ATOM      1  C   UNL     1       3.880  -5.431  -5.369  1.00  0.00     0.060 A 
ATOM      2  C   UNL     1       3.725  -4.399  -6.262  1.00  0.00     0.066 A 
ATOM      3  C   UNL     1       3.019  -4.125  -3.608  1.00  0.00     0.088 A 
ATOM      4  C   UNL     1       3.340  -5.390  -4.170  1.00  0.00     0.035 A 
ATOM      5  N   UNL     1       4.435  -6.580  -6.058  1.00  0.00    -0.360 N 
ATOM      6  N   UNL     1       4.142  -4.918  -7.490  1.00  0.00    -0.360 N 
ATOM      7  C   UNL     1       2.988  -3.017  -4.453  1.00  0.00     0.271 A 
ATOM      8  C   UNL     1       4.034  -6.324  -7.343  1.00  0.00     0.205 C 
ATOM      9  C   UNL     1       3.328  -3.172  -5.833  1.00  0.00     0.113 A 
ATOM     10  H   UNL     1       4.980  -7.370  -5.685  1.00  0.00     0.163 HD
ATOM     11  H   UNL     1       4.459  -4.395  -8.319  1.00  0.00     0.163 HD
ENDROOT
BRANCH   8  12
ATOM     12  C   UNL     1       4.649  -7.153  -8.505  1.00  0.00    -0.003 A 
ATOM     13  C   UNL     1       5.215  -7.239 -10.914  1.00  0.00     0.042 A 
ATOM     14  C   UNL     1       5.215  -6.535  -9.643  1.00  0.00     0.028 A 
ATOM     15  C   UNL     1       5.197  -8.705 -10.864  1.00  0.00     0.041 A 
ATOM     16  C   UNL     1       4.966  -9.308  -9.556  1.00  0.00     0.042 A 
ATOM     17  C   UNL     1       4.527  -8.586  -8.419  1.00  0.00     0.028 A 
ATOM     18  Cl  UNL     1       5.528  -6.617 -12.309  1.00  0.00    -0.084 Cl
ATOM     19  Cl  UNL     1       5.153 -11.005  -9.460  1.00  0.00    -0.084 Cl
ENDBRANCH   8  12
BRANCH   7  20
ATOM     20  N   UNL     1       2.545  -1.770  -4.063  1.00  0.00     0.062 N 
ATOM     21  O   UNL     1       2.480  -1.493  -2.922  1.00  0.00    -0.258 OA
ATOM     22  O   UNL     1       2.395  -0.773  -4.892  1.00  0.00    -0.258 OA
ENDBRANCH   7  20
TORSDOF 2
ENDMDL
MODEL 4
REMARK VINA RESULT:    -4.429      1.558      2.188
REMARK INTER + INTRA:          -5.261
REMARK INTER:                  -4.962
REMARK INTRA:                  -0.299
REMARK UNBOUND:                -0.314
REMARK SMILES O=[N+]([O-])c1ccc2c(c1)N[C@@H](c1cc(Cl)cc(Cl)c1)N2
REMARK SMILES IDX 7 1 8 2 5 3 6 4 20 5 10 6 4 7 11 8 9 9 12 12 14 13 13 14
REMARK SMILES IDX 16 15 17 16 19 17 15 18 18 19 2 20 3 21 1 22
REMARK H PARENT 20 10 10 11
ROOT
ATOM      1  C   UNL     1       4.359  -7.522  -8.708  1.00  0.00     0.060 A 
ATOM      2  C   UNL     1       4.593  -6.339  -9.367  1.00  0.00     0.066 A 
ATOM      3  C   UNL     1       5.176  -8.774 -10.529  1.00  0.00     0.088 A 
ATOM      4  C   UNL     1       4.841  -8.663  -9.152  1.00  0.00     0.035 A 
ATOM      5  N   UNL     1       3.801  -7.239  -7.401  1.00  0.00    -0.360 N 
ATOM      6  N   UNL     1       4.220  -5.342  -8.462  1.00  0.00    -0.360 N 
ATOM      7  C   UNL     1       5.285  -7.604 -11.276  1.00  0.00     0.271 A 
ATOM      8  C   UNL     1       4.273  -5.969  -7.192  1.00  0.00     0.205 C 
ATOM      9  C   UNL     1       5.009  -6.344 -10.660  1.00  0.00     0.113 A 
ATOM     10  H   UNL     1       3.212  -7.829  -6.795  1.00  0.00     0.163 HD
ATOM     11  H   UNL     1       3.962  -4.367  -8.672  1.00  0.00     0.163 HD
ENDROOT
BRANCH   8  12
ATOM     12  C   UNL     1       3.688  -5.130  -6.022  1.00  0.00    -0.003 A 
ATOM     13  C   UNL     1       2.660  -2.988  -5.322  1.00  0.00     0.042 A 
ATOM     14  C   UNL     1       2.732  -4.112  -6.240  1.00  0.00     0.028 A 
ATOM     15  C   UNL     1       3.116  -3.221  -3.947  1.00  0.00     0.041 A 
ATOM     16  C   UNL     1       3.793  -4.488  -3.692  1.00  0.00     0.042 A 
ATOM     17  C   UNL     1       4.239  -5.365  -4.712  1.00  0.00     0.028 A 
ATOM     18  Cl  UNL     1       1.882  -1.658  -5.557  1.00  0.00    -0.084 Cl
ATOM     19  Cl  UNL     1       4.135  -4.849  -2.057  1.00  0.00    -0.084 Cl
ENDBRANCH   8  12
BRANCH   7  20
ATOM     20  N   UNL     1       5.751  -7.566 -12.575  1.00  0.00     0.062 N 
ATOM     21  O   UNL     1       6.060  -6.543 -13.065  1.00  0.00    -0.258 OA
ATOM     22  O   UNL     1       6.089  -8.634 -13.245  1.00  0.00    -0.258 OA
ENDBRANCH   7  20
TORSDOF 2
ENDMDL
MODEL 5
REMARK VINA RESULT:    -4.423      0.731      2.141
REMARK INTER + INTRA:          -5.254
REMARK INTER:                  -4.954
REMARK INTRA:                  -0.300
REMARK UNBOUND:                -0.314
REMARK SMILES O=[N+]([O-])c1ccc2c(c1)N[C@@H](c1cc(Cl)cc(Cl)c1)N2
REMARK SMILES IDX 7 1 8 2 5 3 6 4 20 5 10 6 4 7 11 8 9 9 12 12 14 13 13 14
REMARK SMILES IDX 16 15 17 16 19 17 15 18 18 19 2 20 3 21 1 22
REMARK H PARENT 20 10 10 11
ROOT
ATOM      1  C   UNL     1       4.810  -7.232  -8.827  1.00  0.00     0.060 A 
ATOM      2  C   UNL     1       4.458  -8.113  -7.833  1.00  0.00     0.066 A 
ATOM      3  C   UNL     1       5.195  -8.993 -10.343  1.00  0.00     0.088 A 
ATOM      4  C   UNL     1       4.938  -7.621 -10.077  1.00  0.00     0.035 A 
ATOM      5  N   UNL     1       4.714  -5.877  -8.320  1.00  0.00    -0.360 N 
ATOM      6  N   UNL     1       4.113  -7.309  -6.743  1.00  0.00    -0.360 N 
ATOM      7  C   UNL     1       4.988  -9.913  -9.317  1.00  0.00     0.271 A 
ATOM      8  C   UNL     1       3.805  -6.047  -7.309  1.00  0.00     0.205 C 
ATOM      9  C   UNL     1       4.579  -9.452  -8.027  1.00  0.00     0.113 A 
ATOM     10  H   UNL     1       5.196  -5.022  -8.633  1.00  0.00     0.163 HD
ATOM     11  H   UNL     1       4.089  -7.575  -5.748  1.00  0.00     0.163 HD
ENDROOT
BRANCH   8  12
ATOM     12  C   UNL     1       3.597  -4.901  -6.280  1.00  0.00    -0.003 A 
ATOM     13  C   UNL     1       3.521  -4.251  -3.892  1.00  0.00     0.042 A 
ATOM     14  C   UNL     1       4.172  -4.945  -4.990  1.00  0.00     0.028 A 
ATOM     15  C   UNL     1       2.688  -3.093  -4.235  1.00  0.00     0.041 A 
ATOM     16  C   UNL     1       2.423  -2.880  -5.654  1.00  0.00     0.042 A 
ATOM     17  C   UNL     1       2.707  -3.834  -6.663  1.00  0.00     0.028 A 
ATOM     18  Cl  UNL     1       3.845  -4.422  -2.377  1.00  0.00    -0.084 Cl
ATOM     19  Cl  UNL     1       1.634  -1.422  -6.067  1.00  0.00    -0.084 Cl
ENDBRANCH   8  12
BRANCH   7  20
ATOM     20  N   UNL     1       5.054 -11.280  -9.491  1.00  0.00     0.062 N 
ATOM     21  O   UNL     1       4.651 -12.004  -8.657  1.00  0.00    -0.258 OA
ATOM     22  O   UNL     1       5.339 -11.844 -10.634  1.00  0.00    -0.258 OA
ENDBRANCH   7  20
TORSDOF 2
ENDMDL
MODEL 6
REMARK VINA RESULT:    -4.412      4.992      7.647
REMARK INTER + INTRA:          -5.242
REMARK INTER:                  -4.942
REMARK INTRA:                  -0.300
REMARK UNBOUND:                -0.314
REMARK SMILES O=[N+]([O-])c1ccc2c(c1)N[C@@H](c1cc(Cl)cc(Cl)c1)N2
REMARK SMILES IDX 7 1 8 2 5 3 6 4 20 5 10 6 4 7 11 8 9 9 12 12 14 13 13 14
REMARK SMILES IDX 16 15 17 16 19 17 15 18 18 19 2 20 3 21 1 22
REMARK H PARENT 20 10 10 11
ROOT
ATOM      1  C   UNL     1       3.104  -4.250  -6.597  1.00  0.00     0.060 A 
ATOM      2  C   UNL     1       3.335  -5.161  -5.594  1.00  0.00     0.066 A 
ATOM      3  C   UNL     1       2.714  -2.530  -5.035  1.00  0.00     0.088 A 
ATOM      4  C   UNL     1       3.036  -2.959  -6.352  1.00  0.00     0.035 A 
ATOM      5  N   UNL     1       3.247  -4.906  -7.882  1.00  0.00    -0.360 N 
ATOM      6  N   UNL     1       3.654  -6.351  -6.254  1.00  0.00    -0.360 N 
ATOM      7  C   UNL     1       2.796  -3.459  -4.001  1.00  0.00     0.271 A 
ATOM      8  C   UNL     1       4.076  -5.945  -7.545  1.00  0.00     0.205 C 
ATOM      9  C   UNL     1       3.146  -4.814  -4.294  1.00  0.00     0.113 A 
ATOM     10  H   UNL     1       2.840  -4.661  -8.795  1.00  0.00     0.163 HD
ATOM     11  H   UNL     1       3.596  -7.310  -5.883  1.00  0.00     0.163 HD
ENDROOT
BRANCH   8  12
ATOM     12  C   UNL     1       4.283  -7.104  -8.560  1.00  0.00    -0.003 A 
ATOM     13  C   UNL     1       4.766  -9.511  -8.884  1.00  0.00     0.042 A 
ATOM     14  C   UNL     1       4.031  -8.451  -8.215  1.00  0.00     0.028 A 
ATOM     15  C   UNL     1       5.261  -9.228 -10.236  1.00  0.00     0.041 A 
ATOM     16  C   UNL     1       5.156  -7.846 -10.691  1.00  0.00     0.042 A 
ATOM     17  C   UNL     1       4.843  -6.756  -9.841  1.00  0.00     0.028 A 
ATOM     18  Cl  UNL     1       4.828 -11.005  -8.443  1.00  0.00    -0.084 Cl
ATOM     19  Cl  UNL     1       5.536  -7.558 -12.332  1.00  0.00    -0.084 Cl
ENDBRANCH   8  12
BRANCH   7  20
ATOM     20  N   UNL     1       2.659  -3.133  -2.667  1.00  0.00     0.062 N 
ATOM     21  O   UNL     1       2.268  -2.070  -2.353  1.00  0.00    -0.258 OA
ATOM     22  O   UNL     1       2.724  -4.013  -1.705  1.00  0.00    -0.258 OA
ENDBRANCH   7  20
TORSDOF 2
ENDMDL
MODEL 7
REMARK VINA RESULT:    -4.073      3.001      4.353
REMARK INTER + INTRA:          -4.863
REMARK INTER:                  -4.559
REMARK INTRA:                  -0.304
REMARK UNBOUND:                -0.314
REMARK SMILES O=[N+]([O-])c1ccc2c(c1)N[C@@H](c1cc(Cl)cc(Cl)c1)N2
REMARK SMILES IDX 7 1 8 2 5 3 6 4 20 5 10 6 4 7 11 8 9 9 12 12 14 13 13 14
REMARK SMILES IDX 16 15 17 16 19 17 15 18 18 19 2 20 3 21 1 22
REMARK H PARENT 20 10 10 11
ROOT
ATOM      1  C   UNL     1       4.917 -10.849  -8.810  1.00  0.00     0.060 A 
ATOM      2  C   UNL     1       3.709 -11.013  -8.176  1.00  0.00     0.066 A 
ATOM      3  C   UNL     1       4.887 -13.073  -9.586  1.00  0.00     0.088 A 
ATOM      4  C   UNL     1       5.371 -11.739  -9.666  1.00  0.00     0.035 A 
ATOM      5  N   UNL     1       5.387  -9.494  -8.600  1.00  0.00    -0.360 N 
ATOM      6  N   UNL     1       3.422  -9.765  -7.618  1.00  0.00    -0.360 N 
ATOM      7  C   UNL     1       3.739 -13.313  -8.834  1.00  0.00     0.271 A 
ATOM      8  C   UNL     1       4.202  -8.847  -8.366  1.00  0.00     0.205 C 
ATOM      9  C   UNL     1       3.118 -12.236  -8.129  1.00  0.00     0.113 A 
ATOM     10  H   UNL     1       6.346  -9.119  -8.621  1.00  0.00     0.163 HD
ATOM     11  H   UNL     1       2.784  -9.557  -6.836  1.00  0.00     0.163 HD
ENDROOT
BRANCH   8  12
ATOM     12  C   UNL     1       4.230  -7.399  -7.801  1.00  0.00    -0.003 A 
ATOM     13  C   UNL     1       5.302  -5.809  -6.234  1.00  0.00     0.042 A 
ATOM     14  C   UNL     1       5.407  -6.835  -7.258  1.00  0.00     0.028 A 
ATOM     15  C   UNL     1       4.082  -4.995  -6.228  1.00  0.00     0.041 A 
ATOM     16  C   UNL     1       3.005  -5.432  -7.110  1.00  0.00     0.042 A 
ATOM     17  C   UNL     1       2.977  -6.690  -7.760  1.00  0.00     0.028 A 
ATOM     18  Cl  UNL     1       6.464  -5.288  -5.334  1.00  0.00    -0.084 Cl
ATOM     19  Cl  UNL     1       1.672  -4.373  -7.260  1.00  0.00    -0.084 Cl
ENDBRANCH   8  12
BRANCH   7  20
ATOM     20  N   UNL     1       3.086 -14.528  -8.802  1.00  0.00     0.062 N 
ATOM     21  O   UNL     1       3.442 -15.375  -8.069  1.00  0.00    -0.258 OA
ATOM     22  O   UNL     1       1.936 -14.738  -9.384  1.00  0.00    -0.258 OA
ENDBRANCH   7  20
TORSDOF 2
ENDMDL
MODEL 8
REMARK VINA RESULT:    -3.999      3.730      4.797
REMARK INTER + INTRA:          -4.781
REMARK INTER:                  -4.476
REMARK INTRA:                  -0.305
REMARK UNBOUND:                -0.314
REMARK SMILES O=[N+]([O-])c1ccc2c(c1)N[C@@H](c1cc(Cl)cc(Cl)c1)N2
REMARK SMILES IDX 7 1 8 2 5 3 6 4 20 5 10 6 4 7 11 8 9 9 12 12 14 13 13 14
REMARK SMILES IDX 16 15 17 16 19 17 15 18 18 19 2 20 3 21 1 22
REMARK H PARENT 20 10 10 11
ROOT
ATOM      1  C   UNL     1       5.528  -7.183 -12.370  1.00  0.00     0.060 A 
ATOM      2  C   UNL     1       6.342  -6.110 -12.092  1.00  0.00     0.066 A 
ATOM      3  C   UNL     1       6.591  -7.536 -14.442  1.00  0.00     0.088 A 
ATOM      4  C   UNL     1       5.787  -8.002 -13.367  1.00  0.00     0.035 A 
ATOM      5  N   UNL     1       4.608  -7.382 -11.268  1.00  0.00    -0.360 N 
ATOM      6  N   UNL     1       5.952  -5.681 -10.821  1.00  0.00    -0.360 N 
ATOM      7  C   UNL     1       7.328  -6.369 -14.257  1.00  0.00     0.271 A 
ATOM      8  C   UNL     1       5.309  -6.805 -10.242  1.00  0.00     0.205 C 
ATOM      9  C   UNL     1       7.214  -5.650 -13.026  1.00  0.00     0.113 A 
ATOM     10  H   UNL     1       3.682  -7.834 -11.258  1.00  0.00     0.163 HD
ATOM     11  H   UNL     1       6.099  -4.753 -10.398  1.00  0.00     0.163 HD
ENDROOT
BRANCH   8  12
ATOM     12  C   UNL     1       4.585  -6.524  -8.896  1.00  0.00    -0.003 A 
ATOM     13  C   UNL     1       2.539  -5.682  -7.782  1.00  0.00     0.042 A 
ATOM     14  C   UNL     1       3.175  -6.503  -8.799  1.00  0.00     0.028 A 
ATOM     15  C   UNL     1       3.317  -5.403  -6.570  1.00  0.00     0.041 A 
ATOM     16  C   UNL     1       4.723  -5.792  -6.595  1.00  0.00     0.042 A 
ATOM     17  C   UNL     1       5.414  -6.183  -7.768  1.00  0.00     0.028 A 
ATOM     18  Cl  UNL     1       1.025  -5.318  -7.710  1.00  0.00    -0.084 Cl
ATOM     19  Cl  UNL     1       5.572  -5.659  -5.118  1.00  0.00    -0.084 Cl
ENDBRANCH   8  12
BRANCH   7  20
ATOM     20  N   UNL     1       8.258  -5.899 -15.161  1.00  0.00     0.062 N 
ATOM     21  O   UNL     1       8.135  -4.833 -15.640  1.00  0.00    -0.258 OA
ATOM     22  O   UNL     1       9.412  -6.476 -15.366  1.00  0.00    -0.258 OA
ENDBRANCH   7  20
TORSDOF 2
ENDMDL
MODEL 9
REMARK VINA RESULT:    -3.843     10.988     11.812
REMARK INTER + INTRA:          -4.606
REMARK INTER:                  -4.314
REMARK INTRA:                  -0.292
REMARK UNBOUND:                -0.314
REMARK SMILES O=[N+]([O-])c1ccc2c(c1)N[C@@H](c1cc(Cl)cc(Cl)c1)N2
REMARK SMILES IDX 7 1 8 2 5 3 6 4 20 5 10 6 4 7 11 8 9 9 12 12 14 13 13 14
REMARK SMILES IDX 16 15 17 16 19 17 15 18 18 19 2 20 3 21 1 22
REMARK H PARENT 20 10 10 11
ROOT
ATOM      1  C   UNL     1      -0.357  -0.269  -0.119  1.00  0.00     0.060 A 
ATOM      2  C   UNL     1       0.447  -1.086   0.639  1.00  0.00     0.066 A 
ATOM      3  C   UNL     1      -2.300  -1.348   0.663  1.00  0.00     0.088 A 
ATOM      4  C   UNL     1      -1.661  -0.232   0.059  1.00  0.00     0.035 A 
ATOM      5  N   UNL     1       0.469   0.667  -0.855  1.00  0.00    -0.360 N 
ATOM      6  N   UNL     1       1.748  -0.633   0.401  1.00  0.00    -0.360 N 
ATOM      7  C   UNL     1      -1.507  -2.283   1.325  1.00  0.00     0.271 A 
ATOM      8  C   UNL     1       1.587   0.698  -0.063  1.00  0.00     0.205 C 
ATOM      9  C   UNL     1      -0.086  -2.126   1.331  1.00  0.00     0.113 A 
ATOM     10  H   UNL     1       0.272   1.170  -1.732  1.00  0.00     0.163 HD
ATOM     11  H   UNL     1       2.628  -1.151   0.533  1.00  0.00     0.163 HD
ENDROOT
BRANCH   8  12
ATOM     12  C   UNL     1       2.881   1.362  -0.609  1.00  0.00    -0.003 A 
ATOM     13  C   UNL     1       5.326   1.658  -0.346  1.00  0.00     0.042 A 
ATOM     14  C   UNL     1       4.158   0.795  -0.392  1.00  0.00     0.028 A 
ATOM     15  C   UNL     1       5.251   2.922  -1.088  1.00  0.00     0.041 A 
ATOM     16  C   UNL     1       3.942   3.287  -1.619  1.00  0.00     0.042 A 
ATOM     17  C   UNL     1       2.734   2.638  -1.261  1.00  0.00     0.028 A 
ATOM     18  Cl  UNL     1       6.746   1.256   0.157  1.00  0.00    -0.084 Cl
ATOM     19  Cl  UNL     1       3.897   4.645  -2.656  1.00  0.00    -0.084 Cl
ENDBRANCH   8  12
BRANCH   7  20
ATOM     20  N   UNL     1      -2.016  -3.321   2.078  1.00  0.00     0.062 N 
ATOM     21  O   UNL     1      -2.167  -4.384   1.598  1.00  0.00    -0.258 OA
ATOM     22  O   UNL     1      -2.142  -3.269   3.376  1.00  0.00    -0.258 OA
ENDBRANCH   7  20
TORSDOF 2
ENDMDL
