MODEL 1
REMARK VINA RESULT:    -4.278      0.000      0.000
REMARK INTER + INTRA:          -5.075
REMARK INTER:                  -4.778
REMARK INTRA:                  -0.297
REMARK UNBOUND:                -0.297
REMARK SMILES O=[N+]([O-])c1ccc2c(c1)N[C@@H](c1cc(Cl)cc(Cl)c1)N2
REMARK SMILES IDX 7 1 8 2 5 3 6 4 20 5 10 6 4 7 11 8 9 9 12 12 14 13 13 14
REMARK SMILES IDX 16 15 17 16 19 17 15 18 18 19 2 20 3 21 1 22
REMARK H PARENT 20 10 10 11
ROOT
ATOM      1  C   UNL     1       0.673   1.133   0.380  1.00  0.00     0.060 A 
ATOM      2  C   UNL     1       0.386   0.608  -0.858  1.00  0.00     0.066 A 
ATOM      3  C   UNL     1      -1.612   1.229   0.942  1.00  0.00     0.088 A 
ATOM      4  C   UNL     1      -0.243   1.216   1.321  1.00  0.00     0.035 A 
ATOM      5  N   UNL     1       2.109   1.271   0.519  1.00  0.00    -0.360 N 
ATOM      6  N   UNL     1       1.630   0.390  -1.455  1.00  0.00    -0.360 N 
ATOM      7  C   UNL     1      -1.942   0.839  -0.354  1.00  0.00     0.271 A 
ATOM      8  C   UNL     1       2.543   0.325  -0.372  1.00  0.00     0.205 C 
ATOM      9  C   UNL     1      -0.903   0.492  -1.272  1.00  0.00     0.113 A 
ATOM     10  H   UNL     1       2.654   1.905   1.121  1.00  0.00     0.163 HD
ATOM     11  H   UNL     1       1.838   0.298  -2.460  1.00  0.00     0.163 HD
ENDROOT
BRANCH   8  12
ATOM     12  C   UNL     1       4.043   0.304  -0.781  1.00  0.00    -0.003 A 
ATOM     13  C   UNL     1       5.768  -0.652  -2.279  1.00  0.00     0.042 A 
ATOM     14  C   UNL     1       4.455  -0.060  -2.083  1.00  0.00     0.028 A 
ATOM     15  C   UNL     1       6.805  -0.314  -1.297  1.00  0.00     0.041 A 
ATOM     16  C   UNL     1       6.364   0.408  -0.108  1.00  0.00     0.042 A 
ATOM     17  C   UNL     1       5.005   0.575   0.257  1.00  0.00     0.028 A 
ATOM     18  Cl  UNL     1       6.270  -1.364  -3.571  1.00  0.00    -0.084 Cl
ATOM     19  Cl  UNL     1       7.595   0.983   0.928  1.00  0.00    -0.084 Cl
ENDBRANCH   8  12
BRANCH   7  20
ATOM     20  N   UNL     1      -3.238   0.663  -0.794  1.00  0.00     0.062 N 
ATOM     21  O   UNL     1      -3.531  -0.296  -1.408  1.00  0.00    -0.258 OA
ATOM     22  O   UNL     1      -4.238   1.394  -0.383  1.00  0.00    -0.258 OA
ENDBRANCH   7  20
TORSDOF 2
ENDMDL
MODEL 2
REMARK VINA RESULT:    -4.262      4.977      7.426
REMARK INTER + INTRA:          -5.057
REMARK INTER:                  -4.761
REMARK INTRA:                  -0.296
REMARK UNBOUND:                -0.297
REMARK SMILES O=[N+]([O-])c1ccc2c(c1)N[C@@H](c1cc(Cl)cc(Cl)c1)N2
REMARK SMILES IDX 7 1 8 2 5 3 6 4 20 5 10 6 4 7 11 8 9 9 12 12 14 13 13 14
REMARK SMILES IDX 16 15 17 16 19 17 15 18 18 19 2 20 3 21 1 22
REMARK H PARENT 20 10 10 11
ROOT
ATOM      1  C   UNL     1       3.288   1.058  -0.337  1.00  0.00     0.060 A 
ATOM      2  C   UNL     1       3.058  -0.203  -0.832  1.00  0.00     0.066 A 
ATOM      3  C   UNL     1       5.567   0.942  -0.921  1.00  0.00     0.088 A 
ATOM      4  C   UNL     1       4.412   1.697  -0.580  1.00  0.00     0.035 A 
ATOM      5  N   UNL     1       2.049   1.601   0.184  1.00  0.00    -0.360 N 
ATOM      6  N   UNL     1       1.689  -0.417  -0.652  1.00  0.00    -0.360 N 
ATOM      7  C   UNL     1       5.398  -0.390  -1.293  1.00  0.00     0.271 A 
ATOM      8  C   UNL     1       1.133   0.883  -0.539  1.00  0.00     0.205 C 
ATOM      9  C   UNL     1       4.091  -0.968  -1.271  1.00  0.00     0.113 A 
ATOM     10  H   UNL     1       1.898   2.327   0.899  1.00  0.00     0.163 HD
ATOM     11  H   UNL     1       1.193  -1.319  -0.611  1.00  0.00     0.163 HD
ENDROOT
BRANCH   8  12
ATOM     12  C   UNL     1      -0.362   0.920  -0.113  1.00  0.00    -0.003 A 
ATOM     13  C   UNL     1      -2.636   0.003  -0.455  1.00  0.00     0.042 A 
ATOM     14  C   UNL     1      -1.209  -0.200  -0.268  1.00  0.00     0.028 A 
ATOM     15  C   UNL     1      -3.214   1.231   0.103  1.00  0.00     0.041 A 
ATOM     16  C   UNL     1      -2.269   2.226   0.599  1.00  0.00     0.042 A 
ATOM     17  C   UNL     1      -0.874   2.183   0.356  1.00  0.00     0.028 A 
ATOM     18  Cl  UNL     1      -3.664  -1.074  -0.919  1.00  0.00    -0.084 Cl
ATOM     19  Cl  UNL     1      -2.941   3.557   1.436  1.00  0.00    -0.084 Cl
ENDBRANCH   8  12
BRANCH   7  20
ATOM     20  N   UNL     1       6.414  -1.180  -1.790  1.00  0.00     0.062 N 
ATOM     21  O   UNL     1       6.264  -1.778  -2.791  1.00  0.00    -0.258 OA
ATOM     22  O   UNL     1       7.637  -1.142  -1.337  1.00  0.00    -0.258 OA
ENDBRANCH   7  20
TORSDOF 2
ENDMDL
MODEL 3
REMARK VINA RESULT:    -4.261      1.025      2.687
REMARK INTER + INTRA:          -5.056
REMARK INTER:                  -4.759
REMARK INTRA:                  -0.296
REMARK UNBOUND:                -0.297
REMARK SMILES O=[N+]([O-])c1ccc2c(c1)N[C@@H](c1cc(Cl)cc(Cl)c1)N2
REMARK SMILES IDX 7 1 8 2 5 3 6 4 20 5 10 6 4 7 11 8 9 9 12 12 14 13 13 14
REMARK SMILES IDX 16 15 17 16 19 17 15 18 18 19 2 20 3 21 1 22
REMARK H PARENT 20 10 10 11
ROOT
ATOM      1  C   UNL     1       0.354   0.360  -0.969  1.00  0.00     0.060 A 
ATOM      2  C   UNL     1       0.598   0.882   0.279  1.00  0.00     0.066 A 
ATOM      3  C   UNL     1      -1.933   0.905  -0.823  1.00  0.00     0.088 A 
ATOM      4  C   UNL     1      -0.785   0.571  -1.592  1.00  0.00     0.035 A 
ATOM      5  N   UNL     1       1.593  -0.150  -1.524  1.00  0.00    -0.360 N 
ATOM      6  N   UNL     1       1.974   0.730   0.471  1.00  0.00    -0.360 N 
ATOM      7  C   UNL     1      -1.746   1.306   0.499  1.00  0.00     0.271 A 
ATOM      8  C   UNL     1       2.509   0.602  -0.836  1.00  0.00     0.205 C 
ATOM      9  C   UNL     1      -0.429   1.317   1.054  1.00  0.00     0.113 A 
ATOM     10  H   UNL     1       1.743  -0.876  -2.239  1.00  0.00     0.163 HD
ATOM     11  H   UNL     1       2.486   0.714   1.365  1.00  0.00     0.163 HD
ENDROOT
BRANCH   8  12
ATOM     12  C   UNL     1       4.009   0.201  -0.893  1.00  0.00    -0.003 A 
ATOM     13  C   UNL     1       6.293   0.599  -0.020  1.00  0.00     0.042 A 
ATOM     14  C   UNL     1       4.873   0.390   0.210  1.00  0.00     0.028 A 
ATOM     15  C   UNL     1       6.859   0.030  -1.249  1.00  0.00     0.041 A 
ATOM     16  C   UNL     1       5.907  -0.499  -2.219  1.00  0.00     0.042 A 
ATOM     17  C   UNL     1       4.508  -0.279  -2.156  1.00  0.00     0.028 A 
ATOM     18  Cl  UNL     1       7.330   1.098   1.030  1.00  0.00    -0.084 Cl
ATOM     19  Cl  UNL     1       6.570  -1.346  -3.548  1.00  0.00    -0.084 Cl
ENDBRANCH   8  12
BRANCH   7  20
ATOM     20  N   UNL     1      -2.757   1.800   1.298  1.00  0.00     0.062 N 
ATOM     21  O   UNL     1      -2.602   2.797   1.901  1.00  0.00    -0.258 OA
ATOM     22  O   UNL     1      -3.981   1.348   1.265  1.00  0.00    -0.258 OA
ENDBRANCH   7  20
TORSDOF 2
ENDMDL
MODEL 4
REMARK VINA RESULT:    -4.257      5.107      7.777
REMARK INTER + INTRA:          -5.052
REMARK INTER:                  -4.756
REMARK INTRA:                  -0.296
REMARK UNBOUND:                -0.297
REMARK SMILES O=[N+]([O-])c1ccc2c(c1)N[C@@H](c1cc(Cl)cc(Cl)c1)N2
REMARK SMILES IDX 7 1 8 2 5 3 6 4 20 5 10 6 4 7 11 8 9 9 12 12 14 13 13 14
REMARK SMILES IDX 16 15 17 16 19 17 15 18 18 19 2 20 3 21 1 22
REMARK H PARENT 20 10 10 11
ROOT
ATOM      1  C   UNL     1       2.977  -0.311  -1.034  1.00  0.00     0.060 A 
ATOM      2  C   UNL     1       3.245   0.960  -0.584  1.00  0.00     0.066 A 
ATOM      3  C   UNL     1       5.272  -0.830  -1.138  1.00  0.00     0.088 A 
ATOM      4  C   UNL     1       3.911  -1.236  -1.079  1.00  0.00     0.035 A 
ATOM      5  N   UNL     1       1.542  -0.489  -1.138  1.00  0.00    -0.360 N 
ATOM      6  N   UNL     1       1.991   1.542  -0.379  1.00  0.00    -0.360 N 
ATOM      7  C   UNL     1       5.579   0.493  -0.828  1.00  0.00     0.271 A 
ATOM      8  C   UNL     1       1.104   0.445  -0.236  1.00  0.00     0.205 C 
ATOM      9  C   UNL     1       4.525   1.408  -0.515  1.00  0.00     0.113 A 
ATOM     10  H   UNL     1       1.000  -1.137  -1.727  1.00  0.00     0.163 HD
ATOM     11  H   UNL     1       1.763   2.545  -0.340  1.00  0.00     0.163 HD
ENDROOT
BRANCH   8  12
ATOM     12  C   UNL     1      -0.404   0.822  -0.212  1.00  0.00    -0.003 A 
ATOM     13  C   UNL     1      -2.155   2.296   0.734  1.00  0.00     0.042 A 
ATOM     14  C   UNL     1      -0.842   2.120   0.137  1.00  0.00     0.028 A 
ATOM     15  C   UNL     1      -3.173   1.289   0.415  1.00  0.00     0.041 A 
ATOM     16  C   UNL     1      -2.711   0.099  -0.292  1.00  0.00     0.042 A 
ATOM     17  C   UNL     1      -1.346  -0.239  -0.462  1.00  0.00     0.028 A 
ATOM     18  Cl  UNL     1      -2.681   3.587   1.432  1.00  0.00    -0.084 Cl
ATOM     19  Cl  UNL     1      -3.923  -0.971  -0.846  1.00  0.00    -0.084 Cl
ENDBRANCH   8  12
BRANCH   7  20
ATOM     20  N   UNL     1       6.867   0.970  -0.700  1.00  0.00     0.062 N 
ATOM     21  O   UNL     1       7.189   1.560   0.265  1.00  0.00    -0.258 OA
ATOM     22  O   UNL     1       7.843   0.619  -1.493  1.00  0.00    -0.258 OA
ENDBRANCH   7  20
TORSDOF 2
ENDMDL
MODEL 5
REMARK VINA RESULT:    -3.761     10.877     11.552
REMARK INTER + INTRA:          -4.498
REMARK INTER:                  -4.182
REMARK INTRA:                  -0.316
REMARK UNBOUND:                -0.297
REMARK SMILES O=[N+]([O-])c1ccc2c(c1)N[C@@H](c1cc(Cl)cc(Cl)c1)N2
REMARK SMILES IDX 7 1 8 2 5 3 6 4 20 5 10 6 4 7 11 8 9 9 12 12 14 13 13 14
REMARK SMILES IDX 16 15 17 16 19 17 15 18 18 19 2 20 3 21 1 22
REMARK H PARENT 20 10 10 11
ROOT
ATOM      1  C   UNL     1       1.132   8.389  -9.022  1.00  0.00     0.060 A 
ATOM      2  C   UNL     1       2.284   8.948  -8.522  1.00  0.00     0.066 A 
ATOM      3  C   UNL     1       1.020   9.997 -10.740  1.00  0.00     0.088 A 
ATOM      4  C   UNL     1       0.654   8.735 -10.199  1.00  0.00     0.035 A 
ATOM      5  N   UNL     1       0.766   7.243  -8.214  1.00  0.00    -0.360 N 
ATOM      6  N   UNL     1       2.642   8.133  -7.445  1.00  0.00    -0.360 N 
ATOM      7  C   UNL     1       2.098  10.671 -10.171  1.00  0.00     0.271 A 
ATOM      8  C   UNL     1       1.986   6.900  -7.692  1.00  0.00     0.205 C 
ATOM      9  C   UNL     1       2.766  10.108  -9.040  1.00  0.00     0.113 A 
ATOM     10  H   UNL     1      -0.155   6.806  -8.071  1.00  0.00     0.163 HD
ATOM     11  H   UNL     1       3.249   8.374  -6.649  1.00  0.00     0.163 HD
ENDROOT
BRANCH   8  12
ATOM     12  C   UNL     1       2.047   5.880  -6.521  1.00  0.00    -0.003 A 
ATOM     13  C   UNL     1       1.157   3.780  -5.556  1.00  0.00     0.042 A 
ATOM     14  C   UNL     1       1.672   4.528  -6.691  1.00  0.00     0.028 A 
ATOM     15  C   UNL     1       1.587   4.214  -4.222  1.00  0.00     0.041 A 
ATOM     16  C   UNL     1       2.313   5.477  -4.151  1.00  0.00     0.042 A 
ATOM     17  C   UNL     1       2.406   6.397  -5.225  1.00  0.00     0.028 A 
ATOM     18  Cl  UNL     1       0.441   2.397  -5.616  1.00  0.00    -0.084 Cl
ATOM     19  Cl  UNL     1       2.994   5.876  -2.635  1.00  0.00    -0.084 Cl
ENDBRANCH   8  12
BRANCH   7  20
ATOM     20  N   UNL     1       2.644  11.824 -10.699  1.00  0.00     0.062 N 
ATOM     21  O   UNL     1       3.739  12.145 -10.415  1.00  0.00    -0.258 OA
ATOM     22  O   UNL     1       2.103  12.487 -11.684  1.00  0.00    -0.258 OA
ENDBRANCH   7  20
TORSDOF 2
ENDMDL
MODEL 6
REMARK VINA RESULT:    -3.754     10.753     11.517
REMARK INTER + INTRA:          -4.489
REMARK INTER:                  -4.174
REMARK INTRA:                  -0.316
REMARK UNBOUND:                -0.297
REMARK SMILES O=[N+]([O-])c1ccc2c(c1)N[C@@H](c1cc(Cl)cc(Cl)c1)N2
REMARK SMILES IDX 7 1 8 2 5 3 6 4 20 5 10 6 4 7 11 8 9 9 12 12 14 13 13 14
REMARK SMILES IDX 16 15 17 16 19 17 15 18 18 19 2 20 3 21 1 22
REMARK H PARENT 20 10 10 11
ROOT
ATOM      1  C   UNL     1       2.225   8.983  -8.471  1.00  0.00     0.060 A 
ATOM      2  C   UNL     1       1.089   8.440  -9.021  1.00  0.00     0.066 A 
ATOM      3  C   UNL     1       2.282  10.682 -10.102  1.00  0.00     0.088 A 
ATOM      4  C   UNL     1       2.665  10.169  -8.833  1.00  0.00     0.035 A 
ATOM      5  N   UNL     1       2.617   8.201  -7.315  1.00  0.00    -0.360 N 
ATOM      6  N   UNL     1       0.765   7.363  -8.192  1.00  0.00    -0.360 N 
ATOM      7  C   UNL     1       1.221  10.071 -10.767  1.00  0.00     0.271 A 
ATOM      8  C   UNL     1       1.414   7.647  -6.963  1.00  0.00     0.205 C 
ATOM      9  C   UNL     1       0.590   8.927 -10.188  1.00  0.00     0.113 A 
ATOM     10  H   UNL     1       3.543   8.093  -6.877  1.00  0.00     0.163 HD
ATOM     11  H   UNL     1       0.183   6.545  -8.422  1.00  0.00     0.163 HD
ENDROOT
BRANCH   8  12
ATOM     12  C   UNL     1       1.390   6.488  -5.928  1.00  0.00    -0.003 A 
ATOM     13  C   UNL     1       2.293   5.591  -3.803  1.00  0.00     0.042 A 
ATOM     14  C   UNL     1       1.739   6.692  -4.573  1.00  0.00     0.028 A 
ATOM     15  C   UNL     1       1.928   4.233  -4.223  1.00  0.00     0.041 A 
ATOM     16  C   UNL     1       1.223   4.114  -5.495  1.00  0.00     0.042 A 
ATOM     17  C   UNL     1       1.096   5.170  -6.431  1.00  0.00     0.028 A 
ATOM     18  Cl  UNL     1       2.987   5.701  -2.412  1.00  0.00    -0.084 Cl
ATOM     19  Cl  UNL     1       0.615   2.564  -5.882  1.00  0.00    -0.084 Cl
ENDBRANCH   8  12
BRANCH   7  20
ATOM     20  N   UNL     1       0.658  10.566 -11.925  1.00  0.00     0.062 N 
ATOM     21  O   UNL     1      -0.430  10.250 -12.237  1.00  0.00    -0.258 OA
ATOM     22  O   UNL     1       1.173  11.554 -12.606  1.00  0.00    -0.258 OA
ENDBRANCH   7  20
TORSDOF 2
ENDMDL
MODEL 7
REMARK VINA RESULT:    -3.679     12.829     13.480
REMARK INTER + INTRA:          -4.407
REMARK INTER:                  -4.101
REMARK INTRA:                  -0.306
REMARK UNBOUND:                -0.297
REMARK SMILES O=[N+]([O-])c1ccc2c(c1)N[C@@H](c1cc(Cl)cc(Cl)c1)N2
REMARK SMILES IDX 7 1 8 2 5 3 6 4 20 5 10 6 4 7 11 8 9 9 12 12 14 13 13 14
REMARK SMILES IDX 16 15 17 16 19 17 15 18 18 19 2 20 3 21 1 22
REMARK H PARENT 20 10 10 11
ROOT
ATOM      1  C   UNL     1      -0.487   9.531 -11.897  1.00  0.00     0.060 A 
ATOM      2  C   UNL     1      -1.586   9.393 -11.084  1.00  0.00     0.066 A 
ATOM      3  C   UNL     1      -1.756  10.656 -13.533  1.00  0.00     0.088 A 
ATOM      4  C   UNL     1      -0.504  10.323 -12.948  1.00  0.00     0.035 A 
ATOM      5  N   UNL     1       0.664   8.933 -11.251  1.00  0.00    -0.360 N 
ATOM      6  N   UNL     1      -1.109   8.753  -9.937  1.00  0.00    -0.360 N 
ATOM      7  C   UNL     1      -2.914  10.401 -12.801  1.00  0.00     0.271 A 
ATOM      8  C   UNL     1       0.286   9.010  -9.936  1.00  0.00     0.205 C 
ATOM      9  C   UNL     1      -2.816   9.772 -11.521  1.00  0.00     0.113 A 
ATOM     10  H   UNL     1       1.529   8.555 -11.665  1.00  0.00     0.163 HD
ATOM     11  H   UNL     1      -1.650   8.215  -9.246  1.00  0.00     0.163 HD
ENDROOT
BRANCH   8  12
ATOM     12  C   UNL     1       1.096   8.219  -8.870  1.00  0.00    -0.003 A 
ATOM     13  C   UNL     1       2.333   6.143  -8.330  1.00  0.00     0.042 A 
ATOM     14  C   UNL     1       2.055   7.247  -9.234  1.00  0.00     0.028 A 
ATOM     15  C   UNL     1       2.096   6.376  -6.901  1.00  0.00     0.041 A 
ATOM     16  C   UNL     1       1.405   7.612  -6.549  1.00  0.00     0.042 A 
ATOM     17  C   UNL     1       0.754   8.448  -7.490  1.00  0.00     0.028 A 
ATOM     18  Cl  UNL     1       3.130   4.849  -8.678  1.00  0.00    -0.084 Cl
ATOM     19  Cl  UNL     1       1.315   7.982  -4.883  1.00  0.00    -0.084 Cl
ENDBRANCH   8  12
BRANCH   7  20
ATOM     20  N   UNL     1      -4.171  10.815 -13.190  1.00  0.00     0.062 N 
ATOM     21  O   UNL     1      -4.744  10.247 -14.045  1.00  0.00    -0.258 OA
ATOM     22  O   UNL     1      -4.882  11.676 -12.514  1.00  0.00    -0.258 OA
ENDBRANCH   7  20
TORSDOF 2
ENDMDL
MODEL 8
REMARK VINA RESULT:    -3.647     13.503     14.594
REMARK INTER + INTRA:          -4.371
REMARK INTER:                  -4.066
REMARK INTRA:                  -0.305
REMARK UNBOUND:                -0.297
REMARK SMILES O=[N+]([O-])c1ccc2c(c1)N[C@@H](c1cc(Cl)cc(Cl)c1)N2
REMARK SMILES IDX 7 1 8 2 5 3 6 4 20 5 10 6 4 7 11 8 9 9 12 12 14 13 13 14
REMARK SMILES IDX 16 15 17 16 19 17 15 18 18 19 2 20 3 21 1 22
REMARK H PARENT 20 10 10 11
ROOT
ATOM      1  C   UNL     1       3.757  11.765  -9.611  1.00  0.00     0.060 A 
ATOM      2  C   UNL     1       4.872  10.967  -9.518  1.00  0.00     0.066 A 
ATOM      3  C   UNL     1       4.958  13.421 -10.778  1.00  0.00     0.088 A 
ATOM      4  C   UNL     1       3.728  12.818 -10.399  1.00  0.00     0.035 A 
ATOM      5  N   UNL     1       2.639  11.100  -8.971  1.00  0.00    -0.360 N 
ATOM      6  N   UNL     1       4.437   9.812  -8.864  1.00  0.00    -0.360 N 
ATOM      7  C   UNL     1       6.135  12.705 -10.571  1.00  0.00     0.271 A 
ATOM      8  C   UNL     1       3.033   9.791  -9.066  1.00  0.00     0.205 C 
ATOM      9  C   UNL     1       6.080  11.422  -9.943  1.00  0.00     0.113 A 
ATOM     10  H   UNL     1       1.785  11.500  -8.558  1.00  0.00     0.163 HD
ATOM     11  H   UNL     1       5.008   9.127  -8.349  1.00  0.00     0.163 HD
ENDROOT
BRANCH   8  12
ATOM     12  C   UNL     1       2.270   8.711  -8.249  1.00  0.00    -0.003 A 
ATOM     13  C   UNL     1       1.093   8.158  -6.141  1.00  0.00     0.042 A 
ATOM     14  C   UNL     1       1.322   9.058  -7.259  1.00  0.00     0.028 A 
ATOM     15  C   UNL     1       1.364   6.733  -6.366  1.00  0.00     0.041 A 
ATOM     16  C   UNL     1       2.039   6.389  -7.613  1.00  0.00     0.042 A 
ATOM     17  C   UNL     1       2.645   7.338  -8.472  1.00  0.00     0.028 A 
ATOM     18  Cl  UNL     1       0.314   8.497  -4.834  1.00  0.00    -0.084 Cl
ATOM     19  Cl  UNL     1       2.166   4.722  -7.970  1.00  0.00    -0.084 Cl
ENDBRANCH   8  12
BRANCH   7  20
ATOM     20  N   UNL     1       7.370  13.114 -11.032  1.00  0.00     0.062 N 
ATOM     21  O   UNL     1       8.024  13.855 -10.397  1.00  0.00    -0.258 OA
ATOM     22  O   UNL     1       7.977  12.554 -12.043  1.00  0.00    -0.258 OA
ENDBRANCH   7  20
TORSDOF 2
ENDMDL
MODEL 9
REMARK VINA RESULT:    -3.509     10.799     11.358
REMARK INTER + INTRA:          -4.216
REMARK INTER:                  -3.917
REMARK INTRA:                  -0.299
REMARK UNBOUND:                -0.297
REMARK SMILES O=[N+]([O-])c1ccc2c(c1)N[C@@H](c1cc(Cl)cc(Cl)c1)N2
REMARK SMILES IDX 7 1 8 2 5 3 6 4 20 5 10 6 4 7 11 8 9 9 12 12 14 13 13 14
REMARK SMILES IDX 16 15 17 16 19 17 15 18 18 19 2 20 3 21 1 22
REMARK H PARENT 20 10 10 11
ROOT
ATOM      1  C   UNL     1       1.947   8.846  -9.013  1.00  0.00     0.060 A 
ATOM      2  C   UNL     1       0.794   8.169  -9.332  1.00  0.00     0.066 A 
ATOM      3  C   UNL     1       1.556  10.442 -10.701  1.00  0.00     0.088 A 
ATOM      4  C   UNL     1       2.198  10.044  -9.497  1.00  0.00     0.035 A 
ATOM      5  N   UNL     1       2.604   8.175  -7.909  1.00  0.00    -0.360 N 
ATOM      6  N   UNL     1       0.725   7.120  -8.413  1.00  0.00    -0.360 N 
ATOM      7  C   UNL     1       0.465   9.698 -11.144  1.00  0.00     0.271 A 
ATOM      8  C   UNL     1       1.540   7.535  -7.330  1.00  0.00     0.205 C 
ATOM      9  C   UNL     1       0.058   8.537 -10.414  1.00  0.00     0.113 A 
ATOM     10  H   UNL     1       3.597   8.178  -7.635  1.00  0.00     0.163 HD
ATOM     11  H   UNL     1       0.198   6.239  -8.502  1.00  0.00     0.163 HD
ENDROOT
BRANCH   8  12
ATOM     12  C   UNL     1       1.809   6.443  -6.257  1.00  0.00    -0.003 A 
ATOM     13  C   UNL     1       1.289   4.160  -5.450  1.00  0.00     0.042 A 
ATOM     14  C   UNL     1       1.631   5.069  -6.532  1.00  0.00     0.028 A 
ATOM     15  C   UNL     1       1.716   4.543  -4.099  1.00  0.00     0.041 A 
ATOM     16  C   UNL     1       2.250   5.892  -3.943  1.00  0.00     0.042 A 
ATOM     17  C   UNL     1       2.152   6.900  -4.934  1.00  0.00     0.028 A 
ATOM     18  Cl  UNL     1       0.783   2.694  -5.606  1.00  0.00    -0.084 Cl
ATOM     19  Cl  UNL     1       2.938   6.263  -2.423  1.00  0.00    -0.084 Cl
ENDBRANCH   8  12
BRANCH   7  20
ATOM     20  N   UNL     1      -0.333  10.068 -12.207  1.00  0.00     0.062 N 
ATOM     21  O   UNL     1      -1.428   9.650 -12.300  1.00  0.00    -0.258 OA
ATOM     22  O   UNL     1      -0.034  11.043 -13.021  1.00  0.00    -0.258 OA
ENDBRANCH   7  20
TORSDOF 2
ENDMDL
