MODEL 1
REMARK VINA RESULT:    -4.184      0.000      0.000
REMARK INTER + INTRA:          -4.979
REMARK INTER:                  -4.673
REMARK INTRA:                  -0.306
REMARK UNBOUND:                -0.306
REMARK SMILES O=[N+]([O-])c1ccc2c(c1)N[C@@H](c1cc(Cl)cc(Cl)c1)N2
REMARK SMILES IDX 7 1 8 2 5 3 6 4 20 5 10 6 4 7 11 8 9 9 12 12 14 13 13 14
REMARK SMILES IDX 16 15 17 16 19 17 15 18 18 19 2 20 3 21 1 22
REMARK H PARENT 20 10 10 11
ROOT
ATOM      1  C   UNL     1      -6.906  13.531  -3.738  1.00  0.00     0.060 A 
ATOM      2  C   UNL     1      -5.602  13.560  -3.305  1.00  0.00     0.066 A 
ATOM      3  C   UNL     1      -7.095  15.870  -3.536  1.00  0.00     0.088 A 
ATOM      4  C   UNL     1      -7.545  14.632  -4.069  1.00  0.00     0.035 A 
ATOM      5  N   UNL     1      -7.284  12.161  -4.022  1.00  0.00    -0.360 N 
ATOM      6  N   UNL     1      -5.173  12.232  -3.359  1.00  0.00    -0.360 N 
ATOM      7  C   UNL     1      -5.830  15.916  -2.955  1.00  0.00     0.271 A 
ATOM      8  C   UNL     1      -6.057  11.604  -4.274  1.00  0.00     0.205 C 
ATOM      9  C   UNL     1      -5.050  14.721  -2.864  1.00  0.00     0.113 A 
ATOM     10  H   UNL     1      -8.217  11.725  -4.033  1.00  0.00     0.163 HD
ATOM     11  H   UNL     1      -4.389  11.803  -2.848  1.00  0.00     0.163 HD
ENDROOT
BRANCH   8  12
ATOM     12  C   UNL     1      -5.931  10.057  -4.350  1.00  0.00    -0.003 A 
ATOM     13  C   UNL     1      -6.694   7.872  -3.471  1.00  0.00     0.042 A 
ATOM     14  C   UNL     1      -6.991   9.204  -3.971  1.00  0.00     0.028 A 
ATOM     15  C   UNL     1      -5.441   7.255  -3.922  1.00  0.00     0.041 A 
ATOM     16  C   UNL     1      -4.518   8.117  -4.651  1.00  0.00     0.042 A 
ATOM     17  C   UNL     1      -4.646   9.526  -4.729  1.00  0.00     0.028 A 
ATOM     18  Cl  UNL     1      -7.694   6.916  -2.752  1.00  0.00    -0.084 Cl
ATOM     19  Cl  UNL     1      -3.161   7.351  -5.354  1.00  0.00    -0.084 Cl
ENDBRANCH   8  12
BRANCH   7  20
ATOM     20  N   UNL     1      -5.219  17.083  -2.542  1.00  0.00     0.062 N 
ATOM     21  O   UNL     1      -5.451  17.529  -1.479  1.00  0.00    -0.258 OA
ATOM     22  O   UNL     1      -4.213  17.626  -3.172  1.00  0.00    -0.258 OA
ENDBRANCH   7  20
TORSDOF 2
ENDMDL
MODEL 2
REMARK VINA RESULT:    -4.177      3.918      5.039
REMARK INTER + INTRA:          -4.971
REMARK INTER:                  -4.656
REMARK INTRA:                  -0.316
REMARK UNBOUND:                -0.306
REMARK SMILES O=[N+]([O-])c1ccc2c(c1)N[C@@H](c1cc(Cl)cc(Cl)c1)N2
REMARK SMILES IDX 7 1 8 2 5 3 6 4 20 5 10 6 4 7 11 8 9 9 12 12 14 13 13 14
REMARK SMILES IDX 16 15 17 16 19 17 15 18 18 19 2 20 3 21 1 22
REMARK H PARENT 20 10 10 11
ROOT
ATOM      1  C   UNL     1      -5.946  10.028  -4.477  1.00  0.00     0.060 A 
ATOM      2  C   UNL     1      -6.255   9.399  -5.659  1.00  0.00     0.066 A 
ATOM      3  C   UNL     1      -6.857  12.061  -5.243  1.00  0.00     0.088 A 
ATOM      4  C   UNL     1      -6.429  11.216  -4.183  1.00  0.00     0.035 A 
ATOM      5  N   UNL     1      -5.304   9.082  -3.586  1.00  0.00    -0.360 N 
ATOM      6  N   UNL     1      -5.843   8.076  -5.483  1.00  0.00    -0.360 N 
ATOM      7  C   UNL     1      -7.049  11.494  -6.501  1.00  0.00     0.271 A 
ATOM      8  C   UNL     1      -5.791   7.899  -4.077  1.00  0.00     0.205 C 
ATOM      9  C   UNL     1      -6.761  10.108  -6.702  1.00  0.00     0.113 A 
ATOM     10  H   UNL     1      -4.659   9.251  -2.801  1.00  0.00     0.163 HD
ATOM     11  H   UNL     1      -5.626   7.382  -6.212  1.00  0.00     0.163 HD
ENDROOT
BRANCH   8  12
ATOM     12  C   UNL     1      -5.147   6.564  -3.608  1.00  0.00    -0.003 A 
ATOM     13  C   UNL     1      -4.220   5.265  -1.715  1.00  0.00     0.042 A 
ATOM     14  C   UNL     1      -5.262   6.109  -2.276  1.00  0.00     0.028 A 
ATOM     15  C   UNL     1      -3.444   4.450  -2.656  1.00  0.00     0.041 A 
ATOM     16  C   UNL     1      -3.647   4.725  -4.075  1.00  0.00     0.042 A 
ATOM     17  C   UNL     1      -4.337   5.859  -4.569  1.00  0.00     0.028 A 
ATOM     18  Cl  UNL     1      -4.037   4.910  -0.208  1.00  0.00    -0.084 Cl
ATOM     19  Cl  UNL     1      -2.906   3.642  -5.170  1.00  0.00    -0.084 Cl
ENDBRANCH   8  12
BRANCH   7  20
ATOM     20  N   UNL     1      -7.605  12.169  -7.568  1.00  0.00     0.062 N 
ATOM     21  O   UNL     1      -8.099  11.574  -8.454  1.00  0.00    -0.258 OA
ATOM     22  O   UNL     1      -7.826  13.456  -7.564  1.00  0.00    -0.258 OA
ENDBRANCH   7  20
TORSDOF 2
ENDMDL
MODEL 3
REMARK VINA RESULT:    -4.174      5.846      7.176
REMARK INTER + INTRA:          -4.967
REMARK INTER:                  -4.661
REMARK INTRA:                  -0.306
REMARK UNBOUND:                -0.306
REMARK SMILES O=[N+]([O-])c1ccc2c(c1)N[C@@H](c1cc(Cl)cc(Cl)c1)N2
REMARK SMILES IDX 7 1 8 2 5 3 6 4 20 5 10 6 4 7 11 8 9 9 12 12 14 13 13 14
REMARK SMILES IDX 16 15 17 16 19 17 15 18 18 19 2 20 3 21 1 22
REMARK H PARENT 20 10 10 11
ROOT
ATOM      1  C   UNL     1      -7.591  10.968  -8.631  1.00  0.00     0.060 A 
ATOM      2  C   UNL     1      -8.386   9.848  -8.584  1.00  0.00     0.066 A 
ATOM      3  C   UNL     1      -8.917  11.919 -10.329  1.00  0.00     0.088 A 
ATOM      4  C   UNL     1      -7.961  12.048  -9.285  1.00  0.00     0.035 A 
ATOM      5  N   UNL     1      -6.523  10.838  -7.658  1.00  0.00    -0.360 N 
ATOM      6  N   UNL     1      -7.837   9.058  -7.570  1.00  0.00    -0.360 N 
ATOM      7  C   UNL     1      -9.652  10.738 -10.409  1.00  0.00     0.271 A 
ATOM      8  C   UNL     1      -7.093   9.963  -6.771  1.00  0.00     0.205 C 
ATOM      9  C   UNL     1      -9.390   9.680  -9.483  1.00  0.00     0.113 A 
ATOM     10  H   UNL     1      -5.594  11.280  -7.639  1.00  0.00     0.163 HD
ATOM     11  H   UNL     1      -7.949   8.043  -7.433  1.00  0.00     0.163 HD
ENDROOT
BRANCH   8  12
ATOM     12  C   UNL     1      -6.199   9.297  -5.688  1.00  0.00    -0.003 A 
ATOM     13  C   UNL     1      -3.985   8.334  -5.136  1.00  0.00     0.042 A 
ATOM     14  C   UNL     1      -4.789   9.393  -5.724  1.00  0.00     0.028 A 
ATOM     15  C   UNL     1      -4.595   7.558  -4.051  1.00  0.00     0.041 A 
ATOM     16  C   UNL     1      -6.017   7.778  -3.814  1.00  0.00     0.042 A 
ATOM     17  C   UNL     1      -6.866   8.489  -4.699  1.00  0.00     0.028 A 
ATOM     18  Cl  UNL     1      -2.451   8.131  -5.330  1.00  0.00    -0.084 Cl
ATOM     19  Cl  UNL     1      -6.677   7.035  -2.423  1.00  0.00    -0.084 Cl
ENDBRANCH   8  12
BRANCH   7  20
ATOM     20  N   UNL     1     -10.709  10.551 -11.276  1.00  0.00     0.062 N 
ATOM     21  O   UNL     1     -10.512  10.381 -12.422  1.00  0.00    -0.258 OA
ATOM     22  O   UNL     1     -11.931  10.326 -10.876  1.00  0.00    -0.258 OA
ENDBRANCH   7  20
TORSDOF 2
ENDMDL
MODEL 4
REMARK VINA RESULT:    -4.165      3.265      4.690
REMARK INTER + INTRA:          -4.958
REMARK INTER:                  -4.642
REMARK INTRA:                  -0.316
REMARK UNBOUND:                -0.306
REMARK SMILES O=[N+]([O-])c1ccc2c(c1)N[C@@H](c1cc(Cl)cc(Cl)c1)N2
REMARK SMILES IDX 7 1 8 2 5 3 6 4 20 5 10 6 4 7 11 8 9 9 12 12 14 13 13 14
REMARK SMILES IDX 16 15 17 16 19 17 15 18 18 19 2 20 3 21 1 22
REMARK H PARENT 20 10 10 11
ROOT
ATOM      1  C   UNL     1      -6.222   9.364  -5.686  1.00  0.00     0.060 A 
ATOM      2  C   UNL     1      -5.913  10.061  -4.543  1.00  0.00     0.066 A 
ATOM      3  C   UNL     1      -7.168  11.280  -6.677  1.00  0.00     0.088 A 
ATOM      4  C   UNL     1      -6.605   9.979  -6.784  1.00  0.00     0.035 A 
ATOM      5  N   UNL     1      -5.785   7.989  -5.541  1.00  0.00    -0.360 N 
ATOM      6  N   UNL     1      -5.260   9.137  -3.722  1.00  0.00    -0.360 N 
ATOM      7  C   UNL     1      -7.002  11.974  -5.480  1.00  0.00     0.271 A 
ATOM      8  C   UNL     1      -4.791   8.135  -4.609  1.00  0.00     0.205 C 
ATOM      9  C   UNL     1      -6.326  11.345  -4.388  1.00  0.00     0.113 A 
ATOM     10  H   UNL     1      -6.127   7.138  -6.009  1.00  0.00     0.163 HD
ATOM     11  H   UNL     1      -5.146   9.175  -2.699  1.00  0.00     0.163 HD
ENDROOT
BRANCH   8  12
ATOM     12  C   UNL     1      -4.212   6.868  -3.919  1.00  0.00    -0.003 A 
ATOM     13  C   UNL     1      -3.461   4.524  -4.189  1.00  0.00     0.042 A 
ATOM     14  C   UNL     1      -3.462   5.907  -4.635  1.00  0.00     0.028 A 
ATOM     15  C   UNL     1      -3.706   4.284  -2.762  1.00  0.00     0.041 A 
ATOM     16  C   UNL     1      -4.138   5.433  -1.974  1.00  0.00     0.042 A 
ATOM     17  C   UNL     1      -4.558   6.664  -2.536  1.00  0.00     0.028 A 
ATOM     18  Cl  UNL     1      -2.937   3.299  -4.998  1.00  0.00    -0.084 Cl
ATOM     19  Cl  UNL     1      -4.221   5.203  -0.282  1.00  0.00    -0.084 Cl
ENDBRANCH   8  12
BRANCH   7  20
ATOM     20  N   UNL     1      -7.364  13.293  -5.304  1.00  0.00     0.062 N 
ATOM     21  O   UNL     1      -6.905  13.922  -4.423  1.00  0.00    -0.258 OA
ATOM     22  O   UNL     1      -8.030  13.978  -6.194  1.00  0.00    -0.258 OA
ENDBRANCH   7  20
TORSDOF 2
ENDMDL
MODEL 5
REMARK VINA RESULT:    -3.887      6.090      8.425
REMARK INTER + INTRA:          -4.647
REMARK INTER:                  -4.331
REMARK INTRA:                  -0.315
REMARK UNBOUND:                -0.306
REMARK SMILES O=[N+]([O-])c1ccc2c(c1)N[C@@H](c1cc(Cl)cc(Cl)c1)N2
REMARK SMILES IDX 7 1 8 2 5 3 6 4 20 5 10 6 4 7 11 8 9 9 12 12 14 13 13 14
REMARK SMILES IDX 16 15 17 16 19 17 15 18 18 19 2 20 3 21 1 22
REMARK H PARENT 20 10 10 11
ROOT
ATOM      1  C   UNL     1      -5.032   6.839  -2.570  1.00  0.00     0.060 A 
ATOM      2  C   UNL     1      -4.553   6.258  -3.720  1.00  0.00     0.066 A 
ATOM      3  C   UNL     1      -4.232   5.055  -1.257  1.00  0.00     0.088 A 
ATOM      4  C   UNL     1      -4.687   6.395  -1.381  1.00  0.00     0.035 A 
ATOM      5  N   UNL     1      -5.673   8.097  -2.901  1.00  0.00    -0.360 N 
ATOM      6  N   UNL     1      -4.861   7.165  -4.738  1.00  0.00    -0.360 N 
ATOM      7  C   UNL     1      -3.868   4.373  -2.416  1.00  0.00     0.271 A 
ATOM      8  C   UNL     1      -5.037   8.406  -4.075  1.00  0.00     0.205 C 
ATOM      9  C   UNL     1      -4.011   5.013  -3.686  1.00  0.00     0.113 A 
ATOM     10  H   UNL     1      -6.405   8.615  -2.395  1.00  0.00     0.163 HD
ATOM     11  H   UNL     1      -4.943   6.973  -5.747  1.00  0.00     0.163 HD
ENDROOT
BRANCH   8  12
ATOM     12  C   UNL     1      -5.604   9.548  -4.963  1.00  0.00    -0.003 A 
ATOM     13  C   UNL     1      -6.655  11.790  -5.032  1.00  0.00     0.042 A 
ATOM     14  C   UNL     1      -5.633  10.890  -4.521  1.00  0.00     0.028 A 
ATOM     15  C   UNL     1      -7.203  11.489  -6.360  1.00  0.00     0.041 A 
ATOM     16  C   UNL     1      -6.830  10.205  -6.942  1.00  0.00     0.042 A 
ATOM     17  C   UNL     1      -6.193   9.165  -6.220  1.00  0.00     0.028 A 
ATOM     18  Cl  UNL     1      -7.013  13.193  -4.458  1.00  0.00    -0.084 Cl
ATOM     19  Cl  UNL     1      -7.295   9.945  -8.566  1.00  0.00    -0.084 Cl
ENDBRANCH   8  12
BRANCH   7  20
ATOM     20  N   UNL     1      -3.271   3.129  -2.416  1.00  0.00     0.062 N 
ATOM     21  O   UNL     1      -3.318   2.448  -3.374  1.00  0.00    -0.258 OA
ATOM     22  O   UNL     1      -2.448   2.730  -1.485  1.00  0.00    -0.258 OA
ENDBRANCH   7  20
TORSDOF 2
ENDMDL
MODEL 6
REMARK VINA RESULT:    -3.829      6.098      8.506
REMARK INTER + INTRA:          -4.582
REMARK INTER:                  -4.282
REMARK INTRA:                  -0.300
REMARK UNBOUND:                -0.306
REMARK SMILES O=[N+]([O-])c1ccc2c(c1)N[C@@H](c1cc(Cl)cc(Cl)c1)N2
REMARK SMILES IDX 7 1 8 2 5 3 6 4 20 5 10 6 4 7 11 8 9 9 12 12 14 13 13 14
REMARK SMILES IDX 16 15 17 16 19 17 15 18 18 19 2 20 3 21 1 22
REMARK H PARENT 20 10 10 11
ROOT
ATOM      1  C   UNL     1      -5.110   6.798  -2.675  1.00  0.00     0.060 A 
ATOM      2  C   UNL     1      -4.879   6.294  -3.933  1.00  0.00     0.066 A 
ATOM      3  C   UNL     1      -4.023   4.966  -1.669  1.00  0.00     0.088 A 
ATOM      4  C   UNL     1      -4.514   6.299  -1.614  1.00  0.00     0.035 A 
ATOM      5  N   UNL     1      -5.826   8.054  -2.788  1.00  0.00    -0.360 N 
ATOM      6  N   UNL     1      -5.410   7.246  -4.807  1.00  0.00    -0.360 N 
ATOM      7  C   UNL     1      -3.904   4.359  -2.917  1.00  0.00     0.271 A 
ATOM      8  C   UNL     1      -5.458   8.443  -4.050  1.00  0.00     0.205 C 
ATOM      9  C   UNL     1      -4.324   5.063  -4.088  1.00  0.00     0.113 A 
ATOM     10  H   UNL     1      -6.440   8.524  -2.108  1.00  0.00     0.163 HD
ATOM     11  H   UNL     1      -5.702   7.107  -5.785  1.00  0.00     0.163 HD
ENDROOT
BRANCH   8  12
ATOM     12  C   UNL     1      -6.218   9.617  -4.729  1.00  0.00    -0.003 A 
ATOM     13  C   UNL     1      -7.056  10.592  -6.845  1.00  0.00     0.042 A 
ATOM     14  C   UNL     1      -6.898   9.453  -5.957  1.00  0.00     0.028 A 
ATOM     15  C   UNL     1      -7.062  11.923  -6.227  1.00  0.00     0.041 A 
ATOM     16  C   UNL     1      -6.696  11.987  -4.817  1.00  0.00     0.042 A 
ATOM     17  C   UNL     1      -6.116  10.910  -4.101  1.00  0.00     0.028 A 
ATOM     18  Cl  UNL     1      -7.514  10.539  -8.334  1.00  0.00    -0.084 Cl
ATOM     19  Cl  UNL     1      -6.905  13.498  -4.047  1.00  0.00    -0.084 Cl
ENDBRANCH   8  12
BRANCH   7  20
ATOM     20  N   UNL     1      -3.302   3.133  -3.117  1.00  0.00     0.062 N 
ATOM     21  O   UNL     1      -3.001   2.464  -2.199  1.00  0.00    -0.258 OA
ATOM     22  O   UNL     1      -3.238   2.549  -4.283  1.00  0.00    -0.258 OA
ENDBRANCH   7  20
TORSDOF 2
ENDMDL
MODEL 7
REMARK VINA RESULT:    -3.821      4.373      5.699
REMARK INTER + INTRA:          -4.573
REMARK INTER:                  -4.274
REMARK INTRA:                  -0.300
REMARK UNBOUND:                -0.306
REMARK SMILES O=[N+]([O-])c1ccc2c(c1)N[C@@H](c1cc(Cl)cc(Cl)c1)N2
REMARK SMILES IDX 7 1 8 2 5 3 6 4 20 5 10 6 4 7 11 8 9 9 12 12 14 13 13 14
REMARK SMILES IDX 16 15 17 16 19 17 15 18 18 19 2 20 3 21 1 22
REMARK H PARENT 20 10 10 11
ROOT
ATOM      1  C   UNL     1      -5.982  10.056  -5.067  1.00  0.00     0.060 A 
ATOM      2  C   UNL     1      -6.227   9.185  -6.102  1.00  0.00     0.066 A 
ATOM      3  C   UNL     1      -7.088  11.806  -6.192  1.00  0.00     0.088 A 
ATOM      4  C   UNL     1      -6.580  11.226  -4.998  1.00  0.00     0.035 A 
ATOM      5  N   UNL     1      -5.251   9.365  -4.024  1.00  0.00    -0.360 N 
ATOM      6  N   UNL     1      -5.687   7.966  -5.684  1.00  0.00    -0.360 N 
ATOM      7  C   UNL     1      -7.221  10.993  -7.315  1.00  0.00     0.271 A 
ATOM      8  C   UNL     1      -5.620   8.068  -4.271  1.00  0.00     0.205 C 
ATOM      9  C   UNL     1      -6.798   9.628  -7.253  1.00  0.00     0.113 A 
ATOM     10  H   UNL     1      -4.628   9.743  -3.297  1.00  0.00     0.163 HD
ATOM     11  H   UNL     1      -5.402   7.170  -6.271  1.00  0.00     0.163 HD
ENDROOT
BRANCH   8  12
ATOM     12  C   UNL     1      -4.848   6.917  -3.568  1.00  0.00    -0.003 A 
ATOM     13  C   UNL     1      -3.722   4.725  -3.815  1.00  0.00     0.042 A 
ATOM     14  C   UNL     1      -3.945   6.087  -4.270  1.00  0.00     0.028 A 
ATOM     15  C   UNL     1      -3.938   4.455  -2.389  1.00  0.00     0.041 A 
ATOM     16  C   UNL     1      -4.559   5.523  -1.612  1.00  0.00     0.042 A 
ATOM     17  C   UNL     1      -5.169   6.666  -2.186  1.00  0.00     0.028 A 
ATOM     18  Cl  UNL     1      -2.999   3.597  -4.612  1.00  0.00    -0.084 Cl
ATOM     19  Cl  UNL     1      -4.618   5.292   0.080  1.00  0.00    -0.084 Cl
ENDBRANCH   8  12
BRANCH   7  20
ATOM     20  N   UNL     1      -7.839  11.394  -8.481  1.00  0.00     0.062 N 
ATOM     21  O   UNL     1      -8.130  10.603  -9.300  1.00  0.00    -0.258 OA
ATOM     22  O   UNL     1      -8.336  12.589  -8.653  1.00  0.00    -0.258 OA
ENDBRANCH   7  20
TORSDOF 2
ENDMDL
MODEL 8
REMARK VINA RESULT:    -3.817      2.752      3.854
REMARK INTER + INTRA:          -4.569
REMARK INTER:                  -4.269
REMARK INTRA:                  -0.300
REMARK UNBOUND:                -0.306
REMARK SMILES O=[N+]([O-])c1ccc2c(c1)N[C@@H](c1cc(Cl)cc(Cl)c1)N2
REMARK SMILES IDX 7 1 8 2 5 3 6 4 20 5 10 6 4 7 11 8 9 9 12 12 14 13 13 14
REMARK SMILES IDX 16 15 17 16 19 17 15 18 18 19 2 20 3 21 1 22
REMARK H PARENT 20 10 10 11
ROOT
ATOM      1  C   UNL     1      -6.431   9.854  -5.199  1.00  0.00     0.060 A 
ATOM      2  C   UNL     1      -5.984  10.320  -3.986  1.00  0.00     0.066 A 
ATOM      3  C   UNL     1      -7.129  12.010  -5.844  1.00  0.00     0.088 A 
ATOM      4  C   UNL     1      -6.762  10.677  -6.172  1.00  0.00     0.035 A 
ATOM      5  N   UNL     1      -6.191   8.428  -5.282  1.00  0.00    -0.360 N 
ATOM      6  N   UNL     1      -5.441   9.202  -3.348  1.00  0.00    -0.360 N 
ATOM      7  C   UNL     1      -6.822  12.484  -4.570  1.00  0.00     0.271 A 
ATOM      8  C   UNL     1      -5.152   8.293  -4.398  1.00  0.00     0.205 C 
ATOM      9  C   UNL     1      -6.204  11.610  -3.622  1.00  0.00     0.113 A 
ATOM     10  H   UNL     1      -6.667   7.712  -5.849  1.00  0.00     0.163 HD
ATOM     11  H   UNL     1      -5.285   9.067  -2.339  1.00  0.00     0.163 HD
ENDROOT
BRANCH   8  12
ATOM     12  C   UNL     1      -4.735   6.869  -3.934  1.00  0.00    -0.003 A 
ATOM     13  C   UNL     1      -4.202   5.387  -2.024  1.00  0.00     0.042 A 
ATOM     14  C   UNL     1      -5.061   6.379  -2.650  1.00  0.00     0.028 A 
ATOM     15  C   UNL     1      -3.427   4.517  -2.917  1.00  0.00     0.041 A 
ATOM     16  C   UNL     1      -3.428   4.873  -4.332  1.00  0.00     0.042 A 
ATOM     17  C   UNL     1      -3.912   6.105  -4.837  1.00  0.00     0.028 A 
ATOM     18  Cl  UNL     1      -4.241   4.951  -0.528  1.00  0.00    -0.084 Cl
ATOM     19  Cl  UNL     1      -2.703   3.749  -5.396  1.00  0.00    -0.084 Cl
ENDBRANCH   8  12
BRANCH   7  20
ATOM     20  N   UNL     1      -6.986  13.798  -4.182  1.00  0.00     0.062 N 
ATOM     21  O   UNL     1      -6.466  14.197  -3.206  1.00  0.00    -0.258 OA
ATOM     22  O   UNL     1      -7.510  14.712  -4.953  1.00  0.00    -0.258 OA
ENDBRANCH   7  20
TORSDOF 2
ENDMDL
MODEL 9
REMARK VINA RESULT:    -3.748      6.237      7.264
REMARK INTER + INTRA:          -4.492
REMARK INTER:                  -4.179
REMARK INTRA:                  -0.313
REMARK UNBOUND:                -0.306
REMARK SMILES O=[N+]([O-])c1ccc2c(c1)N[C@@H](c1cc(Cl)cc(Cl)c1)N2
REMARK SMILES IDX 7 1 8 2 5 3 6 4 20 5 10 6 4 7 11 8 9 9 12 12 14 13 13 14
REMARK SMILES IDX 16 15 17 16 19 17 15 18 18 19 2 20 3 21 1 22
REMARK H PARENT 20 10 10 11
ROOT
ATOM      1  C   UNL     1      -9.172  10.256  -9.287  1.00  0.00     0.060 A 
ATOM      2  C   UNL     1      -8.637  11.520  -9.353  1.00  0.00     0.066 A 
ATOM      3  C   UNL     1     -10.466  10.632 -11.219  1.00  0.00     0.088 A 
ATOM      4  C   UNL     1      -9.859   9.747 -10.288  1.00  0.00     0.035 A 
ATOM      5  N   UNL     1      -8.618   9.561  -8.142  1.00  0.00    -0.360 N 
ATOM      6  N   UNL     1      -7.738  11.588  -8.286  1.00  0.00    -0.360 N 
ATOM      7  C   UNL     1     -10.056  11.963 -11.228  1.00  0.00     0.271 A 
ATOM      8  C   UNL     1      -7.435  10.236  -7.983  1.00  0.00     0.205 C 
ATOM      9  C   UNL     1      -9.087  12.410 -10.276  1.00  0.00     0.113 A 
ATOM     10  H   UNL     1      -9.005   8.777  -7.598  1.00  0.00     0.163 HD
ATOM     11  H   UNL     1      -7.375  12.432  -7.822  1.00  0.00     0.163 HD
ENDROOT
BRANCH   8  12
ATOM     12  C   UNL     1      -6.615  10.024  -6.680  1.00  0.00    -0.003 A 
ATOM     13  C   UNL     1      -5.637   8.397  -5.090  1.00  0.00     0.042 A 
ATOM     14  C   UNL     1      -5.868   8.846  -6.453  1.00  0.00     0.028 A 
ATOM     15  C   UNL     1      -5.642   9.422  -4.040  1.00  0.00     0.041 A 
ATOM     16  C   UNL     1      -6.090  10.754  -4.434  1.00  0.00     0.042 A 
ATOM     17  C   UNL     1      -6.730  11.040  -5.665  1.00  0.00     0.028 A 
ATOM     18  Cl  UNL     1      -5.094   7.000  -4.663  1.00  0.00    -0.084 Cl
ATOM     19  Cl  UNL     1      -5.898  11.992  -3.272  1.00  0.00    -0.084 Cl
ENDBRANCH   8  12
BRANCH   7  20
ATOM     20  N   UNL     1     -10.455  12.881 -12.178  1.00  0.00     0.062 N 
ATOM     21  O   UNL     1     -11.132  12.545 -13.079  1.00  0.00    -0.258 OA
ATOM     22  O   UNL     1     -10.314  14.170 -12.032  1.00  0.00    -0.258 OA
ENDBRANCH   7  20
TORSDOF 2
ENDMDL
