MODEL 1
REMARK VINA RESULT:    -5.250      0.000      0.000
REMARK INTER + INTRA:          -6.179
REMARK INTER:                  -5.864
REMARK INTRA:                  -0.315
REMARK UNBOUND:                -0.315
REMARK SMILES O=[N+]([O-])c1ccc2c(c1)N[C@@H](c1cc(Cl)cc(Cl)c1)N2
REMARK SMILES IDX 7 1 8 2 5 3 6 4 20 5 10 6 4 7 11 8 9 9 12 12 14 13 13 14
REMARK SMILES IDX 16 15 17 16 19 17 15 18 18 19 2 20 3 21 1 22
REMARK H PARENT 20 10 10 11
ROOT
ATOM      1  C   UNL     1      11.203   2.125   2.811  1.00  0.00     0.060 A 
ATOM      2  C   UNL     1      10.998   3.367   3.363  1.00  0.00     0.066 A 
ATOM      3  C   UNL     1      13.463   2.130   3.477  1.00  0.00     0.088 A 
ATOM      4  C   UNL     1      12.296   1.435   3.058  1.00  0.00     0.035 A 
ATOM      5  N   UNL     1       9.966   1.654   2.221  1.00  0.00    -0.360 N 
ATOM      6  N   UNL     1       9.645   3.638   3.148  1.00  0.00    -0.360 N 
ATOM      7  C   UNL     1      13.326   3.446   3.912  1.00  0.00     0.271 A 
ATOM      8  C   UNL     1       9.049   2.367   2.949  1.00  0.00     0.205 C 
ATOM      9  C   UNL     1      12.041   4.071   3.876  1.00  0.00     0.113 A 
ATOM     10  H   UNL     1       9.817   0.971   1.464  1.00  0.00     0.163 HD
ATOM     11  H   UNL     1       9.182   4.558   3.137  1.00  0.00     0.163 HD
ENDROOT
BRANCH   8  12
ATOM     12  C   UNL     1       7.571   2.404   2.471  1.00  0.00    -0.003 A 
ATOM     13  C   UNL     1       5.642   1.115   1.605  1.00  0.00     0.042 A 
ATOM     14  C   UNL     1       6.733   1.269   2.552  1.00  0.00     0.028 A 
ATOM     15  C   UNL     1       5.084   2.343   1.026  1.00  0.00     0.041 A 
ATOM     16  C   UNL     1       5.815   3.577   1.291  1.00  0.00     0.042 A 
ATOM     17  C   UNL     1       7.118   3.620   1.846  1.00  0.00     0.028 A 
ATOM     18  Cl  UNL     1       4.810  -0.181   1.364  1.00  0.00    -0.084 Cl
ATOM     19  Cl  UNL     1       5.057   5.027   0.798  1.00  0.00    -0.084 Cl
ENDBRANCH   8  12
BRANCH   7  20
ATOM     20  N   UNL     1      14.349   4.174   4.484  1.00  0.00     0.062 N 
ATOM     21  O   UNL     1      14.112   5.136   5.116  1.00  0.00    -0.258 OA
ATOM     22  O   UNL     1      15.579   3.741   4.561  1.00  0.00    -0.258 OA
ENDBRANCH   7  20
TORSDOF 2
ENDMDL
MODEL 2
REMARK VINA RESULT:    -5.245      0.946      2.627
REMARK INTER + INTRA:          -6.174
REMARK INTER:                  -5.859
REMARK INTRA:                  -0.315
REMARK UNBOUND:                -0.315
REMARK SMILES O=[N+]([O-])c1ccc2c(c1)N[C@@H](c1cc(Cl)cc(Cl)c1)N2
REMARK SMILES IDX 7 1 8 2 5 3 6 4 20 5 10 6 4 7 11 8 9 9 12 12 14 13 13 14
REMARK SMILES IDX 16 15 17 16 19 17 15 18 18 19 2 20 3 21 1 22
REMARK H PARENT 20 10 10 11
ROOT
ATOM      1  C   UNL     1      10.879   3.729   3.473  1.00  0.00     0.060 A 
ATOM      2  C   UNL     1      11.279   2.517   2.964  1.00  0.00     0.066 A 
ATOM      3  C   UNL     1      13.062   4.213   4.214  1.00  0.00     0.088 A 
ATOM      4  C   UNL     1      11.752   4.635   3.859  1.00  0.00     0.035 A 
ATOM      5  N   UNL     1       9.461   3.905   3.230  1.00  0.00    -0.360 N 
ATOM      6  N   UNL     1      10.131   1.973   2.382  1.00  0.00    -0.360 N 
ATOM      7  C   UNL     1      13.466   2.933   3.842  1.00  0.00     0.271 A 
ATOM      8  C   UNL     1       9.285   3.086   2.145  1.00  0.00     0.205 C 
ATOM      9  C   UNL     1      12.545   2.069   3.170  1.00  0.00     0.113 A 
ATOM     10  H   UNL     1       8.775   4.486   3.732  1.00  0.00     0.163 HD
ATOM     11  H   UNL     1       9.942   0.983   2.172  1.00  0.00     0.163 HD
ENDROOT
BRANCH   8  12
ATOM     12  C   UNL     1       7.841   2.727   1.697  1.00  0.00    -0.003 A 
ATOM     13  C   UNL     1       5.562   3.555   1.197  1.00  0.00     0.042 A 
ATOM     14  C   UNL     1       7.004   3.668   1.057  1.00  0.00     0.028 A 
ATOM     15  C   UNL     1       5.020   2.216   1.457  1.00  0.00     0.041 A 
ATOM     16  C   UNL     1       5.990   1.170   1.761  1.00  0.00     0.042 A 
ATOM     17  C   UNL     1       7.354   1.418   2.054  1.00  0.00     0.028 A 
ATOM     18  Cl  UNL     1       4.513   4.642   0.810  1.00  0.00    -0.084 Cl
ATOM     19  Cl  UNL     1       5.381  -0.424   1.856  1.00  0.00    -0.084 Cl
ENDBRANCH   8  12
BRANCH   7  20
ATOM     20  N   UNL     1      14.755   2.463   3.992  1.00  0.00     0.062 N 
ATOM     21  O   UNL     1      15.135   1.557   3.346  1.00  0.00    -0.258 OA
ATOM     22  O   UNL     1      15.677   3.104   4.657  1.00  0.00    -0.258 OA
ENDBRANCH   7  20
TORSDOF 2
ENDMDL
MODEL 3
REMARK VINA RESULT:    -4.992      5.011      7.650
REMARK INTER + INTRA:          -5.891
REMARK INTER:                  -5.591
REMARK INTRA:                  -0.299
REMARK UNBOUND:                -0.315
REMARK SMILES O=[N+]([O-])c1ccc2c(c1)N[C@@H](c1cc(Cl)cc(Cl)c1)N2
REMARK SMILES IDX 7 1 8 2 5 3 6 4 20 5 10 6 4 7 11 8 9 9 12 12 14 13 13 14
REMARK SMILES IDX 16 15 17 16 19 17 15 18 18 19 2 20 3 21 1 22
REMARK H PARENT 20 10 10 11
ROOT
ATOM      1  C   UNL     1       7.532   1.580   2.488  1.00  0.00     0.060 A 
ATOM      2  C   UNL     1       7.341   2.936   2.371  1.00  0.00     0.066 A 
ATOM      3  C   UNL     1       5.406   1.136   1.575  1.00  0.00     0.088 A 
ATOM      4  C   UNL     1       6.724   0.719   1.907  1.00  0.00     0.035 A 
ATOM      5  N   UNL     1       8.840   1.329   3.060  1.00  0.00    -0.360 N 
ATOM      6  N   UNL     1       8.531   3.509   2.828  1.00  0.00    -0.360 N 
ATOM      7  C   UNL     1       5.125   2.500   1.581  1.00  0.00     0.271 A 
ATOM      8  C   UNL     1       9.498   2.478   2.706  1.00  0.00     0.205 C 
ATOM      9  C   UNL     1       6.141   3.429   1.968  1.00  0.00     0.113 A 
ATOM     10  H   UNL     1       9.182   0.513   3.586  1.00  0.00     0.163 HD
ATOM     11  H   UNL     1       8.675   4.467   3.176  1.00  0.00     0.163 HD
ENDROOT
BRANCH   8  12
ATOM     12  C   UNL     1      10.874   2.791   3.355  1.00  0.00    -0.003 A 
ATOM     13  C   UNL     1      12.391   4.529   4.257  1.00  0.00     0.042 A 
ATOM     14  C   UNL     1      11.071   3.927   4.173  1.00  0.00     0.028 A 
ATOM     15  C   UNL     1      13.541   3.651   4.010  1.00  0.00     0.041 A 
ATOM     16  C   UNL     1      13.242   2.318   3.496  1.00  0.00     0.042 A 
ATOM     17  C   UNL     1      11.972   1.926   3.006  1.00  0.00     0.028 A 
ATOM     18  Cl  UNL     1      12.728   5.923   4.867  1.00  0.00    -0.084 Cl
ATOM     19  Cl  UNL     1      14.556   1.229   3.407  1.00  0.00    -0.084 Cl
ENDBRANCH   8  12
BRANCH   7  20
ATOM     20  N   UNL     1       3.937   3.039   1.132  1.00  0.00     0.062 N 
ATOM     21  O   UNL     1       3.048   2.336   0.821  1.00  0.00    -0.258 OA
ATOM     22  O   UNL     1       3.640   4.306   1.237  1.00  0.00    -0.258 OA
ENDBRANCH   7  20
TORSDOF 2
ENDMDL
MODEL 4
REMARK VINA RESULT:    -4.984      5.112      7.581
REMARK INTER + INTRA:          -5.882
REMARK INTER:                  -5.583
REMARK INTRA:                  -0.299
REMARK UNBOUND:                -0.315
REMARK SMILES O=[N+]([O-])c1ccc2c(c1)N[C@@H](c1cc(Cl)cc(Cl)c1)N2
REMARK SMILES IDX 7 1 8 2 5 3 6 4 20 5 10 6 4 7 11 8 9 9 12 12 14 13 13 14
REMARK SMILES IDX 16 15 17 16 19 17 15 18 18 19 2 20 3 21 1 22
REMARK H PARENT 20 10 10 11
ROOT
ATOM      1  C   UNL     1       7.459   3.327   2.106  1.00  0.00     0.060 A 
ATOM      2  C   UNL     1       7.648   2.005   1.782  1.00  0.00     0.066 A 
ATOM      3  C   UNL     1       5.138   3.152   1.742  1.00  0.00     0.088 A 
ATOM      4  C   UNL     1       6.256   3.819   2.313  1.00  0.00     0.035 A 
ATOM      5  N   UNL     1       8.735   3.924   2.444  1.00  0.00    -0.360 N 
ATOM      6  N   UNL     1       9.017   1.784   1.955  1.00  0.00    -0.360 N 
ATOM      7  C   UNL     1       5.316   1.854   1.267  1.00  0.00     0.271 A 
ATOM      8  C   UNL     1       9.441   2.815   2.831  1.00  0.00     0.205 C 
ATOM      9  C   UNL     1       6.614   1.257   1.316  1.00  0.00     0.113 A 
ATOM     10  H   UNL     1       9.031   4.910   2.404  1.00  0.00     0.163 HD
ATOM     11  H   UNL     1       9.590   1.036   1.539  1.00  0.00     0.163 HD
ENDROOT
BRANCH   8  12
ATOM     12  C   UNL     1      10.981   2.926   3.014  1.00  0.00    -0.003 A 
ATOM     13  C   UNL     1      13.140   1.723   3.158  1.00  0.00     0.042 A 
ATOM     14  C   UNL     1      11.864   1.950   2.501  1.00  0.00     0.028 A 
ATOM     15  C   UNL     1      13.716   2.849   3.903  1.00  0.00     0.041 A 
ATOM     16  C   UNL     1      12.855   4.012   4.091  1.00  0.00     0.042 A 
ATOM     17  C   UNL     1      11.464   4.017   3.821  1.00  0.00     0.028 A 
ATOM     18  Cl  UNL     1      14.099   0.519   2.912  1.00  0.00    -0.084 Cl
ATOM     19  Cl  UNL     1      13.590   5.396   4.771  1.00  0.00    -0.084 Cl
ENDBRANCH   8  12
BRANCH   7  20
ATOM     20  N   UNL     1       4.283   1.049   0.833  1.00  0.00     0.062 N 
ATOM     21  O   UNL     1       3.298   1.528   0.406  1.00  0.00    -0.258 OA
ATOM     22  O   UNL     1       4.405  -0.238   0.655  1.00  0.00    -0.258 OA
ENDBRANCH   7  20
TORSDOF 2
ENDMDL
MODEL 5
REMARK VINA RESULT:    -4.936      5.008      7.426
REMARK INTER + INTRA:          -5.829
REMARK INTER:                  -5.510
REMARK INTRA:                  -0.318
REMARK UNBOUND:                -0.315
REMARK SMILES O=[N+]([O-])c1ccc2c(c1)N[C@@H](c1cc(Cl)cc(Cl)c1)N2
REMARK SMILES IDX 7 1 8 2 5 3 6 4 20 5 10 6 4 7 11 8 9 9 12 12 14 13 13 14
REMARK SMILES IDX 16 15 17 16 19 17 15 18 18 19 2 20 3 21 1 22
REMARK H PARENT 20 10 10 11
ROOT
ATOM      1  C   UNL     1       7.641   1.699   2.176  1.00  0.00     0.060 A 
ATOM      2  C   UNL     1       7.356   3.043   2.133  1.00  0.00     0.066 A 
ATOM      3  C   UNL     1       5.457   1.148   1.487  1.00  0.00     0.088 A 
ATOM      4  C   UNL     1       6.826   0.807   1.655  1.00  0.00     0.035 A 
ATOM      5  N   UNL     1       9.018   1.515   2.589  1.00  0.00    -0.360 N 
ATOM      6  N   UNL     1       8.553   3.676   2.478  1.00  0.00    -0.360 N 
ATOM      7  C   UNL     1       5.096   2.490   1.577  1.00  0.00     0.271 A 
ATOM      8  C   UNL     1       9.560   2.715   2.209  1.00  0.00     0.205 C 
ATOM      9  C   UNL     1       6.090   3.470   1.885  1.00  0.00     0.113 A 
ATOM     10  H   UNL     1       9.466   0.706   3.042  1.00  0.00     0.163 HD
ATOM     11  H   UNL     1       8.676   4.630   2.845  1.00  0.00     0.163 HD
ENDROOT
BRANCH   8  12
ATOM     12  C   UNL     1      10.980   3.095   2.715  1.00  0.00    -0.003 A 
ATOM     13  C   UNL     1      13.233   2.293   3.357  1.00  0.00     0.042 A 
ATOM     14  C   UNL     1      12.110   2.294   2.434  1.00  0.00     0.028 A 
ATOM     15  C   UNL     1      13.428   3.498   4.170  1.00  0.00     0.041 A 
ATOM     16  C   UNL     1      12.358   4.489   4.132  1.00  0.00     0.042 A 
ATOM     17  C   UNL     1      11.079   4.250   3.570  1.00  0.00     0.028 A 
ATOM     18  Cl  UNL     1      14.417   1.279   3.362  1.00  0.00    -0.084 Cl
ATOM     19  Cl  UNL     1      12.676   5.978   4.909  1.00  0.00    -0.084 Cl
ENDBRANCH   8  12
BRANCH   7  20
ATOM     20  N   UNL     1       3.834   2.964   1.284  1.00  0.00     0.062 N 
ATOM     21  O   UNL     1       3.625   4.121   1.261  1.00  0.00    -0.258 OA
ATOM     22  O   UNL     1       2.880   2.213   0.803  1.00  0.00    -0.258 OA
ENDBRANCH   7  20
TORSDOF 2
ENDMDL
MODEL 6
REMARK VINA RESULT:    -4.855      0.786      2.170
REMARK INTER + INTRA:          -5.738
REMARK INTER:                  -5.439
REMARK INTRA:                  -0.300
REMARK UNBOUND:                -0.315
REMARK SMILES O=[N+]([O-])c1ccc2c(c1)N[C@@H](c1cc(Cl)cc(Cl)c1)N2
REMARK SMILES IDX 7 1 8 2 5 3 6 4 20 5 10 6 4 7 11 8 9 9 12 12 14 13 13 14
REMARK SMILES IDX 16 15 17 16 19 17 15 18 18 19 2 20 3 21 1 22
REMARK H PARENT 20 10 10 11
ROOT
ATOM      1  C   UNL     1      11.347   2.770   2.951  1.00  0.00     0.060 A 
ATOM      2  C   UNL     1      10.833   3.952   3.430  1.00  0.00     0.066 A 
ATOM      3  C   UNL     1      13.456   3.230   3.893  1.00  0.00     0.088 A 
ATOM      4  C   UNL     1      12.512   2.313   3.356  1.00  0.00     0.035 A 
ATOM      5  N   UNL     1      10.313   2.058   2.227  1.00  0.00    -0.360 N 
ATOM      6  N   UNL     1       9.492   3.947   3.039  1.00  0.00    -0.360 N 
ATOM      7  C   UNL     1      13.009   4.496   4.264  1.00  0.00     0.271 A 
ATOM      8  C   UNL     1       9.188   2.581   2.809  1.00  0.00     0.205 C 
ATOM      9  C   UNL     1      11.642   4.853   4.046  1.00  0.00     0.113 A 
ATOM     10  H   UNL     1      10.399   1.353   1.481  1.00  0.00     0.163 HD
ATOM     11  H   UNL     1       8.863   4.756   2.939  1.00  0.00     0.163 HD
ENDROOT
BRANCH   8  12
ATOM     12  C   UNL     1       7.805   2.320   2.150  1.00  0.00    -0.003 A 
ATOM     13  C   UNL     1       5.670   3.295   1.360  1.00  0.00     0.042 A 
ATOM     14  C   UNL     1       7.122   3.325   1.429  1.00  0.00     0.028 A 
ATOM     15  C   UNL     1       5.024   1.985   1.496  1.00  0.00     0.041 A 
ATOM     16  C   UNL     1       5.881   0.875   1.899  1.00  0.00     0.042 A 
ATOM     17  C   UNL     1       7.201   1.034   2.390  1.00  0.00     0.028 A 
ATOM     18  Cl  UNL     1       4.750   4.452   0.866  1.00  0.00    -0.084 Cl
ATOM     19  Cl  UNL     1       5.177  -0.681   1.853  1.00  0.00    -0.084 Cl
ENDBRANCH   8  12
BRANCH   7  20
ATOM     20  N   UNL     1      13.787   5.417   4.934  1.00  0.00     0.062 N 
ATOM     21  O   UNL     1      13.307   6.402   5.360  1.00  0.00    -0.258 OA
ATOM     22  O   UNL     1      15.006   5.170   5.331  1.00  0.00    -0.258 OA
ENDBRANCH   7  20
TORSDOF 2
ENDMDL
MODEL 7
REMARK VINA RESULT:    -4.843      1.260      1.975
REMARK INTER + INTRA:          -5.724
REMARK INTER:                  -5.424
REMARK INTRA:                  -0.300
REMARK UNBOUND:                -0.315
REMARK SMILES O=[N+]([O-])c1ccc2c(c1)N[C@@H](c1cc(Cl)cc(Cl)c1)N2
REMARK SMILES IDX 7 1 8 2 5 3 6 4 20 5 10 6 4 7 11 8 9 9 12 12 14 13 13 14
REMARK SMILES IDX 16 15 17 16 19 17 15 18 18 19 2 20 3 21 1 22
REMARK H PARENT 20 10 10 11
ROOT
ATOM      1  C   UNL     1      11.113   3.172   3.502  1.00  0.00     0.060 A 
ATOM      2  C   UNL     1      11.244   1.946   2.894  1.00  0.00     0.066 A 
ATOM      3  C   UNL     1      13.424   3.273   3.946  1.00  0.00     0.088 A 
ATOM      4  C   UNL     1      12.162   3.909   3.797  1.00  0.00     0.035 A 
ATOM      5  N   UNL     1       9.721   3.575   3.468  1.00  0.00    -0.360 N 
ATOM      6  N   UNL     1       9.958   1.619   2.459  1.00  0.00    -0.360 N 
ATOM      7  C   UNL     1      13.566   1.971   3.471  1.00  0.00     0.271 A 
ATOM      8  C   UNL     1       9.275   2.860   2.388  1.00  0.00     0.205 C 
ATOM      9  C   UNL     1      12.439   1.300   2.902  1.00  0.00     0.113 A 
ATOM     10  H   UNL     1       9.209   4.221   4.085  1.00  0.00     0.163 HD
ATOM     11  H   UNL     1       9.587   0.683   2.239  1.00  0.00     0.163 HD
ENDROOT
BRANCH   8  12
ATOM     12  C   UNL     1       7.745   2.752   2.134  1.00  0.00    -0.003 A 
ATOM     13  C   UNL     1       5.826   1.262   1.653  1.00  0.00     0.042 A 
ATOM     14  C   UNL     1       7.025   1.568   2.415  1.00  0.00     0.028 A 
ATOM     15  C   UNL     1       5.091   2.396   1.082  1.00  0.00     0.041 A 
ATOM     16  C   UNL     1       5.747   3.697   1.152  1.00  0.00     0.042 A 
ATOM     17  C   UNL     1       7.108   3.879   1.502  1.00  0.00     0.028 A 
ATOM     18  Cl  UNL     1       5.080  -0.106   1.626  1.00  0.00    -0.084 Cl
ATOM     19  Cl  UNL     1       4.808   5.045   0.681  1.00  0.00    -0.084 Cl
ENDBRANCH   8  12
BRANCH   7  20
ATOM     20  N   UNL     1      14.773   1.303   3.419  1.00  0.00     0.062 N 
ATOM     21  O   UNL     1      14.868   0.297   2.818  1.00  0.00    -0.258 OA
ATOM     22  O   UNL     1      15.900   1.829   3.814  1.00  0.00    -0.258 OA
ENDBRANCH   7  20
TORSDOF 2
ENDMDL
MODEL 8
REMARK VINA RESULT:    -4.162      2.998      4.307
REMARK INTER + INTRA:          -4.963
REMARK INTER:                  -4.659
REMARK INTRA:                  -0.305
REMARK UNBOUND:                -0.315
REMARK SMILES O=[N+]([O-])c1ccc2c(c1)N[C@@H](c1cc(Cl)cc(Cl)c1)N2
REMARK SMILES IDX 7 1 8 2 5 3 6 4 20 5 10 6 4 7 11 8 9 9 12 12 14 13 13 14
REMARK SMILES IDX 16 15 17 16 19 17 15 18 18 19 2 20 3 21 1 22
REMARK H PARENT 20 10 10 11
ROOT
ATOM      1  C   UNL     1      12.909   5.435   4.654  1.00  0.00     0.060 A 
ATOM      2  C   UNL     1      11.914   5.646   5.579  1.00  0.00     0.066 A 
ATOM      3  C   UNL     1      14.483   6.570   5.989  1.00  0.00     0.088 A 
ATOM      4  C   UNL     1      14.172   5.665   4.938  1.00  0.00     0.035 A 
ATOM      5  N   UNL     1      12.368   4.693   3.532  1.00  0.00    -0.360 N 
ATOM      6  N   UNL     1      10.789   5.008   5.050  1.00  0.00    -0.360 N 
ATOM      7  C   UNL     1      13.466   6.927   6.873  1.00  0.00     0.271 A 
ATOM      8  C   UNL     1      11.308   4.063   4.130  1.00  0.00     0.205 C 
ATOM      9  C   UNL     1      12.144   6.422   6.670  1.00  0.00     0.113 A 
ATOM     10  H   UNL     1      12.691   4.649   2.555  1.00  0.00     0.163 HD
ATOM     11  H   UNL     1       9.800   5.186   5.279  1.00  0.00     0.163 HD
ENDROOT
BRANCH   8  12
ATOM     12  C   UNL     1      10.244   3.364   3.239  1.00  0.00    -0.003 A 
ATOM     13  C   UNL     1       8.851   3.488   1.195  1.00  0.00     0.042 A 
ATOM     14  C   UNL     1      10.137   3.635   1.856  1.00  0.00     0.028 A 
ATOM     15  C   UNL     1       7.903   2.536   1.786  1.00  0.00     0.041 A 
ATOM     16  C   UNL     1       8.257   1.992   3.092  1.00  0.00     0.042 A 
ATOM     17  C   UNL     1       9.302   2.501   3.903  1.00  0.00     0.028 A 
ATOM     18  Cl  UNL     1       8.485   4.007  -0.229  1.00  0.00    -0.084 Cl
ATOM     19  Cl  UNL     1       7.264   0.732   3.683  1.00  0.00    -0.084 Cl
ENDBRANCH   8  12
BRANCH   7  20
ATOM     20  N   UNL     1      13.673   7.671   8.016  1.00  0.00     0.062 N 
ATOM     21  O   UNL     1      13.944   8.812   7.940  1.00  0.00    -0.258 OA
ATOM     22  O   UNL     1      13.369   7.246   9.212  1.00  0.00    -0.258 OA
ENDBRANCH   7  20
TORSDOF 2
ENDMDL
MODEL 9
REMARK VINA RESULT:    -3.975      4.158      5.960
REMARK INTER + INTRA:          -4.755
REMARK INTER:                  -4.465
REMARK INTRA:                  -0.290
REMARK UNBOUND:                -0.315
REMARK SMILES O=[N+]([O-])c1ccc2c(c1)N[C@@H](c1cc(Cl)cc(Cl)c1)N2
REMARK SMILES IDX 7 1 8 2 5 3 6 4 20 5 10 6 4 7 11 8 9 9 12 12 14 13 13 14
REMARK SMILES IDX 16 15 17 16 19 17 15 18 18 19 2 20 3 21 1 22
REMARK H PARENT 20 10 10 11
ROOT
ATOM      1  C   UNL     1      14.014   6.292   5.741  1.00  0.00     0.060 A 
ATOM      2  C   UNL     1      12.804   6.421   6.380  1.00  0.00     0.066 A 
ATOM      3  C   UNL     1      15.075   7.667   7.333  1.00  0.00     0.088 A 
ATOM      4  C   UNL     1      15.136   6.685   6.307  1.00  0.00     0.035 A 
ATOM      5  N   UNL     1      13.853   5.441   4.579  1.00  0.00    -0.360 N 
ATOM      6  N   UNL     1      11.920   5.630   5.642  1.00  0.00    -0.360 N 
ATOM      7  C   UNL     1      13.839   7.936   7.915  1.00  0.00     0.271 A 
ATOM      8  C   UNL     1      12.751   4.714   4.946  1.00  0.00     0.205 C 
ATOM      9  C   UNL     1      12.671   7.267   7.435  1.00  0.00     0.113 A 
ATOM     10  H   UNL     1      14.413   5.394   3.716  1.00  0.00     0.163 HD
ATOM     11  H   UNL     1      10.893   5.696   5.610  1.00  0.00     0.163 HD
ENDROOT
BRANCH   8  12
ATOM     12  C   UNL     1      12.023   3.853   3.876  1.00  0.00    -0.003 A 
ATOM     13  C   UNL     1       9.859   3.208   2.859  1.00  0.00     0.042 A 
ATOM     14  C   UNL     1      10.771   4.232   3.341  1.00  0.00     0.028 A 
ATOM     15  C   UNL     1      10.455   1.950   2.394  1.00  0.00     0.041 A 
ATOM     16  C   UNL     1      11.879   1.768   2.659  1.00  0.00     0.042 A 
ATOM     17  C   UNL     1      12.634   2.596   3.526  1.00  0.00     0.028 A 
ATOM     18  Cl  UNL     1       8.354   3.409   2.509  1.00  0.00    -0.084 Cl
ATOM     19  Cl  UNL     1      12.615   0.406   1.936  1.00  0.00    -0.084 Cl
ENDBRANCH   8  12
BRANCH   7  20
ATOM     20  N   UNL     1      13.674   8.750   9.017  1.00  0.00     0.062 N 
ATOM     21  O   UNL     1      13.921   8.348  10.094  1.00  0.00    -0.258 OA
ATOM     22  O   UNL     1      13.466  10.036   8.933  1.00  0.00    -0.258 OA
ENDBRANCH   7  20
TORSDOF 2
ENDMDL
