MODEL 1
REMARK VINA RESULT:    -4.434      0.000      0.000
REMARK INTER + INTRA:          -5.268
REMARK INTER:                  -4.953
REMARK INTRA:                  -0.315
REMARK UNBOUND:                -0.315
REMARK SMILES O=[N+]([O-])c1ccc2c(c1)N[C@@H](c1cc(Cl)cc(Cl)c1)N2
REMARK SMILES IDX 7 1 8 2 5 3 6 4 20 5 10 6 4 7 11 8 9 9 12 12 14 13 13 14
REMARK SMILES IDX 16 15 17 16 19 17 15 18 18 19 2 20 3 21 1 22
REMARK H PARENT 20 10 10 11
ROOT
ATOM      1  C   UNL     1       6.078  10.817  -3.433  1.00  0.00     0.060 A 
ATOM      2  C   UNL     1       7.198  10.041  -3.614  1.00  0.00     0.066 A 
ATOM      3  C   UNL     1       7.246  12.765  -4.059  1.00  0.00     0.088 A 
ATOM      4  C   UNL     1       6.027  12.061  -3.858  1.00  0.00     0.035 A 
ATOM      5  N   UNL     1       4.978   9.976  -3.005  1.00  0.00    -0.360 N 
ATOM      6  N   UNL     1       6.781   8.736  -3.339  1.00  0.00    -0.360 N 
ATOM      7  C   UNL     1       8.429  12.032  -4.108  1.00  0.00     0.271 A 
ATOM      8  C   UNL     1       5.373   8.764  -3.507  1.00  0.00     0.205 C 
ATOM      9  C   UNL     1       8.393  10.617  -3.904  1.00  0.00     0.113 A 
ATOM     10  H   UNL     1       4.132  10.221  -2.471  1.00  0.00     0.163 HD
ATOM     11  H   UNL     1       7.367   7.932  -3.072  1.00  0.00     0.163 HD
ENDROOT
BRANCH   8  12
ATOM     12  C   UNL     1       4.633   7.478  -3.046  1.00  0.00    -0.003 A 
ATOM     13  C   UNL     1       2.456   6.404  -2.558  1.00  0.00     0.042 A 
ATOM     14  C   UNL     1       3.299   7.209  -3.426  1.00  0.00     0.028 A 
ATOM     15  C   UNL     1       3.130   5.438  -1.683  1.00  0.00     0.041 A 
ATOM     16  C   UNL     1       4.584   5.530  -1.611  1.00  0.00     0.042 A 
ATOM     17  C   UNL     1       5.334   6.617  -2.127  1.00  0.00     0.028 A 
ATOM     18  Cl  UNL     1       0.909   6.245  -2.670  1.00  0.00    -0.084 Cl
ATOM     19  Cl  UNL     1       5.381   4.281  -0.761  1.00  0.00    -0.084 Cl
ENDBRANCH   8  12
BRANCH   7  20
ATOM     20  N   UNL     1       9.652  12.575  -4.447  1.00  0.00     0.062 N 
ATOM     21  O   UNL     1      10.530  11.881  -4.805  1.00  0.00    -0.258 OA
ATOM     22  O   UNL     1       9.845  13.855  -4.613  1.00  0.00    -0.258 OA
ENDBRANCH   7  20
TORSDOF 2
ENDMDL
MODEL 2
REMARK VINA RESULT:    -4.414      1.079      2.704
REMARK INTER + INTRA:          -5.245
REMARK INTER:                  -4.931
REMARK INTRA:                  -0.315
REMARK UNBOUND:                -0.315
REMARK SMILES O=[N+]([O-])c1ccc2c(c1)N[C@@H](c1cc(Cl)cc(Cl)c1)N2
REMARK SMILES IDX 7 1 8 2 5 3 6 4 20 5 10 6 4 7 11 8 9 9 12 12 14 13 13 14
REMARK SMILES IDX 16 15 17 16 19 17 15 18 18 19 2 20 3 21 1 22
REMARK H PARENT 20 10 10 11
ROOT
ATOM      1  C   UNL     1       7.365   9.957  -3.582  1.00  0.00     0.060 A 
ATOM      2  C   UNL     1       6.306  10.809  -3.381  1.00  0.00     0.066 A 
ATOM      3  C   UNL     1       8.761  11.741  -4.229  1.00  0.00     0.088 A 
ATOM      4  C   UNL     1       8.587  10.411  -3.761  1.00  0.00     0.035 A 
ATOM      5  N   UNL     1       6.954   8.601  -3.279  1.00  0.00    -0.360 N 
ATOM      6  N   UNL     1       5.269   9.992  -2.922  1.00  0.00    -0.360 N 
ATOM      7  C   UNL     1       7.670  12.606  -4.177  1.00  0.00     0.271 A 
ATOM      8  C   UNL     1       5.916   8.838  -2.414  1.00  0.00     0.205 C 
ATOM      9  C   UNL     1       6.408  12.123  -3.710  1.00  0.00     0.113 A 
ATOM     10  H   UNL     1       7.335   7.706  -3.618  1.00  0.00     0.163 HD
ATOM     11  H   UNL     1       4.257  10.186  -2.948  1.00  0.00     0.163 HD
ENDROOT
BRANCH   8  12
ATOM     12  C   UNL     1       4.967   7.667  -2.037  1.00  0.00    -0.003 A 
ATOM     13  C   UNL     1       4.776   5.306  -1.314  1.00  0.00     0.042 A 
ATOM     14  C   UNL     1       5.377   6.622  -1.178  1.00  0.00     0.028 A 
ATOM     15  C   UNL     1       3.420   5.247  -1.871  1.00  0.00     0.041 A 
ATOM     16  C   UNL     1       2.892   6.486  -2.430  1.00  0.00     0.042 A 
ATOM     17  C   UNL     1       3.679   7.638  -2.682  1.00  0.00     0.028 A 
ATOM     18  Cl  UNL     1       5.295   3.988  -0.663  1.00  0.00    -0.084 Cl
ATOM     19  Cl  UNL     1       1.245   6.471  -2.886  1.00  0.00    -0.084 Cl
ENDBRANCH   8  12
BRANCH   7  20
ATOM     20  N   UNL     1       7.748  13.955  -4.457  1.00  0.00     0.062 N 
ATOM     21  O   UNL     1       6.936  14.695  -4.039  1.00  0.00    -0.258 OA
ATOM     22  O   UNL     1       8.803  14.517  -4.981  1.00  0.00    -0.258 OA
ENDBRANCH   7  20
TORSDOF 2
ENDMDL
MODEL 3
REMARK VINA RESULT:    -4.119      4.984      7.638
REMARK INTER + INTRA:          -4.915
REMARK INTER:                  -4.616
REMARK INTRA:                  -0.299
REMARK UNBOUND:                -0.315
REMARK SMILES O=[N+]([O-])c1ccc2c(c1)N[C@@H](c1cc(Cl)cc(Cl)c1)N2
REMARK SMILES IDX 7 1 8 2 5 3 6 4 20 5 10 6 4 7 11 8 9 9 12 12 14 13 13 14
REMARK SMILES IDX 16 15 17 16 19 17 15 18 18 19 2 20 3 21 1 22
REMARK H PARENT 20 10 10 11
ROOT
ATOM      1  C   UNL     1       3.981   7.840  -2.857  1.00  0.00     0.060 A 
ATOM      2  C   UNL     1       5.090   7.046  -2.689  1.00  0.00     0.066 A 
ATOM      3  C   UNL     1       2.568   6.161  -2.000  1.00  0.00     0.088 A 
ATOM      4  C   UNL     1       2.820   7.521  -2.325  1.00  0.00     0.035 A 
ATOM      5  N   UNL     1       4.386   9.115  -3.415  1.00  0.00    -0.360 N 
ATOM      6  N   UNL     1       6.166   7.837  -3.101  1.00  0.00    -0.360 N 
ATOM      7  C   UNL     1       3.649   5.283  -1.956  1.00  0.00     0.271 A 
ATOM      8  C   UNL     1       5.692   9.169  -3.003  1.00  0.00     0.205 C 
ATOM      9  C   UNL     1       4.957   5.755  -2.287  1.00  0.00     0.113 A 
ATOM     10  H   UNL     1       3.843   9.793  -3.968  1.00  0.00     0.163 HD
ATOM     11  H   UNL     1       7.097   7.521  -3.408  1.00  0.00     0.163 HD
ENDROOT
BRANCH   8  12
ATOM     12  C   UNL     1       6.632  10.245  -3.616  1.00  0.00    -0.003 A 
ATOM     13  C   UNL     1       8.963  10.914  -4.117  1.00  0.00     0.042 A 
ATOM     14  C   UNL     1       7.907   9.915  -4.128  1.00  0.00     0.028 A 
ATOM     15  C   UNL     1       8.549  12.321  -4.154  1.00  0.00     0.041 A 
ATOM     16  C   UNL     1       7.125  12.585  -3.980  1.00  0.00     0.042 A 
ATOM     17  C   UNL     1       6.188  11.614  -3.547  1.00  0.00     0.028 A 
ATOM     18  Cl  UNL     1      10.479  10.651  -4.370  1.00  0.00    -0.084 Cl
ATOM     19  Cl  UNL     1       6.617  14.198  -4.230  1.00  0.00    -0.084 Cl
ENDBRANCH   8  12
BRANCH   7  20
ATOM     20  N   UNL     1       3.559   3.981  -1.507  1.00  0.00     0.062 N 
ATOM     21  O   UNL     1       2.529   3.415  -1.532  1.00  0.00    -0.258 OA
ATOM     22  O   UNL     1       4.601   3.238  -1.253  1.00  0.00    -0.258 OA
ENDBRANCH   7  20
TORSDOF 2
ENDMDL
MODEL 4
REMARK VINA RESULT:    -4.077      3.681      4.717
REMARK INTER + INTRA:          -4.869
REMARK INTER:                  -4.563
REMARK INTRA:                  -0.306
REMARK UNBOUND:                -0.315
REMARK SMILES O=[N+]([O-])c1ccc2c(c1)N[C@@H](c1cc(Cl)cc(Cl)c1)N2
REMARK SMILES IDX 7 1 8 2 5 3 6 4 20 5 10 6 4 7 11 8 9 9 12 12 14 13 13 14
REMARK SMILES IDX 16 15 17 16 19 17 15 18 18 19 2 20 3 21 1 22
REMARK H PARENT 20 10 10 11
ROOT
ATOM      1  C   UNL     1       6.106  14.053  -4.153  1.00  0.00     0.060 A 
ATOM      2  C   UNL     1       5.434  14.105  -2.955  1.00  0.00     0.066 A 
ATOM      3  C   UNL     1       6.309  16.399  -4.217  1.00  0.00     0.088 A 
ATOM      4  C   UNL     1       6.722  15.107  -4.642  1.00  0.00     0.035 A 
ATOM      5  N   UNL     1       6.243  12.670  -4.564  1.00  0.00    -0.360 N 
ATOM      6  N   UNL     1       5.197  12.770  -2.616  1.00  0.00    -0.360 N 
ATOM      7  C   UNL     1       5.505  16.493  -3.083  1.00  0.00     0.271 A 
ATOM      8  C   UNL     1       6.159  12.034  -3.352  1.00  0.00     0.205 C 
ATOM      9  C   UNL     1       5.078  15.301  -2.418  1.00  0.00     0.113 A 
ATOM     10  H   UNL     1       6.370  12.273  -5.506  1.00  0.00     0.163 HD
ATOM     11  H   UNL     1       4.481  12.403  -1.973  1.00  0.00     0.163 HD
ENDROOT
BRANCH   8  12
ATOM     12  C   UNL     1       5.969  10.492  -3.320  1.00  0.00    -0.003 A 
ATOM     13  C   UNL     1       4.884   8.518  -4.349  1.00  0.00     0.042 A 
ATOM     14  C   UNL     1       5.628   9.759  -4.480  1.00  0.00     0.028 A 
ATOM     15  C   UNL     1       5.031   7.782  -3.088  1.00  0.00     0.041 A 
ATOM     16  C   UNL     1       5.736   8.471  -2.012  1.00  0.00     0.042 A 
ATOM     17  C   UNL     1       6.055   9.851  -2.033  1.00  0.00     0.028 A 
ATOM     18  Cl  UNL     1       4.187   7.739  -5.505  1.00  0.00    -0.084 Cl
ATOM     19  Cl  UNL     1       6.089   7.542  -0.622  1.00  0.00    -0.084 Cl
ENDBRANCH   8  12
BRANCH   7  20
ATOM     20  N   UNL     1       5.165  17.688  -2.483  1.00  0.00     0.062 N 
ATOM     21  O   UNL     1       4.349  18.383  -2.965  1.00  0.00    -0.258 OA
ATOM     22  O   UNL     1       5.534  18.013  -1.273  1.00  0.00    -0.258 OA
ENDBRANCH   7  20
TORSDOF 2
ENDMDL
MODEL 5
REMARK VINA RESULT:    -4.074      1.060      2.286
REMARK INTER + INTRA:          -4.866
REMARK INTER:                  -4.576
REMARK INTRA:                  -0.290
REMARK UNBOUND:                -0.315
REMARK SMILES O=[N+]([O-])c1ccc2c(c1)N[C@@H](c1cc(Cl)cc(Cl)c1)N2
REMARK SMILES IDX 7 1 8 2 5 3 6 4 20 5 10 6 4 7 11 8 9 9 12 12 14 13 13 14
REMARK SMILES IDX 16 15 17 16 19 17 15 18 18 19 2 20 3 21 1 22
REMARK H PARENT 20 10 10 11
ROOT
ATOM      1  C   UNL     1       7.062  10.640  -3.400  1.00  0.00     0.060 A 
ATOM      2  C   UNL     1       7.947   9.599  -3.548  1.00  0.00     0.066 A 
ATOM      3  C   UNL     1       8.652  12.190  -4.187  1.00  0.00     0.088 A 
ATOM      4  C   UNL     1       7.306  11.828  -3.912  1.00  0.00     0.035 A 
ATOM      5  N   UNL     1       5.805  10.130  -2.891  1.00  0.00    -0.360 N 
ATOM      6  N   UNL     1       7.230   8.460  -3.172  1.00  0.00    -0.360 N 
ATOM      7  C   UNL     1       9.615  11.183  -4.207  1.00  0.00     0.271 A 
ATOM      8  C   UNL     1       5.868   8.828  -3.313  1.00  0.00     0.205 C 
ATOM      9  C   UNL     1       9.237   9.838  -3.902  1.00  0.00     0.113 A 
ATOM     10  H   UNL     1       5.066  10.613  -2.359  1.00  0.00     0.163 HD
ATOM     11  H   UNL     1       7.608   7.554  -2.860  1.00  0.00     0.163 HD
ENDROOT
BRANCH   8  12
ATOM     12  C   UNL     1       4.850   7.800  -2.746  1.00  0.00    -0.003 A 
ATOM     13  C   UNL     1       4.517   5.607  -1.645  1.00  0.00     0.042 A 
ATOM     14  C   UNL     1       5.203   6.885  -1.728  1.00  0.00     0.028 A 
ATOM     15  C   UNL     1       3.153   5.546  -2.181  1.00  0.00     0.041 A 
ATOM     16  C   UNL     1       2.699   6.710  -2.936  1.00  0.00     0.042 A 
ATOM     17  C   UNL     1       3.555   7.750  -3.375  1.00  0.00     0.028 A 
ATOM     18  Cl  UNL     1       4.958   4.382  -0.787  1.00  0.00    -0.084 Cl
ATOM     19  Cl  UNL     1       1.049   6.728  -3.379  1.00  0.00    -0.084 Cl
ENDBRANCH   8  12
BRANCH   7  20
ATOM     20  N   UNL     1      10.920  11.380  -4.609  1.00  0.00     0.062 N 
ATOM     21  O   UNL     1      11.204  11.328  -5.749  1.00  0.00    -0.258 OA
ATOM     22  O   UNL     1      11.849  11.848  -3.820  1.00  0.00    -0.258 OA
ENDBRANCH   7  20
TORSDOF 2
ENDMDL
MODEL 6
REMARK VINA RESULT:    -4.073      5.094      7.818
REMARK INTER + INTRA:          -4.865
REMARK INTER:                  -4.546
REMARK INTRA:                  -0.319
REMARK UNBOUND:                -0.315
REMARK SMILES O=[N+]([O-])c1ccc2c(c1)N[C@@H](c1cc(Cl)cc(Cl)c1)N2
REMARK SMILES IDX 7 1 8 2 5 3 6 4 20 5 10 6 4 7 11 8 9 9 12 12 14 13 13 14
REMARK SMILES IDX 16 15 17 16 19 17 15 18 18 19 2 20 3 21 1 22
REMARK H PARENT 20 10 10 11
ROOT
ATOM      1  C   UNL     1       5.262   6.974  -2.389  1.00  0.00     0.060 A 
ATOM      2  C   UNL     1       4.073   7.649  -2.528  1.00  0.00     0.066 A 
ATOM      3  C   UNL     1       4.143   5.005  -1.740  1.00  0.00     0.088 A 
ATOM      4  C   UNL     1       5.297   5.667  -2.240  1.00  0.00     0.035 A 
ATOM      5  N   UNL     1       6.358   7.864  -2.717  1.00  0.00    -0.360 N 
ATOM      6  N   UNL     1       4.432   8.924  -2.973  1.00  0.00    -0.360 N 
ATOM      7  C   UNL     1       2.937   5.702  -1.728  1.00  0.00     0.271 A 
ATOM      8  C   UNL     1       5.722   8.759  -3.537  1.00  0.00     0.205 C 
ATOM      9  C   UNL     1       2.903   7.063  -2.164  1.00  0.00     0.113 A 
ATOM     10  H   UNL     1       7.343   7.832  -2.418  1.00  0.00     0.163 HD
ATOM     11  H   UNL     1       3.881   9.792  -2.907  1.00  0.00     0.163 HD
ENDROOT
BRANCH   8  12
ATOM     12  C   UNL     1       6.446  10.082  -3.915  1.00  0.00    -0.003 A 
ATOM     13  C   UNL     1       8.609  11.262  -4.158  1.00  0.00     0.042 A 
ATOM     14  C   UNL     1       7.777  10.093  -4.390  1.00  0.00     0.028 A 
ATOM     15  C   UNL     1       7.922  12.549  -4.004  1.00  0.00     0.041 A 
ATOM     16  C   UNL     1       6.469  12.500  -3.882  1.00  0.00     0.042 A 
ATOM     17  C   UNL     1       5.734  11.309  -3.665  1.00  0.00     0.028 A 
ATOM     18  Cl  UNL     1      10.154  11.343  -4.351  1.00  0.00    -0.084 Cl
ATOM     19  Cl  UNL     1       5.655  14.003  -3.913  1.00  0.00    -0.084 Cl
ENDBRANCH   8  12
BRANCH   7  20
ATOM     20  N   UNL     1       1.723   5.125  -1.412  1.00  0.00     0.062 N 
ATOM     21  O   UNL     1       0.719   5.675  -1.677  1.00  0.00    -0.258 OA
ATOM     22  O   UNL     1       1.599   3.883  -1.029  1.00  0.00    -0.258 OA
ENDBRANCH   7  20
TORSDOF 2
ENDMDL
MODEL 7
REMARK VINA RESULT:    -4.060      1.816      2.243
REMARK INTER + INTRA:          -4.850
REMARK INTER:                  -4.560
REMARK INTRA:                  -0.290
REMARK UNBOUND:                -0.315
REMARK SMILES O=[N+]([O-])c1ccc2c(c1)N[C@@H](c1cc(Cl)cc(Cl)c1)N2
REMARK SMILES IDX 7 1 8 2 5 3 6 4 20 5 10 6 4 7 11 8 9 9 12 12 14 13 13 14
REMARK SMILES IDX 16 15 17 16 19 17 15 18 18 19 2 20 3 21 1 22
REMARK H PARENT 20 10 10 11
ROOT
ATOM      1  C   UNL     1       6.877  10.647  -3.798  1.00  0.00     0.060 A 
ATOM      2  C   UNL     1       5.666  11.235  -3.519  1.00  0.00     0.066 A 
ATOM      3  C   UNL     1       7.870  12.739  -4.228  1.00  0.00     0.088 A 
ATOM      4  C   UNL     1       7.978  11.358  -3.909  1.00  0.00     0.035 A 
ATOM      5  N   UNL     1       6.755   9.210  -3.649  1.00  0.00    -0.360 N 
ATOM      6  N   UNL     1       4.824  10.178  -3.167  1.00  0.00    -0.360 N 
ATOM      7  C   UNL     1       6.625  13.350  -4.096  1.00  0.00     0.271 A 
ATOM      8  C   UNL     1       5.699   9.133  -2.778  1.00  0.00     0.205 C 
ATOM      9  C   UNL     1       5.493  12.570  -3.702  1.00  0.00     0.113 A 
ATOM     10  H   UNL     1       7.309   8.455  -4.078  1.00  0.00     0.163 HD
ATOM     11  H   UNL     1       3.794  10.162  -3.185  1.00  0.00     0.163 HD
ENDROOT
BRANCH   8  12
ATOM     12  C   UNL     1       5.014   7.758  -2.543  1.00  0.00    -0.003 A 
ATOM     13  C   UNL     1       2.890   6.485  -2.488  1.00  0.00     0.042 A 
ATOM     14  C   UNL     1       3.779   7.428  -3.146  1.00  0.00     0.028 A 
ATOM     15  C   UNL     1       3.509   5.495  -1.600  1.00  0.00     0.041 A 
ATOM     16  C   UNL     1       4.923   5.686  -1.297  1.00  0.00     0.042 A 
ATOM     17  C   UNL     1       5.643   6.868  -1.600  1.00  0.00     0.028 A 
ATOM     18  Cl  UNL     1       1.397   6.225  -2.850  1.00  0.00    -0.084 Cl
ATOM     19  Cl  UNL     1       5.692   4.424  -0.438  1.00  0.00    -0.084 Cl
ENDBRANCH   8  12
BRANCH   7  20
ATOM     20  N   UNL     1       6.422  14.709  -4.227  1.00  0.00     0.062 N 
ATOM     21  O   UNL     1       6.654  15.432  -3.329  1.00  0.00    -0.258 OA
ATOM     22  O   UNL     1       6.192  15.292  -5.372  1.00  0.00    -0.258 OA
ENDBRANCH   7  20
TORSDOF 2
ENDMDL
MODEL 8
REMARK VINA RESULT:    -4.054      4.998      7.420
REMARK INTER + INTRA:          -4.843
REMARK INTER:                  -4.526
REMARK INTRA:                  -0.317
REMARK UNBOUND:                -0.315
REMARK SMILES O=[N+]([O-])c1ccc2c(c1)N[C@@H](c1cc(Cl)cc(Cl)c1)N2
REMARK SMILES IDX 7 1 8 2 5 3 6 4 20 5 10 6 4 7 11 8 9 9 12 12 14 13 13 14
REMARK SMILES IDX 16 15 17 16 19 17 15 18 18 19 2 20 3 21 1 22
REMARK H PARENT 20 10 10 11
ROOT
ATOM      1  C   UNL     1       4.062   7.797  -2.821  1.00  0.00     0.060 A 
ATOM      2  C   UNL     1       5.132   7.051  -2.388  1.00  0.00     0.066 A 
ATOM      3  C   UNL     1       2.554   6.072  -2.275  1.00  0.00     0.088 A 
ATOM      4  C   UNL     1       2.823   7.438  -2.562  1.00  0.00     0.035 A 
ATOM      5  N   UNL     1       4.537   9.081  -3.298  1.00  0.00    -0.360 N 
ATOM      6  N   UNL     1       6.244   7.880  -2.560  1.00  0.00    -0.360 N 
ATOM      7  C   UNL     1       3.627   5.239  -1.967  1.00  0.00     0.271 A 
ATOM      8  C   UNL     1       5.711   9.193  -2.601  1.00  0.00     0.205 C 
ATOM      9  C   UNL     1       4.958   5.760  -2.001  1.00  0.00     0.113 A 
ATOM     10  H   UNL     1       4.109   9.730  -3.974  1.00  0.00     0.163 HD
ATOM     11  H   UNL     1       7.231   7.599  -2.640  1.00  0.00     0.163 HD
ENDROOT
BRANCH   8  12
ATOM     12  C   UNL     1       6.726  10.299  -3.004  1.00  0.00    -0.003 A 
ATOM     13  C   UNL     1       7.050  12.585  -3.899  1.00  0.00     0.042 A 
ATOM     14  C   UNL     1       6.379  11.669  -2.992  1.00  0.00     0.028 A 
ATOM     15  C   UNL     1       8.404  12.222  -4.333  1.00  0.00     0.041 A 
ATOM     16  C   UNL     1       8.859  10.880  -3.986  1.00  0.00     0.042 A 
ATOM     17  C   UNL     1       8.009   9.860  -3.491  1.00  0.00     0.028 A 
ATOM     18  Cl  UNL     1       6.608  14.045  -4.223  1.00  0.00    -0.084 Cl
ATOM     19  Cl  UNL     1      10.501  10.531  -4.305  1.00  0.00    -0.084 Cl
ENDBRANCH   8  12
BRANCH   7  20
ATOM     20  N   UNL     1       3.485   3.940  -1.524  1.00  0.00     0.062 N 
ATOM     21  O   UNL     1       2.427   3.428  -1.517  1.00  0.00    -0.258 OA
ATOM     22  O   UNL     1       4.496   3.141  -1.312  1.00  0.00    -0.258 OA
ENDBRANCH   7  20
TORSDOF 2
ENDMDL
MODEL 9
REMARK VINA RESULT:    -3.521      5.112      7.466
REMARK INTER + INTRA:          -4.248
REMARK INTER:                  -3.953
REMARK INTRA:                  -0.295
REMARK UNBOUND:                -0.315
REMARK SMILES O=[N+]([O-])c1ccc2c(c1)N[C@@H](c1cc(Cl)cc(Cl)c1)N2
REMARK SMILES IDX 7 1 8 2 5 3 6 4 20 5 10 6 4 7 11 8 9 9 12 12 14 13 13 14
REMARK SMILES IDX 16 15 17 16 19 17 15 18 18 19 2 20 3 21 1 22
REMARK H PARENT 20 10 10 11
ROOT
ATOM      1  C   UNL     1       5.522   9.771  -3.991  1.00  0.00     0.060 A 
ATOM      2  C   UNL     1       6.016   9.781  -2.709  1.00  0.00     0.066 A 
ATOM      3  C   UNL     1       5.007   7.477  -3.845  1.00  0.00     0.088 A 
ATOM      4  C   UNL     1       4.836   8.749  -4.455  1.00  0.00     0.035 A 
ATOM      5  N   UNL     1       5.632  11.101  -4.557  1.00  0.00    -0.360 N 
ATOM      6  N   UNL     1       6.389  11.108  -2.476  1.00  0.00    -0.360 N 
ATOM      7  C   UNL     1       5.635   7.422  -2.602  1.00  0.00     0.271 A 
ATOM      8  C   UNL     1       5.643  11.862  -3.417  1.00  0.00     0.205 C 
ATOM      9  C   UNL     1       6.130   8.624  -2.007  1.00  0.00     0.113 A 
ATOM     10  H   UNL     1       5.686  11.394  -5.542  1.00  0.00     0.163 HD
ATOM     11  H   UNL     1       7.058  11.460  -1.777  1.00  0.00     0.163 HD
ENDROOT
BRANCH   8  12
ATOM     12  C   UNL     1       6.038  13.362  -3.514  1.00  0.00    -0.003 A 
ATOM     13  C   UNL     1       5.378  15.710  -3.082  1.00  0.00     0.042 A 
ATOM     14  C   UNL     1       5.503  14.332  -2.636  1.00  0.00     0.028 A 
ATOM     15  C   UNL     1       6.310  16.161  -4.122  1.00  0.00     0.041 A 
ATOM     16  C   UNL     1       7.125  15.131  -4.756  1.00  0.00     0.042 A 
ATOM     17  C   UNL     1       6.898  13.740  -4.607  1.00  0.00     0.028 A 
ATOM     18  Cl  UNL     1       4.565  16.835  -2.372  1.00  0.00    -0.084 Cl
ATOM     19  Cl  UNL     1       8.352  15.679  -5.812  1.00  0.00    -0.084 Cl
ENDBRANCH   8  12
BRANCH   7  20
ATOM     20  N   UNL     1       5.724   6.275  -1.840  1.00  0.00     0.062 N 
ATOM     21  O   UNL     1       5.779   5.221  -2.359  1.00  0.00    -0.258 OA
ATOM     22  O   UNL     1       5.979   6.284  -0.560  1.00  0.00    -0.258 OA
ENDBRANCH   7  20
TORSDOF 2
ENDMDL
