MODEL 1
REMARK VINA RESULT:    -4.951      0.000      0.000
REMARK INTER + INTRA:          -5.845
REMARK INTER:                  -5.530
REMARK INTRA:                  -0.315
REMARK UNBOUND:                -0.315
REMARK SMILES O=[N+]([O-])c1ccc2c(c1)N[C@@H](c1cc(Cl)cc(Cl)c1)N2
REMARK SMILES IDX 7 1 8 2 5 3 6 4 20 5 10 6 4 7 11 8 9 9 12 12 14 13 13 14
REMARK SMILES IDX 16 15 17 16 19 17 15 18 18 19 2 20 3 21 1 22
REMARK H PARENT 20 10 10 11
ROOT
ATOM      1  C   UNL     1      10.567  -5.183  -6.212  1.00  0.00     0.060 A 
ATOM      2  C   UNL     1      11.322  -4.516  -5.276  1.00  0.00     0.066 A 
ATOM      3  C   UNL     1      12.431  -6.443  -6.912  1.00  0.00     0.088 A 
ATOM      4  C   UNL     1      11.025  -6.251  -6.829  1.00  0.00     0.035 A 
ATOM      5  N   UNL     1       9.201  -4.704  -6.154  1.00  0.00    -0.360 N 
ATOM      6  N   UNL     1      10.422  -3.667  -4.626  1.00  0.00    -0.360 N 
ATOM      7  C   UNL     1      13.249  -5.684  -6.079  1.00  0.00     0.271 A 
ATOM      8  C   UNL     1       9.148  -4.241  -4.865  1.00  0.00     0.205 C 
ATOM      9  C   UNL     1      12.665  -4.706  -5.215  1.00  0.00     0.113 A 
ATOM     10  H   UNL     1       8.470  -4.710  -6.880  1.00  0.00     0.163 HD
ATOM     11  H   UNL     1      10.637  -2.813  -4.092  1.00  0.00     0.163 HD
ENDROOT
BRANCH   8  12
ATOM     12  C   UNL     1       7.942  -3.363  -4.427  1.00  0.00    -0.003 A 
ATOM     13  C   UNL     1       5.488  -3.036  -4.489  1.00  0.00     0.042 A 
ATOM     14  C   UNL     1       6.641  -3.898  -4.291  1.00  0.00     0.028 A 
ATOM     15  C   UNL     1       5.674  -1.604  -4.229  1.00  0.00     0.041 A 
ATOM     16  C   UNL     1       7.045  -1.157  -4.006  1.00  0.00     0.042 A 
ATOM     17  C   UNL     1       8.188  -1.953  -4.264  1.00  0.00     0.028 A 
ATOM     18  Cl  UNL     1       4.011  -3.503  -4.659  1.00  0.00    -0.084 Cl
ATOM     19  Cl  UNL     1       7.239   0.464  -3.498  1.00  0.00    -0.084 Cl
ENDBRANCH   8  12
BRANCH   7  20
ATOM     20  N   UNL     1      14.609  -5.883  -5.955  1.00  0.00     0.062 N 
ATOM     21  O   UNL     1      15.186  -5.471  -5.017  1.00  0.00    -0.258 OA
ATOM     22  O   UNL     1      15.285  -6.704  -6.713  1.00  0.00    -0.258 OA
ENDBRANCH   7  20
TORSDOF 2
ENDMDL
MODEL 2
REMARK VINA RESULT:    -4.940      0.962      2.630
REMARK INTER + INTRA:          -5.832
REMARK INTER:                  -5.517
REMARK INTRA:                  -0.315
REMARK UNBOUND:                -0.315
REMARK SMILES O=[N+]([O-])c1ccc2c(c1)N[C@@H](c1cc(Cl)cc(Cl)c1)N2
REMARK SMILES IDX 7 1 8 2 5 3 6 4 20 5 10 6 4 7 11 8 9 9 12 12 14 13 13 14
REMARK SMILES IDX 16 15 17 16 19 17 15 18 18 19 2 20 3 21 1 22
REMARK H PARENT 20 10 10 11
ROOT
ATOM      1  C   UNL     1      11.352  -4.333  -5.056  1.00  0.00     0.060 A 
ATOM      2  C   UNL     1      10.784  -5.108  -6.038  1.00  0.00     0.066 A 
ATOM      3  C   UNL     1      13.491  -5.207  -5.512  1.00  0.00     0.088 A 
ATOM      4  C   UNL     1      12.657  -4.201  -4.952  1.00  0.00     0.035 A 
ATOM      5  N   UNL     1      10.323  -3.530  -4.424  1.00  0.00    -0.360 N 
ATOM      6  N   UNL     1       9.431  -4.758  -6.036  1.00  0.00    -0.360 N 
ATOM      7  C   UNL     1      12.925  -6.110  -6.409  1.00  0.00     0.271 A 
ATOM      8  C   UNL     1       9.390  -3.478  -5.427  1.00  0.00     0.205 C 
ATOM      9  C   UNL     1      11.526  -6.035  -6.698  1.00  0.00     0.113 A 
ATOM     10  H   UNL     1      10.299  -3.114  -3.483  1.00  0.00     0.163 HD
ATOM     11  H   UNL     1       8.639  -5.309  -6.397  1.00  0.00     0.163 HD
ENDROOT
BRANCH   8  12
ATOM     12  C   UNL     1       7.964  -2.952  -5.104  1.00  0.00    -0.003 A 
ATOM     13  C   UNL     1       6.602  -1.241  -3.943  1.00  0.00     0.042 A 
ATOM     14  C   UNL     1       7.722  -1.594  -4.799  1.00  0.00     0.028 A 
ATOM     15  C   UNL     1       5.461  -2.164  -3.923  1.00  0.00     0.041 A 
ATOM     16  C   UNL     1       5.651  -3.446  -4.593  1.00  0.00     0.042 A 
ATOM     17  C   UNL     1       6.909  -3.931  -5.030  1.00  0.00     0.028 A 
ATOM     18  Cl  UNL     1       6.355   0.148  -3.279  1.00  0.00    -0.084 Cl
ATOM     19  Cl  UNL     1       4.264  -4.431  -4.752  1.00  0.00    -0.084 Cl
ENDBRANCH   8  12
BRANCH   7  20
ATOM     20  N   UNL     1      13.655  -7.030  -7.132  1.00  0.00     0.062 N 
ATOM     21  O   UNL     1      13.211  -7.500  -8.114  1.00  0.00    -0.258 OA
ATOM     22  O   UNL     1      14.923  -7.261  -6.923  1.00  0.00    -0.258 OA
ENDBRANCH   7  20
TORSDOF 2
ENDMDL
MODEL 3
REMARK VINA RESULT:    -4.605      5.118      7.586
REMARK INTER + INTRA:          -5.458
REMARK INTER:                  -5.159
REMARK INTRA:                  -0.299
REMARK UNBOUND:                -0.315
REMARK SMILES O=[N+]([O-])c1ccc2c(c1)N[C@@H](c1cc(Cl)cc(Cl)c1)N2
REMARK SMILES IDX 7 1 8 2 5 3 6 4 20 5 10 6 4 7 11 8 9 9 12 12 14 13 13 14
REMARK SMILES IDX 16 15 17 16 19 17 15 18 18 19 2 20 3 21 1 22
REMARK H PARENT 20 10 10 11
ROOT
ATOM      1  C   UNL     1       8.299  -2.336  -4.458  1.00  0.00     0.060 A 
ATOM      2  C   UNL     1       7.533  -3.257  -5.131  1.00  0.00     0.066 A 
ATOM      3  C   UNL     1       6.383  -1.302  -3.559  1.00  0.00     0.088 A 
ATOM      4  C   UNL     1       7.781  -1.555  -3.535  1.00  0.00     0.035 A 
ATOM      5  N   UNL     1       9.700  -2.594  -4.724  1.00  0.00    -0.360 N 
ATOM      6  N   UNL     1       8.452  -4.093  -5.771  1.00  0.00    -0.360 N 
ATOM      7  C   UNL     1       5.578  -2.125  -4.343  1.00  0.00     0.271 A 
ATOM      8  C   UNL     1       9.658  -3.926  -5.044  1.00  0.00     0.205 C 
ATOM      9  C   UNL     1       6.178  -3.154  -5.134  1.00  0.00     0.113 A 
ATOM     10  H   UNL     1      10.506  -1.954  -4.684  1.00  0.00     0.163 HD
ATOM     11  H   UNL     1       8.289  -4.696  -6.590  1.00  0.00     0.163 HD
ENDROOT
BRANCH   8  12
ATOM     12  C   UNL     1      10.908  -4.588  -5.689  1.00  0.00    -0.003 A 
ATOM     13  C   UNL     1      11.779  -6.410  -7.122  1.00  0.00     0.042 A 
ATOM     14  C   UNL     1      10.819  -5.346  -6.878  1.00  0.00     0.028 A 
ATOM     15  C   UNL     1      13.094  -6.280  -6.484  1.00  0.00     0.041 A 
ATOM     16  C   UNL     1      13.237  -5.212  -5.500  1.00  0.00     0.042 A 
ATOM     17  C   UNL     1      12.149  -4.480  -4.965  1.00  0.00     0.028 A 
ATOM     18  Cl  UNL     1      11.667  -7.515  -8.216  1.00  0.00    -0.084 Cl
ATOM     19  Cl  UNL     1      14.817  -4.929  -4.915  1.00  0.00    -0.084 Cl
ENDBRANCH   8  12
BRANCH   7  20
ATOM     20  N   UNL     1       4.199  -2.081  -4.334  1.00  0.00     0.062 N 
ATOM     21  O   UNL     1       3.639  -1.136  -3.914  1.00  0.00    -0.258 OA
ATOM     22  O   UNL     1       3.450  -2.939  -4.972  1.00  0.00    -0.258 OA
ENDBRANCH   7  20
TORSDOF 2
ENDMDL
MODEL 4
REMARK VINA RESULT:    -4.603      5.003      7.643
REMARK INTER + INTRA:          -5.456
REMARK INTER:                  -5.157
REMARK INTRA:                  -0.300
REMARK UNBOUND:                -0.315
REMARK SMILES O=[N+]([O-])c1ccc2c(c1)N[C@@H](c1cc(Cl)cc(Cl)c1)N2
REMARK SMILES IDX 7 1 8 2 5 3 6 4 20 5 10 6 4 7 11 8 9 9 12 12 14 13 13 14
REMARK SMILES IDX 16 15 17 16 19 17 15 18 18 19 2 20 3 21 1 22
REMARK H PARENT 20 10 10 11
ROOT
ATOM      1  C   UNL     1       7.400  -3.902  -4.906  1.00  0.00     0.060 A 
ATOM      2  C   UNL     1       8.059  -2.873  -4.276  1.00  0.00     0.066 A 
ATOM      3  C   UNL     1       5.323  -2.823  -4.640  1.00  0.00     0.088 A 
ATOM      4  C   UNL     1       6.146  -3.785  -5.286  1.00  0.00     0.035 A 
ATOM      5  N   UNL     1       8.361  -4.914  -5.300  1.00  0.00    -0.360 N 
ATOM      6  N   UNL     1       9.409  -3.230  -4.317  1.00  0.00    -0.360 N 
ATOM      7  C   UNL     1       5.939  -1.840  -3.870  1.00  0.00     0.271 A 
ATOM      8  C   UNL     1       9.504  -4.161  -5.382  1.00  0.00     0.205 C 
ATOM      9  C   UNL     1       7.360  -1.856  -3.708  1.00  0.00     0.113 A 
ATOM     10  H   UNL     1       8.223  -5.919  -5.473  1.00  0.00     0.163 HD
ATOM     11  H   UNL     1      10.168  -2.891  -3.708  1.00  0.00     0.163 HD
ENDROOT
BRANCH   8  12
ATOM     12  C   UNL     1      10.875  -4.883  -5.500  1.00  0.00    -0.003 A 
ATOM     13  C   UNL     1      13.305  -4.801  -5.030  1.00  0.00     0.042 A 
ATOM     14  C   UNL     1      11.929  -4.633  -4.593  1.00  0.00     0.028 A 
ATOM     15  C   UNL     1      13.546  -5.753  -6.120  1.00  0.00     0.041 A 
ATOM     16  C   UNL     1      12.366  -6.275  -6.801  1.00  0.00     0.042 A 
ATOM     17  C   UNL     1      11.062  -5.745  -6.639  1.00  0.00     0.028 A 
ATOM     18  Cl  UNL     1      14.576  -4.307  -4.274  1.00  0.00    -0.084 Cl
ATOM     19  Cl  UNL     1      12.634  -7.535  -7.924  1.00  0.00    -0.084 Cl
ENDBRANCH   8  12
BRANCH   7  20
ATOM     20  N   UNL     1       5.269  -0.766  -3.320  1.00  0.00     0.062 N 
ATOM     21  O   UNL     1       4.096  -0.778  -3.240  1.00  0.00    -0.258 OA
ATOM     22  O   UNL     1       5.866   0.193  -2.667  1.00  0.00    -0.258 OA
ENDBRANCH   7  20
TORSDOF 2
ENDMDL
MODEL 5
REMARK VINA RESULT:    -4.583      1.359      2.045
REMARK INTER + INTRA:          -5.434
REMARK INTER:                  -5.135
REMARK INTRA:                  -0.300
REMARK UNBOUND:                -0.315
REMARK SMILES O=[N+]([O-])c1ccc2c(c1)N[C@@H](c1cc(Cl)cc(Cl)c1)N2
REMARK SMILES IDX 7 1 8 2 5 3 6 4 20 5 10 6 4 7 11 8 9 9 12 12 14 13 13 14
REMARK SMILES IDX 16 15 17 16 19 17 15 18 18 19 2 20 3 21 1 22
REMARK H PARENT 20 10 10 11
ROOT
ATOM      1  C   UNL     1      11.257  -4.901  -5.405  1.00  0.00     0.060 A 
ATOM      2  C   UNL     1      10.428  -5.461  -6.348  1.00  0.00     0.066 A 
ATOM      3  C   UNL     1      13.134  -6.002  -6.307  1.00  0.00     0.088 A 
ATOM      4  C   UNL     1      12.566  -4.968  -5.515  1.00  0.00     0.035 A 
ATOM      5  N   UNL     1      10.478  -4.049  -4.529  1.00  0.00    -0.360 N 
ATOM      6  N   UNL     1       9.164  -4.928  -6.078  1.00  0.00    -0.360 N 
ATOM      7  C   UNL     1      12.299  -6.697  -7.180  1.00  0.00     0.271 A 
ATOM      8  C   UNL     1       9.421  -3.742  -5.346  1.00  0.00     0.205 C 
ATOM      9  C   UNL     1      10.903  -6.392  -7.215  1.00  0.00     0.113 A 
ATOM     10  H   UNL     1      10.667  -3.754  -3.560  1.00  0.00     0.163 HD
ATOM     11  H   UNL     1       8.248  -5.313  -6.351  1.00  0.00     0.163 HD
ENDROOT
BRANCH   8  12
ATOM     12  C   UNL     1       8.164  -3.066  -4.731  1.00  0.00    -0.003 A 
ATOM     13  C   UNL     1       5.696  -3.083  -4.526  1.00  0.00     0.042 A 
ATOM     14  C   UNL     1       6.968  -3.785  -4.503  1.00  0.00     0.028 A 
ATOM     15  C   UNL     1       5.716  -1.655  -4.188  1.00  0.00     0.041 A 
ATOM     16  C   UNL     1       7.031  -1.033  -4.073  1.00  0.00     0.042 A 
ATOM     17  C   UNL     1       8.235  -1.646  -4.497  1.00  0.00     0.028 A 
ATOM     18  Cl  UNL     1       4.284  -3.742  -4.580  1.00  0.00    -0.084 Cl
ATOM     19  Cl  UNL     1       7.061   0.569  -3.477  1.00  0.00    -0.084 Cl
ENDBRANCH   8  12
BRANCH   7  20
ATOM     20  N   UNL     1      12.753  -7.613  -8.107  1.00  0.00     0.062 N 
ATOM     21  O   UNL     1      12.029  -8.027  -8.935  1.00  0.00    -0.258 OA
ATOM     22  O   UNL     1      14.017  -7.897  -8.272  1.00  0.00    -0.258 OA
ENDBRANCH   7  20
TORSDOF 2
ENDMDL
MODEL 6
REMARK VINA RESULT:    -4.574      0.808      2.179
REMARK INTER + INTRA:          -5.423
REMARK INTER:                  -5.124
REMARK INTRA:                  -0.300
REMARK UNBOUND:                -0.315
REMARK SMILES O=[N+]([O-])c1ccc2c(c1)N[C@@H](c1cc(Cl)cc(Cl)c1)N2
REMARK SMILES IDX 7 1 8 2 5 3 6 4 20 5 10 6 4 7 11 8 9 9 12 12 14 13 13 14
REMARK SMILES IDX 16 15 17 16 19 17 15 18 18 19 2 20 3 21 1 22
REMARK H PARENT 20 10 10 11
ROOT
ATOM      1  C   UNL     1      11.101  -4.865  -5.966  1.00  0.00     0.060 A 
ATOM      2  C   UNL     1      11.552  -4.087  -4.926  1.00  0.00     0.066 A 
ATOM      3  C   UNL     1      13.213  -5.882  -6.206  1.00  0.00     0.088 A 
ATOM      4  C   UNL     1      11.808  -5.875  -6.425  1.00  0.00     0.035 A 
ATOM      5  N   UNL     1       9.704  -4.569  -6.214  1.00  0.00    -0.360 N 
ATOM      6  N   UNL     1      10.437  -3.352  -4.516  1.00  0.00    -0.360 N 
ATOM      7  C   UNL     1      13.736  -5.006  -5.258  1.00  0.00     0.271 A 
ATOM      8  C   UNL     1       9.323  -4.093  -4.987  1.00  0.00     0.205 C 
ATOM      9  C   UNL     1      12.865  -4.098  -4.579  1.00  0.00     0.113 A 
ATOM     10  H   UNL     1       9.151  -4.685  -7.075  1.00  0.00     0.163 HD
ATOM     11  H   UNL     1      10.426  -2.467  -3.989  1.00  0.00     0.163 HD
ENDROOT
BRANCH   8  12
ATOM     12  C   UNL     1       7.952  -3.373  -4.849  1.00  0.00    -0.003 A 
ATOM     13  C   UNL     1       6.727  -1.398  -3.994  1.00  0.00     0.042 A 
ATOM     14  C   UNL     1       7.859  -1.971  -4.705  1.00  0.00     0.028 A 
ATOM     15  C   UNL     1       5.483  -2.176  -3.986  1.00  0.00     0.041 A 
ATOM     16  C   UNL     1       5.564  -3.537  -4.503  1.00  0.00     0.042 A 
ATOM     17  C   UNL     1       6.782  -4.210  -4.773  1.00  0.00     0.028 A 
ATOM     18  Cl  UNL     1       6.604   0.075  -3.498  1.00  0.00    -0.084 Cl
ATOM     19  Cl  UNL     1       4.081  -4.367  -4.687  1.00  0.00    -0.084 Cl
ENDBRANCH   8  12
BRANCH   7  20
ATOM     20  N   UNL     1      15.053  -5.022  -4.846  1.00  0.00     0.062 N 
ATOM     21  O   UNL     1      15.388  -4.399  -3.906  1.00  0.00    -0.258 OA
ATOM     22  O   UNL     1      15.935  -5.870  -5.301  1.00  0.00    -0.258 OA
ENDBRANCH   7  20
TORSDOF 2
ENDMDL
MODEL 7
REMARK VINA RESULT:    -4.542      5.093      7.817
REMARK INTER + INTRA:          -5.388
REMARK INTER:                  -5.070
REMARK INTRA:                  -0.319
REMARK UNBOUND:                -0.315
REMARK SMILES O=[N+]([O-])c1ccc2c(c1)N[C@@H](c1cc(Cl)cc(Cl)c1)N2
REMARK SMILES IDX 7 1 8 2 5 3 6 4 20 5 10 6 4 7 11 8 9 9 12 12 14 13 13 14
REMARK SMILES IDX 16 15 17 16 19 17 15 18 18 19 2 20 3 21 1 22
REMARK H PARENT 20 10 10 11
ROOT
ATOM      1  C   UNL     1       8.219  -2.500  -4.352  1.00  0.00     0.060 A 
ATOM      2  C   UNL     1       7.419  -3.419  -4.988  1.00  0.00     0.066 A 
ATOM      3  C   UNL     1       6.345  -1.256  -3.651  1.00  0.00     0.088 A 
ATOM      4  C   UNL     1       7.717  -1.606  -3.527  1.00  0.00     0.035 A 
ATOM      5  N   UNL     1       9.608  -2.880  -4.516  1.00  0.00    -0.360 N 
ATOM      6  N   UNL     1       8.303  -4.371  -5.503  1.00  0.00    -0.360 N 
ATOM      7  C   UNL     1       5.520  -2.085  -4.408  1.00  0.00     0.271 A 
ATOM      8  C   UNL     1       9.480  -4.228  -4.726  1.00  0.00     0.205 C 
ATOM      9  C   UNL     1       6.078  -3.219  -5.075  1.00  0.00     0.113 A 
ATOM     10  H   UNL     1      10.457  -2.298  -4.485  1.00  0.00     0.163 HD
ATOM     11  H   UNL     1       8.136  -5.030  -6.276  1.00  0.00     0.163 HD
ENDROOT
BRANCH   8  12
ATOM     12  C   UNL     1      10.707  -5.031  -5.242  1.00  0.00    -0.003 A 
ATOM     13  C   UNL     1      13.174  -5.177  -5.387  1.00  0.00     0.042 A 
ATOM     14  C   UNL     1      11.967  -4.955  -4.608  1.00  0.00     0.028 A 
ATOM     15  C   UNL     1      13.053  -6.026  -6.577  1.00  0.00     0.041 A 
ATOM     16  C   UNL     1      11.699  -6.386  -6.983  1.00  0.00     0.042 A 
ATOM     17  C   UNL     1      10.529  -5.782  -6.458  1.00  0.00     0.028 A 
ATOM     18  Cl  UNL     1      14.631  -4.858  -4.934  1.00  0.00    -0.084 Cl
ATOM     19  Cl  UNL     1      11.565  -7.540  -8.237  1.00  0.00    -0.084 Cl
ENDBRANCH   8  12
BRANCH   7  20
ATOM     20  N   UNL     1       4.149  -1.941  -4.480  1.00  0.00     0.062 N 
ATOM     21  O   UNL     1       3.486  -2.795  -4.942  1.00  0.00    -0.258 OA
ATOM     22  O   UNL     1       3.495  -0.997  -3.858  1.00  0.00    -0.258 OA
ENDBRANCH   7  20
TORSDOF 2
ENDMDL
MODEL 8
REMARK VINA RESULT:    -4.151      3.520      4.526
REMARK INTER + INTRA:          -4.952
REMARK INTER:                  -4.647
REMARK INTRA:                  -0.305
REMARK UNBOUND:                -0.315
REMARK SMILES O=[N+]([O-])c1ccc2c(c1)N[C@@H](c1cc(Cl)cc(Cl)c1)N2
REMARK SMILES IDX 7 1 8 2 5 3 6 4 20 5 10 6 4 7 11 8 9 9 12 12 14 13 13 14
REMARK SMILES IDX 16 15 17 16 19 17 15 18 18 19 2 20 3 21 1 22
REMARK H PARENT 20 10 10 11
ROOT
ATOM      1  C   UNL     1      12.013  -7.388  -7.940  1.00  0.00     0.060 A 
ATOM      2  C   UNL     1      11.282  -6.778  -8.931  1.00  0.00     0.066 A 
ATOM      3  C   UNL     1      13.214  -8.660  -9.517  1.00  0.00     0.088 A 
ATOM      4  C   UNL     1      13.081  -8.105  -8.215  1.00  0.00     0.035 A 
ATOM      5  N   UNL     1      11.593  -6.874  -6.651  1.00  0.00    -0.360 N 
ATOM      6  N   UNL     1      10.451  -5.875  -8.263  1.00  0.00    -0.360 N 
ATOM      7  C   UNL     1      12.391  -8.172 -10.529  1.00  0.00     0.271 A 
ATOM      8  C   UNL     1      11.087  -5.653  -7.016  1.00  0.00     0.205 C 
ATOM      9  C   UNL     1      11.411  -7.177 -10.224  1.00  0.00     0.113 A 
ATOM     10  H   UNL     1      11.656  -7.306  -5.718  1.00  0.00     0.163 HD
ATOM     11  H   UNL     1       9.570  -5.462  -8.602  1.00  0.00     0.163 HD
ENDROOT
BRANCH   8  12
ATOM     12  C   UNL     1      10.248  -4.845  -5.987  1.00  0.00    -0.003 A 
ATOM     13  C   UNL     1       8.502  -4.911  -4.233  1.00  0.00     0.042 A 
ATOM     14  C   UNL     1       9.717  -5.446  -4.824  1.00  0.00     0.028 A 
ATOM     15  C   UNL     1       8.218  -3.490  -4.465  1.00  0.00     0.041 A 
ATOM     16  C   UNL     1       9.064  -2.809  -5.439  1.00  0.00     0.042 A 
ATOM     17  C   UNL     1       9.949  -3.476  -6.322  1.00  0.00     0.028 A 
ATOM     18  Cl  UNL     1       7.629  -5.601  -3.141  1.00  0.00    -0.084 Cl
ATOM     19  Cl  UNL     1       8.873  -1.114  -5.555  1.00  0.00    -0.084 Cl
ENDBRANCH   8  12
BRANCH   7  20
ATOM     20  N   UNL     1      12.526  -8.516 -11.858  1.00  0.00     0.062 N 
ATOM     21  O   UNL     1      12.196  -9.581 -12.231  1.00  0.00    -0.258 OA
ATOM     22  O   UNL     1      12.796  -7.652 -12.798  1.00  0.00    -0.258 OA
ENDBRANCH   7  20
TORSDOF 2
ENDMDL
MODEL 9
REMARK VINA RESULT:    -3.983      4.196      5.699
REMARK INTER + INTRA:          -4.764
REMARK INTER:                  -4.456
REMARK INTRA:                  -0.308
REMARK UNBOUND:                -0.315
REMARK SMILES O=[N+]([O-])c1ccc2c(c1)N[C@@H](c1cc(Cl)cc(Cl)c1)N2
REMARK SMILES IDX 7 1 8 2 5 3 6 4 20 5 10 6 4 7 11 8 9 9 12 12 14 13 13 14
REMARK SMILES IDX 16 15 17 16 19 17 15 18 18 19 2 20 3 21 1 22
REMARK H PARENT 20 10 10 11
ROOT
ATOM      1  C   UNL     1      12.050  -7.455  -9.894  1.00  0.00     0.060 A 
ATOM      2  C   UNL     1      12.963  -8.102  -9.096  1.00  0.00     0.066 A 
ATOM      3  C   UNL     1      12.600  -8.813 -11.738  1.00  0.00     0.088 A 
ATOM      4  C   UNL     1      11.708  -7.930 -11.072  1.00  0.00     0.035 A 
ATOM      5  N   UNL     1      11.385  -6.425  -9.121  1.00  0.00    -0.360 N 
ATOM      6  N   UNL     1      12.833  -7.504  -7.840  1.00  0.00    -0.360 N 
ATOM      7  C   UNL     1      13.633  -9.386 -11.000  1.00  0.00     0.271 A 
ATOM      8  C   UNL     1      11.542  -6.918  -7.852  1.00  0.00     0.205 C 
ATOM      9  C   UNL     1      13.799  -9.034  -9.624  1.00  0.00     0.113 A 
ATOM     10  H   UNL     1      10.921  -5.561  -9.437  1.00  0.00     0.163 HD
ATOM     11  H   UNL     1      13.523  -7.491  -7.075  1.00  0.00     0.163 HD
ENDROOT
BRANCH   8  12
ATOM     12  C   UNL     1      11.230  -5.996  -6.640  1.00  0.00    -0.003 A 
ATOM     13  C   UNL     1       9.648  -4.393  -5.611  1.00  0.00     0.042 A 
ATOM     14  C   UNL     1       9.905  -5.655  -6.285  1.00  0.00     0.028 A 
ATOM     15  C   UNL     1      10.742  -3.829  -4.812  1.00  0.00     0.041 A 
ATOM     16  C   UNL     1      12.044  -4.474  -4.945  1.00  0.00     0.042 A 
ATOM     17  C   UNL     1      12.357  -5.421  -5.951  1.00  0.00     0.028 A 
ATOM     18  Cl  UNL     1       8.252  -3.731  -5.403  1.00  0.00    -0.084 Cl
ATOM     19  Cl  UNL     1      13.261  -3.953  -3.865  1.00  0.00    -0.084 Cl
ENDBRANCH   8  12
BRANCH   7  20
ATOM     20  N   UNL     1      14.468 -10.370 -11.489  1.00  0.00     0.062 N 
ATOM     21  O   UNL     1      15.606 -10.143 -11.679  1.00  0.00    -0.258 OA
ATOM     22  O   UNL     1      14.130 -11.630 -11.552  1.00  0.00    -0.258 OA
ENDBRANCH   7  20
TORSDOF 2
ENDMDL
