MODEL 1
REMARK VINA RESULT:    -3.799      0.000      0.000
REMARK INTER + INTRA:          -4.550
REMARK INTER:                  -4.243
REMARK INTRA:                  -0.308
REMARK UNBOUND:                -0.308
REMARK SMILES O=[N+]([O-])c1ccc2c(c1)N[C@@H](c1cc(Cl)cc(Cl)c1)N2
REMARK SMILES IDX 7 1 8 2 5 3 6 4 20 5 10 6 4 7 11 8 9 9 12 12 14 13 13 14
REMARK SMILES IDX 16 15 17 16 19 17 15 18 18 19 2 20 3 21 1 22
REMARK H PARENT 20 10 10 11
ROOT
ATOM      1  C   UNL     1      10.312   1.908  -8.139  1.00  0.00     0.060 A 
ATOM      2  C   UNL     1      10.542   2.339  -6.855  1.00  0.00     0.066 A 
ATOM      3  C   UNL     1      11.995   3.323  -8.986  1.00  0.00     0.088 A 
ATOM      4  C   UNL     1      11.141   2.194  -9.120  1.00  0.00     0.035 A 
ATOM      5  N   UNL     1       9.250   0.922  -8.129  1.00  0.00    -0.360 N 
ATOM      6  N   UNL     1       9.661   1.599  -6.062  1.00  0.00    -0.360 N 
ATOM      7  C   UNL     1      12.150   3.885  -7.721  1.00  0.00     0.271 A 
ATOM      8  C   UNL     1       9.345   0.458  -6.843  1.00  0.00     0.205 C 
ATOM      9  C   UNL     1      11.415   3.352  -6.616  1.00  0.00     0.113 A 
ATOM     10  H   UNL     1       8.602   0.645  -8.881  1.00  0.00     0.163 HD
ATOM     11  H   UNL     1       9.317   1.831  -5.119  1.00  0.00     0.163 HD
ENDROOT
BRANCH   8  12
ATOM     12  C   UNL     1       8.202  -0.428  -6.274  1.00  0.00    -0.003 A 
ATOM     13  C   UNL     1       5.774  -0.910  -6.246  1.00  0.00     0.042 A 
ATOM     14  C   UNL     1       6.997  -0.635  -6.981  1.00  0.00     0.028 A 
ATOM     15  C   UNL     1       5.916  -1.542  -4.929  1.00  0.00     0.041 A 
ATOM     16  C   UNL     1       7.270  -1.634  -4.395  1.00  0.00     0.042 A 
ATOM     17  C   UNL     1       8.384  -0.952  -4.944  1.00  0.00     0.028 A 
ATOM     18  Cl  UNL     1       4.327  -0.881  -6.826  1.00  0.00    -0.084 Cl
ATOM     19  Cl  UNL     1       7.460  -2.551  -2.966  1.00  0.00    -0.084 Cl
ENDBRANCH   8  12
BRANCH   7  20
ATOM     20  N   UNL     1      13.061   4.880  -7.433  1.00  0.00     0.062 N 
ATOM     21  O   UNL     1      12.938   5.951  -7.902  1.00  0.00    -0.258 OA
ATOM     22  O   UNL     1      13.950   4.784  -6.481  1.00  0.00    -0.258 OA
ENDBRANCH   7  20
TORSDOF 2
ENDMDL
MODEL 2
REMARK VINA RESULT:    -3.786      5.888      7.229
REMARK INTER + INTRA:          -4.536
REMARK INTER:                  -4.230
REMARK INTRA:                  -0.306
REMARK UNBOUND:                -0.308
REMARK SMILES O=[N+]([O-])c1ccc2c(c1)N[C@@H](c1cc(Cl)cc(Cl)c1)N2
REMARK SMILES IDX 7 1 8 2 5 3 6 4 20 5 10 6 4 7 11 8 9 9 12 12 14 13 13 14
REMARK SMILES IDX 16 15 17 16 19 17 15 18 18 19 2 20 3 21 1 22
REMARK H PARENT 20 10 10 11
ROOT
ATOM      1  C   UNL     1      10.655  -3.774  -8.576  1.00  0.00     0.060 A 
ATOM      2  C   UNL     1       9.476  -4.299  -9.048  1.00  0.00     0.066 A 
ATOM      3  C   UNL     1      11.881  -4.803 -10.305  1.00  0.00     0.088 A 
ATOM      4  C   UNL     1      11.760  -3.816  -9.289  1.00  0.00     0.035 A 
ATOM      5  N   UNL     1      10.385  -2.977  -7.397  1.00  0.00    -0.360 N 
ATOM      6  N   UNL     1       8.490  -3.799  -8.193  1.00  0.00    -0.360 N 
ATOM      7  C   UNL     1      10.729  -5.467 -10.719  1.00  0.00     0.271 A 
ATOM      8  C   UNL     1       9.072  -2.646  -7.608  1.00  0.00     0.205 C 
ATOM      9  C   UNL     1       9.481  -5.181 -10.082  1.00  0.00     0.113 A 
ATOM     10  H   UNL     1      11.007  -2.727  -6.615  1.00  0.00     0.163 HD
ATOM     11  H   UNL     1       7.550  -4.183  -8.026  1.00  0.00     0.163 HD
ENDROOT
BRANCH   8  12
ATOM     12  C   UNL     1       8.254  -2.019  -6.444  1.00  0.00    -0.003 A 
ATOM     13  C   UNL     1       7.888  -1.906  -3.998  1.00  0.00     0.042 A 
ATOM     14  C   UNL     1       8.786  -1.900  -5.140  1.00  0.00     0.028 A 
ATOM     15  C   UNL     1       6.515  -1.441  -4.227  1.00  0.00     0.041 A 
ATOM     16  C   UNL     1       6.126  -1.223  -5.616  1.00  0.00     0.042 A 
ATOM     17  C   UNL     1       6.889  -1.656  -6.728  1.00  0.00     0.028 A 
ATOM     18  Cl  UNL     1       8.303  -2.069  -2.504  1.00  0.00    -0.084 Cl
ATOM     19  Cl  UNL     1       4.605  -0.486  -5.870  1.00  0.00    -0.084 Cl
ENDBRANCH   8  12
BRANCH   7  20
ATOM     20  N   UNL     1      10.688  -6.329 -11.795  1.00  0.00     0.062 N 
ATOM     21  O   UNL     1      10.959  -7.465 -11.656  1.00  0.00    -0.258 OA
ATOM     22  O   UNL     1      10.146  -6.019 -12.942  1.00  0.00    -0.258 OA
ENDBRANCH   7  20
TORSDOF 2
ENDMDL
MODEL 3
REMARK VINA RESULT:    -3.684      3.124      4.615
REMARK INTER + INTRA:          -4.423
REMARK INTER:                  -4.109
REMARK INTRA:                  -0.314
REMARK UNBOUND:                -0.308
REMARK SMILES O=[N+]([O-])c1ccc2c(c1)N[C@@H](c1cc(Cl)cc(Cl)c1)N2
REMARK SMILES IDX 7 1 8 2 5 3 6 4 20 5 10 6 4 7 11 8 9 9 12 12 14 13 13 14
REMARK SMILES IDX 16 15 17 16 19 17 15 18 18 19 2 20 3 21 1 22
REMARK H PARENT 20 10 10 11
ROOT
ATOM      1  C   UNL     1       8.323  -1.795  -6.488  1.00  0.00     0.060 A 
ATOM      2  C   UNL     1       8.317  -0.449  -6.206  1.00  0.00     0.066 A 
ATOM      3  C   UNL     1      10.018  -1.516  -8.100  1.00  0.00     0.088 A 
ATOM      4  C   UNL     1       9.276  -2.341  -7.212  1.00  0.00     0.035 A 
ATOM      5  N   UNL     1       7.343  -2.462  -5.655  1.00  0.00    -0.360 N 
ATOM      6  N   UNL     1       7.374  -0.299  -5.186  1.00  0.00    -0.360 N 
ATOM      7  C   UNL     1       9.932  -0.135  -7.944  1.00  0.00     0.271 A 
ATOM      8  C   UNL     1       7.265  -1.587  -4.603  1.00  0.00     0.205 C 
ATOM      9  C   UNL     1       9.070   0.410  -6.942  1.00  0.00     0.113 A 
ATOM     10  H   UNL     1       6.843  -3.349  -5.809  1.00  0.00     0.163 HD
ATOM     11  H   UNL     1       6.871   0.559  -4.917  1.00  0.00     0.163 HD
ENDROOT
BRANCH   8  12
ATOM     12  C   UNL     1       6.110  -1.743  -3.575  1.00  0.00    -0.003 A 
ATOM     13  C   UNL     1       4.842  -3.280  -2.104  1.00  0.00     0.042 A 
ATOM     14  C   UNL     1       6.107  -2.775  -2.609  1.00  0.00     0.028 A 
ATOM     15  C   UNL     1       3.699  -2.360  -2.131  1.00  0.00     0.041 A 
ATOM     16  C   UNL     1       3.889  -1.108  -2.857  1.00  0.00     0.042 A 
ATOM     17  C   UNL     1       4.988  -0.850  -3.713  1.00  0.00     0.028 A 
ATOM     18  Cl  UNL     1       4.639  -4.580  -1.269  1.00  0.00    -0.084 Cl
ATOM     19  Cl  UNL     1       2.639   0.048  -2.713  1.00  0.00    -0.084 Cl
ENDBRANCH   8  12
BRANCH   7  20
ATOM     20  N   UNL     1      10.716   0.764  -8.638  1.00  0.00     0.062 N 
ATOM     21  O   UNL     1      10.897   1.845  -8.212  1.00  0.00    -0.258 OA
ATOM     22  O   UNL     1      11.469   0.426  -9.649  1.00  0.00    -0.258 OA
ENDBRANCH   7  20
TORSDOF 2
ENDMDL
MODEL 4
REMARK VINA RESULT:    -3.663      4.264      5.339
REMARK INTER + INTRA:          -4.399
REMARK INTER:                  -4.085
REMARK INTRA:                  -0.314
REMARK UNBOUND:                -0.308
REMARK SMILES O=[N+]([O-])c1ccc2c(c1)N[C@@H](c1cc(Cl)cc(Cl)c1)N2
REMARK SMILES IDX 7 1 8 2 5 3 6 4 20 5 10 6 4 7 11 8 9 9 12 12 14 13 13 14
REMARK SMILES IDX 16 15 17 16 19 17 15 18 18 19 2 20 3 21 1 22
REMARK H PARENT 20 10 10 11
ROOT
ATOM      1  C   UNL     1       8.267  -0.836  -6.418  1.00  0.00     0.060 A 
ATOM      2  C   UNL     1       8.129  -2.197  -6.554  1.00  0.00     0.066 A 
ATOM      3  C   UNL     1      10.102  -0.808  -7.894  1.00  0.00     0.088 A 
ATOM      4  C   UNL     1       9.044  -0.140  -7.219  1.00  0.00     0.035 A 
ATOM      5  N   UNL     1       7.249  -0.341  -5.512  1.00  0.00    -0.360 N 
ATOM      6  N   UNL     1       7.019  -2.527  -5.772  1.00  0.00    -0.360 N 
ATOM      7  C   UNL     1      10.082  -2.200  -7.936  1.00  0.00     0.271 A 
ATOM      8  C   UNL     1       6.294  -1.315  -5.645  1.00  0.00     0.205 C 
ATOM      9  C   UNL     1       9.041  -2.912  -7.263  1.00  0.00     0.113 A 
ATOM     10  H   UNL     1       7.244   0.509  -4.930  1.00  0.00     0.163 HD
ATOM     11  H   UNL     1       6.780  -3.448  -5.377  1.00  0.00     0.163 HD
ENDROOT
BRANCH   8  12
ATOM     12  C   UNL     1       5.116  -1.360  -4.632  1.00  0.00    -0.003 A 
ATOM     13  C   UNL     1       3.336  -0.091  -3.468  1.00  0.00     0.042 A 
ATOM     14  C   UNL     1       4.051  -0.433  -4.686  1.00  0.00     0.028 A 
ATOM     15  C   UNL     1       3.319  -1.098  -2.401  1.00  0.00     0.041 A 
ATOM     16  C   UNL     1       4.195  -2.251  -2.580  1.00  0.00     0.042 A 
ATOM     17  C   UNL     1       5.207  -2.328  -3.568  1.00  0.00     0.028 A 
ATOM     18  Cl  UNL     1       2.345   1.098  -3.287  1.00  0.00    -0.084 Cl
ATOM     19  Cl  UNL     1       4.021  -3.518  -1.447  1.00  0.00    -0.084 Cl
ENDBRANCH   8  12
BRANCH   7  20
ATOM     20  N   UNL     1      10.961  -2.956  -8.685  1.00  0.00     0.062 N 
ATOM     21  O   UNL     1      10.790  -4.112  -8.811  1.00  0.00    -0.258 OA
ATOM     22  O   UNL     1      11.869  -2.434  -9.464  1.00  0.00    -0.258 OA
ENDBRANCH   7  20
TORSDOF 2
ENDMDL
MODEL 5
REMARK VINA RESULT:    -3.631      6.057      8.628
REMARK INTER + INTRA:          -4.363
REMARK INTER:                  -4.064
REMARK INTRA:                  -0.299
REMARK UNBOUND:                -0.308
REMARK SMILES O=[N+]([O-])c1ccc2c(c1)N[C@@H](c1cc(Cl)cc(Cl)c1)N2
REMARK SMILES IDX 7 1 8 2 5 3 6 4 20 5 10 6 4 7 11 8 9 9 12 12 14 13 13 14
REMARK SMILES IDX 16 15 17 16 19 17 15 18 18 19 2 20 3 21 1 22
REMARK H PARENT 20 10 10 11
ROOT
ATOM      1  C   UNL     1       6.086  -2.626  -2.974  1.00  0.00     0.060 A 
ATOM      2  C   UNL     1       5.291  -1.634  -3.498  1.00  0.00     0.066 A 
ATOM      3  C   UNL     1       4.379  -3.306  -1.500  1.00  0.00     0.088 A 
ATOM      4  C   UNL     1       5.591  -3.564  -2.196  1.00  0.00     0.035 A 
ATOM      5  N   UNL     1       7.375  -2.605  -3.637  1.00  0.00    -0.360 N 
ATOM      6  N   UNL     1       6.067  -1.038  -4.495  1.00  0.00    -0.360 N 
ATOM      7  C   UNL     1       3.605  -2.221  -1.905  1.00  0.00     0.271 A 
ATOM      8  C   UNL     1       7.039  -2.015  -4.828  1.00  0.00     0.205 C 
ATOM      9  C   UNL     1       4.071  -1.375  -2.959  1.00  0.00     0.113 A 
ATOM     10  H   UNL     1       8.290  -2.941  -3.305  1.00  0.00     0.163 HD
ATOM     11  H   UNL     1       5.958  -0.097  -4.898  1.00  0.00     0.163 HD
ENDROOT
BRANCH   8  12
ATOM     12  C   UNL     1       8.172  -1.518  -5.769  1.00  0.00    -0.003 A 
ATOM     13  C   UNL     1       9.117   0.380  -7.048  1.00  0.00     0.042 A 
ATOM     14  C   UNL     1       8.554  -0.158  -5.821  1.00  0.00     0.028 A 
ATOM     15  C   UNL     1       9.806  -0.563  -7.935  1.00  0.00     0.041 A 
ATOM     16  C   UNL     1       9.674  -1.979  -7.608  1.00  0.00     0.042 A 
ATOM     17  C   UNL     1       8.749  -2.489  -6.664  1.00  0.00     0.028 A 
ATOM     18  Cl  UNL     1       9.325   1.889  -7.378  1.00  0.00    -0.084 Cl
ATOM     19  Cl  UNL     1      10.642  -3.059  -8.511  1.00  0.00    -0.084 Cl
ENDBRANCH   8  12
BRANCH   7  20
ATOM     20  N   UNL     1       2.342  -1.957  -1.415  1.00  0.00     0.062 N 
ATOM     21  O   UNL     1       1.637  -1.197  -1.970  1.00  0.00    -0.258 OA
ATOM     22  O   UNL     1       1.774  -2.668  -0.479  1.00  0.00    -0.258 OA
ENDBRANCH   7  20
TORSDOF 2
ENDMDL
MODEL 6
REMARK VINA RESULT:    -3.592      6.175      8.821
REMARK INTER + INTRA:          -4.319
REMARK INTER:                  -4.008
REMARK INTRA:                  -0.311
REMARK UNBOUND:                -0.308
REMARK SMILES O=[N+]([O-])c1ccc2c(c1)N[C@@H](c1cc(Cl)cc(Cl)c1)N2
REMARK SMILES IDX 7 1 8 2 5 3 6 4 20 5 10 6 4 7 11 8 9 9 12 12 14 13 13 14
REMARK SMILES IDX 16 15 17 16 19 17 15 18 18 19 2 20 3 21 1 22
REMARK H PARENT 20 10 10 11
ROOT
ATOM      1  C   UNL     1       5.776  -2.790  -3.079  1.00  0.00     0.060 A 
ATOM      2  C   UNL     1       4.954  -1.745  -3.427  1.00  0.00     0.066 A 
ATOM      3  C   UNL     1       4.256  -3.525  -1.436  1.00  0.00     0.088 A 
ATOM      4  C   UNL     1       5.356  -3.766  -2.303  1.00  0.00     0.035 A 
ATOM      5  N   UNL     1       6.966  -2.758  -3.906  1.00  0.00    -0.360 N 
ATOM      6  N   UNL     1       5.612  -1.103  -4.479  1.00  0.00    -0.360 N 
ATOM      7  C   UNL     1       3.474  -2.394  -1.662  1.00  0.00     0.271 A 
ATOM      8  C   UNL     1       6.497  -2.081  -5.001  1.00  0.00     0.205 C 
ATOM      9  C   UNL     1       3.826  -1.491  -2.713  1.00  0.00     0.113 A 
ATOM     10  H   UNL     1       7.904  -3.140  -3.722  1.00  0.00     0.163 HD
ATOM     11  H   UNL     1       5.483  -0.134  -4.803  1.00  0.00     0.163 HD
ENDROOT
BRANCH   8  12
ATOM     12  C   UNL     1       7.511  -1.551  -6.052  1.00  0.00    -0.003 A 
ATOM     13  C   UNL     1       9.440  -2.073  -7.515  1.00  0.00     0.042 A 
ATOM     14  C   UNL     1       8.126  -2.408  -6.993  1.00  0.00     0.028 A 
ATOM     15  C   UNL     1       9.806  -0.652  -7.537  1.00  0.00     0.041 A 
ATOM     16  C   UNL     1       8.909   0.261  -6.837  1.00  0.00     0.042 A 
ATOM     17  C   UNL     1       7.877  -0.160  -5.962  1.00  0.00     0.028 A 
ATOM     18  Cl  UNL     1      10.376  -3.022  -8.323  1.00  0.00    -0.084 Cl
ATOM     19  Cl  UNL     1       9.219   1.930  -7.038  1.00  0.00    -0.084 Cl
ENDBRANCH   8  12
BRANCH   7  20
ATOM     20  N   UNL     1       2.297  -2.131  -0.992  1.00  0.00     0.062 N 
ATOM     21  O   UNL     1       1.984  -1.023  -0.756  1.00  0.00    -0.258 OA
ATOM     22  O   UNL     1       1.374  -3.030  -0.786  1.00  0.00    -0.258 OA
ENDBRANCH   7  20
TORSDOF 2
ENDMDL
MODEL 7
REMARK VINA RESULT:    -3.585      6.062      8.472
REMARK INTER + INTRA:          -4.312
REMARK INTER:                  -4.012
REMARK INTRA:                  -0.300
REMARK UNBOUND:                -0.308
REMARK SMILES O=[N+]([O-])c1ccc2c(c1)N[C@@H](c1cc(Cl)cc(Cl)c1)N2
REMARK SMILES IDX 7 1 8 2 5 3 6 4 20 5 10 6 4 7 11 8 9 9 12 12 14 13 13 14
REMARK SMILES IDX 16 15 17 16 19 17 15 18 18 19 2 20 3 21 1 22
REMARK H PARENT 20 10 10 11
ROOT
ATOM      1  C   UNL     1       4.449  -0.559  -4.548  1.00  0.00     0.060 A 
ATOM      2  C   UNL     1       5.018  -1.587  -3.835  1.00  0.00     0.066 A 
ATOM      3  C   UNL     1       2.708  -0.344  -2.976  1.00  0.00     0.088 A 
ATOM      4  C   UNL     1       3.492   0.185  -4.037  1.00  0.00     0.035 A 
ATOM      5  N   UNL     1       5.249  -0.295  -5.728  1.00  0.00    -0.360 N 
ATOM      6  N   UNL     1       6.172  -1.924  -4.546  1.00  0.00    -0.360 N 
ATOM      7  C   UNL     1       3.176  -1.475  -2.312  1.00  0.00     0.271 A 
ATOM      8  C   UNL     1       6.468  -0.774  -5.321  1.00  0.00     0.205 C 
ATOM      9  C   UNL     1       4.388  -2.098  -2.745  1.00  0.00     0.113 A 
ATOM     10  H   UNL     1       4.978   0.133  -6.624  1.00  0.00     0.163 HD
ATOM     11  H   UNL     1       6.694  -2.812  -4.514  1.00  0.00     0.163 HD
ENDROOT
BRANCH   8  12
ATOM     12  C   UNL     1       7.593  -0.966  -6.375  1.00  0.00    -0.003 A 
ATOM     13  C   UNL     1       9.231  -2.517  -7.396  1.00  0.00     0.042 A 
ATOM     14  C   UNL     1       7.884  -2.231  -6.933  1.00  0.00     0.028 A 
ATOM     15  C   UNL     1      10.046  -1.374  -7.822  1.00  0.00     0.041 A 
ATOM     16  C   UNL     1       9.506  -0.049  -7.538  1.00  0.00     0.042 A 
ATOM     17  C   UNL     1       8.399   0.188  -6.686  1.00  0.00     0.028 A 
ATOM     18  Cl  UNL     1       9.796  -3.922  -7.767  1.00  0.00    -0.084 Cl
ATOM     19  Cl  UNL     1      10.349   1.274  -8.216  1.00  0.00    -0.084 Cl
ENDBRANCH   8  12
BRANCH   7  20
ATOM     20  N   UNL     1       2.590  -1.992  -1.174  1.00  0.00     0.062 N 
ATOM     21  O   UNL     1       3.133  -2.833  -0.557  1.00  0.00    -0.258 OA
ATOM     22  O   UNL     1       1.553  -1.451  -0.595  1.00  0.00    -0.258 OA
ENDBRANCH   7  20
TORSDOF 2
ENDMDL
MODEL 8
REMARK VINA RESULT:    -3.514      4.355      5.713
REMARK INTER + INTRA:          -4.233
REMARK INTER:                  -3.934
REMARK INTRA:                  -0.299
REMARK UNBOUND:                -0.308
REMARK SMILES O=[N+]([O-])c1ccc2c(c1)N[C@@H](c1cc(Cl)cc(Cl)c1)N2
REMARK SMILES IDX 7 1 8 2 5 3 6 4 20 5 10 6 4 7 11 8 9 9 12 12 14 13 13 14
REMARK SMILES IDX 16 15 17 16 19 17 15 18 18 19 2 20 3 21 1 22
REMARK H PARENT 20 10 10 11
ROOT
ATOM      1  C   UNL     1       8.484  -0.914  -6.343  1.00  0.00     0.060 A 
ATOM      2  C   UNL     1       8.251  -2.268  -6.389  1.00  0.00     0.066 A 
ATOM      3  C   UNL     1      10.136  -1.076  -8.015  1.00  0.00     0.088 A 
ATOM      4  C   UNL     1       9.204  -0.309  -7.263  1.00  0.00     0.035 A 
ATOM      5  N   UNL     1       7.608  -0.312  -5.358  1.00  0.00    -0.360 N 
ATOM      6  N   UNL     1       7.220  -2.488  -5.472  1.00  0.00    -0.360 N 
ATOM      7  C   UNL     1      10.028  -2.464  -7.979  1.00  0.00     0.271 A 
ATOM      8  C   UNL     1       6.588  -1.227  -5.330  1.00  0.00     0.205 C 
ATOM      9  C   UNL     1       9.031  -3.074  -7.156  1.00  0.00     0.113 A 
ATOM     10  H   UNL     1       7.721   0.562  -4.825  1.00  0.00     0.163 HD
ATOM     11  H   UNL     1       6.974  -3.372  -5.003  1.00  0.00     0.163 HD
ENDROOT
BRANCH   8  12
ATOM     12  C   UNL     1       5.534  -1.147  -4.191  1.00  0.00    -0.003 A 
ATOM     13  C   UNL     1       4.290  -2.369  -2.432  1.00  0.00     0.042 A 
ATOM     14  C   UNL     1       5.538  -2.055  -3.108  1.00  0.00     0.028 A 
ATOM     15  C   UNL     1       3.235  -1.349  -2.472  1.00  0.00     0.041 A 
ATOM     16  C   UNL     1       3.461  -0.215  -3.363  1.00  0.00     0.042 A 
ATOM     17  C   UNL     1       4.487  -0.169  -4.339  1.00  0.00     0.028 A 
ATOM     18  Cl  UNL     1       4.058  -3.537  -1.427  1.00  0.00    -0.084 Cl
ATOM     19  Cl  UNL     1       2.339   1.069  -3.254  1.00  0.00    -0.084 Cl
ENDBRANCH   8  12
BRANCH   7  20
ATOM     20  N   UNL     1      10.769  -3.310  -8.779  1.00  0.00     0.062 N 
ATOM     21  O   UNL     1      10.377  -4.391  -9.022  1.00  0.00    -0.258 OA
ATOM     22  O   UNL     1      11.794  -2.914  -9.483  1.00  0.00    -0.258 OA
ENDBRANCH   7  20
TORSDOF 2
ENDMDL
MODEL 9
REMARK VINA RESULT:    -3.352      2.751      3.927
REMARK INTER + INTRA:          -4.051
REMARK INTER:                  -3.761
REMARK INTRA:                  -0.291
REMARK UNBOUND:                -0.308
REMARK SMILES O=[N+]([O-])c1ccc2c(c1)N[C@@H](c1cc(Cl)cc(Cl)c1)N2
REMARK SMILES IDX 7 1 8 2 5 3 6 4 20 5 10 6 4 7 11 8 9 9 12 12 14 13 13 14
REMARK SMILES IDX 16 15 17 16 19 17 15 18 18 19 2 20 3 21 1 22
REMARK H PARENT 20 10 10 11
ROOT
ATOM      1  C   UNL     1       8.312  -1.258  -6.699  1.00  0.00     0.060 A 
ATOM      2  C   UNL     1       8.105   0.027  -6.255  1.00  0.00     0.066 A 
ATOM      3  C   UNL     1      10.100  -0.566  -8.068  1.00  0.00     0.088 A 
ATOM      4  C   UNL     1       9.392  -1.586  -7.376  1.00  0.00     0.035 A 
ATOM      5  N   UNL     1       7.353  -2.142  -6.067  1.00  0.00    -0.360 N 
ATOM      6  N   UNL     1       7.059  -0.074  -5.334  1.00  0.00    -0.360 N 
ATOM      7  C   UNL     1       9.821   0.761  -7.752  1.00  0.00     0.271 A 
ATOM      8  C   UNL     1       7.064  -1.433  -4.930  1.00  0.00     0.205 C 
ATOM      9  C   UNL     1       8.805   1.060  -6.792  1.00  0.00     0.113 A 
ATOM     10  H   UNL     1       6.990  -3.052  -6.384  1.00  0.00     0.163 HD
ATOM     11  H   UNL     1       6.426   0.674  -5.018  1.00  0.00     0.163 HD
ENDROOT
BRANCH   8  12
ATOM     12  C   UNL     1       5.848  -1.862  -4.062  1.00  0.00    -0.003 A 
ATOM     13  C   UNL     1       3.764  -1.157  -2.926  1.00  0.00     0.042 A 
ATOM     14  C   UNL     1       4.622  -1.160  -4.099  1.00  0.00     0.028 A 
ATOM     15  C   UNL     1       3.874  -2.304  -2.017  1.00  0.00     0.041 A 
ATOM     16  C   UNL     1       4.979  -3.224  -2.262  1.00  0.00     0.042 A 
ATOM     17  C   UNL     1       6.057  -2.949  -3.140  1.00  0.00     0.028 A 
ATOM     18  Cl  UNL     1       2.539  -0.224  -2.687  1.00  0.00    -0.084 Cl
ATOM     19  Cl  UNL     1       4.986  -4.663  -1.340  1.00  0.00    -0.084 Cl
ENDBRANCH   8  12
BRANCH   7  20
ATOM     20  N   UNL     1      10.543   1.832  -8.240  1.00  0.00     0.062 N 
ATOM     21  O   UNL     1      11.416   2.297  -7.604  1.00  0.00    -0.258 OA
ATOM     22  O   UNL     1      10.471   2.239  -9.478  1.00  0.00    -0.258 OA
ENDBRANCH   7  20
TORSDOF 2
ENDMDL
