MODEL 1
REMARK VINA RESULT:    -4.207      0.000      0.000
REMARK INTER + INTRA:          -5.014
REMARK INTER:                  -4.699
REMARK INTRA:                  -0.315
REMARK UNBOUND:                -0.315
REMARK SMILES O=[N+]([O-])c1ccc2c(c1)N[C@@H](c1cc(Cl)cc(Cl)c1)N2
REMARK SMILES IDX 7 1 8 2 5 3 6 4 20 5 10 6 4 7 11 8 9 9 12 12 14 13 13 14
REMARK SMILES IDX 16 15 17 16 19 17 15 18 18 19 2 20 3 21 1 22
REMARK H PARENT 20 10 10 11
ROOT
ATOM      1  C   UNL     1      -2.795   8.500  -9.756  1.00  0.00     0.060 A 
ATOM      2  C   UNL     1      -2.913   9.533  -8.857  1.00  0.00     0.066 A 
ATOM      3  C   UNL     1      -3.184   9.950 -11.572  1.00  0.00     0.088 A 
ATOM      4  C   UNL     1      -2.694   8.723 -11.049  1.00  0.00     0.035 A 
ATOM      5  N   UNL     1      -2.521   7.271  -9.040  1.00  0.00    -0.360 N 
ATOM      6  N   UNL     1      -2.676   8.953  -7.608  1.00  0.00    -0.360 N 
ATOM      7  C   UNL     1      -3.454  10.986 -10.679  1.00  0.00     0.271 A 
ATOM      8  C   UNL     1      -1.955   7.765  -7.893  1.00  0.00     0.205 C 
ATOM      9  C   UNL     1      -3.285  10.771  -9.276  1.00  0.00     0.113 A 
ATOM     10  H   UNL     1      -2.702   6.295  -9.315  1.00  0.00     0.163 HD
ATOM     11  H   UNL     1      -2.961   9.309  -6.685  1.00  0.00     0.163 HD
ENDROOT
BRANCH   8  12
ATOM     12  C   UNL     1      -1.754   6.814  -6.680  1.00  0.00    -0.003 A 
ATOM     13  C   UNL     1      -1.045   4.573  -5.902  1.00  0.00     0.042 A 
ATOM     14  C   UNL     1      -0.814   5.759  -6.709  1.00  0.00     0.028 A 
ATOM     15  C   UNL     1      -1.858   4.738  -4.691  1.00  0.00     0.041 A 
ATOM     16  C   UNL     1      -2.530   6.023  -4.531  1.00  0.00     0.042 A 
ATOM     17  C   UNL     1      -2.640   6.992  -5.558  1.00  0.00     0.028 A 
ATOM     18  Cl  UNL     1      -0.284   3.218  -6.021  1.00  0.00    -0.084 Cl
ATOM     19  Cl  UNL     1      -3.302   6.292  -3.029  1.00  0.00    -0.084 Cl
ENDBRANCH   8  12
BRANCH   7  20
ATOM     20  N   UNL     1      -3.786  12.266 -11.071  1.00  0.00     0.062 N 
ATOM     21  O   UNL     1      -3.660  13.166 -10.325  1.00  0.00    -0.258 OA
ATOM     22  O   UNL     1      -4.030  12.595 -12.311  1.00  0.00    -0.258 OA
ENDBRANCH   7  20
TORSDOF 2
ENDMDL
MODEL 2
REMARK VINA RESULT:    -4.196      1.065      2.698
REMARK INTER + INTRA:          -5.002
REMARK INTER:                  -4.687
REMARK INTRA:                  -0.315
REMARK UNBOUND:                -0.315
REMARK SMILES O=[N+]([O-])c1ccc2c(c1)N[C@@H](c1cc(Cl)cc(Cl)c1)N2
REMARK SMILES IDX 7 1 8 2 5 3 6 4 20 5 10 6 4 7 11 8 9 9 12 12 14 13 13 14
REMARK SMILES IDX 16 15 17 16 19 17 15 18 18 19 2 20 3 21 1 22
REMARK H PARENT 20 10 10 11
ROOT
ATOM      1  C   UNL     1      -2.932   9.568  -8.791  1.00  0.00     0.060 A 
ATOM      2  C   UNL     1      -2.847   8.601  -9.763  1.00  0.00     0.066 A 
ATOM      3  C   UNL     1      -3.402  11.230 -10.393  1.00  0.00     0.088 A 
ATOM      4  C   UNL     1      -3.418  10.763  -9.051  1.00  0.00     0.035 A 
ATOM      5  N   UNL     1      -2.696   8.965  -7.494  1.00  0.00    -0.360 N 
ATOM      6  N   UNL     1      -2.599   7.413  -9.070  1.00  0.00    -0.360 N 
ATOM      7  C   UNL     1      -3.176  10.305 -11.410  1.00  0.00     0.271 A 
ATOM      8  C   UNL     1      -3.050   7.666  -7.750  1.00  0.00     0.205 C 
ATOM      9  C   UNL     1      -2.917   8.939 -11.077  1.00  0.00     0.113 A 
ATOM     10  H   UNL     1      -2.356   9.394  -6.622  1.00  0.00     0.163 HD
ATOM     11  H   UNL     1      -2.182   6.546  -9.437  1.00  0.00     0.163 HD
ENDROOT
BRANCH   8  12
ATOM     12  C   UNL     1      -2.686   6.567  -6.712  1.00  0.00    -0.003 A 
ATOM     13  C   UNL     1      -2.616   5.916  -4.324  1.00  0.00     0.042 A 
ATOM     14  C   UNL     1      -3.327   6.488  -5.455  1.00  0.00     0.028 A 
ATOM     15  C   UNL     1      -1.565   4.937  -4.624  1.00  0.00     0.041 A 
ATOM     16  C   UNL     1      -1.190   4.794  -6.027  1.00  0.00     0.042 A 
ATOM     17  C   UNL     1      -1.593   5.690  -7.048  1.00  0.00     0.028 A 
ATOM     18  Cl  UNL     1      -3.046   6.005  -2.829  1.00  0.00    -0.084 Cl
ATOM     19  Cl  UNL     1      -0.121   3.514  -6.399  1.00  0.00    -0.084 Cl
ENDBRANCH   8  12
BRANCH   7  20
ATOM     20  N   UNL     1      -3.287  10.602 -12.753  1.00  0.00     0.062 N 
ATOM     21  O   UNL     1      -3.473   9.746 -13.537  1.00  0.00    -0.258 OA
ATOM     22  O   UNL     1      -3.423  11.818 -13.208  1.00  0.00    -0.258 OA
ENDBRANCH   7  20
TORSDOF 2
ENDMDL
MODEL 3
REMARK VINA RESULT:    -3.927      3.720      4.771
REMARK INTER + INTRA:          -4.701
REMARK INTER:                  -4.395
REMARK INTRA:                  -0.306
REMARK UNBOUND:                -0.315
REMARK SMILES O=[N+]([O-])c1ccc2c(c1)N[C@@H](c1cc(Cl)cc(Cl)c1)N2
REMARK SMILES IDX 7 1 8 2 5 3 6 4 20 5 10 6 4 7 11 8 9 9 12 12 14 13 13 14
REMARK SMILES IDX 16 15 17 16 19 17 15 18 18 19 2 20 3 21 1 22
REMARK H PARENT 20 10 10 11
ROOT
ATOM      1  C   UNL     1      -2.935   9.025 -13.109  1.00  0.00     0.060 A 
ATOM      2  C   UNL     1      -3.778   7.943 -13.023  1.00  0.00     0.066 A 
ATOM      3  C   UNL     1      -3.524   9.389 -15.361  1.00  0.00     0.088 A 
ATOM      4  C   UNL     1      -2.978   9.851 -14.133  1.00  0.00     0.035 A 
ATOM      5  N   UNL     1      -2.279   9.223 -11.832  1.00  0.00    -0.360 N 
ATOM      6  N   UNL     1      -3.670   7.506 -11.700  1.00  0.00    -0.360 N 
ATOM      7  C   UNL     1      -4.272   8.213 -15.349  1.00  0.00     0.271 A 
ATOM      8  C   UNL     1      -3.181   8.630 -10.988  1.00  0.00     0.205 C 
ATOM      9  C   UNL     1      -4.422   7.484 -14.128  1.00  0.00     0.113 A 
ATOM     10  H   UNL     1      -1.382   9.682 -11.617  1.00  0.00     0.163 HD
ATOM     11  H   UNL     1      -3.896   6.573 -11.326  1.00  0.00     0.163 HD
ENDROOT
BRANCH   8  12
ATOM     12  C   UNL     1      -2.764   8.343  -9.518  1.00  0.00    -0.003 A 
ATOM     13  C   UNL     1      -0.941   7.698  -7.972  1.00  0.00     0.042 A 
ATOM     14  C   UNL     1      -1.431   8.504  -9.077  1.00  0.00     0.028 A 
ATOM     15  C   UNL     1      -1.934   7.221  -7.002  1.00  0.00     0.041 A 
ATOM     16  C   UNL     1      -3.336   7.420  -7.357  1.00  0.00     0.042 A 
ATOM     17  C   UNL     1      -3.778   7.807  -8.646  1.00  0.00     0.028 A 
ATOM     18  Cl  UNL     1       0.549   7.535  -7.544  1.00  0.00    -0.084 Cl
ATOM     19  Cl  UNL     1      -4.483   7.058  -6.142  1.00  0.00    -0.084 Cl
ENDBRANCH   8  12
BRANCH   7  20
ATOM     20  N   UNL     1      -4.978   7.744 -16.437  1.00  0.00     0.062 N 
ATOM     21  O   UNL     1      -4.423   7.172 -17.302  1.00  0.00    -0.258 OA
ATOM     22  O   UNL     1      -6.282   7.693 -16.477  1.00  0.00    -0.258 OA
ENDBRANCH   7  20
TORSDOF 2
ENDMDL
MODEL 4
REMARK VINA RESULT:    -3.876      3.126      4.507
REMARK INTER + INTRA:          -4.645
REMARK INTER:                  -4.338
REMARK INTRA:                  -0.307
REMARK UNBOUND:                -0.315
REMARK SMILES O=[N+]([O-])c1ccc2c(c1)N[C@@H](c1cc(Cl)cc(Cl)c1)N2
REMARK SMILES IDX 7 1 8 2 5 3 6 4 20 5 10 6 4 7 11 8 9 9 12 12 14 13 13 14
REMARK SMILES IDX 16 15 17 16 19 17 15 18 18 19 2 20 3 21 1 22
REMARK H PARENT 20 10 10 11
ROOT
ATOM      1  C   UNL     1      -3.810  12.778  -9.409  1.00  0.00     0.060 A 
ATOM      2  C   UNL     1      -2.754  13.030  -8.565  1.00  0.00     0.066 A 
ATOM      3  C   UNL     1      -3.944  15.048 -10.024  1.00  0.00     0.088 A 
ATOM      4  C   UNL     1      -4.229  13.678 -10.272  1.00  0.00     0.035 A 
ATOM      5  N   UNL     1      -4.125  11.364  -9.371  1.00  0.00    -0.360 N 
ATOM      6  N   UNL     1      -2.402  11.782  -8.046  1.00  0.00    -0.360 N 
ATOM      7  C   UNL     1      -2.977  15.358  -9.070  1.00  0.00     0.271 A 
ATOM      8  C   UNL     1      -2.920  10.845  -8.976  1.00  0.00     0.205 C 
ATOM      9  C   UNL     1      -2.345  14.305  -8.338  1.00  0.00     0.113 A 
ATOM     10  H   UNL     1      -5.010  10.882  -9.583  1.00  0.00     0.163 HD
ATOM     11  H   UNL     1      -1.880  11.585  -7.180  1.00  0.00     0.163 HD
ENDROOT
BRANCH   8  12
ATOM     12  C   UNL     1      -2.851   9.361  -8.517  1.00  0.00    -0.003 A 
ATOM     13  C   UNL     1      -3.985   7.505  -7.333  1.00  0.00     0.042 A 
ATOM     14  C   UNL     1      -4.018   8.596  -8.293  1.00  0.00     0.028 A 
ATOM     15  C   UNL     1      -2.686   6.865  -7.096  1.00  0.00     0.041 A 
ATOM     16  C   UNL     1      -1.521   7.522  -7.680  1.00  0.00     0.042 A 
ATOM     17  C   UNL     1      -1.544   8.827  -8.233  1.00  0.00     0.028 A 
ATOM     18  Cl  UNL     1      -5.221   6.752  -6.755  1.00  0.00    -0.084 Cl
ATOM     19  Cl  UNL     1      -0.043   6.670  -7.583  1.00  0.00    -0.084 Cl
ENDBRANCH   8  12
BRANCH   7  20
ATOM     20  N   UNL     1      -2.503  16.635  -8.848  1.00  0.00     0.062 N 
ATOM     21  O   UNL     1      -3.216  17.465  -8.417  1.00  0.00    -0.258 OA
ATOM     22  O   UNL     1      -1.235  16.942  -8.875  1.00  0.00    -0.258 OA
ENDBRANCH   7  20
TORSDOF 2
ENDMDL
MODEL 5
REMARK VINA RESULT:    -3.852      0.716      2.134
REMARK INTER + INTRA:          -4.618
REMARK INTER:                  -4.318
REMARK INTRA:                  -0.299
REMARK UNBOUND:                -0.315
REMARK SMILES O=[N+]([O-])c1ccc2c(c1)N[C@@H](c1cc(Cl)cc(Cl)c1)N2
REMARK SMILES IDX 7 1 8 2 5 3 6 4 20 5 10 6 4 7 11 8 9 9 12 12 14 13 13 14
REMARK SMILES IDX 16 15 17 16 19 17 15 18 18 19 2 20 3 21 1 22
REMARK H PARENT 20 10 10 11
ROOT
ATOM      1  C   UNL     1      -3.102   9.019  -9.515  1.00  0.00     0.060 A 
ATOM      2  C   UNL     1      -3.126   9.864  -8.431  1.00  0.00     0.066 A 
ATOM      3  C   UNL     1      -3.366  10.820 -11.009  1.00  0.00     0.088 A 
ATOM      4  C   UNL     1      -2.985   9.477 -10.742  1.00  0.00     0.035 A 
ATOM      5  N   UNL     1      -2.936   7.655  -9.053  1.00  0.00    -0.360 N 
ATOM      6  N   UNL     1      -2.938   9.035  -7.322  1.00  0.00    -0.360 N 
ATOM      7  C   UNL     1      -3.541  11.683  -9.930  1.00  0.00     0.271 A 
ATOM      8  C   UNL     1      -2.326   7.868  -7.844  1.00  0.00     0.205 C 
ATOM      9  C   UNL     1      -3.388  11.187  -8.598  1.00  0.00     0.113 A 
ATOM     10  H   UNL     1      -3.203   6.770  -9.507  1.00  0.00     0.163 HD
ATOM     11  H   UNL     1      -3.189   9.230  -6.342  1.00  0.00     0.163 HD
ENDROOT
BRANCH   8  12
ATOM     12  C   UNL     1      -2.206   6.687  -6.841  1.00  0.00    -0.003 A 
ATOM     13  C   UNL     1      -2.511   5.913  -4.508  1.00  0.00     0.042 A 
ATOM     14  C   UNL     1      -3.011   6.610  -5.682  1.00  0.00     0.028 A 
ATOM     15  C   UNL     1      -1.526   4.849  -4.734  1.00  0.00     0.041 A 
ATOM     16  C   UNL     1      -0.986   4.740  -6.085  1.00  0.00     0.042 A 
ATOM     17  C   UNL     1      -1.166   5.722  -7.090  1.00  0.00     0.028 A 
ATOM     18  Cl  UNL     1      -3.123   5.970  -3.076  1.00  0.00    -0.084 Cl
ATOM     19  Cl  UNL     1      -0.002   3.378  -6.400  1.00  0.00    -0.084 Cl
ENDBRANCH   8  12
BRANCH   7  20
ATOM     20  N   UNL     1      -3.760  13.039 -10.061  1.00  0.00     0.062 N 
ATOM     21  O   UNL     1      -3.574  13.760  -9.152  1.00  0.00    -0.258 OA
ATOM     22  O   UNL     1      -3.953  13.624 -11.212  1.00  0.00    -0.258 OA
ENDBRANCH   7  20
TORSDOF 2
ENDMDL
MODEL 6
REMARK VINA RESULT:    -3.798      1.832      2.264
REMARK INTER + INTRA:          -4.557
REMARK INTER:                  -4.267
REMARK INTRA:                  -0.291
REMARK UNBOUND:                -0.315
REMARK SMILES O=[N+]([O-])c1ccc2c(c1)N[C@@H](c1cc(Cl)cc(Cl)c1)N2
REMARK SMILES IDX 7 1 8 2 5 3 6 4 20 5 10 6 4 7 11 8 9 9 12 12 14 13 13 14
REMARK SMILES IDX 16 15 17 16 19 17 15 18 18 19 2 20 3 21 1 22
REMARK H PARENT 20 10 10 11
ROOT
ATOM      1  C   UNL     1      -2.739   9.338  -9.572  1.00  0.00     0.060 A 
ATOM      2  C   UNL     1      -2.637   8.166 -10.283  1.00  0.00     0.066 A 
ATOM      3  C   UNL     1      -3.266  10.551 -11.521  1.00  0.00     0.088 A 
ATOM      4  C   UNL     1      -3.258  10.423 -10.106  1.00  0.00     0.035 A 
ATOM      5  N   UNL     1      -2.474   9.072  -8.172  1.00  0.00    -0.360 N 
ATOM      6  N   UNL     1      -2.352   7.188  -9.326  1.00  0.00    -0.360 N 
ATOM      7  C   UNL     1      -3.026   9.413 -12.287  1.00  0.00     0.271 A 
ATOM      8  C   UNL     1      -2.797   7.742  -8.099  1.00  0.00     0.205 C 
ATOM      9  C   UNL     1      -2.728   8.174 -11.638  1.00  0.00     0.113 A 
ATOM     10  H   UNL     1      -2.138   9.707  -7.434  1.00  0.00     0.163 HD
ATOM     11  H   UNL     1      -1.916   6.267  -9.479  1.00  0.00     0.163 HD
ENDROOT
BRANCH   8  12
ATOM     12  C   UNL     1      -2.395   6.936  -6.833  1.00  0.00    -0.003 A 
ATOM     13  C   UNL     1      -1.277   4.919  -5.931  1.00  0.00     0.042 A 
ATOM     14  C   UNL     1      -1.284   6.063  -6.827  1.00  0.00     0.028 A 
ATOM     15  C   UNL     1      -2.072   5.030  -4.702  1.00  0.00     0.041 A 
ATOM     16  C   UNL     1      -2.958   6.185  -4.604  1.00  0.00     0.042 A 
ATOM     17  C   UNL     1      -3.268   7.039  -5.691  1.00  0.00     0.028 A 
ATOM     18  Cl  UNL     1      -0.290   3.714  -5.987  1.00  0.00    -0.084 Cl
ATOM     19  Cl  UNL     1      -3.723   6.426  -3.094  1.00  0.00    -0.084 Cl
ENDBRANCH   8  12
BRANCH   7  20
ATOM     20  N   UNL     1      -3.156   9.373 -13.660  1.00  0.00     0.062 N 
ATOM     21  O   UNL     1      -4.170   9.034 -14.150  1.00  0.00    -0.258 OA
ATOM     22  O   UNL     1      -2.289   9.906 -14.478  1.00  0.00    -0.258 OA
ENDBRANCH   7  20
TORSDOF 2
ENDMDL
MODEL 7
REMARK VINA RESULT:    -3.748      4.977      7.642
REMARK INTER + INTRA:          -4.502
REMARK INTER:                  -4.203
REMARK INTRA:                  -0.299
REMARK UNBOUND:                -0.315
REMARK SMILES O=[N+]([O-])c1ccc2c(c1)N[C@@H](c1cc(Cl)cc(Cl)c1)N2
REMARK SMILES IDX 7 1 8 2 5 3 6 4 20 5 10 6 4 7 11 8 9 9 12 12 14 13 13 14
REMARK SMILES IDX 16 15 17 16 19 17 15 18 18 19 2 20 3 21 1 22
REMARK H PARENT 20 10 10 11
ROOT
ATOM      1  C   UNL     1      -1.564   6.113  -7.146  1.00  0.00     0.060 A 
ATOM      2  C   UNL     1      -2.093   6.946  -6.189  1.00  0.00     0.066 A 
ATOM      3  C   UNL     1      -1.301   4.374  -5.579  1.00  0.00     0.088 A 
ATOM      4  C   UNL     1      -1.401   4.827  -6.922  1.00  0.00     0.035 A 
ATOM      5  N   UNL     1      -1.522   6.809  -8.416  1.00  0.00    -0.360 N 
ATOM      6  N   UNL     1      -2.407   8.125  -6.871  1.00  0.00    -0.360 N 
ATOM      7  C   UNL     1      -1.694   5.240  -4.560  1.00  0.00     0.271 A 
ATOM      8  C   UNL     1      -2.513   7.737  -8.231  1.00  0.00     0.205 C 
ATOM      9  C   UNL     1      -2.129   6.562  -4.887  1.00  0.00     0.113 A 
ATOM     10  H   UNL     1      -0.915   6.651  -9.233  1.00  0.00     0.163 HD
ATOM     11  H   UNL     1      -2.533   9.067  -6.474  1.00  0.00     0.163 HD
ENDROOT
BRANCH   8  12
ATOM     12  C   UNL     1      -2.645   8.913  -9.239  1.00  0.00    -0.003 A 
ATOM     13  C   UNL     1      -3.368  11.252  -9.608  1.00  0.00     0.042 A 
ATOM     14  C   UNL     1      -2.664  10.260  -8.813  1.00  0.00     0.028 A 
ATOM     15  C   UNL     1      -3.502  10.982 -11.044  1.00  0.00     0.041 A 
ATOM     16  C   UNL     1      -3.108   9.652 -11.495  1.00  0.00     0.042 A 
ATOM     17  C   UNL     1      -2.848   8.566 -10.622  1.00  0.00     0.028 A 
ATOM     18  Cl  UNL     1      -3.733  12.700  -9.158  1.00  0.00    -0.084 Cl
ATOM     19  Cl  UNL     1      -3.066   9.407 -13.186  1.00  0.00    -0.084 Cl
ENDBRANCH   8  12
BRANCH   7  20
ATOM     20  N   UNL     1      -1.789   4.869  -3.235  1.00  0.00     0.062 N 
ATOM     21  O   UNL     1      -1.292   3.872  -2.861  1.00  0.00    -0.258 OA
ATOM     22  O   UNL     1      -2.214   5.671  -2.296  1.00  0.00    -0.258 OA
ENDBRANCH   7  20
TORSDOF 2
ENDMDL
MODEL 8
REMARK VINA RESULT:    -3.690      4.979      7.411
REMARK INTER + INTRA:          -4.437
REMARK INTER:                  -4.118
REMARK INTRA:                  -0.319
REMARK UNBOUND:                -0.315
REMARK SMILES O=[N+]([O-])c1ccc2c(c1)N[C@@H](c1cc(Cl)cc(Cl)c1)N2
REMARK SMILES IDX 7 1 8 2 5 3 6 4 20 5 10 6 4 7 11 8 9 9 12 12 14 13 13 14
REMARK SMILES IDX 16 15 17 16 19 17 15 18 18 19 2 20 3 21 1 22
REMARK H PARENT 20 10 10 11
ROOT
ATOM      1  C   UNL     1      -1.807   6.072  -7.141  1.00  0.00     0.060 A 
ATOM      2  C   UNL     1      -2.319   6.863  -6.140  1.00  0.00     0.066 A 
ATOM      3  C   UNL     1      -1.269   4.367  -5.608  1.00  0.00     0.088 A 
ATOM      4  C   UNL     1      -1.519   4.805  -6.937  1.00  0.00     0.035 A 
ATOM      5  N   UNL     1      -1.931   6.765  -8.408  1.00  0.00    -0.360 N 
ATOM      6  N   UNL     1      -2.786   8.009  -6.789  1.00  0.00    -0.360 N 
ATOM      7  C   UNL     1      -1.643   5.201  -4.558  1.00  0.00     0.271 A 
ATOM      8  C   UNL     1      -2.976   7.609  -8.136  1.00  0.00     0.205 C 
ATOM      9  C   UNL     1      -2.212   6.482  -4.841  1.00  0.00     0.113 A 
ATOM     10  H   UNL     1      -1.385   6.654  -9.275  1.00  0.00     0.163 HD
ATOM     11  H   UNL     1      -2.956   8.938  -6.379  1.00  0.00     0.163 HD
ENDROOT
BRANCH   8  12
ATOM     12  C   UNL     1      -3.289   8.766  -9.125  1.00  0.00    -0.003 A 
ATOM     13  C   UNL     1      -3.155   9.591 -11.456  1.00  0.00     0.042 A 
ATOM     14  C   UNL     1      -3.470   8.536 -10.508  1.00  0.00     0.028 A 
ATOM     15  C   UNL     1      -3.245  10.973 -10.970  1.00  0.00     0.041 A 
ATOM     16  C   UNL     1      -3.432  11.146  -9.534  1.00  0.00     0.042 A 
ATOM     17  C   UNL     1      -3.287  10.102  -8.586  1.00  0.00     0.028 A 
ATOM     18  Cl  UNL     1      -3.021   9.428 -13.001  1.00  0.00    -0.084 Cl
ATOM     19  Cl  UNL     1      -3.746  12.738  -8.997  1.00  0.00    -0.084 Cl
ENDBRANCH   8  12
BRANCH   7  20
ATOM     20  N   UNL     1      -1.594   4.828  -3.230  1.00  0.00     0.062 N 
ATOM     21  O   UNL     1      -2.056   5.523  -2.401  1.00  0.00    -0.258 OA
ATOM     22  O   UNL     1      -1.260   3.630  -2.835  1.00  0.00    -0.258 OA
ENDBRANCH   7  20
TORSDOF 2
ENDMDL
MODEL 9
REMARK VINA RESULT:    -3.108      5.393      8.229
REMARK INTER + INTRA:          -3.787
REMARK INTER:                  -3.480
REMARK INTRA:                  -0.308
REMARK UNBOUND:                -0.315
REMARK SMILES O=[N+]([O-])c1ccc2c(c1)N[C@@H](c1cc(Cl)cc(Cl)c1)N2
REMARK SMILES IDX 7 1 8 2 5 3 6 4 20 5 10 6 4 7 11 8 9 9 12 12 14 13 13 14
REMARK SMILES IDX 16 15 17 16 19 17 15 18 18 19 2 20 3 21 1 22
REMARK H PARENT 20 10 10 11
ROOT
ATOM      1  C   UNL     1      -3.129   9.786 -10.319  1.00  0.00     0.060 A 
ATOM      2  C   UNL     1      -2.934   8.429 -10.418  1.00  0.00     0.066 A 
ATOM      3  C   UNL     1      -2.808   9.728  -7.986  1.00  0.00     0.088 A 
ATOM      4  C   UNL     1      -2.846  10.442  -9.214  1.00  0.00     0.035 A 
ATOM      5  N   UNL     1      -3.384  10.330 -11.638  1.00  0.00    -0.360 N 
ATOM      6  N   UNL     1      -3.030   8.150 -11.784  1.00  0.00    -0.360 N 
ATOM      7  C   UNL     1      -2.753   8.336  -8.034  1.00  0.00     0.271 A 
ATOM      8  C   UNL     1      -2.773   9.389 -12.424  1.00  0.00     0.205 C 
ATOM      9  C   UNL     1      -2.791   7.672  -9.299  1.00  0.00     0.113 A 
ATOM     10  H   UNL     1      -3.886  11.187 -11.909  1.00  0.00     0.163 HD
ATOM     11  H   UNL     1      -3.240   7.244 -12.227  1.00  0.00     0.163 HD
ENDROOT
BRANCH   8  12
ATOM     12  C   UNL     1      -3.035   9.400 -13.956  1.00  0.00    -0.003 A 
ATOM     13  C   UNL     1      -3.212  10.763 -16.016  1.00  0.00     0.042 A 
ATOM     14  C   UNL     1      -2.509  10.409 -14.794  1.00  0.00     0.028 A 
ATOM     15  C   UNL     1      -4.044   9.722 -16.631  1.00  0.00     0.041 A 
ATOM     16  C   UNL     1      -4.257   8.511 -15.845  1.00  0.00     0.042 A 
ATOM     17  C   UNL     1      -3.923   8.390 -14.474  1.00  0.00     0.028 A 
ATOM     18  Cl  UNL     1      -2.945  12.019 -16.899  1.00  0.00    -0.084 Cl
ATOM     19  Cl  UNL     1      -5.047   7.221 -16.640  1.00  0.00    -0.084 Cl
ENDBRANCH   8  12
BRANCH   7  20
ATOM     20  N   UNL     1      -2.560   7.539  -6.924  1.00  0.00     0.062 N 
ATOM     21  O   UNL     1      -3.443   6.889  -6.500  1.00  0.00    -0.258 OA
ATOM     22  O   UNL     1      -1.381   7.278  -6.428  1.00  0.00    -0.258 OA
ENDBRANCH   7  20
TORSDOF 2
ENDMDL
