MODEL 1
REMARK VINA RESULT:    -5.126      0.000      0.000
REMARK INTER + INTRA:          -6.040
REMARK INTER:                  -5.725
REMARK INTRA:                  -0.315
REMARK UNBOUND:                -0.315
REMARK SMILES O=[N+]([O-])c1ccc2c(c1)N[C@@H](c1cc(Cl)cc(Cl)c1)N2
REMARK SMILES IDX 7 1 8 2 5 3 6 4 20 5 10 6 4 7 11 8 9 9 12 12 14 13 13 14
REMARK SMILES IDX 16 15 17 16 19 17 15 18 18 19 2 20 3 21 1 22
REMARK H PARENT 20 10 10 11
ROOT
ATOM      1  C   UNL     1       7.260   8.751  -1.544  1.00  0.00     0.060 A 
ATOM      2  C   UNL     1       7.453   8.416  -2.863  1.00  0.00     0.066 A 
ATOM      3  C   UNL     1       8.614  10.666  -1.763  1.00  0.00     0.088 A 
ATOM      4  C   UNL     1       7.614   9.928  -1.074  1.00  0.00     0.035 A 
ATOM      5  N   UNL     1       6.397   7.766  -0.922  1.00  0.00    -0.360 N 
ATOM      6  N   UNL     1       6.689   7.263  -3.058  1.00  0.00    -0.360 N 
ATOM      7  C   UNL     1       8.948  10.274  -3.058  1.00  0.00     0.271 A 
ATOM      8  C   UNL     1       5.726   7.287  -2.017  1.00  0.00     0.205 C 
ATOM      9  C   UNL     1       8.322   9.124  -3.631  1.00  0.00     0.113 A 
ATOM     10  H   UNL     1       6.311   7.499   0.069  1.00  0.00     0.163 HD
ATOM     11  H   UNL     1       6.800   6.552  -3.795  1.00  0.00     0.163 HD
ENDROOT
BRANCH   8  12
ATOM     12  C   UNL     1       4.880   5.991  -1.877  1.00  0.00    -0.003 A 
ATOM     13  C   UNL     1       3.213   4.742  -0.538  1.00  0.00     0.042 A 
ATOM     14  C   UNL     1       3.657   5.973  -1.169  1.00  0.00     0.028 A 
ATOM     15  C   UNL     1       3.687   3.483  -1.126  1.00  0.00     0.041 A 
ATOM     16  C   UNL     1       4.724   3.593  -2.147  1.00  0.00     0.042 A 
ATOM     17  C   UNL     1       5.447   4.781  -2.415  1.00  0.00     0.028 A 
ATOM     18  Cl  UNL     1       2.060   4.606   0.502  1.00  0.00    -0.084 Cl
ATOM     19  Cl  UNL     1       5.125   2.153  -2.976  1.00  0.00    -0.084 Cl
ENDBRANCH   8  12
BRANCH   7  20
ATOM     20  N   UNL     1       9.786  10.995  -3.883  1.00  0.00     0.062 N 
ATOM     21  O   UNL     1       9.735  10.855  -5.049  1.00  0.00    -0.258 OA
ATOM     22  O   UNL     1      10.500  12.007  -3.470  1.00  0.00    -0.258 OA
ENDBRANCH   7  20
TORSDOF 2
ENDMDL
MODEL 2
REMARK VINA RESULT:    -5.114      0.952      2.631
REMARK INTER + INTRA:          -6.027
REMARK INTER:                  -5.712
REMARK INTRA:                  -0.315
REMARK UNBOUND:                -0.315
REMARK SMILES O=[N+]([O-])c1ccc2c(c1)N[C@@H](c1cc(Cl)cc(Cl)c1)N2
REMARK SMILES IDX 7 1 8 2 5 3 6 4 20 5 10 6 4 7 11 8 9 9 12 12 14 13 13 14
REMARK SMILES IDX 16 15 17 16 19 17 15 18 18 19 2 20 3 21 1 22
REMARK H PARENT 20 10 10 11
ROOT
ATOM      1  C   UNL     1       7.456   8.272  -3.144  1.00  0.00     0.060 A 
ATOM      2  C   UNL     1       7.385   8.757  -1.860  1.00  0.00     0.066 A 
ATOM      3  C   UNL     1       8.967   9.967  -3.771  1.00  0.00     0.088 A 
ATOM      4  C   UNL     1       8.371   8.695  -3.989  1.00  0.00     0.035 A 
ATOM      5  N   UNL     1       6.608   7.102  -3.260  1.00  0.00    -0.360 N 
ATOM      6  N   UNL     1       6.535   7.875  -1.187  1.00  0.00    -0.360 N 
ATOM      7  C   UNL     1       8.802  10.567  -2.524  1.00  0.00     0.271 A 
ATOM      8  C   UNL     1       6.570   6.684  -1.955  1.00  0.00     0.205 C 
ATOM      9  C   UNL     1       8.003   9.921  -1.530  1.00  0.00     0.113 A 
ATOM     10  H   UNL     1       6.158   6.696  -4.093  1.00  0.00     0.163 HD
ATOM     11  H   UNL     1       6.002   8.051  -0.324  1.00  0.00     0.163 HD
ENDROOT
BRANCH   8  12
ATOM     12  C   UNL     1       5.532   5.605  -1.538  1.00  0.00    -0.003 A 
ATOM     13  C   UNL     1       4.491   3.421  -2.065  1.00  0.00     0.042 A 
ATOM     14  C   UNL     1       5.675   4.250  -1.913  1.00  0.00     0.028 A 
ATOM     15  C   UNL     1       3.308   3.798  -1.282  1.00  0.00     0.041 A 
ATOM     16  C   UNL     1       3.366   5.085  -0.596  1.00  0.00     0.042 A 
ATOM     17  C   UNL     1       4.361   6.065  -0.836  1.00  0.00     0.028 A 
ATOM     18  Cl  UNL     1       4.433   2.015  -2.735  1.00  0.00    -0.084 Cl
ATOM     19  Cl  UNL     1       2.082   5.429   0.479  1.00  0.00    -0.084 Cl
ENDBRANCH   8  12
BRANCH   7  20
ATOM     20  N   UNL     1       9.452  11.721  -2.139  1.00  0.00     0.062 N 
ATOM     21  O   UNL     1       9.549  11.995  -1.000  1.00  0.00    -0.258 OA
ATOM     22  O   UNL     1      10.177  12.440  -2.952  1.00  0.00    -0.258 OA
ENDBRANCH   7  20
TORSDOF 2
ENDMDL
MODEL 3
REMARK VINA RESULT:    -4.917      5.097      7.612
REMARK INTER + INTRA:          -5.806
REMARK INTER:                  -5.507
REMARK INTRA:                  -0.299
REMARK UNBOUND:                -0.315
REMARK SMILES O=[N+]([O-])c1ccc2c(c1)N[C@@H](c1cc(Cl)cc(Cl)c1)N2
REMARK SMILES IDX 7 1 8 2 5 3 6 4 20 5 10 6 4 7 11 8 9 9 12 12 14 13 13 14
REMARK SMILES IDX 16 15 17 16 19 17 15 18 18 19 2 20 3 21 1 22
REMARK H PARENT 20 10 10 11
ROOT
ATOM      1  C   UNL     1       5.369   5.475  -2.362  1.00  0.00     0.060 A 
ATOM      2  C   UNL     1       5.131   5.846  -1.060  1.00  0.00     0.066 A 
ATOM      3  C   UNL     1       3.737   3.780  -2.247  1.00  0.00     0.088 A 
ATOM      4  C   UNL     1       4.562   4.657  -3.002  1.00  0.00     0.035 A 
ATOM      5  N   UNL     1       6.404   6.323  -2.918  1.00  0.00    -0.360 N 
ATOM      6  N   UNL     1       5.981   6.931  -0.832  1.00  0.00    -0.360 N 
ATOM      7  C   UNL     1       3.578   4.034  -0.886  1.00  0.00     0.271 A 
ATOM      8  C   UNL     1       6.278   7.433  -2.125  1.00  0.00     0.205 C 
ATOM      9  C   UNL     1       4.282   5.122  -0.284  1.00  0.00     0.113 A 
ATOM     10  H   UNL     1       7.055   6.142  -3.696  1.00  0.00     0.163 HD
ATOM     11  H   UNL     1       6.317   7.288   0.074  1.00  0.00     0.163 HD
ENDROOT
BRANCH   8  12
ATOM     12  C   UNL     1       7.388   8.520  -2.165  1.00  0.00    -0.003 A 
ATOM     13  C   UNL     1       8.330  10.558  -1.119  1.00  0.00     0.042 A 
ATOM     14  C   UNL     1       7.798   9.210  -1.002  1.00  0.00     0.028 A 
ATOM     15  C   UNL     1       8.968  10.914  -2.392  1.00  0.00     0.041 A 
ATOM     16  C   UNL     1       8.816   9.960  -3.485  1.00  0.00     0.042 A 
ATOM     17  C   UNL     1       7.913   8.868  -3.461  1.00  0.00     0.028 A 
ATOM     18  Cl  UNL     1       8.560  11.559   0.053  1.00  0.00    -0.084 Cl
ATOM     19  Cl  UNL     1       9.729  10.272  -4.895  1.00  0.00    -0.084 Cl
ENDBRANCH   8  12
BRANCH   7  20
ATOM     20  N   UNL     1       2.690   3.353  -0.080  1.00  0.00     0.062 N 
ATOM     21  O   UNL     1       2.158   3.902   0.814  1.00  0.00    -0.258 OA
ATOM     22  O   UNL     1       2.216   2.172  -0.374  1.00  0.00    -0.258 OA
ENDBRANCH   7  20
TORSDOF 2
ENDMDL
MODEL 4
REMARK VINA RESULT:    -4.886      5.013      7.638
REMARK INTER + INTRA:          -5.772
REMARK INTER:                  -5.473
REMARK INTRA:                  -0.299
REMARK UNBOUND:                -0.315
REMARK SMILES O=[N+]([O-])c1ccc2c(c1)N[C@@H](c1cc(Cl)cc(Cl)c1)N2
REMARK SMILES IDX 7 1 8 2 5 3 6 4 20 5 10 6 4 7 11 8 9 9 12 12 14 13 13 14
REMARK SMILES IDX 16 15 17 16 19 17 15 18 18 19 2 20 3 21 1 22
REMARK H PARENT 20 10 10 11
ROOT
ATOM      1  C   UNL     1       4.902   6.149  -1.017  1.00  0.00     0.060 A 
ATOM      2  C   UNL     1       5.138   5.557  -2.234  1.00  0.00     0.066 A 
ATOM      3  C   UNL     1       3.665   4.286  -0.276  1.00  0.00     0.088 A 
ATOM      4  C   UNL     1       4.405   5.469  -0.006  1.00  0.00     0.035 A 
ATOM      5  N   UNL     1       5.535   7.453  -0.988  1.00  0.00    -0.360 N 
ATOM      6  N   UNL     1       5.937   6.468  -2.930  1.00  0.00    -0.360 N 
ATOM      7  C   UNL     1       3.761   3.724  -1.547  1.00  0.00     0.271 A 
ATOM      8  C   UNL     1       6.522   7.277  -1.923  1.00  0.00     0.205 C 
ATOM      9  C   UNL     1       4.548   4.374  -2.549  1.00  0.00     0.113 A 
ATOM     10  H   UNL     1       5.307   8.283  -0.422  1.00  0.00     0.163 HD
ATOM     11  H   UNL     1       6.072   6.536  -3.948  1.00  0.00     0.163 HD
ENDROOT
BRANCH   8  12
ATOM     12  C   UNL     1       7.295   8.519  -2.447  1.00  0.00    -0.003 A 
ATOM     13  C   UNL     1       8.754   9.454  -4.216  1.00  0.00     0.042 A 
ATOM     14  C   UNL     1       7.582   8.692  -3.820  1.00  0.00     0.028 A 
ATOM     15  C   UNL     1       9.232  10.477  -3.278  1.00  0.00     0.041 A 
ATOM     16  C   UNL     1       8.619  10.482  -1.954  1.00  0.00     0.042 A 
ATOM     17  C   UNL     1       7.797   9.440  -1.459  1.00  0.00     0.028 A 
ATOM     18  Cl  UNL     1       9.376   9.508  -5.644  1.00  0.00    -0.084 Cl
ATOM     19  Cl  UNL     1       9.021  11.796  -0.938  1.00  0.00    -0.084 Cl
ENDBRANCH   8  12
BRANCH   7  20
ATOM     20  N   UNL     1       3.218   2.502  -1.887  1.00  0.00     0.062 N 
ATOM     21  O   UNL     1       2.262   2.103  -1.331  1.00  0.00    -0.258 OA
ATOM     22  O   UNL     1       3.564   1.837  -2.956  1.00  0.00    -0.258 OA
ENDBRANCH   7  20
TORSDOF 2
ENDMDL
MODEL 5
REMARK VINA RESULT:    -4.737      1.444      2.106
REMARK INTER + INTRA:          -5.606
REMARK INTER:                  -5.306
REMARK INTRA:                  -0.299
REMARK UNBOUND:                -0.315
REMARK SMILES O=[N+]([O-])c1ccc2c(c1)N[C@@H](c1cc(Cl)cc(Cl)c1)N2
REMARK SMILES IDX 7 1 8 2 5 3 6 4 20 5 10 6 4 7 11 8 9 9 12 12 14 13 13 14
REMARK SMILES IDX 16 15 17 16 19 17 15 18 18 19 2 20 3 21 1 22
REMARK H PARENT 20 10 10 11
ROOT
ATOM      1  C   UNL     1       7.358   8.830  -2.522  1.00  0.00     0.060 A 
ATOM      2  C   UNL     1       7.163   9.001  -1.173  1.00  0.00     0.066 A 
ATOM      3  C   UNL     1       8.897  10.611  -2.592  1.00  0.00     0.088 A 
ATOM      4  C   UNL     1       8.341   9.432  -3.156  1.00  0.00     0.035 A 
ATOM      5  N   UNL     1       6.540   7.728  -2.988  1.00  0.00    -0.360 N 
ATOM      6  N   UNL     1       6.267   7.993  -0.807  1.00  0.00    -0.360 N 
ATOM      7  C   UNL     1       8.611  10.903  -1.260  1.00  0.00     0.271 A 
ATOM      8  C   UNL     1       6.388   7.015  -1.827  1.00  0.00     0.205 C 
ATOM      9  C   UNL     1       7.733  10.049  -0.523  1.00  0.00     0.113 A 
ATOM     10  H   UNL     1       6.173   7.533  -3.931  1.00  0.00     0.163 HD
ATOM     11  H   UNL     1       5.654   7.966   0.020  1.00  0.00     0.163 HD
ENDROOT
BRANCH   8  12
ATOM     12  C   UNL     1       5.330   5.878  -1.772  1.00  0.00    -0.003 A 
ATOM     13  C   UNL     1       3.359   4.938  -0.604  1.00  0.00     0.042 A 
ATOM     14  C   UNL     1       4.058   6.071  -1.187  1.00  0.00     0.028 A 
ATOM     15  C   UNL     1       3.673   3.610  -1.146  1.00  0.00     0.041 A 
ATOM     16  C   UNL     1       4.807   3.534  -2.061  1.00  0.00     0.042 A 
ATOM     17  C   UNL     1       5.739   4.584  -2.255  1.00  0.00     0.028 A 
ATOM     18  Cl  UNL     1       2.105   5.008   0.319  1.00  0.00    -0.084 Cl
ATOM     19  Cl  UNL     1       5.043   2.037  -2.851  1.00  0.00    -0.084 Cl
ENDBRANCH   8  12
BRANCH   7  20
ATOM     20  N   UNL     1       9.208  11.929  -0.556  1.00  0.00     0.062 N 
ATOM     21  O   UNL     1       9.050  12.021   0.605  1.00  0.00    -0.258 OA
ATOM     22  O   UNL     1      10.135  12.697  -1.059  1.00  0.00    -0.258 OA
ENDBRANCH   7  20
TORSDOF 2
ENDMDL
MODEL 6
REMARK VINA RESULT:    -4.729      0.811      2.186
REMARK INTER + INTRA:          -5.596
REMARK INTER:                  -5.296
REMARK INTRA:                  -0.300
REMARK UNBOUND:                -0.315
REMARK SMILES O=[N+]([O-])c1ccc2c(c1)N[C@@H](c1cc(Cl)cc(Cl)c1)N2
REMARK SMILES IDX 7 1 8 2 5 3 6 4 20 5 10 6 4 7 11 8 9 9 12 12 14 13 13 14
REMARK SMILES IDX 16 15 17 16 19 17 15 18 18 19 2 20 3 21 1 22
REMARK H PARENT 20 10 10 11
ROOT
ATOM      1  C   UNL     1       7.680   8.662  -2.183  1.00  0.00     0.060 A 
ATOM      2  C   UNL     1       7.606   8.130  -3.448  1.00  0.00     0.066 A 
ATOM      3  C   UNL     1       9.003  10.456  -2.943  1.00  0.00     0.088 A 
ATOM      4  C   UNL     1       8.141   9.876  -1.973  1.00  0.00     0.035 A 
ATOM      5  N   UNL     1       6.935   7.821  -1.266  1.00  0.00    -0.360 N 
ATOM      6  N   UNL     1       6.796   6.999  -3.317  1.00  0.00    -0.360 N 
ATOM      7  C   UNL     1       9.071   9.865  -4.203  1.00  0.00     0.271 A 
ATOM      8  C   UNL     1       6.054   7.222  -2.129  1.00  0.00     0.205 C 
ATOM      9  C   UNL     1       8.323   8.675  -4.465  1.00  0.00     0.113 A 
ATOM     10  H   UNL     1       7.038   7.706  -0.248  1.00  0.00     0.163 HD
ATOM     11  H   UNL     1       6.747   6.184  -3.945  1.00  0.00     0.163 HD
ENDROOT
BRANCH   8  12
ATOM     12  C   UNL     1       5.226   6.003  -1.636  1.00  0.00    -0.003 A 
ATOM     13  C   UNL     1       4.560   3.652  -2.040  1.00  0.00     0.042 A 
ATOM     14  C   UNL     1       5.588   4.676  -1.960  1.00  0.00     0.028 A 
ATOM     15  C   UNL     1       3.350   3.859  -1.236  1.00  0.00     0.041 A 
ATOM     16  C   UNL     1       3.204   5.166  -0.605  1.00  0.00     0.042 A 
ATOM     17  C   UNL     1       4.011   6.288  -0.916  1.00  0.00     0.028 A 
ATOM     18  Cl  UNL     1       4.727   2.228  -2.651  1.00  0.00    -0.084 Cl
ATOM     19  Cl  UNL     1       1.907   5.336   0.495  1.00  0.00    -0.084 Cl
ENDBRANCH   8  12
BRANCH   7  20
ATOM     20  N   UNL     1       9.747  10.416  -5.271  1.00  0.00     0.062 N 
ATOM     21  O   UNL     1       9.659   9.935  -6.341  1.00  0.00    -0.258 OA
ATOM     22  O   UNL     1      10.318  11.589  -5.229  1.00  0.00    -0.258 OA
ENDBRANCH   7  20
TORSDOF 2
ENDMDL
MODEL 7
REMARK VINA RESULT:    -4.229      3.486      4.475
REMARK INTER + INTRA:          -5.038
REMARK INTER:                  -4.733
REMARK INTRA:                  -0.304
REMARK UNBOUND:                -0.315
REMARK SMILES O=[N+]([O-])c1ccc2c(c1)N[C@@H](c1cc(Cl)cc(Cl)c1)N2
REMARK SMILES IDX 7 1 8 2 5 3 6 4 20 5 10 6 4 7 11 8 9 9 12 12 14 13 13 14
REMARK SMILES IDX 16 15 17 16 19 17 15 18 18 19 2 20 3 21 1 22
REMARK H PARENT 20 10 10 11
ROOT
ATOM      1  C   UNL     1       8.573  11.332  -0.535  1.00  0.00     0.060 A 
ATOM      2  C   UNL     1       8.809  10.542   0.564  1.00  0.00     0.066 A 
ATOM      3  C   UNL     1       9.953  13.041   0.314  1.00  0.00     0.088 A 
ATOM      4  C   UNL     1       9.285  12.413  -0.772  1.00  0.00     0.035 A 
ATOM      5  N   UNL     1       7.684  10.634  -1.443  1.00  0.00    -0.360 N 
ATOM      6  N   UNL     1       8.107   9.359   0.317  1.00  0.00    -0.360 N 
ATOM      7  C   UNL     1      10.093  12.329   1.503  1.00  0.00     0.271 A 
ATOM      8  C   UNL     1       7.930   9.333  -1.090  1.00  0.00     0.205 C 
ATOM      9  C   UNL     1       9.522  11.024   1.616  1.00  0.00     0.113 A 
ATOM     10  H   UNL     1       7.045  11.010  -2.158  1.00  0.00     0.163 HD
ATOM     11  H   UNL     1       7.789   8.662   1.004  1.00  0.00     0.163 HD
ENDROOT
BRANCH   8  12
ATOM     12  C   UNL     1       6.981   8.217  -1.609  1.00  0.00    -0.003 A 
ATOM     13  C   UNL     1       4.644   7.526  -2.050  1.00  0.00     0.042 A 
ATOM     14  C   UNL     1       5.708   8.513  -2.145  1.00  0.00     0.028 A 
ATOM     15  C   UNL     1       5.047   6.118  -1.970  1.00  0.00     0.041 A 
ATOM     16  C   UNL     1       6.470   5.859  -1.776  1.00  0.00     0.042 A 
ATOM     17  C   UNL     1       7.415   6.855  -1.427  1.00  0.00     0.028 A 
ATOM     18  Cl  UNL     1       3.130   7.778  -2.322  1.00  0.00    -0.084 Cl
ATOM     19  Cl  UNL     1       6.966   4.227  -1.892  1.00  0.00    -0.084 Cl
ENDBRANCH   8  12
BRANCH   7  20
ATOM     20  N   UNL     1      10.849  12.766   2.572  1.00  0.00     0.062 N 
ATOM     21  O   UNL     1      10.461  13.640   3.255  1.00  0.00    -0.258 OA
ATOM     22  O   UNL     1      11.889  12.119   3.024  1.00  0.00    -0.258 OA
ENDBRANCH   7  20
TORSDOF 2
ENDMDL
MODEL 8
REMARK VINA RESULT:    -4.202      2.911      4.216
REMARK INTER + INTRA:          -5.008
REMARK INTER:                  -4.704
REMARK INTRA:                  -0.304
REMARK UNBOUND:                -0.315
REMARK SMILES O=[N+]([O-])c1ccc2c(c1)N[C@@H](c1cc(Cl)cc(Cl)c1)N2
REMARK SMILES IDX 7 1 8 2 5 3 6 4 20 5 10 6 4 7 11 8 9 9 12 12 14 13 13 14
REMARK SMILES IDX 16 15 17 16 19 17 15 18 18 19 2 20 3 21 1 22
REMARK H PARENT 20 10 10 11
ROOT
ATOM      1  C   UNL     1       9.241   9.629  -4.927  1.00  0.00     0.060 A 
ATOM      2  C   UNL     1       8.238   9.349  -5.823  1.00  0.00     0.066 A 
ATOM      3  C   UNL     1      10.346  11.000  -6.492  1.00  0.00     0.088 A 
ATOM      4  C   UNL     1      10.117  10.585  -5.152  1.00  0.00     0.035 A 
ATOM      5  N   UNL     1       8.975   8.940  -3.680  1.00  0.00    -0.360 N 
ATOM      6  N   UNL     1       7.347   8.531  -5.123  1.00  0.00    -0.360 N 
ATOM      7  C   UNL     1       9.426  10.619  -7.466  1.00  0.00     0.271 A 
ATOM      8  C   UNL     1       7.614   8.794  -3.756  1.00  0.00     0.205 C 
ATOM      9  C   UNL     1       8.321   9.786  -7.107  1.00  0.00     0.113 A 
ATOM     10  H   UNL     1       9.627   8.643  -2.940  1.00  0.00     0.163 HD
ATOM     11  H   UNL     1       6.650   7.881  -5.514  1.00  0.00     0.163 HD
ENDROOT
BRANCH   8  12
ATOM     12  C   UNL     1       6.900   7.843  -2.755  1.00  0.00    -0.003 A 
ATOM     13  C   UNL     1       6.898   5.630  -1.643  1.00  0.00     0.042 A 
ATOM     14  C   UNL     1       7.601   6.833  -2.058  1.00  0.00     0.028 A 
ATOM     15  C   UNL     1       5.453   5.748  -1.416  1.00  0.00     0.041 A 
ATOM     16  C   UNL     1       4.829   6.998  -1.834  1.00  0.00     0.042 A 
ATOM     17  C   UNL     1       5.469   7.970  -2.643  1.00  0.00     0.028 A 
ATOM     18  Cl  UNL     1       7.555   4.314  -1.129  1.00  0.00    -0.084 Cl
ATOM     19  Cl  UNL     1       3.195   7.218  -1.383  1.00  0.00    -0.084 Cl
ENDBRANCH   8  12
BRANCH   7  20
ATOM     20  N   UNL     1       9.451  11.082  -8.766  1.00  0.00     0.062 N 
ATOM     21  O   UNL     1       8.606  11.800  -9.156  1.00  0.00    -0.258 OA
ATOM     22  O   UNL     1      10.487  10.956  -9.550  1.00  0.00    -0.258 OA
ENDBRANCH   7  20
TORSDOF 2
ENDMDL
MODEL 9
REMARK VINA RESULT:    -4.036      3.963      5.752
REMARK INTER + INTRA:          -4.822
REMARK INTER:                  -4.511
REMARK INTRA:                  -0.311
REMARK UNBOUND:                -0.315
REMARK SMILES O=[N+]([O-])c1ccc2c(c1)N[C@@H](c1cc(Cl)cc(Cl)c1)N2
REMARK SMILES IDX 7 1 8 2 5 3 6 4 20 5 10 6 4 7 11 8 9 9 12 12 14 13 13 14
REMARK SMILES IDX 16 15 17 16 19 17 15 18 18 19 2 20 3 21 1 22
REMARK H PARENT 20 10 10 11
ROOT
ATOM      1  C   UNL     1       8.788  10.360  -6.855  1.00  0.00     0.060 A 
ATOM      2  C   UNL     1       9.893  10.803  -6.167  1.00  0.00     0.066 A 
ATOM      3  C   UNL     1       9.636  11.197  -8.887  1.00  0.00     0.088 A 
ATOM      4  C   UNL     1       8.760  10.337  -8.170  1.00  0.00     0.035 A 
ATOM      5  N   UNL     1       7.882   9.704  -5.932  1.00  0.00    -0.360 N 
ATOM      6  N   UNL     1       9.686  10.390  -4.848  1.00  0.00    -0.360 N 
ATOM      7  C   UNL     1      10.693  11.785  -8.197  1.00  0.00     0.271 A 
ATOM      8  C   UNL     1       8.754   9.326  -4.945  1.00  0.00     0.205 C 
ATOM      9  C   UNL     1      10.836  11.554  -6.793  1.00  0.00     0.113 A 
ATOM     10  H   UNL     1       6.864   9.561  -6.000  1.00  0.00     0.163 HD
ATOM     11  H   UNL     1      10.116  10.774  -3.995  1.00  0.00     0.163 HD
ENDROOT
BRANCH   8  12
ATOM     12  C   UNL     1       8.186   8.828  -3.586  1.00  0.00    -0.003 A 
ATOM     13  C   UNL     1       6.495   7.432  -2.436  1.00  0.00     0.042 A 
ATOM     14  C   UNL     1       7.502   7.597  -3.471  1.00  0.00     0.028 A 
ATOM     15  C   UNL     1       6.638   8.255  -1.230  1.00  0.00     0.041 A 
ATOM     16  C   UNL     1       7.646   9.309  -1.278  1.00  0.00     0.042 A 
ATOM     17  C   UNL     1       8.298   9.726  -2.465  1.00  0.00     0.028 A 
ATOM     18  Cl  UNL     1       5.459   6.271  -2.340  1.00  0.00    -0.084 Cl
ATOM     19  Cl  UNL     1       7.956  10.127   0.190  1.00  0.00    -0.084 Cl
ENDBRANCH   8  12
BRANCH   7  20
ATOM     20  N   UNL     1      11.695  12.512  -8.807  1.00  0.00     0.062 N 
ATOM     21  O   UNL     1      12.062  13.526  -8.338  1.00  0.00    -0.258 OA
ATOM     22  O   UNL     1      12.437  12.039  -9.771  1.00  0.00    -0.258 OA
ENDBRANCH   7  20
TORSDOF 2
ENDMDL
