MODEL 1
REMARK VINA RESULT:    -4.542      0.000      0.000
REMARK INTER + INTRA:          -5.389
REMARK INTER:                  -5.074
REMARK INTRA:                  -0.315
REMARK UNBOUND:                -0.315
REMARK SMILES O=[N+]([O-])c1ccc2c(c1)N[C@@H](c1cc(Cl)cc(Cl)c1)N2
REMARK SMILES IDX 7 1 8 2 5 3 6 4 20 5 10 6 4 7 11 8 9 9 12 12 14 13 13 14
REMARK SMILES IDX 16 15 17 16 19 17 15 18 18 19 2 20 3 21 1 22
REMARK H PARENT 20 10 10 11
ROOT
ATOM      1  C   UNL     1       7.584  -9.708   0.748  1.00  0.00     0.060 A 
ATOM      2  C   UNL     1       8.132  -9.111   1.858  1.00  0.00     0.066 A 
ATOM      3  C   UNL     1       9.033 -11.555   0.946  1.00  0.00     0.088 A 
ATOM      4  C   UNL     1       7.843 -10.962   0.444  1.00  0.00     0.035 A 
ATOM      5  N   UNL     1       6.533  -8.861   0.219  1.00  0.00    -0.360 N 
ATOM      6  N   UNL     1       7.401  -7.932   2.031  1.00  0.00    -0.360 N 
ATOM      7  C   UNL     1       9.705 -10.909   1.981  1.00  0.00     0.271 A 
ATOM      8  C   UNL     1       6.183  -8.158   1.342  1.00  0.00     0.205 C 
ATOM      9  C   UNL     1       9.217  -9.656   2.467  1.00  0.00     0.113 A 
ATOM     10  H   UNL     1       6.154  -8.804  -0.737  1.00  0.00     0.163 HD
ATOM     11  H   UNL     1       7.686  -7.086   2.545  1.00  0.00     0.163 HD
ENDROOT
BRANCH   8  12
ATOM     12  C   UNL     1       5.272  -6.908   1.196  1.00  0.00    -0.003 A 
ATOM     13  C   UNL     1       3.278  -5.914   0.114  1.00  0.00     0.042 A 
ATOM     14  C   UNL     1       3.915  -7.015   0.816  1.00  0.00     0.028 A 
ATOM     15  C   UNL     1       3.824  -4.571   0.346  1.00  0.00     0.041 A 
ATOM     16  C   UNL     1       5.079  -4.499   1.086  1.00  0.00     0.042 A 
ATOM     17  C   UNL     1       5.897  -5.621   1.366  1.00  0.00     0.028 A 
ATOM     18  Cl  UNL     1       1.904  -5.964  -0.621  1.00  0.00    -0.084 Cl
ATOM     19  Cl  UNL     1       5.604  -2.936   1.537  1.00  0.00    -0.084 Cl
ENDBRANCH   8  12
BRANCH   7  20
ATOM     20  N   UNL     1      10.779 -11.455   2.655  1.00  0.00     0.062 N 
ATOM     21  O   UNL     1      11.097 -11.033   3.705  1.00  0.00    -0.258 OA
ATOM     22  O   UNL     1      11.348 -12.576   2.305  1.00  0.00    -0.258 OA
ENDBRANCH   7  20
TORSDOF 2
ENDMDL
MODEL 2
REMARK VINA RESULT:    -4.526      1.120      2.729
REMARK INTER + INTRA:          -5.370
REMARK INTER:                  -5.055
REMARK INTRA:                  -0.315
REMARK UNBOUND:                -0.315
REMARK SMILES O=[N+]([O-])c1ccc2c(c1)N[C@@H](c1cc(Cl)cc(Cl)c1)N2
REMARK SMILES IDX 7 1 8 2 5 3 6 4 20 5 10 6 4 7 11 8 9 9 12 12 14 13 13 14
REMARK SMILES IDX 16 15 17 16 19 17 15 18 18 19 2 20 3 21 1 22
REMARK H PARENT 20 10 10 11
ROOT
ATOM      1  C   UNL     1       8.345  -8.901   1.967  1.00  0.00     0.060 A 
ATOM      2  C   UNL     1       7.834  -9.560   0.875  1.00  0.00     0.066 A 
ATOM      3  C   UNL     1       9.854 -10.656   2.404  1.00  0.00     0.088 A 
ATOM      4  C   UNL     1       9.450  -9.302   2.558  1.00  0.00     0.035 A 
ATOM      5  N   UNL     1       7.663  -7.631   2.121  1.00  0.00    -0.360 N 
ATOM      6  N   UNL     1       6.878  -8.691   0.343  1.00  0.00    -0.360 N 
ATOM      7  C   UNL     1       9.258 -11.411   1.396  1.00  0.00     0.271 A 
ATOM      8  C   UNL     1       7.240  -7.412   0.836  1.00  0.00     0.205 C 
ATOM      9  C   UNL     1       8.231 -10.828   0.590  1.00  0.00     0.113 A 
ATOM     10  H   UNL     1       7.533  -7.052   2.963  1.00  0.00     0.163 HD
ATOM     11  H   UNL     1       6.086  -8.927  -0.271  1.00  0.00     0.163 HD
ENDROOT
BRANCH   8  12
ATOM     12  C   UNL     1       6.202  -6.288   0.564  1.00  0.00    -0.003 A 
ATOM     13  C   UNL     1       5.486  -3.968   1.053  1.00  0.00     0.042 A 
ATOM     14  C   UNL     1       6.529  -4.920   0.710  1.00  0.00     0.028 A 
ATOM     15  C   UNL     1       4.115  -4.310   0.658  1.00  0.00     0.041 A 
ATOM     16  C   UNL     1       3.902  -5.662   0.154  1.00  0.00     0.042 A 
ATOM     17  C   UNL     1       4.858  -6.703   0.254  1.00  0.00     0.028 A 
ATOM     18  Cl  UNL     1       5.704  -2.499   1.527  1.00  0.00    -0.084 Cl
ATOM     19  Cl  UNL     1       2.357  -5.992  -0.499  1.00  0.00    -0.084 Cl
ENDBRANCH   8  12
BRANCH   7  20
ATOM     20  N   UNL     1       9.668 -12.682   1.048  1.00  0.00     0.062 N 
ATOM     21  O   UNL     1       9.396 -13.124  -0.007  1.00  0.00    -0.258 OA
ATOM     22  O   UNL     1      10.545 -13.364   1.734  1.00  0.00    -0.258 OA
ENDBRANCH   7  20
TORSDOF 2
ENDMDL
MODEL 3
REMARK VINA RESULT:    -4.223      0.733      2.139
REMARK INTER + INTRA:          -5.032
REMARK INTER:                  -4.732
REMARK INTRA:                  -0.300
REMARK UNBOUND:                -0.315
REMARK SMILES O=[N+]([O-])c1ccc2c(c1)N[C@@H](c1cc(Cl)cc(Cl)c1)N2
REMARK SMILES IDX 7 1 8 2 5 3 6 4 20 5 10 6 4 7 11 8 9 9 12 12 14 13 13 14
REMARK SMILES IDX 16 15 17 16 19 17 15 18 18 19 2 20 3 21 1 22
REMARK H PARENT 20 10 10 11
ROOT
ATOM      1  C   UNL     1       8.151  -9.493   1.097  1.00  0.00     0.060 A 
ATOM      2  C   UNL     1       8.533  -8.706   2.157  1.00  0.00     0.066 A 
ATOM      3  C   UNL     1       9.622 -11.210   1.758  1.00  0.00     0.088 A 
ATOM      4  C   UNL     1       8.488 -10.764   1.028  1.00  0.00     0.035 A 
ATOM      5  N   UNL     1       7.150  -8.793   0.318  1.00  0.00    -0.360 N 
ATOM      6  N   UNL     1       7.749  -7.554   2.052  1.00  0.00    -0.360 N 
ATOM      7  C   UNL     1      10.136 -10.380   2.752  1.00  0.00     0.271 A 
ATOM      8  C   UNL     1       6.636  -7.946   1.265  1.00  0.00     0.205 C 
ATOM      9  C   UNL     1       9.548  -9.095   2.972  1.00  0.00     0.113 A 
ATOM     10  H   UNL     1       6.894  -8.902  -0.674  1.00  0.00     0.163 HD
ATOM     11  H   UNL     1       7.938  -6.626   2.456  1.00  0.00     0.163 HD
ENDROOT
BRANCH   8  12
ATOM     12  C   UNL     1       5.711  -6.781   0.814  1.00  0.00    -0.003 A 
ATOM     13  C   UNL     1       5.177  -4.370   0.999  1.00  0.00     0.042 A 
ATOM     14  C   UNL     1       6.148  -5.437   0.821  1.00  0.00     0.028 A 
ATOM     15  C   UNL     1       3.800  -4.644   0.574  1.00  0.00     0.041 A 
ATOM     16  C   UNL     1       3.493  -6.025   0.215  1.00  0.00     0.042 A 
ATOM     17  C   UNL     1       4.351  -7.120   0.483  1.00  0.00     0.028 A 
ATOM     18  Cl  UNL     1       5.500  -2.878   1.315  1.00  0.00    -0.084 Cl
ATOM     19  Cl  UNL     1       1.955  -6.304  -0.477  1.00  0.00    -0.084 Cl
ENDBRANCH   8  12
BRANCH   7  20
ATOM     20  N   UNL     1      11.132 -10.760   3.628  1.00  0.00     0.062 N 
ATOM     21  O   UNL     1      11.366 -10.109   4.578  1.00  0.00    -0.258 OA
ATOM     22  O   UNL     1      11.701 -11.934   3.598  1.00  0.00    -0.258 OA
ENDBRANCH   7  20
TORSDOF 2
ENDMDL
MODEL 4
REMARK VINA RESULT:    -4.210     10.841     11.614
REMARK INTER + INTRA:          -5.018
REMARK INTER:                  -4.722
REMARK INTRA:                  -0.296
REMARK UNBOUND:                -0.315
REMARK SMILES O=[N+]([O-])c1ccc2c(c1)N[C@@H](c1cc(Cl)cc(Cl)c1)N2
REMARK SMILES IDX 7 1 8 2 5 3 6 4 20 5 10 6 4 7 11 8 9 9 12 12 14 13 13 14
REMARK SMILES IDX 16 15 17 16 19 17 15 18 18 19 2 20 3 21 1 22
REMARK H PARENT 20 10 10 11
ROOT
ATOM      1  C   UNL     1      -0.209  -0.633   0.955  1.00  0.00     0.060 A 
ATOM      2  C   UNL     1       1.053  -0.133   1.172  1.00  0.00     0.066 A 
ATOM      3  C   UNL     1      -0.793  -0.323   3.216  1.00  0.00     0.088 A 
ATOM      4  C   UNL     1      -1.160  -0.515   1.856  1.00  0.00     0.035 A 
ATOM      5  N   UNL     1      -0.345  -0.998  -0.442  1.00  0.00    -0.360 N 
ATOM      6  N   UNL     1       1.670  -0.155  -0.082  1.00  0.00    -0.360 N 
ATOM      7  C   UNL     1       0.520   0.048   3.497  1.00  0.00     0.271 A 
ATOM      8  C   UNL     1       0.599  -0.183  -1.011  1.00  0.00     0.205 C 
ATOM      9  C   UNL     1       1.464   0.171   2.430  1.00  0.00     0.113 A 
ATOM     10  H   UNL     1      -0.977  -1.680  -0.885  1.00  0.00     0.163 HD
ATOM     11  H   UNL     1       2.680  -0.150  -0.285  1.00  0.00     0.163 HD
ENDROOT
BRANCH   8  12
ATOM     12  C   UNL     1       1.019  -0.431  -2.486  1.00  0.00    -0.003 A 
ATOM     13  C   UNL     1       2.648   0.061  -4.286  1.00  0.00     0.042 A 
ATOM     14  C   UNL     1       2.362  -0.307  -2.909  1.00  0.00     0.028 A 
ATOM     15  C   UNL     1       1.638  -0.287  -5.292  1.00  0.00     0.041 A 
ATOM     16  C   UNL     1       0.358  -0.772  -4.788  1.00  0.00     0.042 A 
ATOM     17  C   UNL     1      -0.037  -0.694  -3.430  1.00  0.00     0.028 A 
ATOM     18  Cl  UNL     1       4.029   0.515  -4.847  1.00  0.00    -0.084 Cl
ATOM     19  Cl  UNL     1      -0.737  -1.373  -5.955  1.00  0.00    -0.084 Cl
ENDBRANCH   8  12
BRANCH   7  20
ATOM     20  N   UNL     1       0.960   0.411   4.754  1.00  0.00     0.062 N 
ATOM     21  O   UNL     1       1.474   1.455   4.924  1.00  0.00    -0.258 OA
ATOM     22  O   UNL     1       0.644  -0.242   5.839  1.00  0.00    -0.258 OA
ENDBRANCH   7  20
TORSDOF 2
ENDMDL
MODEL 5
REMARK VINA RESULT:    -4.187      5.107      7.576
REMARK INTER + INTRA:          -4.992
REMARK INTER:                  -4.693
REMARK INTRA:                  -0.300
REMARK UNBOUND:                -0.315
REMARK SMILES O=[N+]([O-])c1ccc2c(c1)N[C@@H](c1cc(Cl)cc(Cl)c1)N2
REMARK SMILES IDX 7 1 8 2 5 3 6 4 20 5 10 6 4 7 11 8 9 9 12 12 14 13 13 14
REMARK SMILES IDX 16 15 17 16 19 17 15 18 18 19 2 20 3 21 1 22
REMARK H PARENT 20 10 10 11
ROOT
ATOM      1  C   UNL     1       6.336  -5.828   1.164  1.00  0.00     0.060 A 
ATOM      2  C   UNL     1       5.494  -6.594   0.394  1.00  0.00     0.066 A 
ATOM      3  C   UNL     1       4.826  -4.020   1.133  1.00  0.00     0.088 A 
ATOM      4  C   UNL     1       5.934  -4.700   1.708  1.00  0.00     0.035 A 
ATOM      5  N   UNL     1       7.527  -6.593   1.474  1.00  0.00    -0.360 N 
ATOM      6  N   UNL     1       6.142  -7.825   0.266  1.00  0.00    -0.360 N 
ATOM      7  C   UNL     1       4.022  -4.715   0.233  1.00  0.00     0.271 A 
ATOM      8  C   UNL     1       7.048  -7.871   1.355  1.00  0.00     0.205 C 
ATOM      9  C   UNL     1       4.358  -6.058  -0.125  1.00  0.00     0.113 A 
ATOM     10  H   UNL     1       8.473  -6.266   1.718  1.00  0.00     0.163 HD
ATOM     11  H   UNL     1       5.994  -8.541  -0.460  1.00  0.00     0.163 HD
ENDROOT
BRANCH   8  12
ATOM     12  C   UNL     1       8.055  -9.055   1.320  1.00  0.00    -0.003 A 
ATOM     13  C   UNL     1       8.519 -11.356   0.531  1.00  0.00     0.042 A 
ATOM     14  C   UNL     1       8.053 -10.003   0.273  1.00  0.00     0.028 A 
ATOM     15  C   UNL     1       9.491 -11.530   1.616  1.00  0.00     0.041 A 
ATOM     16  C   UNL     1       9.732 -10.368   2.465  1.00  0.00     0.042 A 
ATOM     17  C   UNL     1       8.927  -9.202   2.457  1.00  0.00     0.028 A 
ATOM     18  Cl  UNL     1       8.325 -12.588  -0.404  1.00  0.00    -0.084 Cl
ATOM     19  Cl  UNL     1      11.011 -10.505   3.591  1.00  0.00    -0.084 Cl
ENDBRANCH   8  12
BRANCH   7  20
ATOM     20  N   UNL     1       2.838  -4.220  -0.275  1.00  0.00     0.062 N 
ATOM     21  O   UNL     1       2.587  -3.075  -0.188  1.00  0.00    -0.258 OA
ATOM     22  O   UNL     1       2.052  -4.909  -1.058  1.00  0.00    -0.258 OA
ENDBRANCH   7  20
TORSDOF 2
ENDMDL
MODEL 6
REMARK VINA RESULT:    -4.162      1.433      2.072
REMARK INTER + INTRA:          -4.964
REMARK INTER:                  -4.665
REMARK INTRA:                  -0.299
REMARK UNBOUND:                -0.315
REMARK SMILES O=[N+]([O-])c1ccc2c(c1)N[C@@H](c1cc(Cl)cc(Cl)c1)N2
REMARK SMILES IDX 7 1 8 2 5 3 6 4 20 5 10 6 4 7 11 8 9 9 12 12 14 13 13 14
REMARK SMILES IDX 16 15 17 16 19 17 15 18 18 19 2 20 3 21 1 22
REMARK H PARENT 20 10 10 11
ROOT
ATOM      1  C   UNL     1       8.096  -9.411   1.750  1.00  0.00     0.060 A 
ATOM      2  C   UNL     1       7.453  -9.880   0.630  1.00  0.00     0.066 A 
ATOM      3  C   UNL     1       9.577 -11.244   1.747  1.00  0.00     0.088 A 
ATOM      4  C   UNL     1       9.240  -9.923   2.151  1.00  0.00     0.035 A 
ATOM      5  N   UNL     1       7.480  -8.168   2.171  1.00  0.00    -0.360 N 
ATOM      6  N   UNL     1       6.480  -8.918   0.344  1.00  0.00    -0.360 N 
ATOM      7  C   UNL     1       8.854 -11.818   0.704  1.00  0.00     0.271 A 
ATOM      8  C   UNL     1       6.937  -7.740   0.987  1.00  0.00     0.205 C 
ATOM      9  C   UNL     1       7.772 -11.094   0.111  1.00  0.00     0.113 A 
ATOM     10  H   UNL     1       7.457  -7.727   3.101  1.00  0.00     0.163 HD
ATOM     11  H   UNL     1       5.622  -9.038  -0.212  1.00  0.00     0.163 HD
ENDROOT
BRANCH   8  12
ATOM     12  C   UNL     1       5.918  -6.567   1.005  1.00  0.00    -0.003 A 
ATOM     13  C   UNL     1       3.740  -5.703   0.203  1.00  0.00     0.042 A 
ATOM     14  C   UNL     1       4.539  -6.774   0.775  1.00  0.00     0.028 A 
ATOM     15  C   UNL     1       4.201  -4.330   0.438  1.00  0.00     0.041 A 
ATOM     16  C   UNL     1       5.523  -4.180   1.035  1.00  0.00     0.042 A 
ATOM     17  C   UNL     1       6.455  -5.240   1.167  1.00  0.00     0.028 A 
ATOM     18  Cl  UNL     1       2.299  -5.841  -0.375  1.00  0.00    -0.084 Cl
ATOM     19  Cl  UNL     1       5.971  -2.598   1.499  1.00  0.00    -0.084 Cl
ENDBRANCH   8  12
BRANCH   7  20
ATOM     20  N   UNL     1       9.180 -13.025   0.121  1.00  0.00     0.062 N 
ATOM     21  O   UNL     1      10.004 -13.712   0.601  1.00  0.00    -0.258 OA
ATOM     22  O   UNL     1       8.471 -13.578  -0.826  1.00  0.00    -0.258 OA
ENDBRANCH   7  20
TORSDOF 2
ENDMDL
MODEL 7
REMARK VINA RESULT:    -4.138      4.970      7.632
REMARK INTER + INTRA:          -4.937
REMARK INTER:                  -4.638
REMARK INTRA:                  -0.299
REMARK UNBOUND:                -0.315
REMARK SMILES O=[N+]([O-])c1ccc2c(c1)N[C@@H](c1cc(Cl)cc(Cl)c1)N2
REMARK SMILES IDX 7 1 8 2 5 3 6 4 20 5 10 6 4 7 11 8 9 9 12 12 14 13 13 14
REMARK SMILES IDX 16 15 17 16 19 17 15 18 18 19 2 20 3 21 1 22
REMARK H PARENT 20 10 10 11
ROOT
ATOM      1  C   UNL     1       5.046  -7.064   0.518  1.00  0.00     0.060 A 
ATOM      2  C   UNL     1       5.792  -6.244   1.331  1.00  0.00     0.066 A 
ATOM      3  C   UNL     1       3.644  -5.277  -0.107  1.00  0.00     0.088 A 
ATOM      4  C   UNL     1       4.176  -6.574  -0.339  1.00  0.00     0.035 A 
ATOM      5  N   UNL     1       5.583  -8.409   0.573  1.00  0.00    -0.360 N 
ATOM      6  N   UNL     1       6.797  -7.067   1.848  1.00  0.00    -0.360 N 
ATOM      7  C   UNL     1       4.287  -4.457   0.818  1.00  0.00     0.271 A 
ATOM      8  C   UNL     1       6.878  -8.152   0.939  1.00  0.00     0.205 C 
ATOM      9  C   UNL     1       5.416  -4.956   1.539  1.00  0.00     0.113 A 
ATOM     10  H   UNL     1       5.119  -9.310   0.389  1.00  0.00     0.163 HD
ATOM     11  H   UNL     1       7.355  -6.917   2.701  1.00  0.00     0.163 HD
ENDROOT
BRANCH   8  12
ATOM     12  C   UNL     1       7.780  -9.329   1.404  1.00  0.00    -0.003 A 
ATOM     13  C   UNL     1       9.735 -10.033   2.751  1.00  0.00     0.042 A 
ATOM     14  C   UNL     1       8.497  -9.283   2.620  1.00  0.00     0.028 A 
ATOM     15  C   UNL     1       9.882 -11.227   1.910  1.00  0.00     0.041 A 
ATOM     16  C   UNL     1       8.871 -11.423   0.876  1.00  0.00     0.042 A 
ATOM     17  C   UNL     1       7.933 -10.433   0.490  1.00  0.00     0.028 A 
ATOM     18  Cl  UNL     1      10.787  -9.879   3.890  1.00  0.00    -0.084 Cl
ATOM     19  Cl  UNL     1       8.921 -12.912   0.039  1.00  0.00    -0.084 Cl
ENDBRANCH   8  12
BRANCH   7  20
ATOM     20  N   UNL     1       3.963  -3.131   1.019  1.00  0.00     0.062 N 
ATOM     21  O   UNL     1       2.916  -2.717   0.680  1.00  0.00    -0.258 OA
ATOM     22  O   UNL     1       4.665  -2.330   1.774  1.00  0.00    -0.258 OA
ENDBRANCH   7  20
TORSDOF 2
ENDMDL
MODEL 8
REMARK VINA RESULT:    -4.081      3.239      4.648
REMARK INTER + INTRA:          -4.873
REMARK INTER:                  -4.569
REMARK INTRA:                  -0.304
REMARK UNBOUND:                -0.315
REMARK SMILES O=[N+]([O-])c1ccc2c(c1)N[C@@H](c1cc(Cl)cc(Cl)c1)N2
REMARK SMILES IDX 7 1 8 2 5 3 6 4 20 5 10 6 4 7 11 8 9 9 12 12 14 13 13 14
REMARK SMILES IDX 16 15 17 16 19 17 15 18 18 19 2 20 3 21 1 22
REMARK H PARENT 20 10 10 11
ROOT
ATOM      1  C   UNL     1      10.979 -10.164   3.789  1.00  0.00     0.060 A 
ATOM      2  C   UNL     1      10.190  -9.730   4.828  1.00  0.00     0.066 A 
ATOM      3  C   UNL     1      12.455 -11.243   5.275  1.00  0.00     0.088 A 
ATOM      4  C   UNL     1      11.919 -11.067   3.970  1.00  0.00     0.035 A 
ATOM      5  N   UNL     1      10.416  -9.702   2.536  1.00  0.00    -0.360 N 
ATOM      6  N   UNL     1       9.136  -9.045   4.218  1.00  0.00    -0.360 N 
ATOM      7  C   UNL     1      11.761 -10.696   6.352  1.00  0.00     0.271 A 
ATOM      8  C   UNL     1       9.102  -9.543   2.891  1.00  0.00     0.205 C 
ATOM      9  C   UNL     1      10.573  -9.936   6.115  1.00  0.00     0.113 A 
ATOM     10  H   UNL     1      10.875  -9.540   1.629  1.00  0.00     0.163 HD
ATOM     11  H   UNL     1       8.520  -8.336   4.640  1.00  0.00     0.163 HD
ENDROOT
BRANCH   8  12
ATOM     12  C   UNL     1       8.148  -8.780   1.930  1.00  0.00    -0.003 A 
ATOM     13  C   UNL     1       7.860  -6.866   0.386  1.00  0.00     0.042 A 
ATOM     14  C   UNL     1       8.637  -7.999   0.859  1.00  0.00     0.028 A 
ATOM     15  C   UNL     1       6.408  -6.921   0.590  1.00  0.00     0.041 A 
ATOM     16  C   UNL     1       5.911  -8.002   1.434  1.00  0.00     0.042 A 
ATOM     17  C   UNL     1       6.741  -8.822   2.239  1.00  0.00     0.028 A 
ATOM     18  Cl  UNL     1       8.363  -5.743  -0.572  1.00  0.00    -0.084 Cl
ATOM     19  Cl  UNL     1       4.214  -8.192   1.502  1.00  0.00    -0.084 Cl
ENDBRANCH   8  12
BRANCH   7  20
ATOM     20  N   UNL     1      12.093 -10.925   7.672  1.00  0.00     0.062 N 
ATOM     21  O   UNL     1      12.995 -10.354   8.164  1.00  0.00    -0.258 OA
ATOM     22  O   UNL     1      11.326 -11.583   8.498  1.00  0.00    -0.258 OA
ENDBRANCH   7  20
TORSDOF 2
ENDMDL
MODEL 9
REMARK VINA RESULT:    -4.036      3.769      4.837
REMARK INTER + INTRA:          -4.824
REMARK INTER:                  -4.520
REMARK INTRA:                  -0.304
REMARK UNBOUND:                -0.315
REMARK SMILES O=[N+]([O-])c1ccc2c(c1)N[C@@H](c1cc(Cl)cc(Cl)c1)N2
REMARK SMILES IDX 7 1 8 2 5 3 6 4 20 5 10 6 4 7 11 8 9 9 12 12 14 13 13 14
REMARK SMILES IDX 16 15 17 16 19 17 15 18 18 19 2 20 3 21 1 22
REMARK H PARENT 20 10 10 11
ROOT
ATOM      1  C   UNL     1       8.559 -12.842  -0.257  1.00  0.00     0.060 A 
ATOM      2  C   UNL     1       8.502 -12.223  -1.482  1.00  0.00     0.066 A 
ATOM      3  C   UNL     1       9.541 -14.764  -1.201  1.00  0.00     0.088 A 
ATOM      4  C   UNL     1       9.254 -13.945  -0.076  1.00  0.00     0.035 A 
ATOM      5  N   UNL     1       8.014 -11.957   0.753  1.00  0.00    -0.360 N 
ATOM      6  N   UNL     1       7.965 -10.959  -1.223  1.00  0.00    -0.360 N 
ATOM      7  C   UNL     1       9.361 -14.224  -2.473  1.00  0.00     0.271 A 
ATOM      8  C   UNL     1       8.211 -10.739   0.156  1.00  0.00     0.205 C 
ATOM      9  C   UNL     1       8.848 -12.896  -2.610  1.00  0.00     0.113 A 
ATOM     10  H   UNL     1       7.595 -12.180   1.667  1.00  0.00     0.163 HD
ATOM     11  H   UNL     1       7.495 -10.327  -1.886  1.00  0.00     0.163 HD
ENDROOT
BRANCH   8  12
ATOM     12  C   UNL     1       7.515  -9.484   0.754  1.00  0.00    -0.003 A 
ATOM     13  C   UNL     1       5.465  -8.545   1.778  1.00  0.00     0.042 A 
ATOM     14  C   UNL     1       6.471  -9.592   1.700  1.00  0.00     0.028 A 
ATOM     15  C   UNL     1       5.867  -7.201   1.346  1.00  0.00     0.041 A 
ATOM     16  C   UNL     1       7.161  -7.093   0.681  1.00  0.00     0.042 A 
ATOM     17  C   UNL     1       7.911  -8.204   0.224  1.00  0.00     0.028 A 
ATOM     18  Cl  UNL     1       4.110  -8.628   2.544  1.00  0.00    -0.084 Cl
ATOM     19  Cl  UNL     1       7.720  -5.508   0.366  1.00  0.00    -0.084 Cl
ENDBRANCH   8  12
BRANCH   7  20
ATOM     20  N   UNL     1       9.746 -14.859  -3.636  1.00  0.00     0.062 N 
ATOM     21  O   UNL     1       8.967 -15.483  -4.257  1.00  0.00    -0.258 OA
ATOM     22  O   UNL     1      10.887 -14.635  -4.229  1.00  0.00    -0.258 OA
ENDBRANCH   7  20
TORSDOF 2
ENDMDL
