MODEL 1
REMARK VINA RESULT:    -5.638      0.000      0.000
REMARK INTER + INTRA:          -8.329
REMARK INTER:                  -7.780
REMARK INTRA:                  -0.548
REMARK UNBOUND:                -0.548
REMARK SMILES Cc1n[nH]c(C)c1CCCOc1cc(C(=O)O)ccc1F
REMARK SMILES IDX 11 1 12 2 14 3 18 4 13 5 19 6 20 7 21 8 15 9 16 10 17 11
REMARK SMILES IDX 10 13 9 14 8 15 7 16 5 17 2 18 4 19 3 20 6 21 1 22
REMARK H PARENT 17 12 4 23
ROOT
ATOM      1  O   UNL     1       4.441   0.138   5.099  1.00  0.00    -0.490 OA
ENDROOT
BRANCH   1   2
ATOM      2  C   UNL     1       3.565  -0.687   4.467  1.00  0.00     0.155 A 
ATOM      3  C   UNL     1       2.965  -2.871   3.659  1.00  0.00     0.063 A 
ATOM      4  C   UNL     1       1.756  -2.358   3.181  1.00  0.00     0.019 A 
ATOM      5  C   UNL     1       3.870  -2.026   4.304  1.00  0.00     0.065 A 
ATOM      6  C   UNL     1       1.458  -1.023   3.354  1.00  0.00     0.044 A 
ATOM      7  C   UNL     1       2.355  -0.187   3.998  1.00  0.00     0.165 A 
ATOM      8  F   UNL     1       2.057   1.120   4.164  1.00  0.00    -0.203 F 
BRANCH   3   9
ATOM      9  C   UNL     1       3.287  -4.300   3.476  1.00  0.00     0.335 C 
ATOM     10  O   UNL     1       4.439  -4.676   3.536  1.00  0.00    -0.246 OA
BRANCH   9  11
ATOM     11  O   UNL     1       2.299  -5.189   3.250  1.00  0.00    -0.478 OA
ATOM     12  H   UNL     1       1.954  -5.242   2.348  1.00  0.00     0.297 HD
ENDBRANCH   9  11
ENDBRANCH   3   9
ENDBRANCH   1   2
BRANCH   1  13
ATOM     13  C   UNL     1       4.054   0.633   6.383  1.00  0.00     0.230 C 
BRANCH  13  14
ATOM     14  C   UNL     1       5.012   0.095   7.447  1.00  0.00     0.046 C 
BRANCH  14  15
ATOM     15  C   UNL     1       4.358  -1.082   8.174  1.00  0.00     0.043 C 
BRANCH  15  16
ATOM     16  C   UNL     1       4.949  -1.213   9.554  1.00  0.00    -0.004 A 
ATOM     17  C   UNL     1       6.107  -1.841   9.867  1.00  0.00     0.036 A 
ATOM     18  C   UNL     1       4.403  -0.702  10.736  1.00  0.00     0.063 A 
ATOM     19  N   UNL     1       6.283  -1.736  11.201  1.00  0.00    -0.282 N 
ATOM     20  N   UNL     1       5.198  -1.021  11.725  1.00  0.00    -0.181 NA
ATOM     21  C   UNL     1       7.032  -2.532   8.900  1.00  0.00     0.066 C 
ATOM     22  C   UNL     1       3.115   0.072  10.852  1.00  0.00     0.069 C 
ATOM     23  H   UNL     1       7.028  -2.094  11.708  1.00  0.00     0.190 HD
ENDBRANCH  15  16
ENDBRANCH  14  15
ENDBRANCH  13  14
ENDBRANCH   1  13
TORSDOF 7
ENDMDL
MODEL 2
REMARK VINA RESULT:    -5.637      2.255      3.871
REMARK INTER + INTRA:          -8.327
REMARK INTER:                  -7.712
REMARK INTRA:                  -0.615
REMARK UNBOUND:                -0.548
REMARK SMILES Cc1n[nH]c(C)c1CCCOc1cc(C(=O)O)ccc1F
REMARK SMILES IDX 11 1 12 2 14 3 18 4 13 5 19 6 20 7 21 8 15 9 16 10 17 11
REMARK SMILES IDX 10 13 9 14 8 15 7 16 5 17 2 18 4 19 3 20 6 21 1 22
REMARK H PARENT 17 12 4 23
ROOT
ATOM      1  O   UNL     1       2.179  -3.574   6.502  1.00  0.00    -0.490 OA
ENDROOT
BRANCH   1   2
ATOM      2  C   UNL     1       2.161  -2.887   5.329  1.00  0.00     0.155 A 
ATOM      3  C   UNL     1       1.758  -0.857   4.104  1.00  0.00     0.063 A 
ATOM      4  C   UNL     1       2.140  -1.499   2.923  1.00  0.00     0.019 A 
ATOM      5  C   UNL     1       1.771  -1.561   5.310  1.00  0.00     0.065 A 
ATOM      6  C   UNL     1       2.533  -2.820   2.953  1.00  0.00     0.044 A 
ATOM      7  C   UNL     1       2.550  -3.514   4.151  1.00  0.00     0.165 A 
ATOM      8  F   UNL     1       2.936  -4.809   4.173  1.00  0.00    -0.203 F 
BRANCH   3   9
ATOM      9  C   UNL     1       1.337   0.557   4.076  1.00  0.00     0.335 C 
ATOM     10  O   UNL     1       0.628   0.998   4.957  1.00  0.00    -0.246 OA
BRANCH   9  11
ATOM     11  O   UNL     1       1.746   1.362   3.075  1.00  0.00    -0.478 OA
ATOM     12  H   UNL     1       1.918   0.945   2.219  1.00  0.00     0.297 HD
ENDBRANCH   9  11
ENDBRANCH   3   9
ENDBRANCH   1   2
BRANCH   1  13
ATOM     13  C   UNL     1       3.462  -3.878   7.056  1.00  0.00     0.230 C 
BRANCH  13  14
ATOM     14  C   UNL     1       3.596  -3.211   8.426  1.00  0.00     0.046 C 
BRANCH  14  15
ATOM     15  C   UNL     1       4.430  -1.935   8.293  1.00  0.00     0.043 C 
BRANCH  15  16
ATOM     16  C   UNL     1       5.133  -1.655   9.596  1.00  0.00    -0.004 A 
ATOM     17  C   UNL     1       4.632  -0.947  10.635  1.00  0.00     0.036 A 
ATOM     18  C   UNL     1       6.416  -2.086   9.948  1.00  0.00     0.063 A 
ATOM     19  N   UNL     1       5.568  -0.925  11.607  1.00  0.00    -0.282 N 
ATOM     20  N   UNL     1       6.680  -1.644  11.150  1.00  0.00    -0.181 NA
ATOM     21  C   UNL     1       3.273  -0.300  10.695  1.00  0.00     0.066 C 
ATOM     22  C   UNL     1       7.340  -2.908   9.086  1.00  0.00     0.069 C 
ATOM     23  H   UNL     1       5.485  -0.489  12.469  1.00  0.00     0.190 HD
ENDBRANCH  15  16
ENDBRANCH  14  15
ENDBRANCH  13  14
ENDBRANCH   1  13
TORSDOF 7
ENDMDL
MODEL 3
REMARK VINA RESULT:    -5.574      0.402      1.802
REMARK INTER + INTRA:          -8.241
REMARK INTER:                  -7.582
REMARK INTRA:                  -0.659
REMARK UNBOUND:                -0.548
REMARK SMILES Cc1n[nH]c(C)c1CCCOc1cc(C(=O)O)ccc1F
REMARK SMILES IDX 11 1 12 2 14 3 18 4 13 5 19 6 20 7 21 8 15 9 16 10 17 11
REMARK SMILES IDX 10 13 9 14 8 15 7 16 5 17 2 18 4 19 3 20 6 21 1 22
REMARK H PARENT 17 12 4 23
ROOT
ATOM      1  O   UNL     1       4.360  -0.012   5.410  1.00  0.00    -0.490 OA
ENDROOT
BRANCH   1   2
ATOM      2  C   UNL     1       3.530  -0.779   4.655  1.00  0.00     0.155 A 
ATOM      3  C   UNL     1       2.952  -2.906   3.693  1.00  0.00     0.063 A 
ATOM      4  C   UNL     1       1.815  -2.332   3.117  1.00  0.00     0.019 A 
ATOM      5  C   UNL     1       3.810  -2.120   4.464  1.00  0.00     0.065 A 
ATOM      6  C   UNL     1       1.541  -0.996   3.318  1.00  0.00     0.044 A 
ATOM      7  C   UNL     1       2.391  -0.219   4.088  1.00  0.00     0.165 A 
ATOM      8  F   UNL     1       2.116   1.090   4.280  1.00  0.00    -0.203 F 
BRANCH   3   9
ATOM      9  C   UNL     1       3.248  -4.336   3.481  1.00  0.00     0.335 C 
ATOM     10  O   UNL     1       4.398  -4.726   3.483  1.00  0.00    -0.246 OA
BRANCH   9  11
ATOM     11  O   UNL     1       2.241  -5.211   3.291  1.00  0.00    -0.478 OA
ATOM     12  H   UNL     1       1.962  -5.733   4.056  1.00  0.00     0.297 HD
ENDBRANCH   9  11
ENDBRANCH   3   9
ENDBRANCH   1   2
BRANCH   1  13
ATOM     13  C   UNL     1       3.967   0.232   6.763  1.00  0.00     0.230 C 
BRANCH  13  14
ATOM     14  C   UNL     1       5.040  -0.309   7.710  1.00  0.00     0.046 C 
BRANCH  14  15
ATOM     15  C   UNL     1       4.431  -1.391   8.605  1.00  0.00     0.043 C 
BRANCH  15  16
ATOM     16  C   UNL     1       4.940  -1.223  10.013  1.00  0.00    -0.004 A 
ATOM     17  C   UNL     1       4.309  -0.566  11.015  1.00  0.00     0.036 A 
ATOM     18  C   UNL     1       6.144  -1.723  10.519  1.00  0.00     0.063 A 
ATOM     19  N   UNL     1       5.090  -0.643  12.113  1.00  0.00    -0.282 N 
ATOM     20  N   UNL     1       6.239  -1.370  11.775  1.00  0.00    -0.181 NA
ATOM     21  C   UNL     1       2.974   0.125  10.921  1.00  0.00     0.066 C 
ATOM     22  C   UNL     1       7.164  -2.520   9.746  1.00  0.00     0.069 C 
ATOM     23  H   UNL     1       4.891  -0.261  12.982  1.00  0.00     0.190 HD
ENDBRANCH  15  16
ENDBRANCH  14  15
ENDBRANCH  13  14
ENDBRANCH   1  13
TORSDOF 7
ENDMDL
MODEL 4
REMARK VINA RESULT:    -5.547      2.246      3.441
REMARK INTER + INTRA:          -8.203
REMARK INTER:                  -7.554
REMARK INTRA:                  -0.649
REMARK UNBOUND:                -0.548
REMARK SMILES Cc1n[nH]c(C)c1CCCOc1cc(C(=O)O)ccc1F
REMARK SMILES IDX 11 1 12 2 14 3 18 4 13 5 19 6 20 7 21 8 15 9 16 10 17 11
REMARK SMILES IDX 10 13 9 14 8 15 7 16 5 17 2 18 4 19 3 20 6 21 1 22
REMARK H PARENT 17 12 4 23
ROOT
ATOM      1  O   UNL     1       2.184  -3.574   6.454  1.00  0.00    -0.490 OA
ENDROOT
BRANCH   1   2
ATOM      2  C   UNL     1       2.152  -2.875   5.289  1.00  0.00     0.155 A 
ATOM      3  C   UNL     1       1.741  -0.831   4.090  1.00  0.00     0.063 A 
ATOM      4  C   UNL     1       2.105  -1.461   2.897  1.00  0.00     0.019 A 
ATOM      5  C   UNL     1       1.767  -1.547   5.289  1.00  0.00     0.065 A 
ATOM      6  C   UNL     1       2.494  -2.784   2.908  1.00  0.00     0.044 A 
ATOM      7  C   UNL     1       2.523  -3.491   4.099  1.00  0.00     0.165 A 
ATOM      8  F   UNL     1       2.905  -4.787   4.102  1.00  0.00    -0.203 F 
BRANCH   3   9
ATOM      9  C   UNL     1       1.325   0.585   4.083  1.00  0.00     0.335 C 
ATOM     10  O   UNL     1       0.630   1.019   4.979  1.00  0.00    -0.246 OA
BRANCH   9  11
ATOM     11  O   UNL     1       1.722   1.398   3.084  1.00  0.00    -0.478 OA
ATOM     12  H   UNL     1       2.628   1.290   2.763  1.00  0.00     0.297 HD
ENDBRANCH   9  11
ENDBRANCH   3   9
ENDBRANCH   1   2
BRANCH   1  13
ATOM     13  C   UNL     1       3.470  -3.828   7.023  1.00  0.00     0.230 C 
BRANCH  13  14
ATOM     14  C   UNL     1       3.561  -3.161   8.397  1.00  0.00     0.046 C 
BRANCH  14  15
ATOM     15  C   UNL     1       4.451  -1.920   8.303  1.00  0.00     0.043 C 
BRANCH  15  16
ATOM     16  C   UNL     1       5.140  -1.694   9.624  1.00  0.00    -0.004 A 
ATOM     17  C   UNL     1       6.374  -2.134   9.964  1.00  0.00     0.036 A 
ATOM     18  C   UNL     1       4.620  -0.987  10.713  1.00  0.00     0.063 A 
ATOM     19  N   UNL     1       6.623  -1.725  11.226  1.00  0.00    -0.282 N 
ATOM     20  N   UNL     1       5.505  -1.011  11.676  1.00  0.00    -0.181 NA
ATOM     21  C   UNL     1       7.303  -2.935   9.090  1.00  0.00     0.066 C 
ATOM     22  C   UNL     1       3.268  -0.323  10.772  1.00  0.00     0.069 C 
ATOM     23  H   UNL     1       7.432  -1.897  11.732  1.00  0.00     0.190 HD
ENDBRANCH  15  16
ENDBRANCH  14  15
ENDBRANCH  13  14
ENDBRANCH   1  13
TORSDOF 7
ENDMDL
MODEL 5
REMARK VINA RESULT:    -4.721      3.932      7.029
REMARK INTER + INTRA:          -7.063
REMARK INTER:                  -6.209
REMARK INTRA:                  -0.854
REMARK UNBOUND:                -0.548
REMARK SMILES Cc1n[nH]c(C)c1CCCOc1cc(C(=O)O)ccc1F
REMARK SMILES IDX 11 1 12 2 14 3 18 4 13 5 19 6 20 7 21 8 15 9 16 10 17 11
REMARK SMILES IDX 10 13 9 14 8 15 7 16 5 17 2 18 4 19 3 20 6 21 1 22
REMARK H PARENT 17 12 4 23
ROOT
ATOM      1  O   UNL     1       4.668  -2.401   6.897  1.00  0.00    -0.490 OA
ENDROOT
BRANCH   1   2
ATOM      2  C   UNL     1       4.903  -2.010   8.178  1.00  0.00     0.155 A 
ATOM      3  C   UNL     1       4.173  -0.930  10.199  1.00  0.00     0.063 A 
ATOM      4  C   UNL     1       5.400  -1.229  10.797  1.00  0.00     0.019 A 
ATOM      5  C   UNL     1       3.929  -1.326   8.882  1.00  0.00     0.065 A 
ATOM      6  C   UNL     1       6.363  -1.916  10.089  1.00  0.00     0.044 A 
ATOM      7  C   UNL     1       6.117  -2.312   8.785  1.00  0.00     0.165 A 
ATOM      8  F   UNL     1       7.065  -2.986   8.096  1.00  0.00    -0.203 F 
BRANCH   3   9
ATOM      9  C   UNL     1       3.140  -0.195  10.954  1.00  0.00     0.335 C 
ATOM     10  O   UNL     1       3.088   1.016  10.891  1.00  0.00    -0.246 OA
BRANCH   9  11
ATOM     11  O   UNL     1       2.250  -0.869  11.709  1.00  0.00    -0.478 OA
ATOM     12  H   UNL     1       1.328  -0.859  11.415  1.00  0.00     0.297 HD
ENDBRANCH   9  11
ENDBRANCH   3   9
ENDBRANCH   1   2
BRANCH   1  13
ATOM     13  C   UNL     1       3.378  -2.948   6.613  1.00  0.00     0.230 C 
BRANCH  13  14
ATOM     14  C   UNL     1       3.233  -3.152   5.104  1.00  0.00     0.046 C 
BRANCH  14  15
ATOM     15  C   UNL     1       3.952  -2.021   4.365  1.00  0.00     0.043 C 
BRANCH  15  16
ATOM     16  C   UNL     1       3.003  -0.869   4.161  1.00  0.00    -0.004 A 
ATOM     17  C   UNL     1       3.107   0.357   4.724  1.00  0.00     0.036 A 
ATOM     18  C   UNL     1       1.862  -0.876   3.352  1.00  0.00     0.063 A 
ATOM     19  N   UNL     1       2.065   1.098   4.292  1.00  0.00    -0.282 N 
ATOM     20  N   UNL     1       1.295   0.301   3.435  1.00  0.00    -0.181 NA
ATOM     21  C   UNL     1       4.192   0.813   5.664  1.00  0.00     0.066 C 
ATOM     22  C   UNL     1       1.364  -2.041   2.536  1.00  0.00     0.069 C 
ATOM     23  H   UNL     1       1.881   2.019   4.533  1.00  0.00     0.190 HD
ENDBRANCH  15  16
ENDBRANCH  14  15
ENDBRANCH  13  14
ENDBRANCH   1  13
TORSDOF 7
ENDMDL
MODEL 6
REMARK VINA RESULT:    -4.702      3.783      6.503
REMARK INTER + INTRA:          -7.038
REMARK INTER:                  -6.182
REMARK INTRA:                  -0.856
REMARK UNBOUND:                -0.548
REMARK SMILES Cc1n[nH]c(C)c1CCCOc1cc(C(=O)O)ccc1F
REMARK SMILES IDX 11 1 12 2 14 3 18 4 13 5 19 6 20 7 21 8 15 9 16 10 17 11
REMARK SMILES IDX 10 13 9 14 8 15 7 16 5 17 2 18 4 19 3 20 6 21 1 22
REMARK H PARENT 17 12 4 23
ROOT
ATOM      1  O   UNL     1       3.226  -0.725   7.449  1.00  0.00    -0.490 OA
ENDROOT
BRANCH   1   2
ATOM      2  C   UNL     1       4.058  -1.005   8.487  1.00  0.00     0.155 A 
ATOM      3  C   UNL     1       6.111  -1.935   9.324  1.00  0.00     0.063 A 
ATOM      4  C   UNL     1       5.750  -1.558  10.620  1.00  0.00     0.019 A 
ATOM      5  C   UNL     1       5.257  -1.654   8.256  1.00  0.00     0.065 A 
ATOM      6  C   UNL     1       4.555  -0.906  10.840  1.00  0.00     0.044 A 
ATOM      7  C   UNL     1       3.711  -0.623   9.778  1.00  0.00     0.165 A 
ATOM      8  F   UNL     1       2.542   0.017  10.000  1.00  0.00    -0.203 F 
BRANCH   3   9
ATOM      9  C   UNL     1       7.390  -2.634   9.085  1.00  0.00     0.335 C 
ATOM     10  O   UNL     1       8.376  -2.003   8.764  1.00  0.00    -0.246 OA
BRANCH   9  11
ATOM     11  O   UNL     1       7.463  -3.971   9.230  1.00  0.00    -0.478 OA
ATOM     12  H   UNL     1       8.291  -4.330   9.580  1.00  0.00     0.297 HD
ENDBRANCH   9  11
ENDBRANCH   3   9
ENDBRANCH   1   2
BRANCH   1  13
ATOM     13  C   UNL     1       3.835  -0.446   6.186  1.00  0.00     0.230 C 
BRANCH  13  14
ATOM     14  C   UNL     1       2.756  -0.383   5.104  1.00  0.00     0.046 C 
BRANCH  14  15
ATOM     15  C   UNL     1       1.726  -1.488   5.344  1.00  0.00     0.043 C 
BRANCH  15  16
ATOM     16  C   UNL     1       2.166  -2.747   4.643  1.00  0.00    -0.004 A 
ATOM     17  C   UNL     1       2.232  -2.932   3.304  1.00  0.00     0.036 A 
ATOM     18  C   UNL     1       2.586  -3.930   5.261  1.00  0.00     0.063 A 
ATOM     19  N   UNL     1       2.671  -4.189   3.083  1.00  0.00    -0.282 N 
ATOM     20  N   UNL     1       2.882  -4.797   4.328  1.00  0.00    -0.181 NA
ATOM     21  C   UNL     1       1.878  -1.916   2.250  1.00  0.00     0.066 C 
ATOM     22  C   UNL     1       2.670  -4.169   6.748  1.00  0.00     0.069 C 
ATOM     23  H   UNL     1       2.814  -4.599   2.216  1.00  0.00     0.190 HD
ENDBRANCH  15  16
ENDBRANCH  14  15
ENDBRANCH  13  14
ENDBRANCH   1  13
TORSDOF 7
ENDMDL
MODEL 7
REMARK VINA RESULT:    -4.700      3.949      7.027
REMARK INTER + INTRA:          -7.034
REMARK INTER:                  -6.193
REMARK INTRA:                  -0.842
REMARK UNBOUND:                -0.548
REMARK SMILES Cc1n[nH]c(C)c1CCCOc1cc(C(=O)O)ccc1F
REMARK SMILES IDX 11 1 12 2 14 3 18 4 13 5 19 6 20 7 21 8 15 9 16 10 17 11
REMARK SMILES IDX 10 13 9 14 8 15 7 16 5 17 2 18 4 19 3 20 6 21 1 22
REMARK H PARENT 17 12 4 23
ROOT
ATOM      1  O   UNL     1       4.643  -2.424   6.934  1.00  0.00    -0.490 OA
ENDROOT
BRANCH   1   2
ATOM      2  C   UNL     1       4.936  -2.037   8.204  1.00  0.00     0.155 A 
ATOM      3  C   UNL     1       4.295  -0.976  10.264  1.00  0.00     0.063 A 
ATOM      4  C   UNL     1       5.552  -1.266  10.800  1.00  0.00     0.019 A 
ATOM      5  C   UNL     1       3.991  -1.367   8.958  1.00  0.00     0.065 A 
ATOM      6  C   UNL     1       6.486  -1.940  10.042  1.00  0.00     0.044 A 
ATOM      7  C   UNL     1       6.181  -2.331   8.749  1.00  0.00     0.165 A 
ATOM      8  F   UNL     1       7.100  -2.992   8.012  1.00  0.00    -0.203 F 
BRANCH   3   9
ATOM      9  C   UNL     1       3.293  -0.254  11.073  1.00  0.00     0.335 C 
ATOM     10  O   UNL     1       3.402   0.941  11.250  1.00  0.00    -0.246 OA
BRANCH   9  11
ATOM     11  O   UNL     1       2.253  -0.923  11.609  1.00  0.00    -0.478 OA
ATOM     12  H   UNL     1       1.907  -0.595  12.451  1.00  0.00     0.297 HD
ENDBRANCH   9  11
ENDBRANCH   3   9
ENDBRANCH   1   2
BRANCH   1  13
ATOM     13  C   UNL     1       3.319  -2.907   6.692  1.00  0.00     0.230 C 
BRANCH  13  14
ATOM     14  C   UNL     1       3.135  -3.161   5.195  1.00  0.00     0.046 C 
BRANCH  14  15
ATOM     15  C   UNL     1       3.912  -2.109   4.400  1.00  0.00     0.043 C 
BRANCH  15  16
ATOM     16  C   UNL     1       3.028  -0.916   4.145  1.00  0.00    -0.004 A 
ATOM     17  C   UNL     1       1.943  -0.887   3.338  1.00  0.00     0.036 A 
ATOM     18  C   UNL     1       3.181   0.356   4.706  1.00  0.00     0.063 A 
ATOM     19  N   UNL     1       1.431   0.361   3.381  1.00  0.00    -0.282 N 
ATOM     20  N   UNL     1       2.228   1.124   4.244  1.00  0.00    -0.181 NA
ATOM     21  C   UNL     1       1.402  -2.041   2.535  1.00  0.00     0.066 C 
ATOM     22  C   UNL     1       4.264   0.774   5.668  1.00  0.00     0.069 C 
ATOM     23  H   UNL     1       0.649   0.674   2.900  1.00  0.00     0.190 HD
ENDBRANCH  15  16
ENDBRANCH  14  15
ENDBRANCH  13  14
ENDBRANCH   1  13
TORSDOF 7
ENDMDL
MODEL 8
REMARK VINA RESULT:    -4.556      3.093      4.328
REMARK INTER + INTRA:          -6.836
REMARK INTER:                  -6.320
REMARK INTRA:                  -0.516
REMARK UNBOUND:                -0.548
REMARK SMILES Cc1n[nH]c(C)c1CCCOc1cc(C(=O)O)ccc1F
REMARK SMILES IDX 11 1 12 2 14 3 18 4 13 5 19 6 20 7 21 8 15 9 16 10 17 11
REMARK SMILES IDX 10 13 9 14 8 15 7 16 5 17 2 18 4 19 3 20 6 21 1 22
REMARK H PARENT 17 12 4 23
ROOT
ATOM      1  O   UNL     1       4.620  -0.694   9.268  1.00  0.00    -0.490 OA
ENDROOT
BRANCH   1   2
ATOM      2  C   UNL     1       4.238  -1.015   8.003  1.00  0.00     0.155 A 
ATOM      3  C   UNL     1       3.291  -2.580   6.442  1.00  0.00     0.063 A 
ATOM      4  C   UNL     1       3.455  -1.647   5.414  1.00  0.00     0.019 A 
ATOM      5  C   UNL     1       3.687  -2.256   7.742  1.00  0.00     0.065 A 
ATOM      6  C   UNL     1       4.000  -0.410   5.686  1.00  0.00     0.044 A 
ATOM      7  C   UNL     1       4.387  -0.089   6.977  1.00  0.00     0.165 A 
ATOM      8  F   UNL     1       4.921   1.125   7.237  1.00  0.00    -0.203 F 
BRANCH   3   9
ATOM      9  C   UNL     1       2.708  -3.905   6.155  1.00  0.00     0.335 C 
ATOM     10  O   UNL     1       2.551  -4.263   5.005  1.00  0.00    -0.246 OA
BRANCH   9  11
ATOM     11  O   UNL     1       2.354  -4.719   7.168  1.00  0.00    -0.478 OA
ATOM     12  H   UNL     1       3.040  -5.302   7.523  1.00  0.00     0.297 HD
ENDBRANCH   9  11
ENDBRANCH   3   9
ENDBRANCH   1   2
BRANCH   1  13
ATOM     13  C   UNL     1       3.664  -0.911  10.309  1.00  0.00     0.230 C 
BRANCH  13  14
ATOM     14  C   UNL     1       3.681   0.277  11.272  1.00  0.00     0.046 C 
BRANCH  14  15
ATOM     15  C   UNL     1       4.398  -0.122  12.563  1.00  0.00     0.043 C 
BRANCH  15  16
ATOM     16  C   UNL     1       3.702   0.509  13.741  1.00  0.00    -0.004 A 
ATOM     17  C   UNL     1       4.147   1.570  14.454  1.00  0.00     0.036 A 
ATOM     18  C   UNL     1       2.479   0.106  14.288  1.00  0.00     0.063 A 
ATOM     19  N   UNL     1       3.241   1.826  15.421  1.00  0.00    -0.282 N 
ATOM     20  N   UNL     1       2.205   0.890  15.298  1.00  0.00    -0.181 NA
ATOM     21  C   UNL     1       5.424   2.331  14.210  1.00  0.00     0.066 C 
ATOM     22  C   UNL     1       1.629  -1.041  13.803  1.00  0.00     0.069 C 
ATOM     23  H   UNL     1       3.297   2.531  16.084  1.00  0.00     0.190 HD
ENDBRANCH  15  16
ENDBRANCH  14  15
ENDBRANCH  13  14
ENDBRANCH   1  13
TORSDOF 7
ENDMDL
MODEL 9
REMARK VINA RESULT:    -4.386      4.727      8.162
REMARK INTER + INTRA:          -6.601
REMARK INTER:                  -5.923
REMARK INTRA:                  -0.677
REMARK UNBOUND:                -0.548
REMARK SMILES Cc1n[nH]c(C)c1CCCOc1cc(C(=O)O)ccc1F
REMARK SMILES IDX 11 1 12 2 14 3 18 4 13 5 19 6 20 7 21 8 15 9 16 10 17 11
REMARK SMILES IDX 10 13 9 14 8 15 7 16 5 17 2 18 4 19 3 20 6 21 1 22
REMARK H PARENT 17 12 4 23
ROOT
ATOM      1  O   UNL     1       3.779  -0.484  10.209  1.00  0.00    -0.490 OA
ENDROOT
BRANCH   1   2
ATOM      2  C   UNL     1       3.661  -0.213  11.537  1.00  0.00     0.155 A 
ATOM      3  C   UNL     1       4.622   0.542  13.607  1.00  0.00     0.063 A 
ATOM      4  C   UNL     1       3.395   0.344  14.245  1.00  0.00     0.019 A 
ATOM      5  C   UNL     1       4.749   0.260  12.245  1.00  0.00     0.065 A 
ATOM      6  C   UNL     1       2.313  -0.123  13.528  1.00  0.00     0.044 A 
ATOM      7  C   UNL     1       2.440  -0.397  12.177  1.00  0.00     0.165 A 
ATOM      8  F   UNL     1       1.376  -0.854  11.480  1.00  0.00    -0.203 F 
BRANCH   3   9
ATOM      9  C   UNL     1       5.782   1.042  14.371  1.00  0.00     0.335 C 
ATOM     10  O   UNL     1       5.611   1.768  15.329  1.00  0.00    -0.246 OA
BRANCH   9  11
ATOM     11  O   UNL     1       7.031   0.686  14.009  1.00  0.00    -0.478 OA
ATOM     12  H   UNL     1       7.113  -0.018  13.351  1.00  0.00     0.297 HD
ENDBRANCH   9  11
ENDBRANCH   3   9
ENDBRANCH   1   2
BRANCH   1  13
ATOM     13  C   UNL     1       4.833  -1.368   9.819  1.00  0.00     0.230 C 
BRANCH  13  14
ATOM     14  C   UNL     1       4.868  -1.477   8.294  1.00  0.00     0.046 C 
BRANCH  14  15
ATOM     15  C   UNL     1       3.463  -1.241   7.734  1.00  0.00     0.043 C 
BRANCH  15  16
ATOM     16  C   UNL     1       3.431  -1.627   6.278  1.00  0.00    -0.004 A 
ATOM     17  C   UNL     1       3.056  -2.828   5.780  1.00  0.00     0.036 A 
ATOM     18  C   UNL     1       3.776  -0.804   5.201  1.00  0.00     0.063 A 
ATOM     19  N   UNL     1       3.167  -2.770   4.437  1.00  0.00    -0.282 N 
ATOM     20  N   UNL     1       3.625  -1.490   4.097  1.00  0.00    -0.181 NA
ATOM     21  C   UNL     1       2.598  -4.018   6.583  1.00  0.00     0.066 C 
ATOM     22  C   UNL     1       4.252   0.623   5.295  1.00  0.00     0.069 C 
ATOM     23  H   UNL     1       2.967  -3.487   3.816  1.00  0.00     0.190 HD
ENDBRANCH  15  16
ENDBRANCH  14  15
ENDBRANCH  13  14
ENDBRANCH   1  13
TORSDOF 7
ENDMDL
