MODEL 1
REMARK VINA RESULT:    -4.199      0.000      0.000
REMARK INTER + INTRA:          -5.098
REMARK INTER:                  -4.813
REMARK INTRA:                  -0.285
REMARK UNBOUND:                -0.285
REMARK SMILES O=C(O)c1ccc2nc(-c3cc(Cl)cc(Cl)c3)oc2c1
REMARK SMILES IDX 5 1 6 2 20 3 8 4 18 5 4 6 9 7 7 8 19 9 2 10 1 11 3 12 10 14
REMARK SMILES IDX 11 15 17 16 12 17 15 18 14 19 13 20 16 21
REMARK H PARENT 3 13
ROOT
ATOM      1  C   UNL     1       3.144   0.922  15.389  1.00  0.00     0.018 A 
ATOM      2  C   UNL     1       4.142   0.822  14.467  1.00  0.00     0.033 A 
ATOM      3  C   UNL     1       1.621  -0.239  13.901  1.00  0.00     0.065 A 
ATOM      4  N   UNL     1       4.671  -0.054  12.157  1.00  0.00    -0.209 NA
ATOM      5  O   UNL     1       2.703  -0.874  11.722  1.00  0.00    -0.436 OA
ATOM      6  C   UNL     1       1.874   0.392  15.120  1.00  0.00     0.063 A 
ATOM      7  C   UNL     1       3.954  -0.686  11.261  1.00  0.00     0.227 A 
ATOM      8  C   UNL     1       3.903   0.191  13.240  1.00  0.00     0.110 A 
ATOM      9  C   UNL     1       2.630  -0.338  12.961  1.00  0.00     0.156 A 
ENDROOT
BRANCH   6  10
ATOM     10  C   UNL     1       0.803   0.501  16.127  1.00  0.00     0.335 C 
ATOM     11  O   UNL     1       0.275  -0.503  16.563  1.00  0.00    -0.246 OA
BRANCH  10  12
ATOM     12  O   UNL     1       0.409   1.713  16.565  1.00  0.00    -0.478 OA
ATOM     13  H   UNL     1      -0.042   1.746  17.419  1.00  0.00     0.297 HD
ENDBRANCH  10  12
ENDBRANCH   6  10
BRANCH   7  14
ATOM     14  C   UNL     1       4.447  -1.127   9.940  1.00  0.00     0.040 A 
ATOM     15  C   UNL     1       3.655  -0.958   8.804  1.00  0.00     0.034 A 
ATOM     16  C   UNL     1       5.708  -1.716   9.823  1.00  0.00     0.034 A 
ATOM     17  C   UNL     1       4.121  -1.371   7.572  1.00  0.00     0.043 A 
ATOM     18  C   UNL     1       6.163  -2.125   8.586  1.00  0.00     0.043 A 
ATOM     19  C   UNL     1       5.372  -1.954   7.463  1.00  0.00     0.041 A 
ATOM     20  Cl  UNL     1       3.138  -1.160   6.157  1.00  0.00    -0.084 Cl
ATOM     21  Cl  UNL     1       7.731  -2.857   8.439  1.00  0.00    -0.084 Cl
ENDBRANCH   7  14
TORSDOF 3
ENDMDL
MODEL 2
REMARK VINA RESULT:    -4.182      5.097      8.625
REMARK INTER + INTRA:          -5.078
REMARK INTER:                  -4.780
REMARK INTRA:                  -0.297
REMARK UNBOUND:                -0.285
REMARK SMILES O=C(O)c1ccc2nc(-c3cc(Cl)cc(Cl)c3)oc2c1
REMARK SMILES IDX 5 1 6 2 20 3 8 4 18 5 4 6 9 7 7 8 19 9 2 10 1 11 3 12 10 14
REMARK SMILES IDX 11 15 17 16 12 17 15 18 14 19 13 20 16 21
REMARK H PARENT 3 13
ROOT
ATOM      1  C   UNL     1       1.412  -1.304   3.819  1.00  0.00     0.018 A 
ATOM      2  C   UNL     1       1.498  -0.869   5.107  1.00  0.00     0.033 A 
ATOM      3  C   UNL     1       3.486  -2.535   4.072  1.00  0.00     0.065 A 
ATOM      4  N   UNL     1       2.930  -0.993   7.184  1.00  0.00    -0.209 NA
ATOM      5  O   UNL     1       4.477  -2.287   6.369  1.00  0.00    -0.436 OA
ATOM      6  C   UNL     1       2.401  -2.142   3.286  1.00  0.00     0.063 A 
ATOM      7  C   UNL     1       4.055  -1.608   7.452  1.00  0.00     0.227 A 
ATOM      8  C   UNL     1       2.580  -1.255   5.907  1.00  0.00     0.110 A 
ATOM      9  C   UNL     1       3.579  -2.092   5.378  1.00  0.00     0.156 A 
ENDROOT
BRANCH   6  10
ATOM     10  C   UNL     1       2.295  -2.611   1.892  1.00  0.00     0.335 C 
ATOM     11  O   UNL     1       1.497  -2.093   1.136  1.00  0.00    -0.246 OA
BRANCH  10  12
ATOM     12  O   UNL     1       3.080  -3.616   1.457  1.00  0.00    -0.478 OA
ATOM     13  H   UNL     1       3.439  -4.214   2.126  1.00  0.00     0.297 HD
ENDBRANCH  10  12
ENDBRANCH   6  10
BRANCH   7  14
ATOM     14  C   UNL     1       4.758  -1.562   8.751  1.00  0.00     0.040 A 
ATOM     15  C   UNL     1       4.183  -0.898   9.835  1.00  0.00     0.034 A 
ATOM     16  C   UNL     1       6.000  -2.183   8.898  1.00  0.00     0.034 A 
ATOM     17  C   UNL     1       4.844  -0.859  11.047  1.00  0.00     0.043 A 
ATOM     18  C   UNL     1       6.651  -2.138  10.114  1.00  0.00     0.043 A 
ATOM     19  C   UNL     1       6.076  -1.477  11.186  1.00  0.00     0.041 A 
ATOM     20  Cl  UNL     1       4.132  -0.034  12.398  1.00  0.00    -0.084 Cl
ATOM     21  Cl  UNL     1       8.196  -2.909  10.300  1.00  0.00    -0.084 Cl
ENDBRANCH   7  14
TORSDOF 3
ENDMDL
MODEL 3
REMARK VINA RESULT:    -4.175      5.225      6.615
REMARK INTER + INTRA:          -5.070
REMARK INTER:                  -4.786
REMARK INTRA:                  -0.284
REMARK UNBOUND:                -0.285
REMARK SMILES O=C(O)c1ccc2nc(-c3cc(Cl)cc(Cl)c3)oc2c1
REMARK SMILES IDX 5 1 6 2 20 3 8 4 18 5 4 6 9 7 7 8 19 9 2 10 1 11 3 12 10 14
REMARK SMILES IDX 11 15 17 16 12 17 15 18 14 19 13 20 16 21
REMARK H PARENT 3 13
ROOT
ATOM      1  C   UNL     1       6.135  -1.631  11.021  1.00  0.00     0.018 A 
ATOM      2  C   UNL     1       5.045  -1.185  10.335  1.00  0.00     0.033 A 
ATOM      3  C   UNL     1       7.001  -2.676   9.011  1.00  0.00     0.065 A 
ATOM      4  N   UNL     1       3.965  -1.179   8.051  1.00  0.00    -0.209 NA
ATOM      5  O   UNL     1       5.491  -2.345   7.028  1.00  0.00    -0.436 OA
ATOM      6  C   UNL     1       7.126  -2.379  10.369  1.00  0.00     0.063 A 
ATOM      7  C   UNL     1       4.318  -1.697   6.901  1.00  0.00     0.227 A 
ATOM      8  C   UNL     1       4.907  -1.475   8.972  1.00  0.00     0.110 A 
ATOM      9  C   UNL     1       5.894  -2.229   8.313  1.00  0.00     0.156 A 
ENDROOT
BRANCH   6  10
ATOM     10  C   UNL     1       8.303  -2.852  11.119  1.00  0.00     0.335 C 
ATOM     11  O   UNL     1       8.273  -3.929  11.681  1.00  0.00    -0.246 OA
BRANCH  10  12
ATOM     12  O   UNL     1       9.412  -2.089  11.184  1.00  0.00    -0.478 OA
ATOM     13  H   UNL     1      10.252  -2.546  11.324  1.00  0.00     0.297 HD
ENDBRANCH  10  12
ENDBRANCH   6  10
BRANCH   7  14
ATOM     14  C   UNL     1       3.541  -1.586   5.649  1.00  0.00     0.040 A 
ATOM     15  C   UNL     1       3.583  -2.612   4.704  1.00  0.00     0.034 A 
ATOM     16  C   UNL     1       2.761  -0.453   5.406  1.00  0.00     0.034 A 
ATOM     17  C   UNL     1       2.854  -2.503   3.536  1.00  0.00     0.043 A 
ATOM     18  C   UNL     1       2.037  -0.356   4.235  1.00  0.00     0.043 A 
ATOM     19  C   UNL     1       2.083  -1.377   3.302  1.00  0.00     0.041 A 
ATOM     20  Cl  UNL     1       2.905  -3.779   2.360  1.00  0.00    -0.084 Cl
ATOM     21  Cl  UNL     1       1.067   1.052   3.931  1.00  0.00    -0.084 Cl
ENDBRANCH   7  14
TORSDOF 3
ENDMDL
MODEL 4
REMARK VINA RESULT:    -4.175      5.105      8.774
REMARK INTER + INTRA:          -5.070
REMARK INTER:                  -4.772
REMARK INTRA:                  -0.298
REMARK UNBOUND:                -0.285
REMARK SMILES O=C(O)c1ccc2nc(-c3cc(Cl)cc(Cl)c3)oc2c1
REMARK SMILES IDX 5 1 6 2 20 3 8 4 18 5 4 6 9 7 7 8 19 9 2 10 1 11 3 12 10 14
REMARK SMILES IDX 11 15 17 16 12 17 15 18 14 19 13 20 16 21
REMARK H PARENT 3 13
ROOT
ATOM      1  C   UNL     1       1.400  -1.323   3.833  1.00  0.00     0.018 A 
ATOM      2  C   UNL     1       1.484  -0.898   5.125  1.00  0.00     0.033 A 
ATOM      3  C   UNL     1       3.494  -2.522   4.065  1.00  0.00     0.065 A 
ATOM      4  N   UNL     1       2.928  -1.019   7.195  1.00  0.00    -0.209 NA
ATOM      5  O   UNL     1       4.492  -2.280   6.360  1.00  0.00    -0.436 OA
ATOM      6  C   UNL     1       2.400  -2.140   3.288  1.00  0.00     0.063 A 
ATOM      7  C   UNL     1       4.064  -1.618   7.452  1.00  0.00     0.227 A 
ATOM      8  C   UNL     1       2.576  -1.275   5.916  1.00  0.00     0.110 A 
ATOM      9  C   UNL     1       3.586  -2.090   5.376  1.00  0.00     0.156 A 
ENDROOT
BRANCH   6  10
ATOM     10  C   UNL     1       2.295  -2.598   1.890  1.00  0.00     0.335 C 
ATOM     11  O   UNL     1       1.498  -2.074   1.138  1.00  0.00    -0.246 OA
BRANCH  10  12
ATOM     12  O   UNL     1       3.082  -3.598   1.448  1.00  0.00    -0.478 OA
ATOM     13  H   UNL     1       3.993  -3.615   1.770  1.00  0.00     0.297 HD
ENDBRANCH  10  12
ENDBRANCH   6  10
BRANCH   7  14
ATOM     14  C   UNL     1       4.771  -1.573   8.748  1.00  0.00     0.040 A 
ATOM     15  C   UNL     1       6.010  -2.198   8.894  1.00  0.00     0.034 A 
ATOM     16  C   UNL     1       4.201  -0.904   9.834  1.00  0.00     0.034 A 
ATOM     17  C   UNL     1       6.666  -2.151  10.108  1.00  0.00     0.043 A 
ATOM     18  C   UNL     1       4.867  -0.864  11.043  1.00  0.00     0.043 A 
ATOM     19  C   UNL     1       6.096  -1.487  11.180  1.00  0.00     0.041 A 
ATOM     20  Cl  UNL     1       8.207  -2.928  10.290  1.00  0.00    -0.084 Cl
ATOM     21  Cl  UNL     1       4.160  -0.033  12.394  1.00  0.00    -0.084 Cl
ENDBRANCH   7  14
TORSDOF 3
ENDMDL
MODEL 5
REMARK VINA RESULT:    -4.171      5.226      6.474
REMARK INTER + INTRA:          -5.066
REMARK INTER:                  -4.782
REMARK INTRA:                  -0.284
REMARK UNBOUND:                -0.285
REMARK SMILES O=C(O)c1ccc2nc(-c3cc(Cl)cc(Cl)c3)oc2c1
REMARK SMILES IDX 5 1 6 2 20 3 8 4 18 5 4 6 9 7 7 8 19 9 2 10 1 11 3 12 10 14
REMARK SMILES IDX 11 15 17 16 12 17 15 18 14 19 13 20 16 21
REMARK H PARENT 3 13
ROOT
ATOM      1  C   UNL     1       6.136  -1.633  11.023  1.00  0.00     0.018 A 
ATOM      2  C   UNL     1       5.047  -1.186  10.337  1.00  0.00     0.033 A 
ATOM      3  C   UNL     1       7.002  -2.679   9.014  1.00  0.00     0.065 A 
ATOM      4  N   UNL     1       3.968  -1.179   8.053  1.00  0.00    -0.209 NA
ATOM      5  O   UNL     1       5.493  -2.347   7.031  1.00  0.00    -0.436 OA
ATOM      6  C   UNL     1       7.127  -2.382  10.372  1.00  0.00     0.063 A 
ATOM      7  C   UNL     1       4.321  -1.698   6.903  1.00  0.00     0.227 A 
ATOM      8  C   UNL     1       4.910  -1.476   8.974  1.00  0.00     0.110 A 
ATOM      9  C   UNL     1       5.896  -2.231   8.315  1.00  0.00     0.156 A 
ENDROOT
BRANCH   6  10
ATOM     10  C   UNL     1       8.303  -2.856  11.123  1.00  0.00     0.335 C 
ATOM     11  O   UNL     1       8.275  -3.935  11.679  1.00  0.00    -0.246 OA
BRANCH  10  12
ATOM     12  O   UNL     1       9.411  -2.090  11.194  1.00  0.00    -0.478 OA
ATOM     13  H   UNL     1      10.210  -2.434  10.773  1.00  0.00     0.297 HD
ENDBRANCH  10  12
ENDBRANCH   6  10
BRANCH   7  14
ATOM     14  C   UNL     1       3.544  -1.587   5.650  1.00  0.00     0.040 A 
ATOM     15  C   UNL     1       2.765  -0.456   5.406  1.00  0.00     0.034 A 
ATOM     16  C   UNL     1       3.587  -2.615   4.706  1.00  0.00     0.034 A 
ATOM     17  C   UNL     1       2.042  -0.358   4.234  1.00  0.00     0.043 A 
ATOM     18  C   UNL     1       2.861  -2.505   3.537  1.00  0.00     0.043 A 
ATOM     19  C   UNL     1       2.089  -1.380   3.301  1.00  0.00     0.041 A 
ATOM     20  Cl  UNL     1       1.072   1.049   3.928  1.00  0.00    -0.084 Cl
ATOM     21  Cl  UNL     1       2.913  -3.782   2.362  1.00  0.00    -0.084 Cl
ENDBRANCH   7  14
TORSDOF 3
ENDMDL
MODEL 6
REMARK VINA RESULT:    -4.149      3.393      5.071
REMARK INTER + INTRA:          -5.041
REMARK INTER:                  -4.745
REMARK INTRA:                  -0.296
REMARK UNBOUND:                -0.285
REMARK SMILES O=C(O)c1ccc2nc(-c3cc(Cl)cc(Cl)c3)oc2c1
REMARK SMILES IDX 5 1 6 2 20 3 8 4 18 5 4 6 9 7 7 8 19 9 2 10 1 11 3 12 10 14
REMARK SMILES IDX 11 15 17 16 12 17 15 18 14 19 13 20 16 21
REMARK H PARENT 3 13
ROOT
ATOM      1  C   UNL     1       5.864  -1.376  10.998  1.00  0.00     0.018 A 
ATOM      2  C   UNL     1       5.958  -1.926   9.755  1.00  0.00     0.033 A 
ATOM      3  C   UNL     1       3.714  -0.408  10.433  1.00  0.00     0.065 A 
ATOM      4  N   UNL     1       4.748  -2.134   7.548  1.00  0.00    -0.209 NA
ATOM      5  O   UNL     1       3.005  -0.947   8.082  1.00  0.00    -0.436 OA
ATOM      6  C   UNL     1       4.743  -0.613  11.354  1.00  0.00     0.063 A 
ATOM      7  C   UNL     1       3.603  -1.668   7.115  1.00  0.00     0.227 A 
ATOM      8  C   UNL     1       4.934  -1.728   8.822  1.00  0.00     0.110 A 
ATOM      9  C   UNL     1       3.808  -0.960   9.169  1.00  0.00     0.156 A 
ENDROOT
BRANCH   6  10
ATOM     10  C   UNL     1       4.649  -0.028  12.703  1.00  0.00     0.335 C 
ATOM     11  O   UNL     1       3.782   0.785  12.954  1.00  0.00    -0.246 OA
BRANCH  10  12
ATOM     12  O   UNL     1       5.526  -0.394  13.659  1.00  0.00    -0.478 OA
ATOM     13  H   UNL     1       6.161   0.274  13.951  1.00  0.00     0.297 HD
ENDBRANCH  10  12
ENDBRANCH   6  10
BRANCH   7  14
ATOM     14  C   UNL     1       3.050  -1.900   5.765  1.00  0.00     0.040 A 
ATOM     15  C   UNL     1       2.195  -0.961   5.186  1.00  0.00     0.034 A 
ATOM     16  C   UNL     1       3.379  -3.062   5.063  1.00  0.00     0.034 A 
ATOM     17  C   UNL     1       1.683  -1.183   3.923  1.00  0.00     0.043 A 
ATOM     18  C   UNL     1       2.861  -3.273   3.801  1.00  0.00     0.043 A 
ATOM     19  C   UNL     1       2.014  -2.337   3.232  1.00  0.00     0.041 A 
ATOM     20  Cl  UNL     1       0.620  -0.016   3.201  1.00  0.00    -0.084 Cl
ATOM     21  Cl  UNL     1       3.270  -4.716   2.926  1.00  0.00    -0.084 Cl
ENDBRANCH   7  14
TORSDOF 3
ENDMDL
MODEL 7
REMARK VINA RESULT:    -4.148      3.359      5.314
REMARK INTER + INTRA:          -5.039
REMARK INTER:                  -4.743
REMARK INTRA:                  -0.296
REMARK UNBOUND:                -0.285
REMARK SMILES O=C(O)c1ccc2nc(-c3cc(Cl)cc(Cl)c3)oc2c1
REMARK SMILES IDX 5 1 6 2 20 3 8 4 18 5 4 6 9 7 7 8 19 9 2 10 1 11 3 12 10 14
REMARK SMILES IDX 11 15 17 16 12 17 15 18 14 19 13 20 16 21
REMARK H PARENT 3 13
ROOT
ATOM      1  C   UNL     1       5.810  -1.367  11.020  1.00  0.00     0.018 A 
ATOM      2  C   UNL     1       5.913  -1.919   9.778  1.00  0.00     0.033 A 
ATOM      3  C   UNL     1       3.665  -0.398  10.438  1.00  0.00     0.065 A 
ATOM      4  N   UNL     1       4.719  -2.128   7.562  1.00  0.00    -0.209 NA
ATOM      5  O   UNL     1       2.973  -0.938   8.082  1.00  0.00    -0.436 OA
ATOM      6  C   UNL     1       4.687  -0.604  11.367  1.00  0.00     0.063 A 
ATOM      7  C   UNL     1       3.577  -1.661   7.120  1.00  0.00     0.227 A 
ATOM      8  C   UNL     1       4.896  -1.721   8.837  1.00  0.00     0.110 A 
ATOM      9  C   UNL     1       3.768  -0.952   9.175  1.00  0.00     0.156 A 
ENDROOT
BRANCH   6  10
ATOM     10  C   UNL     1       4.583  -0.017  12.715  1.00  0.00     0.335 C 
ATOM     11  O   UNL     1       3.668   0.736  12.981  1.00  0.00    -0.246 OA
BRANCH  10  12
ATOM     12  O   UNL     1       5.504  -0.316  13.653  1.00  0.00    -0.478 OA
ATOM     13  H   UNL     1       6.123  -1.031  13.449  1.00  0.00     0.297 HD
ENDBRANCH  10  12
ENDBRANCH   6  10
BRANCH   7  14
ATOM     14  C   UNL     1       3.034  -1.894   5.766  1.00  0.00     0.040 A 
ATOM     15  C   UNL     1       3.370  -3.053   5.065  1.00  0.00     0.034 A 
ATOM     16  C   UNL     1       2.183  -0.953   5.182  1.00  0.00     0.034 A 
ATOM     17  C   UNL     1       2.858  -3.265   3.800  1.00  0.00     0.043 A 
ATOM     18  C   UNL     1       1.678  -1.176   3.917  1.00  0.00     0.043 A 
ATOM     19  C   UNL     1       2.015  -2.328   3.227  1.00  0.00     0.041 A 
ATOM     20  Cl  UNL     1       3.274  -4.706   2.927  1.00  0.00    -0.084 Cl
ATOM     21  Cl  UNL     1       0.619  -0.008   3.188  1.00  0.00    -0.084 Cl
ENDBRANCH   7  14
TORSDOF 3
ENDMDL
MODEL 8
REMARK VINA RESULT:    -4.132      0.091      2.139
REMARK INTER + INTRA:          -5.021
REMARK INTER:                  -4.735
REMARK INTRA:                  -0.286
REMARK UNBOUND:                -0.285
REMARK SMILES O=C(O)c1ccc2nc(-c3cc(Cl)cc(Cl)c3)oc2c1
REMARK SMILES IDX 5 1 6 2 20 3 8 4 18 5 4 6 9 7 7 8 19 9 2 10 1 11 3 12 10 14
REMARK SMILES IDX 11 15 17 16 12 17 15 18 14 19 13 20 16 21
REMARK H PARENT 3 13
ROOT
ATOM      1  C   UNL     1       3.251   0.915  15.371  1.00  0.00     0.018 A 
ATOM      2  C   UNL     1       4.240   0.791  14.442  1.00  0.00     0.033 A 
ATOM      3  C   UNL     1       1.682  -0.179  13.881  1.00  0.00     0.065 A 
ATOM      4  N   UNL     1       4.725  -0.079  12.120  1.00  0.00    -0.209 NA
ATOM      5  O   UNL     1       2.728  -0.827  11.689  1.00  0.00    -0.436 OA
ATOM      6  C   UNL     1       1.963   0.431  15.105  1.00  0.00     0.063 A 
ATOM      7  C   UNL     1       3.982  -0.677  11.223  1.00  0.00     0.227 A 
ATOM      8  C   UNL     1       3.972   0.181  13.210  1.00  0.00     0.110 A 
ATOM      9  C   UNL     1       2.681  -0.302  12.934  1.00  0.00     0.156 A 
ENDROOT
BRANCH   6  10
ATOM     10  C   UNL     1       0.903   0.566  16.120  1.00  0.00     0.335 C 
ATOM     11  O   UNL     1       0.622   1.661  16.565  1.00  0.00    -0.246 OA
BRANCH  10  12
ATOM     12  O   UNL     1       0.245  -0.527  16.557  1.00  0.00    -0.478 OA
ATOM     13  H   UNL     1       0.434  -0.822  17.458  1.00  0.00     0.297 HD
ENDBRANCH  10  12
ENDBRANCH   6  10
BRANCH   7  14
ATOM     14  C   UNL     1       4.452  -1.121   9.894  1.00  0.00     0.040 A 
ATOM     15  C   UNL     1       5.707  -1.714   9.756  1.00  0.00     0.034 A 
ATOM     16  C   UNL     1       3.640  -0.947   8.770  1.00  0.00     0.034 A 
ATOM     17  C   UNL     1       6.139  -2.128   8.511  1.00  0.00     0.043 A 
ATOM     18  C   UNL     1       4.084  -1.364   7.531  1.00  0.00     0.043 A 
ATOM     19  C   UNL     1       5.330  -1.952   7.401  1.00  0.00     0.041 A 
ATOM     20  Cl  UNL     1       7.700  -2.867   8.337  1.00  0.00    -0.084 Cl
ATOM     21  Cl  UNL     1       3.077  -1.149   6.133  1.00  0.00    -0.084 Cl
ENDBRANCH   7  14
TORSDOF 3
ENDMDL
MODEL 9
REMARK VINA RESULT:    -4.063      3.828      7.432
REMARK INTER + INTRA:          -4.942
REMARK INTER:                  -4.652
REMARK INTRA:                  -0.290
REMARK UNBOUND:                -0.285
REMARK SMILES O=C(O)c1ccc2nc(-c3cc(Cl)cc(Cl)c3)oc2c1
REMARK SMILES IDX 5 1 6 2 20 3 8 4 18 5 4 6 9 7 7 8 19 9 2 10 1 11 3 12 10 14
REMARK SMILES IDX 11 15 17 16 12 17 15 18 14 19 13 20 16 21
REMARK H PARENT 3 13
ROOT
ATOM      1  C   UNL     1       5.510  -2.176   8.007  1.00  0.00     0.018 A 
ATOM      2  C   UNL     1       5.863  -2.034   9.315  1.00  0.00     0.033 A 
ATOM      3  C   UNL     1       3.520  -0.839   8.373  1.00  0.00     0.065 A 
ATOM      4  N   UNL     1       5.136  -0.984  11.495  1.00  0.00    -0.209 NA
ATOM      5  O   UNL     1       3.310  -0.060  10.755  1.00  0.00    -0.436 OA
ATOM      6  C   UNL     1       4.338  -1.580   7.519  1.00  0.00     0.063 A 
ATOM      7  C   UNL     1       4.101  -0.253  11.827  1.00  0.00     0.227 A 
ATOM      8  C   UNL     1       5.052  -1.293  10.183  1.00  0.00     0.110 A 
ATOM      9  C   UNL     1       3.872  -0.696   9.703  1.00  0.00     0.156 A 
ENDROOT
BRANCH   6  10
ATOM     10  C   UNL     1       3.970  -1.736   6.100  1.00  0.00     0.335 C 
ATOM     11  O   UNL     1       2.967  -1.201   5.671  1.00  0.00    -0.246 OA
BRANCH  10  12
ATOM     12  O   UNL     1       4.745  -2.472   5.279  1.00  0.00    -0.478 OA
ATOM     13  H   UNL     1       5.499  -2.026   4.870  1.00  0.00     0.297 HD
ENDBRANCH  10  12
ENDBRANCH   6  10
BRANCH   7  14
ATOM     14  C   UNL     1       3.840   0.281  13.180  1.00  0.00     0.040 A 
ATOM     15  C   UNL     1       2.662  -0.051  13.850  1.00  0.00     0.034 A 
ATOM     16  C   UNL     1       4.772   1.121  13.793  1.00  0.00     0.034 A 
ATOM     17  C   UNL     1       2.424   0.450  15.114  1.00  0.00     0.043 A 
ATOM     18  C   UNL     1       4.524   1.615  15.058  1.00  0.00     0.043 A 
ATOM     19  C   UNL     1       3.353   1.282  15.717  1.00  0.00     0.041 A 
ATOM     20  Cl  UNL     1       0.960   0.038  15.949  1.00  0.00    -0.084 Cl
ATOM     21  Cl  UNL     1       5.682   2.659  15.823  1.00  0.00    -0.084 Cl
ENDBRANCH   7  14
TORSDOF 3
ENDMDL
