MODEL 1
REMARK VINA RESULT:    -5.527      0.000      0.000
REMARK INTER + INTRA:          -8.177
REMARK INTER:                  -7.628
REMARK INTRA:                  -0.549
REMARK UNBOUND:                -0.549
REMARK SMILES Cc1n[nH]c(C)c1CCCOc1cc(C(=O)O)ccc1F
REMARK SMILES IDX 11 1 12 2 14 3 18 4 13 5 19 6 20 7 21 8 15 9 16 10 17 11
REMARK SMILES IDX 10 13 9 14 8 15 7 16 5 17 2 18 4 19 3 20 6 21 1 22
REMARK H PARENT 17 12 4 23
ROOT
ATOM      1  O   UNL     1       7.238   5.258   0.969  1.00  0.00    -0.490 OA
ENDROOT
BRANCH   1   2
ATOM      2  C   UNL     1       6.135   4.747   1.578  1.00  0.00     0.155 A 
ATOM      3  C   UNL     1       5.135   3.444   3.335  1.00  0.00     0.063 A 
ATOM      4  C   UNL     1       3.868   3.719   2.813  1.00  0.00     0.019 A 
ATOM      5  C   UNL     1       6.270   3.964   2.710  1.00  0.00     0.065 A 
ATOM      6  C   UNL     1       3.743   4.506   1.687  1.00  0.00     0.044 A 
ATOM      7  C   UNL     1       4.870   5.024   1.071  1.00  0.00     0.165 A 
ATOM      8  F   UNL     1       4.740   5.794  -0.031  1.00  0.00    -0.203 F 
BRANCH   3   9
ATOM      9  C   UNL     1       5.273   2.603   4.540  1.00  0.00     0.335 C 
ATOM     10  O   UNL     1       6.301   1.989   4.738  1.00  0.00    -0.246 OA
BRANCH   9  11
ATOM     11  O   UNL     1       4.259   2.522   5.424  1.00  0.00    -0.478 OA
ATOM     12  H   UNL     1       4.120   1.667   5.855  1.00  0.00     0.297 HD
ENDBRANCH   9  11
ENDBRANCH   3   9
ENDBRANCH   1   2
BRANCH   1  13
ATOM     13  C   UNL     1       7.404   6.678   1.016  1.00  0.00     0.230 C 
BRANCH  13  14
ATOM     14  C   UNL     1       8.744   7.012   1.673  1.00  0.00     0.046 C 
BRANCH  14  15
ATOM     15  C   UNL     1       8.529   7.269   3.166  1.00  0.00     0.043 C 
BRANCH  15  16
ATOM     16  C   UNL     1       9.672   8.090   3.705  1.00  0.00    -0.004 A 
ATOM     17  C   UNL     1      10.824   7.607   4.226  1.00  0.00     0.036 A 
ATOM     18  C   UNL     1       9.733   9.487   3.749  1.00  0.00     0.063 A 
ATOM     19  N   UNL     1      11.584   8.660   4.592  1.00  0.00    -0.282 N 
ATOM     20  N   UNL     1      10.875   9.830   4.287  1.00  0.00    -0.181 NA
ATOM     21  C   UNL     1      11.192   6.153   4.370  1.00  0.00     0.066 C 
ATOM     22  C   UNL     1       8.662  10.434   3.271  1.00  0.00     0.069 C 
ATOM     23  H   UNL     1      12.464   8.616   4.997  1.00  0.00     0.190 HD
ENDBRANCH  15  16
ENDBRANCH  14  15
ENDBRANCH  13  14
ENDBRANCH   1  13
TORSDOF 7
ENDMDL
MODEL 2
REMARK VINA RESULT:    -5.525      2.278      3.883
REMARK INTER + INTRA:          -8.173
REMARK INTER:                  -7.642
REMARK INTRA:                  -0.531
REMARK UNBOUND:                -0.549
REMARK SMILES Cc1n[nH]c(C)c1CCCOc1cc(C(=O)O)ccc1F
REMARK SMILES IDX 11 1 12 2 14 3 18 4 13 5 19 6 20 7 21 8 15 9 16 10 17 11
REMARK SMILES IDX 10 13 9 14 8 15 7 16 5 17 2 18 4 19 3 20 6 21 1 22
REMARK H PARENT 17 12 4 23
ROOT
ATOM      1  O   UNL     1       5.547   5.891   5.111  1.00  0.00    -0.490 OA
ENDROOT
BRANCH   1   2
ATOM      2  C   UNL     1       5.069   5.198   4.044  1.00  0.00     0.155 A 
ATOM      3  C   UNL     1       4.267   5.145   1.778  1.00  0.00     0.063 A 
ATOM      4  C   UNL     1       4.104   3.760   1.871  1.00  0.00     0.019 A 
ATOM      5  C   UNL     1       4.752   5.861   2.873  1.00  0.00     0.065 A 
ATOM      6  C   UNL     1       4.428   3.106   3.041  1.00  0.00     0.044 A 
ATOM      7  C   UNL     1       4.914   3.818   4.125  1.00  0.00     0.165 A 
ATOM      8  F   UNL     1       5.231   3.171   5.268  1.00  0.00    -0.203 F 
BRANCH   3   9
ATOM      9  C   UNL     1       3.921   5.848   0.527  1.00  0.00     0.335 C 
ATOM     10  O   UNL     1       3.706   7.043   0.541  1.00  0.00    -0.246 OA
BRANCH   9  11
ATOM     11  O   UNL     1       3.851   5.165  -0.632  1.00  0.00    -0.478 OA
ATOM     12  H   UNL     1       3.858   4.199  -0.574  1.00  0.00     0.297 HD
ENDBRANCH   9  11
ENDBRANCH   3   9
ENDBRANCH   1   2
BRANCH   1  13
ATOM     13  C   UNL     1       6.895   5.625   5.507  1.00  0.00     0.230 C 
BRANCH  13  14
ATOM     14  C   UNL     1       7.723   6.906   5.389  1.00  0.00     0.046 C 
BRANCH  14  15
ATOM     15  C   UNL     1       8.394   6.955   4.015  1.00  0.00     0.043 C 
BRANCH  15  16
ATOM     16  C   UNL     1       9.594   7.864   4.073  1.00  0.00    -0.004 A 
ATOM     17  C   UNL     1       9.597   9.195   3.828  1.00  0.00     0.036 A 
ATOM     18  C   UNL     1      10.901   7.483   4.397  1.00  0.00     0.063 A 
ATOM     19  N   UNL     1      10.862   9.639   3.984  1.00  0.00    -0.282 N 
ATOM     20  N   UNL     1      11.663   8.545   4.337  1.00  0.00    -0.181 NA
ATOM     21  C   UNL     1       8.403  10.031   3.448  1.00  0.00     0.066 C 
ATOM     22  C   UNL     1      11.355   6.088   4.742  1.00  0.00     0.069 C 
ATOM     23  H   UNL     1      11.164  10.554   3.871  1.00  0.00     0.190 HD
ENDBRANCH  15  16
ENDBRANCH  14  15
ENDBRANCH  13  14
ENDBRANCH   1  13
TORSDOF 7
ENDMDL
MODEL 3
REMARK VINA RESULT:    -5.448      0.406      1.802
REMARK INTER + INTRA:          -8.068
REMARK INTER:                  -7.493
REMARK INTRA:                  -0.574
REMARK UNBOUND:                -0.549
REMARK SMILES Cc1n[nH]c(C)c1CCCOc1cc(C(=O)O)ccc1F
REMARK SMILES IDX 11 1 12 2 14 3 18 4 13 5 19 6 20 7 21 8 15 9 16 10 17 11
REMARK SMILES IDX 10 13 9 14 8 15 7 16 5 17 2 18 4 19 3 20 6 21 1 22
REMARK H PARENT 17 12 4 23
ROOT
ATOM      1  O   UNL     1       7.146   5.426   1.027  1.00  0.00    -0.490 OA
ENDROOT
BRANCH   1   2
ATOM      2  C   UNL     1       6.059   4.855   1.610  1.00  0.00     0.155 A 
ATOM      3  C   UNL     1       5.094   3.470   3.323  1.00  0.00     0.063 A 
ATOM      4  C   UNL     1       3.823   3.706   2.792  1.00  0.00     0.019 A 
ATOM      5  C   UNL     1       6.214   4.051   2.724  1.00  0.00     0.065 A 
ATOM      6  C   UNL     1       3.678   4.513   1.684  1.00  0.00     0.044 A 
ATOM      7  C   UNL     1       4.789   5.093   1.095  1.00  0.00     0.165 A 
ATOM      8  F   UNL     1       4.639   5.883   0.009  1.00  0.00    -0.203 F 
BRANCH   3   9
ATOM      9  C   UNL     1       5.254   2.607   4.509  1.00  0.00     0.335 C 
ATOM     10  O   UNL     1       6.304   2.030   4.704  1.00  0.00    -0.246 OA
BRANCH   9  11
ATOM     11  O   UNL     1       4.235   2.463   5.379  1.00  0.00    -0.478 OA
ATOM     12  H   UNL     1       4.411   2.689   6.304  1.00  0.00     0.297 HD
ENDBRANCH   9  11
ENDBRANCH   3   9
ENDBRANCH   1   2
BRANCH   1  13
ATOM     13  C   UNL     1       7.462   6.765   1.416  1.00  0.00     0.230 C 
BRANCH  13  14
ATOM     14  C   UNL     1       8.730   6.761   2.272  1.00  0.00     0.046 C 
BRANCH  14  15
ATOM     15  C   UNL     1       8.462   7.503   3.583  1.00  0.00     0.043 C 
BRANCH  15  16
ATOM     16  C   UNL     1       9.559   8.506   3.827  1.00  0.00    -0.004 A 
ATOM     17  C   UNL     1       9.463   9.846   3.669  1.00  0.00     0.036 A 
ATOM     18  C   UNL     1      10.857   8.217   4.263  1.00  0.00     0.063 A 
ATOM     19  N   UNL     1      10.658  10.386   3.987  1.00  0.00    -0.282 N 
ATOM     20  N   UNL     1      11.518   9.342   4.353  1.00  0.00    -0.181 NA
ATOM     21  C   UNL     1       8.239  10.601   3.220  1.00  0.00     0.066 C 
ATOM     22  C   UNL     1      11.403   6.844   4.564  1.00  0.00     0.069 C 
ATOM     23  H   UNL     1      10.883  11.329   3.966  1.00  0.00     0.190 HD
ENDBRANCH  15  16
ENDBRANCH  14  15
ENDBRANCH  13  14
ENDBRANCH   1  13
TORSDOF 7
ENDMDL
MODEL 4
REMARK VINA RESULT:    -5.422      2.234      3.396
REMARK INTER + INTRA:          -8.032
REMARK INTER:                  -7.386
REMARK INTRA:                  -0.646
REMARK UNBOUND:                -0.549
REMARK SMILES Cc1n[nH]c(C)c1CCCOc1cc(C(=O)O)ccc1F
REMARK SMILES IDX 11 1 12 2 14 3 18 4 13 5 19 6 20 7 21 8 15 9 16 10 17 11
REMARK SMILES IDX 10 13 9 14 8 15 7 16 5 17 2 18 4 19 3 20 6 21 1 22
REMARK H PARENT 17 12 4 23
ROOT
ATOM      1  O   UNL     1       5.733   5.791   5.021  1.00  0.00    -0.490 OA
ENDROOT
BRANCH   1   2
ATOM      2  C   UNL     1       5.163   5.123   3.982  1.00  0.00     0.155 A 
ATOM      3  C   UNL     1       4.257   5.109   1.755  1.00  0.00     0.063 A 
ATOM      4  C   UNL     1       4.009   3.738   1.869  1.00  0.00     0.019 A 
ATOM      5  C   UNL     1       4.837   5.799   2.821  1.00  0.00     0.065 A 
ATOM      6  C   UNL     1       4.343   3.071   3.029  1.00  0.00     0.044 A 
ATOM      7  C   UNL     1       4.923   3.757   4.083  1.00  0.00     0.165 A 
ATOM      8  F   UNL     1       5.248   3.098   5.217  1.00  0.00    -0.203 F 
BRANCH   3   9
ATOM      9  C   UNL     1       3.901   5.826   0.515  1.00  0.00     0.335 C 
ATOM     10  O   UNL     1       3.685   7.020   0.544  1.00  0.00    -0.246 OA
BRANCH   9  11
ATOM     11  O   UNL     1       3.823   5.155  -0.651  1.00  0.00    -0.478 OA
ATOM     12  H   UNL     1       2.948   4.840  -0.919  1.00  0.00     0.297 HD
ENDBRANCH   9  11
ENDBRANCH   3   9
ENDBRANCH   1   2
BRANCH   1  13
ATOM     13  C   UNL     1       7.155   5.708   5.143  1.00  0.00     0.230 C 
BRANCH  13  14
ATOM     14  C   UNL     1       7.768   7.089   4.902  1.00  0.00     0.046 C 
BRANCH  14  15
ATOM     15  C   UNL     1       8.718   7.025   3.704  1.00  0.00     0.043 C 
BRANCH  15  16
ATOM     16  C   UNL     1       9.973   7.798   4.015  1.00  0.00    -0.004 A 
ATOM     17  C   UNL     1      11.153   7.273   4.419  1.00  0.00     0.036 A 
ATOM     18  C   UNL     1      10.126   9.186   3.932  1.00  0.00     0.063 A 
ATOM     19  N   UNL     1      12.020   8.293   4.591  1.00  0.00    -0.282 N 
ATOM     20  N   UNL     1      11.350   9.485   4.283  1.00  0.00    -0.181 NA
ATOM     21  C   UNL     1      11.446   5.812   4.637  1.00  0.00     0.066 C 
ATOM     22  C   UNL     1       9.060  10.170   3.520  1.00  0.00     0.069 C 
ATOM     23  H   UNL     1      12.943   8.215   4.878  1.00  0.00     0.190 HD
ENDBRANCH  15  16
ENDBRANCH  14  15
ENDBRANCH  13  14
ENDBRANCH   1  13
TORSDOF 7
ENDMDL
MODEL 5
REMARK VINA RESULT:    -4.647      3.927      7.039
REMARK INTER + INTRA:          -6.962
REMARK INTER:                  -6.150
REMARK INTRA:                  -0.812
REMARK UNBOUND:                -0.549
REMARK SMILES Cc1n[nH]c(C)c1CCCOc1cc(C(=O)O)ccc1F
REMARK SMILES IDX 11 1 12 2 14 3 18 4 13 5 19 6 20 7 21 8 15 9 16 10 17 11
REMARK SMILES IDX 10 13 9 14 8 15 7 16 5 17 2 18 4 19 3 20 6 21 1 22
REMARK H PARENT 17 12 4 23
ROOT
ATOM      1  O   UNL     1       8.037   5.632   3.758  1.00  0.00    -0.490 OA
ENDROOT
BRANCH   1   2
ATOM      2  C   UNL     1       8.824   6.737   3.847  1.00  0.00     0.155 A 
ATOM      3  C   UNL     1       9.097   9.122   3.718  1.00  0.00     0.063 A 
ATOM      4  C   UNL     1      10.448   8.982   4.045  1.00  0.00     0.019 A 
ATOM      5  C   UNL     1       8.286   7.989   3.621  1.00  0.00     0.065 A 
ATOM      6  C   UNL     1      10.975   7.729   4.275  1.00  0.00     0.044 A 
ATOM      7  C   UNL     1      10.168   6.607   4.183  1.00  0.00     0.165 A 
ATOM      8  F   UNL     1      10.690   5.382   4.410  1.00  0.00    -0.203 F 
BRANCH   3   9
ATOM      9  C   UNL     1       8.529  10.462   3.471  1.00  0.00     0.335 C 
ATOM     10  O   UNL     1       8.473  10.899   2.340  1.00  0.00    -0.246 OA
BRANCH   9  11
ATOM     11  O   UNL     1       8.068  11.198   4.502  1.00  0.00    -0.478 OA
ATOM     12  H   UNL     1       7.112  11.343   4.545  1.00  0.00     0.297 HD
ENDBRANCH   9  11
ENDBRANCH   3   9
ENDBRANCH   1   2
BRANCH   1  13
ATOM     13  C   UNL     1       6.744   5.706   4.365  1.00  0.00     0.230 C 
BRANCH  13  14
ATOM     14  C   UNL     1       5.962   4.429   4.053  1.00  0.00     0.046 C 
BRANCH  14  15
ATOM     15  C   UNL     1       6.328   3.935   2.652  1.00  0.00     0.043 C 
BRANCH  15  16
ATOM     16  C   UNL     1       5.426   4.588   1.637  1.00  0.00    -0.004 A 
ATOM     17  C   UNL     1       4.094   4.388   1.510  1.00  0.00     0.036 A 
ATOM     18  C   UNL     1       5.817   5.512   0.663  1.00  0.00     0.063 A 
ATOM     19  N   UNL     1       3.658   5.154   0.488  1.00  0.00    -0.282 N 
ATOM     20  N   UNL     1       4.760   5.847  -0.031  1.00  0.00    -0.181 NA
ATOM     21  C   UNL     1       3.248   3.475   2.359  1.00  0.00     0.066 C 
ATOM     22  C   UNL     1       7.217   6.025   0.442  1.00  0.00     0.069 C 
ATOM     23  H   UNL     1       2.745   5.214   0.169  1.00  0.00     0.190 HD
ENDBRANCH  15  16
ENDBRANCH  14  15
ENDBRANCH  13  14
ENDBRANCH   1  13
TORSDOF 7
ENDMDL
MODEL 6
REMARK VINA RESULT:    -4.628      3.777      6.553
REMARK INTER + INTRA:          -6.936
REMARK INTER:                  -6.126
REMARK INTRA:                  -0.810
REMARK UNBOUND:                -0.549
REMARK SMILES Cc1n[nH]c(C)c1CCCOc1cc(C(=O)O)ccc1F
REMARK SMILES IDX 11 1 12 2 14 3 18 4 13 5 19 6 20 7 21 8 15 9 16 10 17 11
REMARK SMILES IDX 10 13 9 14 8 15 7 16 5 17 2 18 4 19 3 20 6 21 1 22
REMARK H PARENT 17 12 4 23
ROOT
ATOM      1  O   UNL     1       7.055   7.228   2.815  1.00  0.00    -0.490 OA
ENDROOT
BRANCH   1   2
ATOM      2  C   UNL     1       8.271   7.628   3.274  1.00  0.00     0.155 A 
ATOM      3  C   UNL     1      10.473   7.101   4.082  1.00  0.00     0.063 A 
ATOM      4  C   UNL     1      10.752   8.466   4.200  1.00  0.00     0.019 A 
ATOM      5  C   UNL     1       9.224   6.687   3.616  1.00  0.00     0.065 A 
ATOM      6  C   UNL     1       9.797   9.397   3.851  1.00  0.00     0.044 A 
ATOM      7  C   UNL     1       8.560   8.984   3.384  1.00  0.00     0.165 A 
ATOM      8  F   UNL     1       7.628   9.901   3.044  1.00  0.00    -0.203 F 
BRANCH   3   9
ATOM      9  C   UNL     1      11.494   6.102   4.454  1.00  0.00     0.335 C 
ATOM     10  O   UNL     1      11.506   5.633   5.574  1.00  0.00    -0.246 OA
BRANCH   9  11
ATOM     11  O   UNL     1      12.409   5.704   3.548  1.00  0.00    -0.478 OA
ATOM     12  H   UNL     1      12.116   5.637   2.628  1.00  0.00     0.297 HD
ENDBRANCH   9  11
ENDBRANCH   3   9
ENDBRANCH   1   2
BRANCH   1  13
ATOM     13  C   UNL     1       7.040   6.177   1.847  1.00  0.00     0.230 C 
BRANCH  13  14
ATOM     14  C   UNL     1       5.596   5.748   1.582  1.00  0.00     0.046 C 
BRANCH  14  15
ATOM     15  C   UNL     1       4.772   5.915   2.860  1.00  0.00     0.043 C 
BRANCH  15  16
ATOM     16  C   UNL     1       4.828   4.642   3.665  1.00  0.00    -0.004 A 
ATOM     17  C   UNL     1       4.291   3.451   3.309  1.00  0.00     0.036 A 
ATOM     18  C   UNL     1       5.448   4.480   4.908  1.00  0.00     0.063 A 
ATOM     19  N   UNL     1       4.557   2.569   4.296  1.00  0.00    -0.282 N 
ATOM     20  N   UNL     1       5.281   3.240   5.290  1.00  0.00    -0.181 NA
ATOM     21  C   UNL     1       3.533   3.162   2.040  1.00  0.00     0.066 C 
ATOM     22  C   UNL     1       6.174   5.552   5.680  1.00  0.00     0.069 C 
ATOM     23  H   UNL     1       4.293   1.636   4.314  1.00  0.00     0.190 HD
ENDBRANCH  15  16
ENDBRANCH  14  15
ENDBRANCH  13  14
ENDBRANCH   1  13
TORSDOF 7
ENDMDL
MODEL 7
REMARK VINA RESULT:    -4.476      4.718      8.203
REMARK INTER + INTRA:          -6.727
REMARK INTER:                  -6.057
REMARK INTRA:                  -0.670
REMARK UNBOUND:                -0.549
REMARK SMILES Cc1n[nH]c(C)c1CCCOc1cc(C(=O)O)ccc1F
REMARK SMILES IDX 11 1 12 2 14 3 18 4 13 5 19 6 20 7 21 8 15 9 16 10 17 11
REMARK SMILES IDX 10 13 9 14 8 15 7 16 5 17 2 18 4 19 3 20 6 21 1 22
REMARK H PARENT 17 12 4 23
ROOT
ATOM      1  O   UNL     1       8.850   9.476   3.138  1.00  0.00    -0.490 OA
ENDROOT
BRANCH   1   2
ATOM      2  C   UNL     1       9.268  10.717   3.504  1.00  0.00     0.155 A 
ATOM      3  C   UNL     1      10.997  12.383   3.637  1.00  0.00     0.063 A 
ATOM      4  C   UNL     1      10.099  13.260   4.251  1.00  0.00     0.019 A 
ATOM      5  C   UNL     1      10.572  11.106   3.264  1.00  0.00     0.065 A 
ATOM      6  C   UNL     1       8.798  12.866   4.481  1.00  0.00     0.044 A 
ATOM      7  C   UNL     1       8.378  11.600   4.106  1.00  0.00     0.165 A 
ATOM      8  F   UNL     1       7.102  11.220   4.335  1.00  0.00    -0.203 F 
BRANCH   3   9
ATOM      9  C   UNL     1      12.390  12.802   3.388  1.00  0.00     0.335 C 
ATOM     10  O   UNL     1      12.705  13.968   3.512  1.00  0.00    -0.246 OA
BRANCH   9  11
ATOM     11  O   UNL     1      13.314  11.889   3.031  1.00  0.00    -0.478 OA
ATOM     12  H   UNL     1      14.158  12.225   2.697  1.00  0.00     0.297 HD
ENDBRANCH   9  11
ENDBRANCH   3   9
ENDBRANCH   1   2
BRANCH   1  13
ATOM     13  C   UNL     1       9.288   8.380   3.945  1.00  0.00     0.230 C 
BRANCH  13  14
ATOM     14  C   UNL     1       8.734   7.074   3.373  1.00  0.00     0.046 C 
BRANCH  14  15
ATOM     15  C   UNL     1       7.221   7.202   3.181  1.00  0.00     0.043 C 
BRANCH  15  16
ATOM     16  C   UNL     1       6.619   5.833   3.001  1.00  0.00    -0.004 A 
ATOM     17  C   UNL     1       6.055   5.076   3.971  1.00  0.00     0.036 A 
ATOM     18  C   UNL     1       6.538   5.121   1.799  1.00  0.00     0.063 A 
ATOM     19  N   UNL     1       5.638   3.924   3.405  1.00  0.00    -0.282 N 
ATOM     20  N   UNL     1       5.957   3.974   2.042  1.00  0.00    -0.181 NA
ATOM     21  C   UNL     1       5.917   5.453   5.423  1.00  0.00     0.066 C 
ATOM     22  C   UNL     1       7.045   5.589   0.459  1.00  0.00     0.069 C 
ATOM     23  H   UNL     1       5.197   3.191   3.862  1.00  0.00     0.190 HD
ENDBRANCH  15  16
ENDBRANCH  14  15
ENDBRANCH  13  14
ENDBRANCH   1  13
TORSDOF 7
ENDMDL
MODEL 8
REMARK VINA RESULT:    -4.426      4.660      8.126
REMARK INTER + INTRA:          -6.658
REMARK INTER:                  -5.955
REMARK INTRA:                  -0.703
REMARK UNBOUND:                -0.549
REMARK SMILES Cc1n[nH]c(C)c1CCCOc1cc(C(=O)O)ccc1F
REMARK SMILES IDX 11 1 12 2 14 3 18 4 13 5 19 6 20 7 21 8 15 9 16 10 17 11
REMARK SMILES IDX 10 13 9 14 8 15 7 16 5 17 2 18 4 19 3 20 6 21 1 22
REMARK H PARENT 17 12 4 23
ROOT
ATOM      1  O   UNL     1       8.832   9.313   3.194  1.00  0.00    -0.490 OA
ENDROOT
BRANCH   1   2
ATOM      2  C   UNL     1       9.210  10.574   3.534  1.00  0.00     0.155 A 
ATOM      3  C   UNL     1      10.913  12.260   3.732  1.00  0.00     0.063 A 
ATOM      4  C   UNL     1       9.962  13.157   4.224  1.00  0.00     0.019 A 
ATOM      5  C   UNL     1      10.529  10.963   3.387  1.00  0.00     0.065 A 
ATOM      6  C   UNL     1       8.648  12.762   4.361  1.00  0.00     0.044 A 
ATOM      7  C   UNL     1       8.268  11.476   4.014  1.00  0.00     0.165 A 
ATOM      8  F   UNL     1       6.979  11.095   4.151  1.00  0.00    -0.203 F 
BRANCH   3   9
ATOM      9  C   UNL     1      12.320  12.680   3.583  1.00  0.00     0.335 C 
ATOM     10  O   UNL     1      12.689  13.741   4.043  1.00  0.00    -0.246 OA
BRANCH   9  11
ATOM     11  O   UNL     1      13.197  11.882   2.943  1.00  0.00    -0.478 OA
ATOM     12  H   UNL     1      13.561  12.210   2.108  1.00  0.00     0.297 HD
ENDBRANCH   9  11
ENDBRANCH   3   9
ENDBRANCH   1   2
BRANCH   1  13
ATOM     13  C   UNL     1       9.512   8.235   3.840  1.00  0.00     0.230 C 
BRANCH  13  14
ATOM     14  C   UNL     1       8.821   6.915   3.494  1.00  0.00     0.046 C 
BRANCH  14  15
ATOM     15  C   UNL     1       7.342   7.176   3.199  1.00  0.00     0.043 C 
BRANCH  15  16
ATOM     16  C   UNL     1       6.634   5.865   2.979  1.00  0.00    -0.004 A 
ATOM     17  C   UNL     1       6.522   5.208   1.801  1.00  0.00     0.036 A 
ATOM     18  C   UNL     1       5.980   5.108   3.957  1.00  0.00     0.063 A 
ATOM     19  N   UNL     1       5.818   4.079   2.024  1.00  0.00    -0.282 N 
ATOM     20  N   UNL     1       5.485   4.041   3.385  1.00  0.00    -0.181 NA
ATOM     21  C   UNL     1       7.085   5.656   0.477  1.00  0.00     0.066 C 
ATOM     22  C   UNL     1       5.857   5.467   5.416  1.00  0.00     0.069 C 
ATOM     23  H   UNL     1       5.582   3.412   1.361  1.00  0.00     0.190 HD
ENDBRANCH  15  16
ENDBRANCH  14  15
ENDBRANCH  13  14
ENDBRANCH   1  13
TORSDOF 7
ENDMDL
MODEL 9
REMARK VINA RESULT:    -4.290      2.885      4.103
REMARK INTER + INTRA:          -6.469
REMARK INTER:                  -5.968
REMARK INTRA:                  -0.502
REMARK UNBOUND:                -0.549
REMARK SMILES Cc1n[nH]c(C)c1CCCOc1cc(C(=O)O)ccc1F
REMARK SMILES IDX 11 1 12 2 14 3 18 4 13 5 19 6 20 7 21 8 15 9 16 10 17 11
REMARK SMILES IDX 10 13 9 14 8 15 7 16 5 17 2 18 4 19 3 20 6 21 1 22
REMARK H PARENT 17 12 4 23
ROOT
ATOM      1  O   UNL     1       8.910   8.180   2.563  1.00  0.00    -0.490 OA
ENDROOT
BRANCH   1   2
ATOM      2  C   UNL     1       8.058   7.126   2.449  1.00  0.00     0.155 A 
ATOM      3  C   UNL     1       6.539   5.552   3.447  1.00  0.00     0.063 A 
ATOM      4  C   UNL     1       6.315   4.978   2.192  1.00  0.00     0.019 A 
ATOM      5  C   UNL     1       7.416   6.631   3.569  1.00  0.00     0.065 A 
ATOM      6  C   UNL     1       6.956   5.482   1.080  1.00  0.00     0.044 A 
ATOM      7  C   UNL     1       7.822   6.556   1.202  1.00  0.00     0.165 A 
ATOM      8  F   UNL     1       8.446   7.045   0.109  1.00  0.00    -0.203 F 
BRANCH   3   9
ATOM      9  C   UNL     1       5.854   5.015   4.639  1.00  0.00     0.335 C 
ATOM     10  O   UNL     1       5.211   3.989   4.560  1.00  0.00    -0.246 OA
BRANCH   9  11
ATOM     11  O   UNL     1       5.950   5.662   5.818  1.00  0.00    -0.478 OA
ATOM     12  H   UNL     1       6.481   6.470   5.834  1.00  0.00     0.297 HD
ENDBRANCH   9  11
ENDBRANCH   3   9
ENDBRANCH   1   2
BRANCH   1  13
ATOM     13  C   UNL     1       8.575   9.183   3.525  1.00  0.00     0.230 C 
BRANCH  13  14
ATOM     14  C   UNL     1       8.986  10.556   2.993  1.00  0.00     0.046 C 
BRANCH  14  15
ATOM     15  C   UNL     1      10.172  11.084   3.804  1.00  0.00     0.043 C 
BRANCH  15  16
ATOM     16  C   UNL     1      10.175  12.590   3.770  1.00  0.00    -0.004 A 
ATOM     17  C   UNL     1      10.990  13.368   3.020  1.00  0.00     0.036 A 
ATOM     18  C   UNL     1       9.332  13.431   4.503  1.00  0.00     0.063 A 
ATOM     19  N   UNL     1      10.678  14.656   3.275  1.00  0.00    -0.282 N 
ATOM     20  N   UNL     1       9.637  14.670   4.212  1.00  0.00    -0.181 NA
ATOM     21  C   UNL     1      12.055  12.883   2.071  1.00  0.00     0.066 C 
ATOM     22  C   UNL     1       8.264  12.988   5.470  1.00  0.00     0.069 C 
ATOM     23  H   UNL     1      11.100  15.434   2.880  1.00  0.00     0.190 HD
ENDBRANCH  15  16
ENDBRANCH  14  15
ENDBRANCH  13  14
ENDBRANCH   1  13
TORSDOF 7
ENDMDL
