MODEL 1
REMARK VINA RESULT:    -3.968      0.000      0.000
REMARK INTER + INTRA:          -4.831
REMARK INTER:                  -4.548
REMARK INTRA:                  -0.284
REMARK UNBOUND:                -0.284
REMARK SMILES O=C(O)c1ccc2nc(-c3cc(Cl)cc(Cl)c3)oc2c1
REMARK SMILES IDX 5 1 6 2 20 3 8 4 18 5 4 6 9 7 7 8 19 9 2 10 1 11 3 12 10 14
REMARK SMILES IDX 11 15 17 16 12 17 15 18 14 19 13 20 16 21
REMARK H PARENT 3 13
ROOT
ATOM      1  C   UNL     1      11.200   8.659   4.398  1.00  0.00     0.018 A 
ATOM      2  C   UNL     1       9.929   8.724   3.911  1.00  0.00     0.033 A 
ATOM      3  C   UNL     1      11.075   6.238   4.468  1.00  0.00     0.065 A 
ATOM      4  N   UNL     1       7.956   7.299   3.233  1.00  0.00    -0.209 NA
ATOM      5  O   UNL     1       8.854   5.367   3.674  1.00  0.00    -0.436 OA
ATOM      6  C   UNL     1      11.789   7.419   4.680  1.00  0.00     0.063 A 
ATOM      7  C   UNL     1       7.757   6.005   3.223  1.00  0.00     0.227 A 
ATOM      8  C   UNL     1       9.201   7.548   3.694  1.00  0.00     0.110 A 
ATOM      9  C   UNL     1       9.783   6.300   3.979  1.00  0.00     0.156 A 
ENDROOT
BRANCH   6  10
ATOM     10  C   UNL     1      13.167   7.360   5.200  1.00  0.00     0.335 C 
ATOM     11  O   UNL     1      13.372   7.482   6.391  1.00  0.00    -0.246 OA
BRANCH  10  12
ATOM     12  O   UNL     1      14.200   7.173   4.355  1.00  0.00    -0.478 OA
ATOM     13  H   UNL     1      14.250   6.319   3.905  1.00  0.00     0.297 HD
ENDBRANCH  10  12
ENDBRANCH   6  10
BRANCH   7  14
ATOM     14  C   UNL     1       6.511   5.343   2.783  1.00  0.00     0.040 A 
ATOM     15  C   UNL     1       5.731   5.914   1.777  1.00  0.00     0.034 A 
ATOM     16  C   UNL     1       6.110   4.143   3.374  1.00  0.00     0.034 A 
ATOM     17  C   UNL     1       4.569   5.290   1.370  1.00  0.00     0.043 A 
ATOM     18  C   UNL     1       4.946   3.528   2.958  1.00  0.00     0.043 A 
ATOM     19  C   UNL     1       4.176   4.100   1.959  1.00  0.00     0.041 A 
ATOM     20  Cl  UNL     1       3.597   5.998   0.118  1.00  0.00    -0.084 Cl
ATOM     21  Cl  UNL     1       4.445   2.035   3.691  1.00  0.00    -0.084 Cl
ENDBRANCH   7  14
TORSDOF 3
ENDMDL
MODEL 2
REMARK VINA RESULT:    -3.965      0.008      2.019
REMARK INTER + INTRA:          -4.828
REMARK INTER:                  -4.544
REMARK INTRA:                  -0.284
REMARK UNBOUND:                -0.284
REMARK SMILES O=C(O)c1ccc2nc(-c3cc(Cl)cc(Cl)c3)oc2c1
REMARK SMILES IDX 5 1 6 2 20 3 8 4 18 5 4 6 9 7 7 8 19 9 2 10 1 11 3 12 10 14
REMARK SMILES IDX 11 15 17 16 12 17 15 18 14 19 13 20 16 21
REMARK H PARENT 3 13
ROOT
ATOM      1  C   UNL     1      11.199   8.661   4.399  1.00  0.00     0.018 A 
ATOM      2  C   UNL     1       9.926   8.725   3.916  1.00  0.00     0.033 A 
ATOM      3  C   UNL     1      11.078   6.240   4.463  1.00  0.00     0.065 A 
ATOM      4  N   UNL     1       7.954   7.298   3.240  1.00  0.00    -0.209 NA
ATOM      5  O   UNL     1       8.857   5.366   3.674  1.00  0.00    -0.436 OA
ATOM      6  C   UNL     1      11.791   7.421   4.676  1.00  0.00     0.063 A 
ATOM      7  C   UNL     1       7.757   6.003   3.228  1.00  0.00     0.227 A 
ATOM      8  C   UNL     1       9.199   7.548   3.698  1.00  0.00     0.110 A 
ATOM      9  C   UNL     1       9.785   6.300   3.978  1.00  0.00     0.156 A 
ENDROOT
BRANCH   6  10
ATOM     10  C   UNL     1      13.171   7.364   5.192  1.00  0.00     0.335 C 
ATOM     11  O   UNL     1      13.379   7.490   6.382  1.00  0.00    -0.246 OA
BRANCH  10  12
ATOM     12  O   UNL     1      14.201   7.173   4.344  1.00  0.00    -0.478 OA
ATOM     13  H   UNL     1      15.068   7.489   4.629  1.00  0.00     0.297 HD
ENDBRANCH  10  12
ENDBRANCH   6  10
BRANCH   7  14
ATOM     14  C   UNL     1       6.512   5.339   2.790  1.00  0.00     0.040 A 
ATOM     15  C   UNL     1       6.113   4.138   3.378  1.00  0.00     0.034 A 
ATOM     16  C   UNL     1       5.729   5.912   1.785  1.00  0.00     0.034 A 
ATOM     17  C   UNL     1       4.947   3.524   2.965  1.00  0.00     0.043 A 
ATOM     18  C   UNL     1       4.566   5.288   1.381  1.00  0.00     0.043 A 
ATOM     19  C   UNL     1       4.176   4.097   1.968  1.00  0.00     0.041 A 
ATOM     20  Cl  UNL     1       4.449   2.030   3.695  1.00  0.00    -0.084 Cl
ATOM     21  Cl  UNL     1       3.591   5.999   0.132  1.00  0.00    -0.084 Cl
ENDBRANCH   7  14
TORSDOF 3
ENDMDL
MODEL 3
REMARK VINA RESULT:    -3.964      2.267      3.390
REMARK INTER + INTRA:          -4.827
REMARK INTER:                  -4.531
REMARK INTRA:                  -0.296
REMARK UNBOUND:                -0.284
REMARK SMILES O=C(O)c1ccc2nc(-c3cc(Cl)cc(Cl)c3)oc2c1
REMARK SMILES IDX 5 1 6 2 20 3 8 4 18 5 4 6 9 7 7 8 19 9 2 10 1 11 3 12 10 14
REMARK SMILES IDX 11 15 17 16 12 17 15 18 14 19 13 20 16 21
REMARK H PARENT 3 13
ROOT
ATOM      1  C   UNL     1      10.918   8.956   4.154  1.00  0.00     0.018 A 
ATOM      2  C   UNL     1      10.463   7.672   4.189  1.00  0.00     0.033 A 
ATOM      3  C   UNL     1       8.753   9.728   3.380  1.00  0.00     0.065 A 
ATOM      4  N   UNL     1       8.424   6.245   3.752  1.00  0.00    -0.209 NA
ATOM      5  O   UNL     1       7.101   7.851   3.118  1.00  0.00    -0.436 OA
ATOM      6  C   UNL     1      10.071   9.998   3.752  1.00  0.00     0.063 A 
ATOM      7  C   UNL     1       7.214   6.528   3.337  1.00  0.00     0.227 A 
ATOM      8  C   UNL     1       9.143   7.386   3.819  1.00  0.00     0.110 A 
ATOM      9  C   UNL     1       8.289   8.426   3.409  1.00  0.00     0.156 A 
ENDROOT
BRANCH   6  10
ATOM     10  C   UNL     1      10.573  11.384   3.724  1.00  0.00     0.335 C 
ATOM     11  O   UNL     1       9.853  12.283   3.338  1.00  0.00    -0.246 OA
BRANCH  10  12
ATOM     12  O   UNL     1      11.832  11.654   4.125  1.00  0.00    -0.478 OA
ATOM     13  H   UNL     1      12.247  12.448   3.763  1.00  0.00     0.297 HD
ENDBRANCH  10  12
ENDBRANCH   6  10
BRANCH   7  14
ATOM     14  C   UNL     1       6.135   5.539   3.137  1.00  0.00     0.040 A 
ATOM     15  C   UNL     1       6.099   4.375   3.906  1.00  0.00     0.034 A 
ATOM     16  C   UNL     1       5.146   5.766   2.178  1.00  0.00     0.034 A 
ATOM     17  C   UNL     1       5.087   3.455   3.715  1.00  0.00     0.043 A 
ATOM     18  C   UNL     1       4.139   4.839   1.996  1.00  0.00     0.043 A 
ATOM     19  C   UNL     1       4.110   3.686   2.762  1.00  0.00     0.041 A 
ATOM     20  Cl  UNL     1       5.041   2.007   4.671  1.00  0.00    -0.084 Cl
ATOM     21  Cl  UNL     1       2.909   5.119   0.803  1.00  0.00    -0.084 Cl
ENDBRANCH   7  14
TORSDOF 3
ENDMDL
MODEL 4
REMARK VINA RESULT:    -3.956      2.267      2.754
REMARK INTER + INTRA:          -4.818
REMARK INTER:                  -4.523
REMARK INTRA:                  -0.296
REMARK UNBOUND:                -0.284
REMARK SMILES O=C(O)c1ccc2nc(-c3cc(Cl)cc(Cl)c3)oc2c1
REMARK SMILES IDX 5 1 6 2 20 3 8 4 18 5 4 6 9 7 7 8 19 9 2 10 1 11 3 12 10 14
REMARK SMILES IDX 11 15 17 16 12 17 15 18 14 19 13 20 16 21
REMARK H PARENT 3 13
ROOT
ATOM      1  C   UNL     1      10.918   8.955   4.155  1.00  0.00     0.018 A 
ATOM      2  C   UNL     1      10.462   7.672   4.190  1.00  0.00     0.033 A 
ATOM      3  C   UNL     1       8.754   9.728   3.380  1.00  0.00     0.065 A 
ATOM      4  N   UNL     1       8.423   6.246   3.752  1.00  0.00    -0.209 NA
ATOM      5  O   UNL     1       7.101   7.852   3.118  1.00  0.00    -0.436 OA
ATOM      6  C   UNL     1      10.072   9.998   3.752  1.00  0.00     0.063 A 
ATOM      7  C   UNL     1       7.214   6.529   3.337  1.00  0.00     0.227 A 
ATOM      8  C   UNL     1       9.143   7.386   3.819  1.00  0.00     0.110 A 
ATOM      9  C   UNL     1       8.289   8.426   3.409  1.00  0.00     0.156 A 
ENDROOT
BRANCH   6  10
ATOM     10  C   UNL     1      10.575  11.384   3.724  1.00  0.00     0.335 C 
ATOM     11  O   UNL     1       9.855  12.283   3.339  1.00  0.00    -0.246 OA
BRANCH  10  12
ATOM     12  O   UNL     1      11.833  11.653   4.125  1.00  0.00    -0.478 OA
ATOM     13  H   UNL     1      12.459  10.916   4.132  1.00  0.00     0.297 HD
ENDBRANCH  10  12
ENDBRANCH   6  10
BRANCH   7  14
ATOM     14  C   UNL     1       6.134   5.540   3.137  1.00  0.00     0.040 A 
ATOM     15  C   UNL     1       5.145   5.766   2.179  1.00  0.00     0.034 A 
ATOM     16  C   UNL     1       6.099   4.376   3.907  1.00  0.00     0.034 A 
ATOM     17  C   UNL     1       4.139   4.838   1.996  1.00  0.00     0.043 A 
ATOM     18  C   UNL     1       5.088   3.456   3.715  1.00  0.00     0.043 A 
ATOM     19  C   UNL     1       4.110   3.686   2.763  1.00  0.00     0.041 A 
ATOM     20  Cl  UNL     1       2.908   5.117   0.804  1.00  0.00    -0.084 Cl
ATOM     21  Cl  UNL     1       5.042   2.007   4.672  1.00  0.00    -0.084 Cl
ENDBRANCH   7  14
TORSDOF 3
ENDMDL
MODEL 5
REMARK VINA RESULT:    -3.931      3.972      7.851
REMARK INTER + INTRA:          -4.789
REMARK INTER:                  -4.491
REMARK INTRA:                  -0.298
REMARK UNBOUND:                -0.284
REMARK SMILES O=C(O)c1ccc2nc(-c3cc(Cl)cc(Cl)c3)oc2c1
REMARK SMILES IDX 5 1 6 2 20 3 8 4 18 5 4 6 9 7 7 8 19 9 2 10 1 11 3 12 10 14
REMARK SMILES IDX 11 15 17 16 12 17 15 18 14 19 13 20 16 21
REMARK H PARENT 3 13
ROOT
ATOM      1  C   UNL     1       4.722   3.167   3.083  1.00  0.00     0.018 A 
ATOM      2  C   UNL     1       5.956   3.423   3.601  1.00  0.00     0.033 A 
ATOM      3  C   UNL     1       4.570   5.442   2.258  1.00  0.00     0.065 A 
ATOM      4  N   UNL     1       7.696   5.236   3.858  1.00  0.00    -0.209 NA
ATOM      5  O   UNL     1       6.608   6.805   2.815  1.00  0.00    -0.436 OA
ATOM      6  C   UNL     1       4.015   4.169   2.404  1.00  0.00     0.063 A 
ATOM      7  C   UNL     1       7.740   6.487   3.471  1.00  0.00     0.227 A 
ATOM      8  C   UNL     1       6.524   4.695   3.462  1.00  0.00     0.110 A 
ATOM      9  C   UNL     1       5.819   5.708   2.788  1.00  0.00     0.156 A 
ENDROOT
BRANCH   6  10
ATOM     10  C   UNL     1       2.684   3.878   1.842  1.00  0.00     0.335 C 
ATOM     11  O   UNL     1       2.212   2.763   1.943  1.00  0.00    -0.246 OA
BRANCH  10  12
ATOM     12  O   UNL     1       1.990   4.849   1.214  1.00  0.00    -0.478 OA
ATOM     13  H   UNL     1       2.467   5.661   1.000  1.00  0.00     0.297 HD
ENDBRANCH  10  12
ENDBRANCH   6  10
BRANCH   7  14
ATOM     14  C   UNL     1       8.865   7.411   3.718  1.00  0.00     0.040 A 
ATOM     15  C   UNL     1      10.094   6.918   4.159  1.00  0.00     0.034 A 
ATOM     16  C   UNL     1       8.703   8.783   3.513  1.00  0.00     0.034 A 
ATOM     17  C   UNL     1      11.142   7.787   4.387  1.00  0.00     0.043 A 
ATOM     18  C   UNL     1       9.758   9.642   3.745  1.00  0.00     0.043 A 
ATOM     19  C   UNL     1      10.975   9.146   4.182  1.00  0.00     0.041 A 
ATOM     20  Cl  UNL     1      12.672   7.176   4.934  1.00  0.00    -0.084 Cl
ATOM     21  Cl  UNL     1       9.559  11.348   3.490  1.00  0.00    -0.084 Cl
ENDBRANCH   7  14
TORSDOF 3
ENDMDL
MODEL 6
REMARK VINA RESULT:    -3.931      3.972      7.631
REMARK INTER + INTRA:          -4.789
REMARK INTER:                  -4.491
REMARK INTRA:                  -0.298
REMARK UNBOUND:                -0.284
REMARK SMILES O=C(O)c1ccc2nc(-c3cc(Cl)cc(Cl)c3)oc2c1
REMARK SMILES IDX 5 1 6 2 20 3 8 4 18 5 4 6 9 7 7 8 19 9 2 10 1 11 3 12 10 14
REMARK SMILES IDX 11 15 17 16 12 17 15 18 14 19 13 20 16 21
REMARK H PARENT 3 13
ROOT
ATOM      1  C   UNL     1       4.727   3.168   3.069  1.00  0.00     0.018 A 
ATOM      2  C   UNL     1       5.961   3.423   3.586  1.00  0.00     0.033 A 
ATOM      3  C   UNL     1       4.571   5.447   2.255  1.00  0.00     0.065 A 
ATOM      4  N   UNL     1       7.701   5.236   3.847  1.00  0.00    -0.209 NA
ATOM      5  O   UNL     1       6.610   6.809   2.813  1.00  0.00    -0.436 OA
ATOM      6  C   UNL     1       4.018   4.173   2.396  1.00  0.00     0.063 A 
ATOM      7  C   UNL     1       7.743   6.489   3.465  1.00  0.00     0.227 A 
ATOM      8  C   UNL     1       6.528   4.696   3.451  1.00  0.00     0.110 A 
ATOM      9  C   UNL     1       5.822   5.711   2.783  1.00  0.00     0.156 A 
ENDROOT
BRANCH   6  10
ATOM     10  C   UNL     1       2.686   3.884   1.835  1.00  0.00     0.335 C 
ATOM     11  O   UNL     1       2.211   2.771   1.940  1.00  0.00    -0.246 OA
BRANCH  10  12
ATOM     12  O   UNL     1       1.994   4.855   1.206  1.00  0.00    -0.478 OA
ATOM     13  H   UNL     1       1.749   5.630   1.729  1.00  0.00     0.297 HD
ENDBRANCH  10  12
ENDBRANCH   6  10
BRANCH   7  14
ATOM     14  C   UNL     1       8.869   7.413   3.714  1.00  0.00     0.040 A 
ATOM     15  C   UNL     1       8.710   8.783   3.506  1.00  0.00     0.034 A 
ATOM     16  C   UNL     1      10.097   6.917   4.158  1.00  0.00     0.034 A 
ATOM     17  C   UNL     1       9.766   9.642   3.741  1.00  0.00     0.043 A 
ATOM     18  C   UNL     1      11.144   7.786   4.390  1.00  0.00     0.043 A 
ATOM     19  C   UNL     1      10.980   9.144   4.182  1.00  0.00     0.041 A 
ATOM     20  Cl  UNL     1       9.570  11.347   3.484  1.00  0.00    -0.084 Cl
ATOM     21  Cl  UNL     1      12.672   7.172   4.943  1.00  0.00    -0.084 Cl
ENDBRANCH   7  14
TORSDOF 3
ENDMDL
MODEL 7
REMARK VINA RESULT:    -3.683      4.102      7.328
REMARK INTER + INTRA:          -4.505
REMARK INTER:                  -4.218
REMARK INTRA:                  -0.287
REMARK UNBOUND:                -0.284
REMARK SMILES O=C(O)c1ccc2nc(-c3cc(Cl)cc(Cl)c3)oc2c1
REMARK SMILES IDX 5 1 6 2 20 3 8 4 18 5 4 6 9 7 7 8 19 9 2 10 1 11 3 12 10 14
REMARK SMILES IDX 11 15 17 16 12 17 15 18 14 19 13 20 16 21
REMARK H PARENT 3 13
ROOT
ATOM      1  C   UNL     1       5.847   3.608   2.309  1.00  0.00     0.018 A 
ATOM      2  C   UNL     1       6.523   4.660   1.767  1.00  0.00     0.033 A 
ATOM      3  C   UNL     1       6.113   4.550   4.528  1.00  0.00     0.065 A 
ATOM      4  N   UNL     1       7.698   6.817   2.355  1.00  0.00    -0.209 NA
ATOM      5  O   UNL     1       7.378   6.722   4.505  1.00  0.00    -0.436 OA
ATOM      6  C   UNL     1       5.632   3.540   3.693  1.00  0.00     0.063 A 
ATOM      7  C   UNL     1       7.912   7.431   3.492  1.00  0.00     0.227 A 
ATOM      8  C   UNL     1       7.010   5.680   2.593  1.00  0.00     0.110 A 
ATOM      9  C   UNL     1       6.803   5.617   3.982  1.00  0.00     0.156 A 
ENDROOT
BRANCH   6  10
ATOM     10  C   UNL     1       4.895   2.400   4.268  1.00  0.00     0.335 C 
ATOM     11  O   UNL     1       4.617   1.444   3.572  1.00  0.00    -0.246 OA
BRANCH  10  12
ATOM     12  O   UNL     1       4.528   2.419   5.564  1.00  0.00    -0.478 OA
ATOM     13  H   UNL     1       3.751   1.898   5.809  1.00  0.00     0.297 HD
ENDBRANCH  10  12
ENDBRANCH   6  10
BRANCH   7  14
ATOM     14  C   UNL     1       8.634   8.712   3.641  1.00  0.00     0.040 A 
ATOM     15  C   UNL     1      10.005   8.717   3.901  1.00  0.00     0.034 A 
ATOM     16  C   UNL     1       7.947   9.921   3.522  1.00  0.00     0.034 A 
ATOM     17  C   UNL     1      10.674   9.917   4.037  1.00  0.00     0.043 A 
ATOM     18  C   UNL     1       8.627  11.114   3.661  1.00  0.00     0.043 A 
ATOM     19  C   UNL     1       9.987  11.113   3.919  1.00  0.00     0.041 A 
ATOM     20  Cl  UNL     1      12.380   9.927   4.360  1.00  0.00    -0.084 Cl
ATOM     21  Cl  UNL     1       7.774  12.620   3.514  1.00  0.00    -0.084 Cl
ENDBRANCH   7  14
TORSDOF 3
ENDMDL
MODEL 8
REMARK VINA RESULT:    -3.566      4.972      7.860
REMARK INTER + INTRA:          -4.370
REMARK INTER:                  -4.084
REMARK INTRA:                  -0.287
REMARK UNBOUND:                -0.284
REMARK SMILES O=C(O)c1ccc2nc(-c3cc(Cl)cc(Cl)c3)oc2c1
REMARK SMILES IDX 5 1 6 2 20 3 8 4 18 5 4 6 9 7 7 8 19 9 2 10 1 11 3 12 10 14
REMARK SMILES IDX 11 15 17 16 12 17 15 18 14 19 13 20 16 21
REMARK H PARENT 3 13
ROOT
ATOM      1  C   UNL     1       7.487   5.743   3.765  1.00  0.00     0.018 A 
ATOM      2  C   UNL     1       7.958   6.738   4.568  1.00  0.00     0.033 A 
ATOM      3  C   UNL     1       7.849   7.123   1.804  1.00  0.00     0.065 A 
ATOM      4  N   UNL     1       8.884   9.088   4.532  1.00  0.00    -0.209 NA
ATOM      5  O   UNL     1       8.791   9.382   2.379  1.00  0.00    -0.436 OA
ATOM      6  C   UNL     1       7.429   5.921   2.375  1.00  0.00     0.063 A 
ATOM      7  C   UNL     1       9.124   9.933   3.561  1.00  0.00     0.227 A 
ATOM      8  C   UNL     1       8.383   7.949   4.008  1.00  0.00     0.110 A 
ATOM      9  C   UNL     1       8.323   8.137   2.616  1.00  0.00     0.156 A 
ENDROOT
BRANCH   6  10
ATOM     10  C   UNL     1       6.923   4.836   1.515  1.00  0.00     0.335 C 
ATOM     11  O   UNL     1       6.551   5.080   0.385  1.00  0.00    -0.246 OA
BRANCH  10  12
ATOM     12  O   UNL     1       6.872   3.573   1.983  1.00  0.00    -0.478 OA
ATOM     13  H   UNL     1       6.135   3.023   1.685  1.00  0.00     0.297 HD
ENDBRANCH  10  12
ENDBRANCH   6  10
BRANCH   7  14
ATOM     14  C   UNL     1       9.678  11.292   3.738  1.00  0.00     0.040 A 
ATOM     15  C   UNL     1      10.984  11.574   3.336  1.00  0.00     0.034 A 
ATOM     16  C   UNL     1       8.897  12.298   4.310  1.00  0.00     0.034 A 
ATOM     17  C   UNL     1      11.495  12.846   3.503  1.00  0.00     0.043 A 
ATOM     18  C   UNL     1       9.419  13.565   4.472  1.00  0.00     0.043 A 
ATOM     19  C   UNL     1      10.715  13.839   4.070  1.00  0.00     0.041 A 
ATOM     20  Cl  UNL     1      13.119  13.200   3.002  1.00  0.00    -0.084 Cl
ATOM     21  Cl  UNL     1       8.449  14.818   5.182  1.00  0.00    -0.084 Cl
ENDBRANCH   7  14
TORSDOF 3
ENDMDL
MODEL 9
REMARK VINA RESULT:    -3.559      4.971      7.834
REMARK INTER + INTRA:          -4.363
REMARK INTER:                  -4.076
REMARK INTRA:                  -0.287
REMARK UNBOUND:                -0.284
REMARK SMILES O=C(O)c1ccc2nc(-c3cc(Cl)cc(Cl)c3)oc2c1
REMARK SMILES IDX 5 1 6 2 20 3 8 4 18 5 4 6 9 7 7 8 19 9 2 10 1 11 3 12 10 14
REMARK SMILES IDX 11 15 17 16 12 17 15 18 14 19 13 20 16 21
REMARK H PARENT 3 13
ROOT
ATOM      1  C   UNL     1       7.487   5.738   3.772  1.00  0.00     0.018 A 
ATOM      2  C   UNL     1       7.957   6.734   4.575  1.00  0.00     0.033 A 
ATOM      3  C   UNL     1       7.847   7.117   1.810  1.00  0.00     0.065 A 
ATOM      4  N   UNL     1       8.882   9.085   4.536  1.00  0.00    -0.209 NA
ATOM      5  O   UNL     1       8.788   9.377   2.382  1.00  0.00    -0.436 OA
ATOM      6  C   UNL     1       7.427   5.915   2.383  1.00  0.00     0.063 A 
ATOM      7  C   UNL     1       9.121   9.929   3.564  1.00  0.00     0.227 A 
ATOM      8  C   UNL     1       8.381   7.945   4.013  1.00  0.00     0.110 A 
ATOM      9  C   UNL     1       8.320   8.132   2.621  1.00  0.00     0.156 A 
ENDROOT
BRANCH   6  10
ATOM     10  C   UNL     1       6.922   4.828   1.524  1.00  0.00     0.335 C 
ATOM     11  O   UNL     1       6.545   5.071   0.395  1.00  0.00    -0.246 OA
BRANCH  10  12
ATOM     12  O   UNL     1       6.878   3.565   1.992  1.00  0.00    -0.478 OA
ATOM     13  H   UNL     1       7.655   3.246   2.469  1.00  0.00     0.297 HD
ENDBRANCH  10  12
ENDBRANCH   6  10
BRANCH   7  14
ATOM     14  C   UNL     1       9.674  11.288   3.739  1.00  0.00     0.040 A 
ATOM     15  C   UNL     1       8.895  12.294   4.310  1.00  0.00     0.034 A 
ATOM     16  C   UNL     1      10.980  11.570   3.332  1.00  0.00     0.034 A 
ATOM     17  C   UNL     1       9.418  13.562   4.472  1.00  0.00     0.043 A 
ATOM     18  C   UNL     1      11.492  12.842   3.500  1.00  0.00     0.043 A 
ATOM     19  C   UNL     1      10.713  13.835   4.067  1.00  0.00     0.041 A 
ATOM     20  Cl  UNL     1       8.450  14.815   5.183  1.00  0.00    -0.084 Cl
ATOM     21  Cl  UNL     1      13.116  13.195   2.995  1.00  0.00    -0.084 Cl
ENDBRANCH   7  14
TORSDOF 3
ENDMDL
