MODEL 1
REMARK VINA RESULT:    -5.975      0.000      0.000
REMARK INTER + INTRA:          -8.895
REMARK INTER:                  -8.246
REMARK INTRA:                  -0.650
REMARK UNBOUND:                -0.650
REMARK SMILES Cc1n[nH]c(C)c1CCCOc1cc(C(=O)O)ccc1F
REMARK SMILES IDX 11 1 12 2 14 3 18 4 13 5 19 6 20 7 21 8 15 9 16 10 17 11
REMARK SMILES IDX 10 13 9 14 8 15 7 16 5 17 2 18 4 19 3 20 6 21 1 22
REMARK H PARENT 17 12 4 23
ROOT
ATOM      1  O   UNL     1      -2.591   6.425  -7.752  1.00  0.00    -0.490 OA
ENDROOT
BRANCH   1   2
ATOM      2  C   UNL     1      -2.113   5.719  -6.693  1.00  0.00     0.155 A 
ATOM      3  C   UNL     1      -0.539   5.465  -4.893  1.00  0.00     0.063 A 
ATOM      4  C   UNL     1      -1.157   4.266  -4.527  1.00  0.00     0.019 A 
ATOM      5  C   UNL     1      -1.024   6.190  -5.983  1.00  0.00     0.065 A 
ATOM      6  C   UNL     1      -2.246   3.807  -5.238  1.00  0.00     0.044 A 
ATOM      7  C   UNL     1      -2.729   4.531  -6.315  1.00  0.00     0.165 A 
ATOM      8  F   UNL     1      -3.796   4.076  -7.007  1.00  0.00    -0.203 F 
BRANCH   3   9
ATOM      9  C   UNL     1       0.627   5.959  -4.134  1.00  0.00     0.335 C 
ATOM     10  O   UNL     1       1.672   6.189  -4.707  1.00  0.00    -0.246 OA
BRANCH   9  11
ATOM     11  O   UNL     1       0.528   6.161  -2.806  1.00  0.00    -0.478 OA
ATOM     12  H   UNL     1       0.291   5.398  -2.261  1.00  0.00     0.297 HD
ENDBRANCH   9  11
ENDBRANCH   3   9
ENDBRANCH   1   2
BRANCH   1  13
ATOM     13  C   UNL     1      -2.043   6.119  -9.036  1.00  0.00     0.230 C 
BRANCH  13  14
ATOM     14  C   UNL     1      -2.066   7.374  -9.911  1.00  0.00     0.046 C 
BRANCH  14  15
ATOM     15  C   UNL     1      -1.920   8.615  -9.028  1.00  0.00     0.043 C 
BRANCH  15  16
ATOM     16  C   UNL     1      -1.891   9.848  -9.893  1.00  0.00    -0.004 A 
ATOM     17  C   UNL     1      -0.782  10.465 -10.362  1.00  0.00     0.036 A 
ATOM     18  C   UNL     1      -3.005  10.553 -10.359  1.00  0.00     0.063 A 
ATOM     19  N   UNL     1      -1.181  11.528 -11.093  1.00  0.00    -0.282 N 
ATOM     20  N   UNL     1      -2.581  11.564 -11.072  1.00  0.00    -0.181 NA
ATOM     21  C   UNL     1       0.642  10.043 -10.114  1.00  0.00     0.066 C 
ATOM     22  C   UNL     1      -4.447  10.214 -10.076  1.00  0.00     0.069 C 
ATOM     23  H   UNL     1      -0.600  12.155 -11.551  1.00  0.00     0.190 HD
ENDBRANCH  15  16
ENDBRANCH  14  15
ENDBRANCH  13  14
ENDBRANCH   1  13
TORSDOF 7
ENDMDL
MODEL 2
REMARK VINA RESULT:    -5.892      1.995      3.690
REMARK INTER + INTRA:          -8.780
REMARK INTER:                  -8.120
REMARK INTRA:                  -0.661
REMARK UNBOUND:                -0.650
REMARK SMILES Cc1n[nH]c(C)c1CCCOc1cc(C(=O)O)ccc1F
REMARK SMILES IDX 11 1 12 2 14 3 18 4 13 5 19 6 20 7 21 8 15 9 16 10 17 11
REMARK SMILES IDX 10 13 9 14 8 15 7 16 5 17 2 18 4 19 3 20 6 21 1 22
REMARK H PARENT 17 12 4 23
ROOT
ATOM      1  O   UNL     1      -0.589   7.413  -6.318  1.00  0.00    -0.490 OA
ENDROOT
BRANCH   1   2
ATOM      2  C   UNL     1      -0.991   6.201  -5.850  1.00  0.00     0.155 A 
ATOM      3  C   UNL     1      -2.469   4.308  -5.958  1.00  0.00     0.063 A 
ATOM      4  C   UNL     1      -1.790   3.722  -4.886  1.00  0.00     0.019 A 
ATOM      5  C   UNL     1      -2.062   5.555  -6.437  1.00  0.00     0.065 A 
ATOM      6  C   UNL     1      -0.719   4.372  -4.310  1.00  0.00     0.044 A 
ATOM      7  C   UNL     1      -0.314   5.606  -4.791  1.00  0.00     0.165 A 
ATOM      8  F   UNL     1       0.736   6.238  -4.223  1.00  0.00    -0.203 F 
BRANCH   3   9
ATOM      9  C   UNL     1      -3.616   3.614  -6.576  1.00  0.00     0.335 C 
ATOM     10  O   UNL     1      -4.680   4.186  -6.695  1.00  0.00    -0.246 OA
BRANCH   9  11
ATOM     11  O   UNL     1      -3.479   2.348  -7.016  1.00  0.00    -0.478 OA
ATOM     12  H   UNL     1      -3.962   2.107  -7.819  1.00  0.00     0.297 HD
ENDBRANCH   9  11
ENDBRANCH   3   9
ENDBRANCH   1   2
BRANCH   1  13
ATOM     13  C   UNL     1      -1.400   8.541  -5.979  1.00  0.00     0.230 C 
BRANCH  13  14
ATOM     14  C   UNL     1      -1.354   9.562  -7.117  1.00  0.00     0.046 C 
BRANCH  14  15
ATOM     15  C   UNL     1      -1.465   8.834  -8.459  1.00  0.00     0.043 C 
BRANCH  15  16
ATOM     16  C   UNL     1      -1.556   9.845  -9.573  1.00  0.00    -0.004 A 
ATOM     17  C   UNL     1      -2.695  10.354 -10.095  1.00  0.00     0.036 A 
ATOM     18  C   UNL     1      -0.476  10.428 -10.245  1.00  0.00     0.063 A 
ATOM     19  N   UNL     1      -2.350  11.223 -11.068  1.00  0.00    -0.282 N 
ATOM     20  N   UNL     1      -0.951  11.248 -11.147  1.00  0.00    -0.181 NA
ATOM     21  C   UNL     1      -4.099  10.013  -9.667  1.00  0.00     0.066 C 
ATOM     22  C   UNL     1       0.982  10.148  -9.985  1.00  0.00     0.069 C 
ATOM     23  H   UNL     1      -2.961  11.738 -11.617  1.00  0.00     0.190 HD
ENDBRANCH  15  16
ENDBRANCH  14  15
ENDBRANCH  13  14
ENDBRANCH   1  13
TORSDOF 7
ENDMDL
MODEL 3
REMARK VINA RESULT:    -5.882      0.185      1.776
REMARK INTER + INTRA:          -8.766
REMARK INTER:                  -8.109
REMARK INTRA:                  -0.657
REMARK UNBOUND:                -0.650
REMARK SMILES Cc1n[nH]c(C)c1CCCOc1cc(C(=O)O)ccc1F
REMARK SMILES IDX 11 1 12 2 14 3 18 4 13 5 19 6 20 7 21 8 15 9 16 10 17 11
REMARK SMILES IDX 10 13 9 14 8 15 7 16 5 17 2 18 4 19 3 20 6 21 1 22
REMARK H PARENT 17 12 4 23
ROOT
ATOM      1  O   UNL     1      -2.593   6.327  -7.772  1.00  0.00    -0.490 OA
ENDROOT
BRANCH   1   2
ATOM      2  C   UNL     1      -2.109   5.645  -6.700  1.00  0.00     0.155 A 
ATOM      3  C   UNL     1      -0.537   5.439  -4.893  1.00  0.00     0.063 A 
ATOM      4  C   UNL     1      -1.144   4.241  -4.505  1.00  0.00     0.019 A 
ATOM      5  C   UNL     1      -1.027   6.139  -5.997  1.00  0.00     0.065 A 
ATOM      6  C   UNL     1      -2.227   3.759  -5.209  1.00  0.00     0.044 A 
ATOM      7  C   UNL     1      -2.715   4.458  -6.301  1.00  0.00     0.165 A 
ATOM      8  F   UNL     1      -3.777   3.980  -6.987  1.00  0.00    -0.203 F 
BRANCH   3   9
ATOM      9  C   UNL     1       0.623   5.958  -4.141  1.00  0.00     0.335 C 
ATOM     10  O   UNL     1       1.667   6.186  -4.717  1.00  0.00    -0.246 OA
BRANCH   9  11
ATOM     11  O   UNL     1       0.520   6.184  -2.817  1.00  0.00    -0.478 OA
ATOM     12  H   UNL     1       1.299   5.993  -2.276  1.00  0.00     0.297 HD
ENDBRANCH   9  11
ENDBRANCH   3   9
ENDBRANCH   1   2
BRANCH   1  13
ATOM     13  C   UNL     1      -1.928   6.126  -9.022  1.00  0.00     0.230 C 
BRANCH  13  14
ATOM     14  C   UNL     1      -2.089   7.374  -9.891  1.00  0.00     0.046 C 
BRANCH  14  15
ATOM     15  C   UNL     1      -1.865   8.623  -9.036  1.00  0.00     0.043 C 
BRANCH  15  16
ATOM     16  C   UNL     1      -1.725   9.827  -9.932  1.00  0.00    -0.004 A 
ATOM     17  C   UNL     1      -2.741  10.557 -10.449  1.00  0.00     0.036 A 
ATOM     18  C   UNL     1      -0.523  10.392 -10.370  1.00  0.00     0.063 A 
ATOM     19  N   UNL     1      -2.200  11.544 -11.194  1.00  0.00    -0.282 N 
ATOM     20  N   UNL     1      -0.806  11.417 -11.132  1.00  0.00    -0.181 NA
ATOM     21  C   UNL     1      -4.211  10.311 -10.232  1.00  0.00     0.066 C 
ATOM     22  C   UNL     1       0.861   9.897 -10.033  1.00  0.00     0.069 C 
ATOM     23  H   UNL     1      -2.690  12.222 -11.685  1.00  0.00     0.190 HD
ENDBRANCH  15  16
ENDBRANCH  14  15
ENDBRANCH  13  14
ENDBRANCH   1  13
TORSDOF 7
ENDMDL
MODEL 4
REMARK VINA RESULT:    -5.833      1.982      3.225
REMARK INTER + INTRA:          -8.700
REMARK INTER:                  -8.042
REMARK INTRA:                  -0.658
REMARK UNBOUND:                -0.650
REMARK SMILES Cc1n[nH]c(C)c1CCCOc1cc(C(=O)O)ccc1F
REMARK SMILES IDX 11 1 12 2 14 3 18 4 13 5 19 6 20 7 21 8 15 9 16 10 17 11
REMARK SMILES IDX 10 13 9 14 8 15 7 16 5 17 2 18 4 19 3 20 6 21 1 22
REMARK H PARENT 17 12 4 23
ROOT
ATOM      1  O   UNL     1      -0.641   7.419  -6.452  1.00  0.00    -0.490 OA
ENDROOT
BRANCH   1   2
ATOM      2  C   UNL     1      -1.022   6.216  -5.946  1.00  0.00     0.155 A 
ATOM      3  C   UNL     1      -2.476   4.301  -5.984  1.00  0.00     0.063 A 
ATOM      4  C   UNL     1      -1.778   3.754  -4.904  1.00  0.00     0.019 A 
ATOM      5  C   UNL     1      -2.090   5.539  -6.503  1.00  0.00     0.065 A 
ATOM      6  C   UNL     1      -0.710   4.435  -4.358  1.00  0.00     0.044 A 
ATOM      7  C   UNL     1      -0.326   5.660  -4.878  1.00  0.00     0.165 A 
ATOM      8  F   UNL     1       0.721   6.321  -4.339  1.00  0.00    -0.203 F 
BRANCH   3   9
ATOM      9  C   UNL     1      -3.619   3.575  -6.571  1.00  0.00     0.335 C 
ATOM     10  O   UNL     1      -4.696   4.125  -6.681  1.00  0.00    -0.246 OA
BRANCH   9  11
ATOM     11  O   UNL     1      -3.466   2.304  -6.991  1.00  0.00    -0.478 OA
ATOM     12  H   UNL     1      -3.203   1.651  -6.327  1.00  0.00     0.297 HD
ENDBRANCH   9  11
ENDBRANCH   3   9
ENDBRANCH   1   2
BRANCH   1  13
ATOM     13  C   UNL     1      -1.417   8.558  -6.071  1.00  0.00     0.230 C 
BRANCH  13  14
ATOM     14  C   UNL     1      -1.371   9.602  -7.188  1.00  0.00     0.046 C 
BRANCH  14  15
ATOM     15  C   UNL     1      -1.586   8.914  -8.538  1.00  0.00     0.043 C 
BRANCH  15  16
ATOM     16  C   UNL     1      -1.749   9.957  -9.614  1.00  0.00    -0.004 A 
ATOM     17  C   UNL     1      -0.747  10.584 -10.273  1.00  0.00     0.036 A 
ATOM     18  C   UNL     1      -2.962  10.443 -10.112  1.00  0.00     0.063 A 
ATOM     19  N   UNL     1      -1.306  11.441 -11.152  1.00  0.00    -0.282 N 
ATOM     20  N   UNL     1      -2.698  11.338 -11.029  1.00  0.00    -0.181 NA
ATOM     21  C   UNL     1       0.729  10.364 -10.063  1.00  0.00     0.066 C 
ATOM     22  C   UNL     1      -4.336  10.018  -9.662  1.00  0.00     0.069 C 
ATOM     23  H   UNL     1      -0.829  12.026 -11.761  1.00  0.00     0.190 HD
ENDBRANCH  15  16
ENDBRANCH  14  15
ENDBRANCH  13  14
ENDBRANCH   1  13
TORSDOF 7
ENDMDL
MODEL 5
REMARK VINA RESULT:    -5.168      9.188     11.763
REMARK INTER + INTRA:          -7.782
REMARK INTER:                  -6.371
REMARK INTRA:                  -1.410
REMARK UNBOUND:                -0.650
REMARK SMILES Cc1n[nH]c(C)c1CCCOc1cc(C(=O)O)ccc1F
REMARK SMILES IDX 11 1 12 2 14 3 18 4 13 5 19 6 20 7 21 8 15 9 16 10 17 11
REMARK SMILES IDX 10 13 9 14 8 15 7 16 5 17 2 18 4 19 3 20 6 21 1 22
REMARK H PARENT 17 12 4 23
ROOT
ATOM      1  O   UNL     1       0.977  13.629 -16.123  1.00  0.00    -0.490 OA
ENDROOT
BRANCH   1   2
ATOM      2  C   UNL     1       1.482  14.635 -15.360  1.00  0.00     0.155 A 
ATOM      3  C   UNL     1       3.326  15.652 -14.200  1.00  0.00     0.063 A 
ATOM      4  C   UNL     1       2.495  16.705 -13.808  1.00  0.00     0.019 A 
ATOM      5  C   UNL     1       2.810  14.614 -14.979  1.00  0.00     0.065 A 
ATOM      6  C   UNL     1       1.172  16.720 -14.198  1.00  0.00     0.044 A 
ATOM      7  C   UNL     1       0.664  15.692 -14.975  1.00  0.00     0.165 A 
ATOM      8  F   UNL     1      -0.633  15.713 -15.353  1.00  0.00    -0.203 F 
BRANCH   3   9
ATOM      9  C   UNL     1       4.743  15.633 -13.785  1.00  0.00     0.335 C 
ATOM     10  O   UNL     1       5.096  14.929 -12.861  1.00  0.00    -0.246 OA
BRANCH   9  11
ATOM     11  O   UNL     1       5.645  16.392 -14.436  1.00  0.00    -0.478 OA
ATOM     12  H   UNL     1       5.315  17.193 -14.868  1.00  0.00     0.297 HD
ENDBRANCH   9  11
ENDBRANCH   3   9
ENDBRANCH   1   2
BRANCH   1  13
ATOM     13  C   UNL     1       1.918  12.737 -16.725  1.00  0.00     0.230 C 
BRANCH  13  14
ATOM     14  C   UNL     1       1.798  11.357 -16.076  1.00  0.00     0.046 C 
BRANCH  14  15
ATOM     15  C   UNL     1       3.174  10.688 -16.040  1.00  0.00     0.043 C 
BRANCH  15  16
ATOM     16  C   UNL     1       3.951  11.200 -14.856  1.00  0.00    -0.004 A 
ATOM     17  C   UNL     1       5.080  11.945 -14.906  1.00  0.00     0.036 A 
ATOM     18  C   UNL     1       3.630  10.996 -13.510  1.00  0.00     0.063 A 
ATOM     19  N   UNL     1       5.463  12.197 -13.636  1.00  0.00    -0.282 N 
ATOM     20  N   UNL     1       4.539  11.587 -12.778  1.00  0.00    -0.181 NA
ATOM     21  C   UNL     1       5.783  12.410 -16.154  1.00  0.00     0.066 C 
ATOM     22  C   UNL     1       2.447  10.218 -12.991  1.00  0.00     0.069 C 
ATOM     23  H   UNL     1       6.241  12.709 -13.366  1.00  0.00     0.190 HD
ENDBRANCH  15  16
ENDBRANCH  14  15
ENDBRANCH  13  14
ENDBRANCH   1  13
TORSDOF 7
ENDMDL
MODEL 6
REMARK VINA RESULT:    -5.026      7.047      9.638
REMARK INTER + INTRA:          -7.585
REMARK INTER:                  -6.184
REMARK INTRA:                  -1.401
REMARK UNBOUND:                -0.650
REMARK SMILES Cc1n[nH]c(C)c1CCCOc1cc(C(=O)O)ccc1F
REMARK SMILES IDX 11 1 12 2 14 3 18 4 13 5 19 6 20 7 21 8 15 9 16 10 17 11
REMARK SMILES IDX 10 13 9 14 8 15 7 16 5 17 2 18 4 19 3 20 6 21 1 22
REMARK H PARENT 17 12 4 23
ROOT
ATOM      1  O   UNL     1       3.515  10.910 -12.694  1.00  0.00    -0.490 OA
ENDROOT
BRANCH   1   2
ATOM      2  C   UNL     1       2.328  11.269 -12.137  1.00  0.00     0.155 A 
ATOM      3  C   UNL     1       0.532  12.848 -11.886  1.00  0.00     0.063 A 
ATOM      4  C   UNL     1      -0.103  11.979 -10.995  1.00  0.00     0.019 A 
ATOM      5  C   UNL     1       1.754  12.485 -12.457  1.00  0.00     0.065 A 
ATOM      6  C   UNL     1       0.474  10.766 -10.687  1.00  0.00     0.044 A 
ATOM      7  C   UNL     1       1.684  10.405 -11.257  1.00  0.00     0.165 A 
ATOM      8  F   UNL     1       2.244   9.215 -10.951  1.00  0.00    -0.203 F 
BRANCH   3   9
ATOM      9  C   UNL     1      -0.084  14.148 -12.219  1.00  0.00     0.335 C 
ATOM     10  O   UNL     1       0.615  15.085 -12.546  1.00  0.00    -0.246 OA
BRANCH   9  11
ATOM     11  O   UNL     1      -1.423  14.292 -12.167  1.00  0.00    -0.478 OA
ATOM     12  H   UNL     1      -1.848  14.131 -11.313  1.00  0.00     0.297 HD
ENDBRANCH   9  11
ENDBRANCH   3   9
ENDBRANCH   1   2
BRANCH   1  13
ATOM     13  C   UNL     1       3.738  11.298 -14.052  1.00  0.00     0.230 C 
BRANCH  13  14
ATOM     14  C   UNL     1       4.892  12.300 -14.112  1.00  0.00     0.046 C 
BRANCH  14  15
ATOM     15  C   UNL     1       4.699  13.229 -15.313  1.00  0.00     0.043 C 
BRANCH  15  16
ATOM     16  C   UNL     1       3.940  14.457 -14.882  1.00  0.00    -0.004 A 
ATOM     17  C   UNL     1       2.641  14.727 -15.153  1.00  0.00     0.036 A 
ATOM     18  C   UNL     1       4.450  15.516 -14.124  1.00  0.00     0.063 A 
ATOM     19  N   UNL     1       2.343  15.918 -14.593  1.00  0.00    -0.282 N 
ATOM     20  N   UNL     1       3.496  16.396 -13.957  1.00  0.00    -0.181 NA
ATOM     21  C   UNL     1       1.699  13.853 -15.939  1.00  0.00     0.066 C 
ATOM     22  C   UNL     1       5.860  15.631 -13.602  1.00  0.00     0.069 C 
ATOM     23  H   UNL     1       1.483  16.364 -14.626  1.00  0.00     0.190 HD
ENDBRANCH  15  16
ENDBRANCH  14  15
ENDBRANCH  13  14
ENDBRANCH   1  13
TORSDOF 7
ENDMDL
MODEL 7
REMARK VINA RESULT:    -4.901      3.752      6.675
REMARK INTER + INTRA:          -7.412
REMARK INTER:                  -6.572
REMARK INTRA:                  -0.840
REMARK UNBOUND:                -0.650
REMARK SMILES Cc1n[nH]c(C)c1CCCOc1cc(C(=O)O)ccc1F
REMARK SMILES IDX 11 1 12 2 14 3 18 4 13 5 19 6 20 7 21 8 15 9 16 10 17 11
REMARK SMILES IDX 10 13 9 14 8 15 7 16 5 17 2 18 4 19 3 20 6 21 1 22
REMARK H PARENT 17 12 4 23
ROOT
ATOM      1  O   UNL     1      -2.640   7.584  -8.103  1.00  0.00    -0.490 OA
ENDROOT
BRANCH   1   2
ATOM      2  C   UNL     1      -2.292   8.635  -8.893  1.00  0.00     0.155 A 
ATOM      3  C   UNL     1      -0.605   9.990  -9.941  1.00  0.00     0.063 A 
ATOM      4  C   UNL     1      -1.604  10.781 -10.516  1.00  0.00     0.019 A 
ATOM      5  C   UNL     1      -0.959   8.913  -9.125  1.00  0.00     0.065 A 
ATOM      6  C   UNL     1      -2.932  10.492 -10.283  1.00  0.00     0.044 A 
ATOM      7  C   UNL     1      -3.280   9.420  -9.478  1.00  0.00     0.165 A 
ATOM      8  F   UNL     1      -4.583   9.142  -9.254  1.00  0.00    -0.203 F 
BRANCH   3   9
ATOM      9  C   UNL     1       0.817  10.297 -10.188  1.00  0.00     0.335 C 
ATOM     10  O   UNL     1       1.125  11.299 -10.800  1.00  0.00    -0.246 OA
BRANCH   9  11
ATOM     11  O   UNL     1       1.774   9.467  -9.729  1.00  0.00    -0.478 OA
ATOM     12  H   UNL     1       1.604   9.024  -8.886  1.00  0.00     0.297 HD
ENDBRANCH   9  11
ENDBRANCH   3   9
ENDBRANCH   1   2
BRANCH   1  13
ATOM     13  C   UNL     1      -1.915   6.365  -8.289  1.00  0.00     0.230 C 
BRANCH  13  14
ATOM     14  C   UNL     1      -2.415   5.318  -7.293  1.00  0.00     0.046 C 
BRANCH  14  15
ATOM     15  C   UNL     1      -2.753   5.998  -5.964  1.00  0.00     0.043 C 
BRANCH  15  16
ATOM     16  C   UNL     1      -1.522   6.050  -5.098  1.00  0.00    -0.004 A 
ATOM     17  C   UNL     1      -0.918   4.991  -4.509  1.00  0.00     0.036 A 
ATOM     18  C   UNL     1      -0.797   7.199  -4.765  1.00  0.00     0.063 A 
ATOM     19  N   UNL     1       0.148   5.456  -3.822  1.00  0.00    -0.282 N 
ATOM     20  N   UNL     1       0.200   6.845  -3.995  1.00  0.00    -0.181 NA
ATOM     21  C   UNL     1      -1.356   3.553  -4.603  1.00  0.00     0.066 C 
ATOM     22  C   UNL     1      -1.116   8.604  -5.208  1.00  0.00     0.069 C 
ATOM     23  H   UNL     1       0.767   4.922  -3.301  1.00  0.00     0.190 HD
ENDBRANCH  15  16
ENDBRANCH  14  15
ENDBRANCH  13  14
ENDBRANCH   1  13
TORSDOF 7
ENDMDL
MODEL 8
REMARK VINA RESULT:    -4.722      4.143      7.120
REMARK INTER + INTRA:          -7.166
REMARK INTER:                  -6.684
REMARK INTRA:                  -0.482
REMARK UNBOUND:                -0.650
REMARK SMILES Cc1n[nH]c(C)c1CCCOc1cc(C(=O)O)ccc1F
REMARK SMILES IDX 11 1 12 2 14 3 18 4 13 5 19 6 20 7 21 8 15 9 16 10 17 11
REMARK SMILES IDX 10 13 9 14 8 15 7 16 5 17 2 18 4 19 3 20 6 21 1 22
REMARK H PARENT 17 12 4 23
ROOT
ATOM      1  O   UNL     1      -2.499   7.674  -8.486  1.00  0.00    -0.490 OA
ENDROOT
BRANCH   1   2
ATOM      2  C   UNL     1      -2.296   8.791  -9.235  1.00  0.00     0.155 A 
ATOM      3  C   UNL     1      -0.804  10.328 -10.328  1.00  0.00     0.063 A 
ATOM      4  C   UNL     1      -1.902  11.069 -10.775  1.00  0.00     0.019 A 
ATOM      5  C   UNL     1      -1.009   9.184  -9.555  1.00  0.00     0.065 A 
ATOM      6  C   UNL     1      -3.181  10.666 -10.456  1.00  0.00     0.044 A 
ATOM      7  C   UNL     1      -3.382   9.528  -9.693  1.00  0.00     0.165 A 
ATOM      8  F   UNL     1      -4.639   9.138  -9.384  1.00  0.00    -0.203 F 
BRANCH   3   9
ATOM      9  C   UNL     1       0.567  10.756 -10.668  1.00  0.00     0.335 C 
ATOM     10  O   UNL     1       1.498  10.431  -9.960  1.00  0.00    -0.246 OA
BRANCH   9  11
ATOM     11  O   UNL     1       0.786  11.504 -11.768  1.00  0.00    -0.478 OA
ATOM     12  H   UNL     1       0.008  11.778 -12.274  1.00  0.00     0.297 HD
ENDBRANCH   9  11
ENDBRANCH   3   9
ENDBRANCH   1   2
BRANCH   1  13
ATOM     13  C   UNL     1      -2.096   6.427  -9.058  1.00  0.00     0.230 C 
BRANCH  13  14
ATOM     14  C   UNL     1      -1.320   5.618  -8.018  1.00  0.00     0.046 C 
BRANCH  14  15
ATOM     15  C   UNL     1      -1.604   6.175  -6.621  1.00  0.00     0.043 C 
BRANCH  15  16
ATOM     16  C   UNL     1      -1.523   5.062  -5.609  1.00  0.00    -0.004 A 
ATOM     17  C   UNL     1      -0.589   4.936  -4.638  1.00  0.00     0.036 A 
ATOM     18  C   UNL     1      -2.404   3.981  -5.502  1.00  0.00     0.063 A 
ATOM     19  N   UNL     1      -0.864   3.810  -3.946  1.00  0.00    -0.282 N 
ATOM     20  N   UNL     1      -2.006   3.226  -4.511  1.00  0.00    -0.181 NA
ATOM     21  C   UNL     1       0.554   5.881  -4.377  1.00  0.00     0.066 C 
ATOM     22  C   UNL     1      -3.598   3.723  -6.385  1.00  0.00     0.069 C 
ATOM     23  H   UNL     1      -0.361   3.466  -3.192  1.00  0.00     0.190 HD
ENDBRANCH  15  16
ENDBRANCH  14  15
ENDBRANCH  13  14
ENDBRANCH   1  13
TORSDOF 7
ENDMDL
MODEL 9
REMARK VINA RESULT:    -4.703      9.577     11.221
REMARK INTER + INTRA:          -7.139
REMARK INTER:                  -5.122
REMARK INTRA:                  -2.018
REMARK UNBOUND:                -0.650
REMARK SMILES Cc1n[nH]c(C)c1CCCOc1cc(C(=O)O)ccc1F
REMARK SMILES IDX 11 1 12 2 14 3 18 4 13 5 19 6 20 7 21 8 15 9 16 10 17 11
REMARK SMILES IDX 10 13 9 14 8 15 7 16 5 17 2 18 4 19 3 20 6 21 1 22
REMARK H PARENT 17 12 4 23
ROOT
ATOM      1  O   UNL     1      -7.040  15.407 -15.511  1.00  0.00    -0.490 OA
ENDROOT
BRANCH   1   2
ATOM      2  C   UNL     1      -7.173  15.219 -14.171  1.00  0.00     0.155 A 
ATOM      3  C   UNL     1      -6.470  15.681 -11.918  1.00  0.00     0.063 A 
ATOM      4  C   UNL     1      -7.467  14.830 -11.436  1.00  0.00     0.019 A 
ATOM      5  C   UNL     1      -6.327  15.873 -13.294  1.00  0.00     0.065 A 
ATOM      6  C   UNL     1      -8.310  14.186 -12.318  1.00  0.00     0.044 A 
ATOM      7  C   UNL     1      -8.169  14.381 -13.682  1.00  0.00     0.165 A 
ATOM      8  F   UNL     1      -8.998  13.748 -14.541  1.00  0.00    -0.203 F 
BRANCH   3   9
ATOM      9  C   UNL     1      -5.567  16.372 -10.977  1.00  0.00     0.335 C 
ATOM     10  O   UNL     1      -6.003  16.827  -9.939  1.00  0.00    -0.246 OA
BRANCH   9  11
ATOM     11  O   UNL     1      -4.256  16.492 -11.267  1.00  0.00    -0.478 OA
ATOM     12  H   UNL     1      -3.640  15.957 -10.746  1.00  0.00     0.297 HD
ENDBRANCH   9  11
ENDBRANCH   3   9
ENDBRANCH   1   2
BRANCH   1  13
ATOM     13  C   UNL     1      -5.718  15.635 -16.006  1.00  0.00     0.230 C 
BRANCH  13  14
ATOM     14  C   UNL     1      -5.021  14.292 -16.233  1.00  0.00     0.046 C 
BRANCH  14  15
ATOM     15  C   UNL     1      -3.504  14.494 -16.207  1.00  0.00     0.043 C 
BRANCH  15  16
ATOM     16  C   UNL     1      -3.066  14.838 -14.808  1.00  0.00    -0.004 A 
ATOM     17  C   UNL     1      -2.443  15.977 -14.425  1.00  0.00     0.036 A 
ATOM     18  C   UNL     1      -3.237  14.039 -13.672  1.00  0.00     0.063 A 
ATOM     19  N   UNL     1      -2.221  15.899 -13.096  1.00  0.00    -0.282 N 
ATOM     20  N   UNL     1      -2.725  14.671 -12.647  1.00  0.00    -0.181 NA
ATOM     21  C   UNL     1      -2.065  17.126 -15.323  1.00  0.00     0.066 C 
ATOM     22  C   UNL     1      -3.887  12.680 -13.637  1.00  0.00     0.069 C 
ATOM     23  H   UNL     1      -1.789  16.573 -12.549  1.00  0.00     0.190 HD
ENDBRANCH  15  16
ENDBRANCH  14  15
ENDBRANCH  13  14
ENDBRANCH   1  13
TORSDOF 7
ENDMDL
