MODEL 1
REMARK VINA RESULT:    -5.069      0.000      0.000
REMARK INTER + INTRA:          -6.106
REMARK INTER:                  -5.810
REMARK INTRA:                  -0.296
REMARK UNBOUND:                -0.296
REMARK SMILES O=C(O)c1ccc2nc(-c3cc(Cl)cc(Cl)c3)oc2c1
REMARK SMILES IDX 5 1 6 2 20 3 8 4 18 5 4 6 9 7 7 8 19 9 2 10 1 11 3 12 10 14
REMARK SMILES IDX 11 15 17 16 12 17 15 18 14 19 13 20 16 21
REMARK H PARENT 3 13
ROOT
ATOM      1  C   UNL     1      -3.167   1.841   1.436  1.00  0.00     0.018 A 
ATOM      2  C   UNL     1      -1.883   1.456   1.195  1.00  0.00     0.033 A 
ATOM      3  C   UNL     1      -3.868   0.926  -0.697  1.00  0.00     0.065 A 
ATOM      4  N   UNL     1      -0.410   0.309  -0.508  1.00  0.00    -0.209 NA
ATOM      5  O   UNL     1      -1.961  -0.096  -1.978  1.00  0.00    -0.436 OA
ATOM      6  C   UNL     1      -4.175   1.581   0.497  1.00  0.00     0.063 A 
ATOM      7  C   UNL     1      -0.654  -0.220  -1.681  1.00  0.00     0.227 A 
ATOM      8  C   UNL     1      -1.561   0.799   0.001  1.00  0.00     0.110 A 
ATOM      9  C   UNL     1      -2.565   0.538  -0.948  1.00  0.00     0.156 A 
ENDROOT
BRANCH   6  10
ATOM     10  C   UNL     1      -5.562   1.997   0.772  1.00  0.00     0.335 C 
ATOM     11  O   UNL     1      -6.488   1.391   0.271  1.00  0.00    -0.246 OA
BRANCH  10  12
ATOM     12  O   UNL     1      -5.803   3.050   1.578  1.00  0.00    -0.478 OA
ATOM     13  H   UNL     1      -6.561   3.608   1.357  1.00  0.00     0.297 HD
ENDBRANCH  10  12
ENDBRANCH   6  10
BRANCH   7  14
ATOM     14  C   UNL     1       0.357  -0.859  -2.549  1.00  0.00     0.040 A 
ATOM     15  C   UNL     1      -0.017  -1.400  -3.780  1.00  0.00     0.034 A 
ATOM     16  C   UNL     1       1.690  -0.925  -2.140  1.00  0.00     0.034 A 
ATOM     17  C   UNL     1       0.932  -1.994  -4.587  1.00  0.00     0.043 A 
ATOM     18  C   UNL     1       2.630  -1.522  -2.955  1.00  0.00     0.043 A 
ATOM     19  C   UNL     1       2.253  -2.056  -4.175  1.00  0.00     0.041 A 
ATOM     20  Cl  UNL     1       0.470  -2.667  -6.119  1.00  0.00    -0.084 Cl
ATOM     21  Cl  UNL     1       4.289  -1.604  -2.449  1.00  0.00    -0.084 Cl
ENDBRANCH   7  14
TORSDOF 3
ENDMDL
MODEL 2
REMARK VINA RESULT:    -5.061      0.004      2.019
REMARK INTER + INTRA:          -6.096
REMARK INTER:                  -5.800
REMARK INTRA:                  -0.296
REMARK UNBOUND:                -0.296
REMARK SMILES O=C(O)c1ccc2nc(-c3cc(Cl)cc(Cl)c3)oc2c1
REMARK SMILES IDX 5 1 6 2 20 3 8 4 18 5 4 6 9 7 7 8 19 9 2 10 1 11 3 12 10 14
REMARK SMILES IDX 11 15 17 16 12 17 15 18 14 19 13 20 16 21
REMARK H PARENT 3 13
ROOT
ATOM      1  C   UNL     1      -3.169   1.838   1.437  1.00  0.00     0.018 A 
ATOM      2  C   UNL     1      -1.884   1.453   1.197  1.00  0.00     0.033 A 
ATOM      3  C   UNL     1      -3.867   0.925  -0.698  1.00  0.00     0.065 A 
ATOM      4  N   UNL     1      -0.410   0.307  -0.505  1.00  0.00    -0.209 NA
ATOM      5  O   UNL     1      -1.959  -0.096  -1.978  1.00  0.00    -0.436 OA
ATOM      6  C   UNL     1      -4.176   1.578   0.497  1.00  0.00     0.063 A 
ATOM      7  C   UNL     1      -0.653  -0.221  -1.678  1.00  0.00     0.227 A 
ATOM      8  C   UNL     1      -1.561   0.797   0.003  1.00  0.00     0.110 A 
ATOM      9  C   UNL     1      -2.564   0.537  -0.948  1.00  0.00     0.156 A 
ENDROOT
BRANCH   6  10
ATOM     10  C   UNL     1      -5.563   1.994   0.770  1.00  0.00     0.335 C 
ATOM     11  O   UNL     1      -6.489   1.385   0.273  1.00  0.00    -0.246 OA
BRANCH  10  12
ATOM     12  O   UNL     1      -5.805   3.052   1.571  1.00  0.00    -0.478 OA
ATOM     13  H   UNL     1      -6.243   2.873   2.414  1.00  0.00     0.297 HD
ENDBRANCH  10  12
ENDBRANCH   6  10
BRANCH   7  14
ATOM     14  C   UNL     1       0.359  -0.859  -2.546  1.00  0.00     0.040 A 
ATOM     15  C   UNL     1       1.692  -0.923  -2.139  1.00  0.00     0.034 A 
ATOM     16  C   UNL     1      -0.015  -1.400  -3.778  1.00  0.00     0.034 A 
ATOM     17  C   UNL     1       2.633  -1.521  -2.954  1.00  0.00     0.043 A 
ATOM     18  C   UNL     1       0.934  -1.995  -4.584  1.00  0.00     0.043 A 
ATOM     19  C   UNL     1       2.255  -2.055  -4.174  1.00  0.00     0.041 A 
ATOM     20  Cl  UNL     1       4.291  -1.602  -2.449  1.00  0.00    -0.084 Cl
ATOM     21  Cl  UNL     1       0.471  -2.669  -6.116  1.00  0.00    -0.084 Cl
ENDBRANCH   7  14
TORSDOF 3
ENDMDL
MODEL 3
REMARK VINA RESULT:    -4.919     11.136     11.602
REMARK INTER + INTRA:          -5.934
REMARK INTER:                  -5.639
REMARK INTRA:                  -0.296
REMARK UNBOUND:                -0.296
REMARK SMILES O=C(O)c1ccc2nc(-c3cc(Cl)cc(Cl)c3)oc2c1
REMARK SMILES IDX 5 1 6 2 20 3 8 4 18 5 4 6 9 7 7 8 19 9 2 10 1 11 3 12 10 14
REMARK SMILES IDX 11 15 17 16 12 17 15 18 14 19 13 20 16 21
REMARK H PARENT 3 13
ROOT
ATOM      1  C   UNL     1      -1.694  10.905 -10.716  1.00  0.00     0.018 A 
ATOM      2  C   UNL     1      -0.872  10.167  -9.918  1.00  0.00     0.033 A 
ATOM      3  C   UNL     1      -3.629   9.722  -9.856  1.00  0.00     0.065 A 
ATOM      4  N   UNL     1      -0.864   8.323  -8.192  1.00  0.00    -0.209 NA
ATOM      5  O   UNL     1      -3.012   7.979  -8.153  1.00  0.00    -0.436 OA
ATOM      6  C   UNL     1      -3.080  10.694 -10.695  1.00  0.00     0.063 A 
ATOM      7  C   UNL     1      -1.819   7.609  -7.650  1.00  0.00     0.227 A 
ATOM      8  C   UNL     1      -1.409   9.188  -9.073  1.00  0.00     0.110 A 
ATOM      9  C   UNL     1      -2.798   8.968  -9.049  1.00  0.00     0.156 A 
ENDROOT
BRANCH   6  10
ATOM     10  C   UNL     1      -3.961  11.503 -11.558  1.00  0.00     0.335 C 
ATOM     11  O   UNL     1      -5.118  11.172 -11.724  1.00  0.00    -0.246 OA
BRANCH  10  12
ATOM     12  O   UNL     1      -3.482  12.608 -12.163  1.00  0.00    -0.478 OA
ATOM     13  H   UNL     1      -2.528  12.648 -12.313  1.00  0.00     0.297 HD
ENDBRANCH  10  12
ENDBRANCH   6  10
BRANCH   7  14
ATOM     14  C   UNL     1      -1.617   6.553  -6.636  1.00  0.00     0.040 A 
ATOM     15  C   UNL     1      -2.530   5.504  -6.524  1.00  0.00     0.034 A 
ATOM     16  C   UNL     1      -0.511   6.603  -5.784  1.00  0.00     0.034 A 
ATOM     17  C   UNL     1      -2.334   4.520  -5.575  1.00  0.00     0.043 A 
ATOM     18  C   UNL     1      -0.327   5.614  -4.839  1.00  0.00     0.043 A 
ATOM     19  C   UNL     1      -1.236   4.575  -4.734  1.00  0.00     0.041 A 
ATOM     20  Cl  UNL     1      -3.468   3.213  -5.436  1.00  0.00    -0.084 Cl
ATOM     21  Cl  UNL     1       1.048   5.673  -3.780  1.00  0.00    -0.084 Cl
ENDBRANCH   7  14
TORSDOF 3
ENDMDL
MODEL 4
REMARK VINA RESULT:    -4.917     11.131     11.752
REMARK INTER + INTRA:          -5.932
REMARK INTER:                  -5.636
REMARK INTRA:                  -0.296
REMARK UNBOUND:                -0.296
REMARK SMILES O=C(O)c1ccc2nc(-c3cc(Cl)cc(Cl)c3)oc2c1
REMARK SMILES IDX 5 1 6 2 20 3 8 4 18 5 4 6 9 7 7 8 19 9 2 10 1 11 3 12 10 14
REMARK SMILES IDX 11 15 17 16 12 17 15 18 14 19 13 20 16 21
REMARK H PARENT 3 13
ROOT
ATOM      1  C   UNL     1      -1.687  10.902 -10.712  1.00  0.00     0.018 A 
ATOM      2  C   UNL     1      -0.864  10.165  -9.913  1.00  0.00     0.033 A 
ATOM      3  C   UNL     1      -3.620   9.719  -9.850  1.00  0.00     0.065 A 
ATOM      4  N   UNL     1      -0.854   8.323  -8.185  1.00  0.00    -0.209 NA
ATOM      5  O   UNL     1      -3.002   7.978  -8.145  1.00  0.00    -0.436 OA
ATOM      6  C   UNL     1      -3.073  10.690 -10.689  1.00  0.00     0.063 A 
ATOM      7  C   UNL     1      -1.809   7.609  -7.642  1.00  0.00     0.227 A 
ATOM      8  C   UNL     1      -1.400   9.187  -9.067  1.00  0.00     0.110 A 
ATOM      9  C   UNL     1      -2.788   8.966  -9.042  1.00  0.00     0.156 A 
ENDROOT
BRANCH   6  10
ATOM     10  C   UNL     1      -3.953  11.497 -11.553  1.00  0.00     0.335 C 
ATOM     11  O   UNL     1      -5.110  11.166 -11.719  1.00  0.00    -0.246 OA
BRANCH  10  12
ATOM     12  O   UNL     1      -3.476  12.602 -12.159  1.00  0.00    -0.478 OA
ATOM     13  H   UNL     1      -2.517  12.727 -12.153  1.00  0.00     0.297 HD
ENDBRANCH  10  12
ENDBRANCH   6  10
BRANCH   7  14
ATOM     14  C   UNL     1      -1.605   6.555  -6.627  1.00  0.00     0.040 A 
ATOM     15  C   UNL     1      -0.499   6.603  -5.777  1.00  0.00     0.034 A 
ATOM     16  C   UNL     1      -2.519   5.505  -6.515  1.00  0.00     0.034 A 
ATOM     17  C   UNL     1      -0.315   5.615  -4.830  1.00  0.00     0.043 A 
ATOM     18  C   UNL     1      -2.324   4.523  -5.564  1.00  0.00     0.043 A 
ATOM     19  C   UNL     1      -1.225   4.577  -4.724  1.00  0.00     0.041 A 
ATOM     20  Cl  UNL     1       1.059   5.674  -3.772  1.00  0.00    -0.084 Cl
ATOM     21  Cl  UNL     1      -3.460   3.217  -5.423  1.00  0.00    -0.084 Cl
ENDBRANCH   7  14
TORSDOF 3
ENDMDL
MODEL 5
REMARK VINA RESULT:    -4.897     11.242     12.118
REMARK INTER + INTRA:          -5.909
REMARK INTER:                  -5.613
REMARK INTRA:                  -0.296
REMARK UNBOUND:                -0.296
REMARK SMILES O=C(O)c1ccc2nc(-c3cc(Cl)cc(Cl)c3)oc2c1
REMARK SMILES IDX 5 1 6 2 20 3 8 4 18 5 4 6 9 7 7 8 19 9 2 10 1 11 3 12 10 14
REMARK SMILES IDX 11 15 17 16 12 17 15 18 14 19 13 20 16 21
REMARK H PARENT 3 13
ROOT
ATOM      1  C   UNL     1      -1.913  10.965 -10.693  1.00  0.00     0.018 A 
ATOM      2  C   UNL     1      -2.645  10.023 -10.034  1.00  0.00     0.033 A 
ATOM      3  C   UNL     1       0.135  10.060  -9.761  1.00  0.00     0.065 A 
ATOM      4  N   UNL     1      -2.448   8.054  -8.464  1.00  0.00    -0.209 NA
ATOM      5  O   UNL     1      -0.283   8.092  -8.252  1.00  0.00    -0.436 OA
ATOM      6  C   UNL     1      -0.517  10.994 -10.567  1.00  0.00     0.063 A 
ATOM      7  C   UNL     1      -1.423   7.472  -7.893  1.00  0.00     0.227 A 
ATOM      8  C   UNL     1      -2.004   9.080  -9.222  1.00  0.00     0.110 A 
ATOM      9  C   UNL     1      -0.605   9.106  -9.086  1.00  0.00     0.156 A 
ENDROOT
BRANCH   6  10
ATOM     10  C   UNL     1       0.265  12.014 -11.290  1.00  0.00     0.335 C 
ATOM     11  O   UNL     1       1.443  12.168 -11.037  1.00  0.00    -0.246 OA
BRANCH  10  12
ATOM     12  O   UNL     1      -0.326  12.776 -12.231  1.00  0.00    -0.478 OA
ATOM     13  H   UNL     1      -0.328  12.435 -13.135  1.00  0.00     0.297 HD
ENDBRANCH  10  12
ENDBRANCH   6  10
BRANCH   7  14
ATOM     14  C   UNL     1      -1.506   6.308  -6.987  1.00  0.00     0.040 A 
ATOM     15  C   UNL     1      -0.522   6.101  -6.019  1.00  0.00     0.034 A 
ATOM     16  C   UNL     1      -2.570   5.410  -7.096  1.00  0.00     0.034 A 
ATOM     17  C   UNL     1      -0.606   5.011  -5.175  1.00  0.00     0.043 A 
ATOM     18  C   UNL     1      -2.643   4.325  -6.246  1.00  0.00     0.043 A 
ATOM     19  C   UNL     1      -1.664   4.125  -5.288  1.00  0.00     0.041 A 
ATOM     20  Cl  UNL     1       0.616   4.752  -3.970  1.00  0.00    -0.084 Cl
ATOM     21  Cl  UNL     1      -3.965   3.207  -6.380  1.00  0.00    -0.084 Cl
ENDBRANCH   7  14
TORSDOF 3
ENDMDL
MODEL 6
REMARK VINA RESULT:    -4.897     11.239     11.955
REMARK INTER + INTRA:          -5.909
REMARK INTER:                  -5.613
REMARK INTRA:                  -0.296
REMARK UNBOUND:                -0.296
REMARK SMILES O=C(O)c1ccc2nc(-c3cc(Cl)cc(Cl)c3)oc2c1
REMARK SMILES IDX 5 1 6 2 20 3 8 4 18 5 4 6 9 7 7 8 19 9 2 10 1 11 3 12 10 14
REMARK SMILES IDX 11 15 17 16 12 17 15 18 14 19 13 20 16 21
REMARK H PARENT 3 13
ROOT
ATOM      1  C   UNL     1      -1.911  10.959 -10.697  1.00  0.00     0.018 A 
ATOM      2  C   UNL     1      -2.644  10.018 -10.037  1.00  0.00     0.033 A 
ATOM      3  C   UNL     1       0.135  10.057  -9.759  1.00  0.00     0.065 A 
ATOM      4  N   UNL     1      -2.449   8.052  -8.463  1.00  0.00    -0.209 NA
ATOM      5  O   UNL     1      -0.284   8.091  -8.248  1.00  0.00    -0.436 OA
ATOM      6  C   UNL     1      -0.515  10.990 -10.568  1.00  0.00     0.063 A 
ATOM      7  C   UNL     1      -1.424   7.471  -7.889  1.00  0.00     0.227 A 
ATOM      8  C   UNL     1      -2.004   9.076  -9.222  1.00  0.00     0.110 A 
ATOM      9  C   UNL     1      -0.605   9.104  -9.084  1.00  0.00     0.156 A 
ENDROOT
BRANCH   6  10
ATOM     10  C   UNL     1       0.268  12.008 -11.291  1.00  0.00     0.335 C 
ATOM     11  O   UNL     1       1.444  12.168 -11.030  1.00  0.00    -0.246 OA
BRANCH  10  12
ATOM     12  O   UNL     1      -0.320  12.762 -12.241  1.00  0.00    -0.478 OA
ATOM     13  H   UNL     1       0.262  13.276 -12.817  1.00  0.00     0.297 HD
ENDBRANCH  10  12
ENDBRANCH   6  10
BRANCH   7  14
ATOM     14  C   UNL     1      -1.509   6.309  -6.981  1.00  0.00     0.040 A 
ATOM     15  C   UNL     1      -2.573   5.412  -7.087  1.00  0.00     0.034 A 
ATOM     16  C   UNL     1      -0.524   6.104  -6.013  1.00  0.00     0.034 A 
ATOM     17  C   UNL     1      -2.645   4.327  -6.236  1.00  0.00     0.043 A 
ATOM     18  C   UNL     1      -0.608   5.015  -5.168  1.00  0.00     0.043 A 
ATOM     19  C   UNL     1      -1.666   4.129  -5.278  1.00  0.00     0.041 A 
ATOM     20  Cl  UNL     1      -3.967   3.210  -6.367  1.00  0.00    -0.084 Cl
ATOM     21  Cl  UNL     1       0.616   4.758  -3.963  1.00  0.00    -0.084 Cl
ENDBRANCH   7  14
TORSDOF 3
ENDMDL
MODEL 7
REMARK VINA RESULT:    -4.855      3.887      7.625
REMARK INTER + INTRA:          -5.861
REMARK INTER:                  -5.566
REMARK INTRA:                  -0.295
REMARK UNBOUND:                -0.296
REMARK SMILES O=C(O)c1ccc2nc(-c3cc(Cl)cc(Cl)c3)oc2c1
REMARK SMILES IDX 5 1 6 2 20 3 8 4 18 5 4 6 9 7 7 8 19 9 2 10 1 11 3 12 10 14
REMARK SMILES IDX 11 15 17 16 12 17 15 18 14 19 13 20 16 21
REMARK H PARENT 3 13
ROOT
ATOM      1  C   UNL     1       2.026  -0.707  -3.269  1.00  0.00     0.018 A 
ATOM      2  C   UNL     1       1.603   0.225  -2.369  1.00  0.00     0.033 A 
ATOM      3  C   UNL     1      -0.191  -1.688  -3.331  1.00  0.00     0.065 A 
ATOM      4  N   UNL     1      -0.420   0.994  -1.067  1.00  0.00    -0.209 NA
ATOM      5  O   UNL     1      -1.810  -0.502  -1.817  1.00  0.00    -0.436 OA
ATOM      6  C   UNL     1       1.137  -1.672  -3.762  1.00  0.00     0.063 A 
ATOM      7  C   UNL     1      -1.655   0.561  -1.006  1.00  0.00     0.227 A 
ATOM      8  C   UNL     1       0.274   0.221  -1.928  1.00  0.00     0.110 A 
ATOM      9  C   UNL     1      -0.623  -0.747  -2.415  1.00  0.00     0.156 A 
ENDROOT
BRANCH   6  10
ATOM     10  C   UNL     1       1.605  -2.671  -4.740  1.00  0.00     0.335 C 
ATOM     11  O   UNL     1       0.840  -3.105  -5.578  1.00  0.00    -0.246 OA
BRANCH  10  12
ATOM     12  O   UNL     1       2.881  -3.105  -4.703  1.00  0.00    -0.478 OA
ATOM     13  H   UNL     1       3.029  -4.047  -4.860  1.00  0.00     0.297 HD
ENDBRANCH  10  12
ENDBRANCH   6  10
BRANCH   7  14
ATOM     14  C   UNL     1      -2.720   1.152  -0.169  1.00  0.00     0.040 A 
ATOM     15  C   UNL     1      -2.465   2.299   0.583  1.00  0.00     0.034 A 
ATOM     16  C   UNL     1      -3.985   0.563  -0.127  1.00  0.00     0.034 A 
ATOM     17  C   UNL     1      -3.464   2.847   1.362  1.00  0.00     0.043 A 
ATOM     18  C   UNL     1      -4.976   1.120   0.656  1.00  0.00     0.043 A 
ATOM     19  C   UNL     1      -4.717   2.259   1.400  1.00  0.00     0.041 A 
ATOM     20  Cl  UNL     1      -3.150   4.275   2.298  1.00  0.00    -0.084 Cl
ATOM     21  Cl  UNL     1      -6.551   0.390   0.709  1.00  0.00    -0.084 Cl
ENDBRANCH   7  14
TORSDOF 3
ENDMDL
MODEL 8
REMARK VINA RESULT:    -4.713     10.606     11.309
REMARK INTER + INTRA:          -5.698
REMARK INTER:                  -5.400
REMARK INTRA:                  -0.298
REMARK UNBOUND:                -0.296
REMARK SMILES O=C(O)c1ccc2nc(-c3cc(Cl)cc(Cl)c3)oc2c1
REMARK SMILES IDX 5 1 6 2 20 3 8 4 18 5 4 6 9 7 7 8 19 9 2 10 1 11 3 12 10 14
REMARK SMILES IDX 11 15 17 16 12 17 15 18 14 19 13 20 16 21
REMARK H PARENT 3 13
ROOT
ATOM      1  C   UNL     1      -2.569   4.708  -5.411  1.00  0.00     0.018 A 
ATOM      2  C   UNL     1      -3.196   5.555  -6.276  1.00  0.00     0.033 A 
ATOM      3  C   UNL     1      -0.433   5.744  -5.907  1.00  0.00     0.065 A 
ATOM      4  N   UNL     1      -2.785   7.466  -7.876  1.00  0.00    -0.209 NA
ATOM      5  O   UNL     1      -0.633   7.603  -7.588  1.00  0.00    -0.436 OA
ATOM      6  C   UNL     1      -1.184   4.792  -5.215  1.00  0.00     0.063 A 
ATOM      7  C   UNL     1      -1.701   8.108  -8.234  1.00  0.00     0.227 A 
ATOM      8  C   UNL     1      -2.455   6.515  -6.977  1.00  0.00     0.110 A 
ATOM      9  C   UNL     1      -1.064   6.602  -6.789  1.00  0.00     0.156 A 
ENDROOT
BRANCH   6  10
ATOM     10  C   UNL     1      -0.518   3.874  -4.273  1.00  0.00     0.335 C 
ATOM     11  O   UNL     1      -1.117   2.912  -3.836  1.00  0.00    -0.246 OA
BRANCH  10  12
ATOM     12  O   UNL     1       0.755   4.103  -3.894  1.00  0.00    -0.478 OA
ATOM     13  H   UNL     1       1.026   3.759  -3.033  1.00  0.00     0.297 HD
ENDBRANCH  10  12
ENDBRANCH   6  10
BRANCH   7  14
ATOM     14  C   UNL     1      -1.657   9.221  -9.204  1.00  0.00     0.040 A 
ATOM     15  C   UNL     1      -2.840   9.731  -9.741  1.00  0.00     0.034 A 
ATOM     16  C   UNL     1      -0.430   9.768  -9.588  1.00  0.00     0.034 A 
ATOM     17  C   UNL     1      -2.792  10.772 -10.647  1.00  0.00     0.043 A 
ATOM     18  C   UNL     1      -0.395  10.808 -10.494  1.00  0.00     0.043 A 
ATOM     19  C   UNL     1      -1.572  11.309 -11.023  1.00  0.00     0.041 A 
ATOM     20  Cl  UNL     1      -4.262  11.408 -11.315  1.00  0.00    -0.084 Cl
ATOM     21  Cl  UNL     1       1.129  11.489 -10.973  1.00  0.00    -0.084 Cl
ENDBRANCH   7  14
TORSDOF 3
ENDMDL
MODEL 9
REMARK VINA RESULT:    -4.708     10.609     11.444
REMARK INTER + INTRA:          -5.693
REMARK INTER:                  -5.395
REMARK INTRA:                  -0.298
REMARK UNBOUND:                -0.296
REMARK SMILES O=C(O)c1ccc2nc(-c3cc(Cl)cc(Cl)c3)oc2c1
REMARK SMILES IDX 5 1 6 2 20 3 8 4 18 5 4 6 9 7 7 8 19 9 2 10 1 11 3 12 10 14
REMARK SMILES IDX 11 15 17 16 12 17 15 18 14 19 13 20 16 21
REMARK H PARENT 3 13
ROOT
ATOM      1  C   UNL     1      -2.575   4.720  -5.411  1.00  0.00     0.018 A 
ATOM      2  C   UNL     1      -3.198   5.573  -6.273  1.00  0.00     0.033 A 
ATOM      3  C   UNL     1      -0.432   5.733  -5.922  1.00  0.00     0.065 A 
ATOM      4  N   UNL     1      -2.778   7.478  -7.878  1.00  0.00    -0.209 NA
ATOM      5  O   UNL     1      -0.622   7.592  -7.603  1.00  0.00    -0.436 OA
ATOM      6  C   UNL     1      -1.188   4.790  -5.223  1.00  0.00     0.063 A 
ATOM      7  C   UNL     1      -1.689   8.108  -8.243  1.00  0.00     0.227 A 
ATOM      8  C   UNL     1      -2.452   6.524  -6.980  1.00  0.00     0.110 A 
ATOM      9  C   UNL     1      -1.059   6.596  -6.801  1.00  0.00     0.156 A 
ENDROOT
BRANCH   6  10
ATOM     10  C   UNL     1      -0.526   3.866  -4.285  1.00  0.00     0.335 C 
ATOM     11  O   UNL     1      -1.130   2.906  -3.850  1.00  0.00    -0.246 OA
BRANCH  10  12
ATOM     12  O   UNL     1       0.749   4.087  -3.907  1.00  0.00    -0.478 OA
ATOM     13  H   UNL     1       1.041   5.007  -3.863  1.00  0.00     0.297 HD
ENDBRANCH  10  12
ENDBRANCH   6  10
BRANCH   7  14
ATOM     14  C   UNL     1      -1.639   9.220  -9.215  1.00  0.00     0.040 A 
ATOM     15  C   UNL     1      -0.412   9.761  -9.599  1.00  0.00     0.034 A 
ATOM     16  C   UNL     1      -2.821   9.733  -9.753  1.00  0.00     0.034 A 
ATOM     17  C   UNL     1      -0.372  10.800 -10.508  1.00  0.00     0.043 A 
ATOM     18  C   UNL     1      -2.769  10.771 -10.661  1.00  0.00     0.043 A 
ATOM     19  C   UNL     1      -1.548  11.304 -11.038  1.00  0.00     0.041 A 
ATOM     20  Cl  UNL     1       1.154  11.475 -10.987  1.00  0.00    -0.084 Cl
ATOM     21  Cl  UNL     1      -4.237  11.411 -11.331  1.00  0.00    -0.084 Cl
ENDBRANCH   7  14
TORSDOF 3
ENDMDL
