MODEL 1
REMARK VINA RESULT:    -5.716      0.000      0.000
REMARK INTER + INTRA:          -8.332
REMARK INTER:                  -7.888
REMARK INTRA:                  -0.444
REMARK UNBOUND:                -0.444
REMARK SMILES Cc1n[nH]c(C)c1CCCOc1cc(C(=O)O)ccc1F
REMARK SMILES IDX 11 1 12 2 14 3 18 4 13 5 19 6 20 7 21 8 15 9 16 10 17 11
REMARK SMILES IDX 10 13 9 14 8 15 7 16 5 17 2 18 4 19 3 20 6 21 1 22
REMARK H PARENT 17 12 4 23
ROOT
ATOM      1  O   UNL     1      -3.784  -5.667  -5.345  1.00  0.00    -0.490 OA
ENDROOT
BRANCH   1   2
ATOM      2  C   UNL     1      -3.587  -4.350  -5.069  1.00  0.00     0.155 A 
ATOM      3  C   UNL     1      -3.186  -2.098  -5.812  1.00  0.00     0.063 A 
ATOM      4  C   UNL     1      -3.198  -1.662  -4.484  1.00  0.00     0.019 A 
ATOM      5  C   UNL     1      -3.382  -3.451  -6.099  1.00  0.00     0.065 A 
ATOM      6  C   UNL     1      -3.409  -2.566  -3.464  1.00  0.00     0.044 A 
ATOM      7  C   UNL     1      -3.609  -3.906  -3.751  1.00  0.00     0.165 A 
ATOM      8  F   UNL     1      -3.815  -4.786  -2.747  1.00  0.00    -0.203 F 
BRANCH   3   9
ATOM      9  C   UNL     1      -2.960  -1.134  -6.906  1.00  0.00     0.335 C 
ATOM     10  O   UNL     1      -2.551  -1.520  -7.982  1.00  0.00    -0.246 OA
BRANCH   9  11
ATOM     11  O   UNL     1      -3.215   0.175  -6.713  1.00  0.00    -0.478 OA
ATOM     12  H   UNL     1      -2.646   0.645  -6.087  1.00  0.00     0.297 HD
ENDBRANCH   9  11
ENDBRANCH   3   9
ENDBRANCH   1   2
BRANCH   1  13
ATOM     13  C   UNL     1      -5.030  -6.236  -4.935  1.00  0.00     0.230 C 
BRANCH  13  14
ATOM     14  C   UNL     1      -5.764  -6.788  -6.158  1.00  0.00     0.046 C 
BRANCH  14  15
ATOM     15  C   UNL     1      -6.654  -5.695  -6.755  1.00  0.00     0.043 C 
BRANCH  15  16
ATOM     16  C   UNL     1      -7.705  -6.325  -7.632  1.00  0.00    -0.004 A 
ATOM     17  C   UNL     1      -7.581  -6.599  -8.951  1.00  0.00     0.036 A 
ATOM     18  C   UNL     1      -8.978  -6.736  -7.225  1.00  0.00     0.063 A 
ATOM     19  N   UNL     1      -8.737  -7.157  -9.366  1.00  0.00    -0.282 N 
ATOM     20  N   UNL     1      -9.601  -7.228  -8.265  1.00  0.00    -0.181 NA
ATOM     21  C   UNL     1      -6.369  -6.329  -9.804  1.00  0.00     0.066 C 
ATOM     22  C   UNL     1      -9.541  -6.620  -5.831  1.00  0.00     0.069 C 
ATOM     23  H   UNL     1      -8.936  -7.455 -10.267  1.00  0.00     0.190 HD
ENDBRANCH  15  16
ENDBRANCH  14  15
ENDBRANCH  13  14
ENDBRANCH   1  13
TORSDOF 7
ENDMDL
MODEL 2
REMARK VINA RESULT:    -5.701      2.265      3.874
REMARK INTER + INTRA:          -8.311
REMARK INTER:                  -7.655
REMARK INTRA:                  -0.656
REMARK UNBOUND:                -0.444
REMARK SMILES Cc1n[nH]c(C)c1CCCOc1cc(C(=O)O)ccc1F
REMARK SMILES IDX 11 1 12 2 14 3 18 4 13 5 19 6 20 7 21 8 15 9 16 10 17 11
REMARK SMILES IDX 10 13 9 14 8 15 7 16 5 17 2 18 4 19 3 20 6 21 1 22
REMARK H PARENT 17 12 4 23
ROOT
ATOM      1  O   UNL     1      -6.115  -2.017  -6.416  1.00  0.00    -0.490 OA
ENDROOT
BRANCH   1   2
ATOM      2  C   UNL     1      -5.027  -2.143  -5.610  1.00  0.00     0.155 A 
ATOM      3  C   UNL     1      -3.983  -3.038  -3.638  1.00  0.00     0.063 A 
ATOM      4  C   UNL     1      -2.790  -2.397  -3.982  1.00  0.00     0.019 A 
ATOM      5  C   UNL     1      -5.103  -2.907  -4.460  1.00  0.00     0.065 A 
ATOM      6  C   UNL     1      -2.722  -1.642  -5.135  1.00  0.00     0.044 A 
ATOM      7  C   UNL     1      -3.833  -1.517  -5.952  1.00  0.00     0.165 A 
ATOM      8  F   UNL     1      -3.759  -0.777  -7.079  1.00  0.00    -0.203 F 
BRANCH   3   9
ATOM      9  C   UNL     1      -4.059  -3.847  -2.405  1.00  0.00     0.335 C 
ATOM     10  O   UNL     1      -5.126  -4.004  -1.847  1.00  0.00    -0.246 OA
BRANCH   9  11
ATOM     11  O   UNL     1      -2.946  -4.416  -1.903  1.00  0.00    -0.478 OA
ATOM     12  H   UNL     1      -2.405  -4.936  -2.514  1.00  0.00     0.297 HD
ENDBRANCH   9  11
ENDBRANCH   3   9
ENDBRANCH   1   2
BRANCH   1  13
ATOM     13  C   UNL     1      -6.116  -2.776  -7.628  1.00  0.00     0.230 C 
BRANCH  13  14
ATOM     14  C   UNL     1      -7.311  -3.731  -7.630  1.00  0.00     0.046 C 
BRANCH  14  15
ATOM     15  C   UNL     1      -6.825  -5.157  -7.363  1.00  0.00     0.043 C 
BRANCH  15  16
ATOM     16  C   UNL     1      -7.737  -6.137  -8.054  1.00  0.00    -0.004 A 
ATOM     17  C   UNL     1      -8.863  -6.680  -7.534  1.00  0.00     0.036 A 
ATOM     18  C   UNL     1      -7.575  -6.641  -9.349  1.00  0.00     0.063 A 
ATOM     19  N   UNL     1      -9.390  -7.504  -8.465  1.00  0.00    -0.282 N 
ATOM     20  N   UNL     1      -8.561  -7.465  -9.594  1.00  0.00    -0.181 NA
ATOM     21  C   UNL     1      -9.426  -6.413  -6.163  1.00  0.00     0.066 C 
ATOM     22  C   UNL     1      -6.451  -6.302 -10.295  1.00  0.00     0.069 C 
ATOM     23  H   UNL     1     -10.199  -8.030  -8.368  1.00  0.00     0.190 HD
ENDBRANCH  15  16
ENDBRANCH  14  15
ENDBRANCH  13  14
ENDBRANCH   1  13
TORSDOF 7
ENDMDL
MODEL 3
REMARK VINA RESULT:    -5.625      2.293      3.446
REMARK INTER + INTRA:          -8.206
REMARK INTER:                  -7.558
REMARK INTRA:                  -0.648
REMARK UNBOUND:                -0.444
REMARK SMILES Cc1n[nH]c(C)c1CCCOc1cc(C(=O)O)ccc1F
REMARK SMILES IDX 11 1 12 2 14 3 18 4 13 5 19 6 20 7 21 8 15 9 16 10 17 11
REMARK SMILES IDX 10 13 9 14 8 15 7 16 5 17 2 18 4 19 3 20 6 21 1 22
REMARK H PARENT 17 12 4 23
ROOT
ATOM      1  O   UNL     1      -6.167  -2.075  -6.435  1.00  0.00    -0.490 OA
ENDROOT
BRANCH   1   2
ATOM      2  C   UNL     1      -5.067  -2.187  -5.643  1.00  0.00     0.155 A 
ATOM      3  C   UNL     1      -3.993  -3.050  -3.673  1.00  0.00     0.063 A 
ATOM      4  C   UNL     1      -2.807  -2.411  -4.044  1.00  0.00     0.019 A 
ATOM      5  C   UNL     1      -5.125  -2.933  -4.481  1.00  0.00     0.065 A 
ATOM      6  C   UNL     1      -2.757  -1.674  -5.209  1.00  0.00     0.044 A 
ATOM      7  C   UNL     1      -3.880  -1.564  -6.011  1.00  0.00     0.165 A 
ATOM      8  F   UNL     1      -3.824  -0.840  -7.151  1.00  0.00    -0.203 F 
BRANCH   3   9
ATOM      9  C   UNL     1      -4.050  -3.840  -2.427  1.00  0.00     0.335 C 
ATOM     10  O   UNL     1      -5.112  -4.015  -1.867  1.00  0.00    -0.246 OA
BRANCH   9  11
ATOM     11  O   UNL     1      -2.922  -4.372  -1.916  1.00  0.00    -0.478 OA
ATOM     12  H   UNL     1      -3.018  -4.940  -1.138  1.00  0.00     0.297 HD
ENDBRANCH   9  11
ENDBRANCH   3   9
ENDBRANCH   1   2
BRANCH   1  13
ATOM     13  C   UNL     1      -6.179  -2.844  -7.640  1.00  0.00     0.230 C 
BRANCH  13  14
ATOM     14  C   UNL     1      -7.356  -3.821  -7.609  1.00  0.00     0.046 C 
BRANCH  14  15
ATOM     15  C   UNL     1      -6.828  -5.251  -7.469  1.00  0.00     0.043 C 
BRANCH  15  16
ATOM     16  C   UNL     1      -7.701  -6.189  -8.261  1.00  0.00    -0.004 A 
ATOM     17  C   UNL     1      -7.483  -6.596  -9.533  1.00  0.00     0.036 A 
ATOM     18  C   UNL     1      -8.877  -6.798  -7.810  1.00  0.00     0.063 A 
ATOM     19  N   UNL     1      -8.489  -7.429  -9.876  1.00  0.00    -0.282 N 
ATOM     20  N   UNL     1      -9.354  -7.536  -8.779  1.00  0.00    -0.181 NA
ATOM     21  C   UNL     1      -6.326  -6.194 -10.408  1.00  0.00     0.066 C 
ATOM     22  C   UNL     1      -9.495  -6.625  -6.445  1.00  0.00     0.069 C 
ATOM     23  H   UNL     1      -8.595  -7.873 -10.732  1.00  0.00     0.190 HD
ENDBRANCH  15  16
ENDBRANCH  14  15
ENDBRANCH  13  14
ENDBRANCH   1  13
TORSDOF 7
ENDMDL
MODEL 4
REMARK VINA RESULT:    -5.542      0.679      1.893
REMARK INTER + INTRA:          -8.092
REMARK INTER:                  -7.438
REMARK INTRA:                  -0.654
REMARK UNBOUND:                -0.444
REMARK SMILES Cc1n[nH]c(C)c1CCCOc1cc(C(=O)O)ccc1F
REMARK SMILES IDX 11 1 12 2 14 3 18 4 13 5 19 6 20 7 21 8 15 9 16 10 17 11
REMARK SMILES IDX 10 13 9 14 8 15 7 16 5 17 2 18 4 19 3 20 6 21 1 22
REMARK H PARENT 17 12 4 23
ROOT
ATOM      1  O   UNL     1      -5.542  -4.764  -5.028  1.00  0.00    -0.490 OA
ENDROOT
BRANCH   1   2
ATOM      2  C   UNL     1      -4.641  -3.761  -4.854  1.00  0.00     0.155 A 
ATOM      3  C   UNL     1      -3.368  -1.921  -5.735  1.00  0.00     0.063 A 
ATOM      4  C   UNL     1      -2.804  -1.712  -4.474  1.00  0.00     0.019 A 
ATOM      5  C   UNL     1      -4.291  -2.953  -5.919  1.00  0.00     0.065 A 
ATOM      6  C   UNL     1      -3.164  -2.519  -3.416  1.00  0.00     0.044 A 
ATOM      7  C   UNL     1      -4.083  -3.539  -3.599  1.00  0.00     0.165 A 
ATOM      8  F   UNL     1      -4.431  -4.327  -2.558  1.00  0.00    -0.203 F 
BRANCH   3   9
ATOM      9  C   UNL     1      -2.986  -1.059  -6.870  1.00  0.00     0.335 C 
ATOM     10  O   UNL     1      -2.497  -1.548  -7.868  1.00  0.00    -0.246 OA
BRANCH   9  11
ATOM     11  O   UNL     1      -3.186   0.272  -6.802  1.00  0.00    -0.478 OA
ATOM     12  H   UNL     1      -4.012   0.612  -7.176  1.00  0.00     0.297 HD
ENDBRANCH   9  11
ENDBRANCH   3   9
ENDBRANCH   1   2
BRANCH   1  13
ATOM     13  C   UNL     1      -5.027  -6.038  -5.422  1.00  0.00     0.230 C 
BRANCH  13  14
ATOM     14  C   UNL     1      -6.081  -6.780  -6.247  1.00  0.00     0.046 C 
BRANCH  14  15
ATOM     15  C   UNL     1      -6.998  -5.765  -6.934  1.00  0.00     0.043 C 
BRANCH  15  16
ATOM     16  C   UNL     1      -8.044  -6.495  -7.736  1.00  0.00    -0.004 A 
ATOM     17  C   UNL     1      -9.239  -6.933  -7.275  1.00  0.00     0.036 A 
ATOM     18  C   UNL     1      -7.955  -6.834  -9.090  1.00  0.00     0.063 A 
ATOM     19  N   UNL     1      -9.880  -7.534  -8.300  1.00  0.00    -0.282 N 
ATOM     20  N   UNL     1      -9.051  -7.463  -9.428  1.00  0.00    -0.181 NA
ATOM     21  C   UNL     1      -9.759  -6.778  -5.870  1.00  0.00     0.066 C 
ATOM     22  C   UNL     1      -6.791  -6.537 -10.001  1.00  0.00     0.069 C 
ATOM     23  H   UNL     1     -10.758  -7.943  -8.262  1.00  0.00     0.190 HD
ENDBRANCH  15  16
ENDBRANCH  14  15
ENDBRANCH  13  14
ENDBRANCH   1  13
TORSDOF 7
ENDMDL
MODEL 5
REMARK VINA RESULT:    -5.104      8.873     10.850
REMARK INTER + INTRA:          -7.487
REMARK INTER:                  -5.237
REMARK INTRA:                  -2.250
REMARK UNBOUND:                -0.444
REMARK SMILES Cc1n[nH]c(C)c1CCCOc1cc(C(=O)O)ccc1F
REMARK SMILES IDX 11 1 12 2 14 3 18 4 13 5 19 6 20 7 21 8 15 9 16 10 17 11
REMARK SMILES IDX 10 13 9 14 8 15 7 16 5 17 2 18 4 19 3 20 6 21 1 22
REMARK H PARENT 17 12 4 23
ROOT
ATOM      1  O   UNL     1      -8.270 -10.356 -16.074  1.00  0.00    -0.490 OA
ENDROOT
BRANCH   1   2
ATOM      2  C   UNL     1      -8.054  -9.796 -14.854  1.00  0.00     0.155 A 
ATOM      3  C   UNL     1      -8.900  -8.899 -12.790  1.00  0.00     0.063 A 
ATOM      4  C   UNL     1      -7.591  -8.661 -12.361  1.00  0.00     0.019 A 
ATOM      5  C   UNL     1      -9.126  -9.470 -14.044  1.00  0.00     0.065 A 
ATOM      6  C   UNL     1      -6.529  -8.995 -13.174  1.00  0.00     0.044 A 
ATOM      7  C   UNL     1      -6.755  -9.566 -14.416  1.00  0.00     0.165 A 
ATOM      8  F   UNL     1      -5.709  -9.891 -15.207  1.00  0.00    -0.203 F 
BRANCH   3   9
ATOM      9  C   UNL     1     -10.040  -8.543 -11.922  1.00  0.00     0.335 C 
ATOM     10  O   UNL     1     -10.339  -9.258 -10.988  1.00  0.00    -0.246 OA
BRANCH   9  11
ATOM     11  O   UNL     1     -10.745  -7.420 -12.164  1.00  0.00    -0.478 OA
ATOM     12  H   UNL     1     -11.692  -7.446 -11.972  1.00  0.00     0.297 HD
ENDBRANCH   9  11
ENDBRANCH   3   9
ENDBRANCH   1   2
BRANCH   1  13
ATOM     13  C   UNL     1      -8.871 -11.653 -16.095  1.00  0.00     0.230 C 
BRANCH  13  14
ATOM     14  C   UNL     1      -7.779 -12.722 -16.051  1.00  0.00     0.046 C 
BRANCH  14  15
ATOM     15  C   UNL     1      -8.107 -13.742 -14.958  1.00  0.00     0.043 C 
BRANCH  15  16
ATOM     16  C   UNL     1      -7.613 -13.232 -13.629  1.00  0.00    -0.004 A 
ATOM     17  C   UNL     1      -6.318 -13.060 -13.274  1.00  0.00     0.036 A 
ATOM     18  C   UNL     1      -8.411 -12.847 -12.547  1.00  0.00     0.063 A 
ATOM     19  N   UNL     1      -6.299 -12.588 -12.009  1.00  0.00    -0.282 N 
ATOM     20  N   UNL     1      -7.625 -12.468 -11.573  1.00  0.00    -0.181 NA
ATOM     21  C   UNL     1      -5.116 -13.342 -14.135  1.00  0.00     0.066 C 
ATOM     22  C   UNL     1      -9.918 -12.876 -12.506  1.00  0.00     0.069 C 
ATOM     23  H   UNL     1      -5.507 -12.373 -11.493  1.00  0.00     0.190 HD
ENDBRANCH  15  16
ENDBRANCH  14  15
ENDBRANCH  13  14
ENDBRANCH   1  13
TORSDOF 7
ENDMDL
MODEL 6
REMARK VINA RESULT:    -4.837      8.830     11.256
REMARK INTER + INTRA:          -7.119
REMARK INTER:                  -4.905
REMARK INTRA:                  -2.215
REMARK UNBOUND:                -0.444
REMARK SMILES Cc1n[nH]c(C)c1CCCOc1cc(C(=O)O)ccc1F
REMARK SMILES IDX 11 1 12 2 14 3 18 4 13 5 19 6 20 7 21 8 15 9 16 10 17 11
REMARK SMILES IDX 10 13 9 14 8 15 7 16 5 17 2 18 4 19 3 20 6 21 1 22
REMARK H PARENT 17 12 4 23
ROOT
ATOM      1  O   UNL     1      -8.542 -10.545 -16.095  1.00  0.00    -0.490 OA
ENDROOT
BRANCH   1   2
ATOM      2  C   UNL     1      -9.076 -10.697 -14.854  1.00  0.00     0.155 A 
ATOM      3  C   UNL     1      -9.821  -9.753 -12.772  1.00  0.00     0.063 A 
ATOM      4  C   UNL     1     -10.177 -11.028 -12.325  1.00  0.00     0.019 A 
ATOM      5  C   UNL     1      -9.268  -9.593 -14.044  1.00  0.00     0.065 A 
ATOM      6  C   UNL     1      -9.987 -12.123 -13.142  1.00  0.00     0.044 A 
ATOM      7  C   UNL     1      -9.443 -11.961 -14.406  1.00  0.00     0.165 A 
ATOM      8  F   UNL     1      -9.259 -13.037 -15.202  1.00  0.00    -0.203 F 
BRANCH   3   9
ATOM      9  C   UNL     1     -10.024  -8.579 -11.899  1.00  0.00     0.335 C 
ATOM     10  O   UNL     1      -9.110  -8.165 -11.217  1.00  0.00    -0.246 OA
BRANCH   9  11
ATOM     11  O   UNL     1     -11.222  -7.964 -11.866  1.00  0.00    -0.478 OA
ATOM     12  H   UNL     1     -11.221  -6.997 -11.899  1.00  0.00     0.297 HD
ENDBRANCH   9  11
ENDBRANCH   3   9
ENDBRANCH   1   2
BRANCH   1  13
ATOM     13  C   UNL     1      -7.190 -10.087 -16.168  1.00  0.00     0.230 C 
BRANCH  13  14
ATOM     14  C   UNL     1      -6.241 -11.282 -16.065  1.00  0.00     0.046 C 
BRANCH  14  15
ATOM     15  C   UNL     1      -5.136 -10.970 -15.053  1.00  0.00     0.043 C 
BRANCH  15  16
ATOM     16  C   UNL     1      -5.571 -11.416 -13.680  1.00  0.00    -0.004 A 
ATOM     17  C   UNL     1      -5.763 -12.695 -13.283  1.00  0.00     0.036 A 
ATOM     18  C   UNL     1      -5.840 -10.582 -12.591  1.00  0.00     0.063 A 
ATOM     19  N   UNL     1      -6.147 -12.670 -11.989  1.00  0.00    -0.282 N 
ATOM     20  N   UNL     1      -6.192 -11.332 -11.578  1.00  0.00    -0.181 NA
ATOM     21  C   UNL     1      -5.581 -13.926 -14.132  1.00  0.00     0.066 C 
ATOM     22  C   UNL     1      -5.751  -9.077 -12.587  1.00  0.00     0.069 C 
ATOM     23  H   UNL     1      -6.356 -13.442 -11.441  1.00  0.00     0.190 HD
ENDBRANCH  15  16
ENDBRANCH  14  15
ENDBRANCH  13  14
ENDBRANCH   1  13
TORSDOF 7
ENDMDL
MODEL 7
REMARK VINA RESULT:    -4.794      9.493     11.745
REMARK INTER + INTRA:          -7.059
REMARK INTER:                  -4.810
REMARK INTRA:                  -2.248
REMARK UNBOUND:                -0.444
REMARK SMILES Cc1n[nH]c(C)c1CCCOc1cc(C(=O)O)ccc1F
REMARK SMILES IDX 11 1 12 2 14 3 18 4 13 5 19 6 20 7 21 8 15 9 16 10 17 11
REMARK SMILES IDX 10 13 9 14 8 15 7 16 5 17 2 18 4 19 3 20 6 21 1 22
REMARK H PARENT 17 12 4 23
ROOT
ATOM      1  O   UNL     1      -6.508  -9.449 -15.756  1.00  0.00    -0.490 OA
ENDROOT
BRANCH   1   2
ATOM      2  C   UNL     1      -7.701  -9.609 -15.124  1.00  0.00     0.155 A 
ATOM      3  C   UNL     1      -9.964 -10.422 -15.110  1.00  0.00     0.063 A 
ATOM      4  C   UNL     1     -10.127  -9.933 -13.811  1.00  0.00     0.019 A 
ATOM      5  C   UNL     1      -8.741 -10.256 -15.764  1.00  0.00     0.065 A 
ATOM      6  C   UNL     1      -9.082  -9.294 -13.179  1.00  0.00     0.044 A 
ATOM      7  C   UNL     1      -7.869  -9.134 -13.828  1.00  0.00     0.165 A 
ATOM      8  F   UNL     1      -6.848  -8.507 -13.202  1.00  0.00    -0.203 F 
BRANCH   3   9
ATOM      9  C   UNL     1     -11.080 -11.107 -15.790  1.00  0.00     0.335 C 
ATOM     10  O   UNL     1     -11.989 -10.460 -16.268  1.00  0.00    -0.246 OA
BRANCH   9  11
ATOM     11  O   UNL     1     -11.088 -12.451 -15.885  1.00  0.00    -0.478 OA
ATOM     12  H   UNL     1     -10.816 -12.949 -15.101  1.00  0.00     0.297 HD
ENDBRANCH   9  11
ENDBRANCH   3   9
ENDBRANCH   1   2
BRANCH   1  13
ATOM     13  C   UNL     1      -5.801 -10.638 -16.118  1.00  0.00     0.230 C 
BRANCH  13  14
ATOM     14  C   UNL     1      -4.850 -11.029 -14.986  1.00  0.00     0.046 C 
BRANCH  14  15
ATOM     15  C   UNL     1      -5.086 -12.492 -14.603  1.00  0.00     0.043 C 
BRANCH  15  16
ATOM     16  C   UNL     1      -6.207 -12.574 -13.600  1.00  0.00    -0.004 A 
ATOM     17  C   UNL     1      -7.394 -13.200 -13.781  1.00  0.00     0.036 A 
ATOM     18  C   UNL     1      -6.204 -12.022 -12.314  1.00  0.00     0.063 A 
ATOM     19  N   UNL     1      -8.118 -13.045 -12.652  1.00  0.00    -0.282 N 
ATOM     20  N   UNL     1      -7.351 -12.298 -11.748  1.00  0.00    -0.181 NA
ATOM     21  C   UNL     1      -7.827 -13.939 -15.019  1.00  0.00     0.066 C 
ATOM     22  C   UNL     1      -5.079 -11.235 -11.693  1.00  0.00     0.069 C 
ATOM     23  H   UNL     1      -9.011 -13.388 -12.496  1.00  0.00     0.190 HD
ENDBRANCH  15  16
ENDBRANCH  14  15
ENDBRANCH  13  14
ENDBRANCH   1  13
TORSDOF 7
ENDMDL
MODEL 8
REMARK VINA RESULT:    -4.410      7.880     10.216
REMARK INTER + INTRA:          -6.530
REMARK INTER:                  -4.094
REMARK INTRA:                  -2.435
REMARK UNBOUND:                -0.444
REMARK SMILES Cc1n[nH]c(C)c1CCCOc1cc(C(=O)O)ccc1F
REMARK SMILES IDX 11 1 12 2 14 3 18 4 13 5 19 6 20 7 21 8 15 9 16 10 17 11
REMARK SMILES IDX 10 13 9 14 8 15 7 16 5 17 2 18 4 19 3 20 6 21 1 22
REMARK H PARENT 17 12 4 23
ROOT
ATOM      1  O   UNL     1      -7.140 -10.311 -16.016  1.00  0.00    -0.490 OA
ENDROOT
BRANCH   1   2
ATOM      2  C   UNL     1      -6.685 -10.111 -14.751  1.00  0.00     0.155 A 
ATOM      3  C   UNL     1      -6.815  -8.958 -12.644  1.00  0.00     0.063 A 
ATOM      4  C   UNL     1      -5.749  -9.723 -12.164  1.00  0.00     0.019 A 
ATOM      5  C   UNL     1      -7.281  -9.158 -13.945  1.00  0.00     0.065 A 
ATOM      6  C   UNL     1      -5.165 -10.675 -12.973  1.00  0.00     0.044 A 
ATOM      7  C   UNL     1      -5.632 -10.875 -14.261  1.00  0.00     0.165 A 
ATOM      8  F   UNL     1      -5.055 -11.810 -15.049  1.00  0.00    -0.203 F 
BRANCH   3   9
ATOM      9  C   UNL     1      -7.443  -7.939 -11.781  1.00  0.00     0.335 C 
ATOM     10  O   UNL     1      -6.814  -6.956 -11.445  1.00  0.00    -0.246 OA
BRANCH   9  11
ATOM     11  O   UNL     1      -8.717  -8.095 -11.371  1.00  0.00    -0.478 OA
ATOM     12  H   UNL     1      -9.252  -8.750 -11.841  1.00  0.00     0.297 HD
ENDBRANCH   9  11
ENDBRANCH   3   9
ENDBRANCH   1   2
BRANCH   1  13
ATOM     13  C   UNL     1      -8.089 -11.363 -16.205  1.00  0.00     0.230 C 
BRANCH  13  14
ATOM     14  C   UNL     1      -9.504 -10.780 -16.197  1.00  0.00     0.046 C 
BRANCH  14  15
ATOM     15  C   UNL     1     -10.391 -11.609 -15.266  1.00  0.00     0.043 C 
BRANCH  15  16
ATOM     16  C   UNL     1     -10.429 -10.966 -13.903  1.00  0.00    -0.004 A 
ATOM     17  C   UNL     1     -11.076  -9.822 -13.580  1.00  0.00     0.036 A 
ATOM     18  C   UNL     1      -9.809 -11.451 -12.747  1.00  0.00     0.063 A 
ATOM     19  N   UNL     1     -10.865  -9.587 -12.268  1.00  0.00    -0.282 N 
ATOM     20  N   UNL     1     -10.063 -10.621 -11.768  1.00  0.00    -0.181 NA
ATOM     21  C   UNL     1     -11.885  -8.964 -14.518  1.00  0.00     0.066 C 
ATOM     22  C   UNL     1      -8.979 -12.705 -12.649  1.00  0.00     0.069 C 
ATOM     23  H   UNL     1     -11.208  -8.835 -11.761  1.00  0.00     0.190 HD
ENDBRANCH  15  16
ENDBRANCH  14  15
ENDBRANCH  13  14
ENDBRANCH   1  13
TORSDOF 7
ENDMDL
MODEL 9
REMARK VINA RESULT:    -4.398      7.915     10.473
REMARK INTER + INTRA:          -6.513
REMARK INTER:                  -4.280
REMARK INTRA:                  -2.233
REMARK UNBOUND:                -0.444
REMARK SMILES Cc1n[nH]c(C)c1CCCOc1cc(C(=O)O)ccc1F
REMARK SMILES IDX 11 1 12 2 14 3 18 4 13 5 19 6 20 7 21 8 15 9 16 10 17 11
REMARK SMILES IDX 10 13 9 14 8 15 7 16 5 17 2 18 4 19 3 20 6 21 1 22
REMARK H PARENT 17 12 4 23
ROOT
ATOM      1  O   UNL     1      -6.814 -10.558 -16.058  1.00  0.00    -0.490 OA
ENDROOT
BRANCH   1   2
ATOM      2  C   UNL     1      -6.398 -10.576 -14.763  1.00  0.00     0.155 A 
ATOM      3  C   UNL     1      -6.189  -9.502 -12.622  1.00  0.00     0.063 A 
ATOM      4  C   UNL     1      -5.549 -10.638 -12.119  1.00  0.00     0.019 A 
ATOM      5  C   UNL     1      -6.613  -9.478 -13.952  1.00  0.00     0.065 A 
ATOM      6  C   UNL     1      -5.344 -11.731 -12.934  1.00  0.00     0.044 A 
ATOM      7  C   UNL     1      -5.770 -11.707 -14.252  1.00  0.00     0.165 A 
ATOM      8  F   UNL     1      -5.566 -12.781 -15.045  1.00  0.00    -0.203 F 
BRANCH   3   9
ATOM      9  C   UNL     1      -6.411  -8.330 -11.752  1.00  0.00     0.335 C 
ATOM     10  O   UNL     1      -5.465  -7.765 -11.242  1.00  0.00    -0.246 OA
BRANCH   9  11
ATOM     11  O   UNL     1      -7.663  -7.884 -11.530  1.00  0.00    -0.478 OA
ATOM     12  H   UNL     1      -7.909  -7.706 -10.611  1.00  0.00     0.297 HD
ENDBRANCH   9  11
ENDBRANCH   3   9
ENDBRANCH   1   2
BRANCH   1  13
ATOM     13  C   UNL     1      -8.222 -10.451 -16.285  1.00  0.00     0.230 C 
BRANCH  13  14
ATOM     14  C   UNL     1      -8.856 -11.841 -16.215  1.00  0.00     0.046 C 
BRANCH  14  15
ATOM     15  C   UNL     1     -10.149 -11.771 -15.399  1.00  0.00     0.043 C 
BRANCH  15  16
ATOM     16  C   UNL     1      -9.827 -11.905 -13.934  1.00  0.00    -0.004 A 
ATOM     17  C   UNL     1      -9.341 -13.010 -13.323  1.00  0.00     0.036 A 
ATOM     18  C   UNL     1      -9.972 -10.907 -12.964  1.00  0.00     0.063 A 
ATOM     19  N   UNL     1      -9.190 -12.724 -12.012  1.00  0.00    -0.282 N 
ATOM     20  N   UNL     1      -9.597 -11.398 -11.812  1.00  0.00    -0.181 NA
ATOM     21  C   UNL     1      -9.024 -14.325 -13.986  1.00  0.00     0.066 C 
ATOM     22  C   UNL     1     -10.484  -9.509 -13.205  1.00  0.00     0.069 C 
ATOM     23  H   UNL     1      -8.859 -13.328 -11.330  1.00  0.00     0.190 HD
ENDBRANCH  15  16
ENDBRANCH  14  15
ENDBRANCH  13  14
ENDBRANCH   1  13
TORSDOF 7
ENDMDL
