MODEL 1
REMARK VINA RESULT:    -4.199      0.000      0.000
REMARK INTER + INTRA:          -5.096
REMARK INTER:                  -4.813
REMARK INTRA:                  -0.283
REMARK UNBOUND:                -0.283
REMARK SMILES O=C(O)c1ccc2nc(-c3cc(Cl)cc(Cl)c3)oc2c1
REMARK SMILES IDX 5 1 6 2 20 3 8 4 18 5 4 6 9 7 7 8 19 9 2 10 1 11 3 12 10 14
REMARK SMILES IDX 11 15 17 16 12 17 15 18 14 19 13 20 16 21
REMARK H PARENT 3 13
ROOT
ATOM      1  C   UNL     1      -7.563  -9.384 -14.041  1.00  0.00     0.018 A 
ATOM      2  C   UNL     1      -8.300  -8.732 -13.098  1.00  0.00     0.033 A 
ATOM      3  C   UNL     1      -5.533  -8.955 -12.786  1.00  0.00     0.065 A 
ATOM      4  N   UNL     1      -8.120  -7.490 -10.905  1.00  0.00    -0.209 NA
ATOM      5  O   UNL     1      -5.964  -7.664 -10.672  1.00  0.00    -0.436 OA
ATOM      6  C   UNL     1      -6.173  -9.505 -13.897  1.00  0.00     0.063 A 
ATOM      7  C   UNL     1      -7.104  -7.190 -10.135  1.00  0.00     0.227 A 
ATOM      8  C   UNL     1      -7.670  -8.175 -11.978  1.00  0.00     0.110 A 
ATOM      9  C   UNL     1      -6.276  -8.289 -11.829  1.00  0.00     0.156 A 
ENDROOT
BRANCH   6  10
ATOM     10  C   UNL     1      -5.388 -10.217 -14.921  1.00  0.00     0.335 C 
ATOM     11  O   UNL     1      -5.259 -11.423 -14.857  1.00  0.00    -0.246 OA
BRANCH  10  12
ATOM     12  O   UNL     1      -4.811  -9.530 -15.927  1.00  0.00    -0.478 OA
ATOM     13  H   UNL     1      -3.845  -9.517 -15.953  1.00  0.00     0.297 HD
ENDBRANCH  10  12
ENDBRANCH   6  10
BRANCH   7  14
ATOM     14  C   UNL     1      -7.196  -6.442  -8.864  1.00  0.00     0.040 A 
ATOM     15  C   UNL     1      -6.182  -5.557  -8.496  1.00  0.00     0.034 A 
ATOM     16  C   UNL     1      -8.299  -6.619  -8.026  1.00  0.00     0.034 A 
ATOM     17  C   UNL     1      -6.275  -4.860  -7.307  1.00  0.00     0.043 A 
ATOM     18  C   UNL     1      -8.381  -5.916  -6.840  1.00  0.00     0.043 A 
ATOM     19  C   UNL     1      -7.371  -5.040  -6.481  1.00  0.00     0.041 A 
ATOM     20  Cl  UNL     1      -5.015  -3.759  -6.848  1.00  0.00    -0.084 Cl
ATOM     21  Cl  UNL     1      -9.752  -6.134  -5.797  1.00  0.00    -0.084 Cl
ENDBRANCH   7  14
TORSDOF 3
ENDMDL
MODEL 2
REMARK VINA RESULT:    -4.187      0.007      2.019
REMARK INTER + INTRA:          -5.082
REMARK INTER:                  -4.799
REMARK INTRA:                  -0.283
REMARK UNBOUND:                -0.283
REMARK SMILES O=C(O)c1ccc2nc(-c3cc(Cl)cc(Cl)c3)oc2c1
REMARK SMILES IDX 5 1 6 2 20 3 8 4 18 5 4 6 9 7 7 8 19 9 2 10 1 11 3 12 10 14
REMARK SMILES IDX 11 15 17 16 12 17 15 18 14 19 13 20 16 21
REMARK H PARENT 3 13
ROOT
ATOM      1  C   UNL     1      -7.571  -9.382 -14.042  1.00  0.00     0.018 A 
ATOM      2  C   UNL     1      -8.307  -8.732 -13.097  1.00  0.00     0.033 A 
ATOM      3  C   UNL     1      -5.539  -8.951 -12.790  1.00  0.00     0.065 A 
ATOM      4  N   UNL     1      -8.126  -7.491 -10.904  1.00  0.00    -0.209 NA
ATOM      5  O   UNL     1      -5.969  -7.662 -10.675  1.00  0.00    -0.436 OA
ATOM      6  C   UNL     1      -6.181  -9.502 -13.900  1.00  0.00     0.063 A 
ATOM      7  C   UNL     1      -7.109  -7.190 -10.135  1.00  0.00     0.227 A 
ATOM      8  C   UNL     1      -7.676  -8.175 -11.978  1.00  0.00     0.110 A 
ATOM      9  C   UNL     1      -6.282  -8.287 -11.831  1.00  0.00     0.156 A 
ENDROOT
BRANCH   6  10
ATOM     10  C   UNL     1      -5.396 -10.213 -14.926  1.00  0.00     0.335 C 
ATOM     11  O   UNL     1      -5.274 -11.420 -14.868  1.00  0.00    -0.246 OA
BRANCH  10  12
ATOM     12  O   UNL     1      -4.813  -9.524 -15.926  1.00  0.00    -0.478 OA
ATOM     13  H   UNL     1      -5.257  -8.717 -16.221  1.00  0.00     0.297 HD
ENDBRANCH  10  12
ENDBRANCH   6  10
BRANCH   7  14
ATOM     14  C   UNL     1      -7.200  -6.443  -8.864  1.00  0.00     0.040 A 
ATOM     15  C   UNL     1      -8.301  -6.618  -8.025  1.00  0.00     0.034 A 
ATOM     16  C   UNL     1      -6.185  -5.557  -8.498  1.00  0.00     0.034 A 
ATOM     17  C   UNL     1      -8.380  -5.917  -6.838  1.00  0.00     0.043 A 
ATOM     18  C   UNL     1      -6.275  -4.862  -7.309  1.00  0.00     0.043 A 
ATOM     19  C   UNL     1      -7.370  -5.040  -6.481  1.00  0.00     0.041 A 
ATOM     20  Cl  UNL     1      -9.749  -6.134  -5.793  1.00  0.00    -0.084 Cl
ATOM     21  Cl  UNL     1      -5.013  -3.760  -6.851  1.00  0.00    -0.084 Cl
ENDBRANCH   7  14
TORSDOF 3
ENDMDL
MODEL 3
REMARK VINA RESULT:    -4.178      3.553      5.571
REMARK INTER + INTRA:          -5.071
REMARK INTER:                  -4.776
REMARK INTRA:                  -0.296
REMARK UNBOUND:                -0.283
REMARK SMILES O=C(O)c1ccc2nc(-c3cc(Cl)cc(Cl)c3)oc2c1
REMARK SMILES IDX 5 1 6 2 20 3 8 4 18 5 4 6 9 7 7 8 19 9 2 10 1 11 3 12 10 14
REMARK SMILES IDX 11 15 17 16 12 17 15 18 14 19 13 20 16 21
REMARK H PARENT 3 13
ROOT
ATOM      1  C   UNL     1      -8.826  -7.082  -8.719  1.00  0.00     0.018 A 
ATOM      2  C   UNL     1      -8.534  -6.546  -7.500  1.00  0.00     0.033 A 
ATOM      3  C   UNL     1      -6.751  -6.212  -9.625  1.00  0.00     0.065 A 
ATOM      4  N   UNL     1      -6.796  -5.198  -6.257  1.00  0.00    -0.209 NA
ATOM      5  O   UNL     1      -5.416  -4.938  -7.918  1.00  0.00    -0.436 OA
ATOM      6  C   UNL     1      -7.940  -6.925  -9.794  1.00  0.00     0.063 A 
ATOM      7  C   UNL     1      -5.653  -4.672  -6.620  1.00  0.00     0.227 A 
ATOM      8  C   UNL     1      -7.345  -5.828  -7.317  1.00  0.00     0.110 A 
ATOM      9  C   UNL     1      -6.454  -5.662  -8.392  1.00  0.00     0.156 A 
ENDROOT
BRANCH   6  10
ATOM     10  C   UNL     1      -8.263  -7.515 -11.105  1.00  0.00     0.335 C 
ATOM     11  O   UNL     1      -7.554  -7.288 -12.065  1.00  0.00    -0.246 OA
BRANCH  10  12
ATOM     12  O   UNL     1      -9.347  -8.305 -11.241  1.00  0.00    -0.478 OA
ATOM     13  H   UNL     1      -9.516  -8.942 -10.534  1.00  0.00     0.297 HD
ENDBRANCH  10  12
ENDBRANCH   6  10
BRANCH   7  14
ATOM     14  C   UNL     1      -4.756  -3.901  -5.734  1.00  0.00     0.040 A 
ATOM     15  C   UNL     1      -4.738  -4.154  -4.362  1.00  0.00     0.034 A 
ATOM     16  C   UNL     1      -3.922  -2.916  -6.267  1.00  0.00     0.034 A 
ATOM     17  C   UNL     1      -3.897  -3.431  -3.540  1.00  0.00     0.043 A 
ATOM     18  C   UNL     1      -3.086  -2.199  -5.435  1.00  0.00     0.043 A 
ATOM     19  C   UNL     1      -3.073  -2.455  -4.075  1.00  0.00     0.041 A 
ATOM     20  Cl  UNL     1      -3.874  -3.744  -1.832  1.00  0.00    -0.084 Cl
ATOM     21  Cl  UNL     1      -2.049  -0.974  -6.096  1.00  0.00    -0.084 Cl
ENDBRANCH   7  14
TORSDOF 3
ENDMDL
MODEL 4
REMARK VINA RESULT:    -4.177      3.561      5.326
REMARK INTER + INTRA:          -5.070
REMARK INTER:                  -4.774
REMARK INTRA:                  -0.296
REMARK UNBOUND:                -0.283
REMARK SMILES O=C(O)c1ccc2nc(-c3cc(Cl)cc(Cl)c3)oc2c1
REMARK SMILES IDX 5 1 6 2 20 3 8 4 18 5 4 6 9 7 7 8 19 9 2 10 1 11 3 12 10 14
REMARK SMILES IDX 11 15 17 16 12 17 15 18 14 19 13 20 16 21
REMARK H PARENT 3 13
ROOT
ATOM      1  C   UNL     1      -8.828  -7.079  -8.707  1.00  0.00     0.018 A 
ATOM      2  C   UNL     1      -8.531  -6.542  -7.490  1.00  0.00     0.033 A 
ATOM      3  C   UNL     1      -6.762  -6.203  -9.625  1.00  0.00     0.065 A 
ATOM      4  N   UNL     1      -6.790  -5.189  -6.256  1.00  0.00    -0.209 NA
ATOM      5  O   UNL     1      -5.420  -4.925  -7.925  1.00  0.00    -0.436 OA
ATOM      6  C   UNL     1      -7.949  -6.919  -9.787  1.00  0.00     0.063 A 
ATOM      7  C   UNL     1      -5.650  -4.660  -6.626  1.00  0.00     0.227 A 
ATOM      8  C   UNL     1      -7.343  -5.821  -7.314  1.00  0.00     0.110 A 
ATOM      9  C   UNL     1      -6.459  -5.652  -8.393  1.00  0.00     0.156 A 
ENDROOT
BRANCH   6  10
ATOM     10  C   UNL     1      -8.278  -7.510 -11.097  1.00  0.00     0.335 C 
ATOM     11  O   UNL     1      -7.566  -7.293 -12.057  1.00  0.00    -0.246 OA
BRANCH  10  12
ATOM     12  O   UNL     1      -9.370  -8.289 -11.230  1.00  0.00    -0.478 OA
ATOM     13  H   UNL     1     -10.083  -7.953 -11.789  1.00  0.00     0.297 HD
ENDBRANCH  10  12
ENDBRANCH   6  10
BRANCH   7  14
ATOM     14  C   UNL     1      -4.751  -3.887  -5.745  1.00  0.00     0.040 A 
ATOM     15  C   UNL     1      -3.916  -2.906  -6.283  1.00  0.00     0.034 A 
ATOM     16  C   UNL     1      -4.732  -4.135  -4.371  1.00  0.00     0.034 A 
ATOM     17  C   UNL     1      -3.078  -2.186  -5.454  1.00  0.00     0.043 A 
ATOM     18  C   UNL     1      -3.890  -3.408  -3.553  1.00  0.00     0.043 A 
ATOM     19  C   UNL     1      -3.064  -2.437  -4.092  1.00  0.00     0.041 A 
ATOM     20  Cl  UNL     1      -2.039  -0.966  -6.120  1.00  0.00    -0.084 Cl
ATOM     21  Cl  UNL     1      -3.866  -3.715  -1.844  1.00  0.00    -0.084 Cl
ENDBRANCH   7  14
TORSDOF 3
ENDMDL
MODEL 5
REMARK VINA RESULT:    -4.169      5.107      6.728
REMARK INTER + INTRA:          -5.062
REMARK INTER:                  -4.766
REMARK INTRA:                  -0.296
REMARK UNBOUND:                -0.283
REMARK SMILES O=C(O)c1ccc2nc(-c3cc(Cl)cc(Cl)c3)oc2c1
REMARK SMILES IDX 5 1 6 2 20 3 8 4 18 5 4 6 9 7 7 8 19 9 2 10 1 11 3 12 10 14
REMARK SMILES IDX 11 15 17 16 12 17 15 18 14 19 13 20 16 21
REMARK H PARENT 3 13
ROOT
ATOM      1  C   UNL     1      -8.702  -7.108  -8.759  1.00  0.00     0.018 A 
ATOM      2  C   UNL     1      -7.553  -6.381  -8.854  1.00  0.00     0.033 A 
ATOM      3  C   UNL     1      -8.964  -6.433  -6.444  1.00  0.00     0.065 A 
ATOM      4  N   UNL     1      -6.006  -4.876  -7.540  1.00  0.00    -0.209 NA
ATOM      5  O   UNL     1      -7.109  -4.927  -5.665  1.00  0.00    -0.436 OA
ATOM      6  C   UNL     1      -9.422  -7.142  -7.556  1.00  0.00     0.063 A 
ATOM      7  C   UNL     1      -6.028  -4.441  -6.305  1.00  0.00     0.227 A 
ATOM      8  C   UNL     1      -7.083  -5.665  -7.746  1.00  0.00     0.110 A 
ATOM      9  C   UNL     1      -7.797  -5.699  -6.535  1.00  0.00     0.156 A 
ENDROOT
BRANCH   6  10
ATOM     10  C   UNL     1     -10.666  -7.927  -7.467  1.00  0.00     0.335 C 
ATOM     11  O   UNL     1     -11.263  -8.001  -6.411  1.00  0.00    -0.246 OA
BRANCH  10  12
ATOM     12  O   UNL     1     -11.142  -8.565  -8.555  1.00  0.00    -0.478 OA
ATOM     13  H   UNL     1     -11.106  -9.530  -8.549  1.00  0.00     0.297 HD
ENDBRANCH  10  12
ENDBRANCH   6  10
BRANCH   7  14
ATOM     14  C   UNL     1      -5.015  -3.550  -5.702  1.00  0.00     0.040 A 
ATOM     15  C   UNL     1      -4.779  -3.585  -4.328  1.00  0.00     0.034 A 
ATOM     16  C   UNL     1      -4.290  -2.669  -6.508  1.00  0.00     0.034 A 
ATOM     17  C   UNL     1      -3.830  -2.750  -3.771  1.00  0.00     0.043 A 
ATOM     18  C   UNL     1      -3.344  -1.840  -5.940  1.00  0.00     0.043 A 
ATOM     19  C   UNL     1      -3.115  -1.879  -4.575  1.00  0.00     0.041 A 
ATOM     20  Cl  UNL     1      -3.534  -2.792  -2.061  1.00  0.00    -0.084 Cl
ATOM     21  Cl  UNL     1      -2.441  -0.743  -6.939  1.00  0.00    -0.084 Cl
ENDBRANCH   7  14
TORSDOF 3
ENDMDL
MODEL 6
REMARK VINA RESULT:    -4.168      5.105      6.567
REMARK INTER + INTRA:          -5.060
REMARK INTER:                  -4.764
REMARK INTRA:                  -0.296
REMARK UNBOUND:                -0.283
REMARK SMILES O=C(O)c1ccc2nc(-c3cc(Cl)cc(Cl)c3)oc2c1
REMARK SMILES IDX 5 1 6 2 20 3 8 4 18 5 4 6 9 7 7 8 19 9 2 10 1 11 3 12 10 14
REMARK SMILES IDX 11 15 17 16 12 17 15 18 14 19 13 20 16 21
REMARK H PARENT 3 13
ROOT
ATOM      1  C   UNL     1      -8.698  -7.111  -8.760  1.00  0.00     0.018 A 
ATOM      2  C   UNL     1      -7.552  -6.381  -8.858  1.00  0.00     0.033 A 
ATOM      3  C   UNL     1      -8.961  -6.432  -6.446  1.00  0.00     0.065 A 
ATOM      4  N   UNL     1      -6.008  -4.870  -7.548  1.00  0.00    -0.209 NA
ATOM      5  O   UNL     1      -7.108  -4.919  -5.672  1.00  0.00    -0.436 OA
ATOM      6  C   UNL     1      -9.418  -7.144  -7.557  1.00  0.00     0.063 A 
ATOM      7  C   UNL     1      -6.029  -4.432  -6.314  1.00  0.00     0.227 A 
ATOM      8  C   UNL     1      -7.082  -5.662  -7.752  1.00  0.00     0.110 A 
ATOM      9  C   UNL     1      -7.795  -5.694  -6.540  1.00  0.00     0.156 A 
ENDROOT
BRANCH   6  10
ATOM     10  C   UNL     1     -10.660  -7.932  -7.464  1.00  0.00     0.335 C 
ATOM     11  O   UNL     1     -11.251  -8.012  -6.406  1.00  0.00    -0.246 OA
BRANCH  10  12
ATOM     12  O   UNL     1     -11.140  -8.564  -8.553  1.00  0.00    -0.478 OA
ATOM     13  H   UNL     1     -11.623  -8.027  -9.196  1.00  0.00     0.297 HD
ENDBRANCH  10  12
ENDBRANCH   6  10
BRANCH   7  14
ATOM     14  C   UNL     1      -5.018  -3.537  -5.715  1.00  0.00     0.040 A 
ATOM     15  C   UNL     1      -4.293  -2.659  -6.521  1.00  0.00     0.034 A 
ATOM     16  C   UNL     1      -4.783  -3.568  -4.339  1.00  0.00     0.034 A 
ATOM     17  C   UNL     1      -3.349  -1.825  -5.955  1.00  0.00     0.043 A 
ATOM     18  C   UNL     1      -3.837  -2.729  -3.784  1.00  0.00     0.043 A 
ATOM     19  C   UNL     1      -3.121  -1.860  -4.590  1.00  0.00     0.041 A 
ATOM     20  Cl  UNL     1      -2.447  -0.731  -6.956  1.00  0.00    -0.084 Cl
ATOM     21  Cl  UNL     1      -3.544  -2.765  -2.073  1.00  0.00    -0.084 Cl
ENDBRANCH   7  14
TORSDOF 3
ENDMDL
MODEL 7
REMARK VINA RESULT:    -4.071      5.222      8.976
REMARK INTER + INTRA:          -4.949
REMARK INTER:                  -4.651
REMARK INTRA:                  -0.298
REMARK UNBOUND:                -0.283
REMARK SMILES O=C(O)c1ccc2nc(-c3cc(Cl)cc(Cl)c3)oc2c1
REMARK SMILES IDX 5 1 6 2 20 3 8 4 18 5 4 6 9 7 7 8 19 9 2 10 1 11 3 12 10 14
REMARK SMILES IDX 11 15 17 16 12 17 15 18 14 19 13 20 16 21
REMARK H PARENT 3 13
ROOT
ATOM      1  C   UNL     1      -2.789  -2.051  -5.391  1.00  0.00     0.018 A 
ATOM      2  C   UNL     1      -3.261  -2.636  -6.528  1.00  0.00     0.033 A 
ATOM      3  C   UNL     1      -4.566  -3.076  -4.098  1.00  0.00     0.065 A 
ATOM      4  N   UNL     1      -5.082  -4.149  -7.408  1.00  0.00    -0.209 NA
ATOM      5  O   UNL     1      -6.096  -4.483  -5.513  1.00  0.00    -0.436 OA
ATOM      6  C   UNL     1      -3.433  -2.265  -4.164  1.00  0.00     0.063 A 
ATOM      7  C   UNL     1      -6.088  -4.758  -6.831  1.00  0.00     0.227 A 
ATOM      8  C   UNL     1      -4.397  -3.453  -6.476  1.00  0.00     0.110 A 
ATOM      9  C   UNL     1      -5.051  -3.668  -5.250  1.00  0.00     0.156 A 
ENDROOT
BRANCH   6  10
ATOM     10  C   UNL     1      -2.910  -1.632  -2.940  1.00  0.00     0.335 C 
ATOM     11  O   UNL     1      -2.010  -0.818  -3.013  1.00  0.00    -0.246 OA
BRANCH  10  12
ATOM     12  O   UNL     1      -3.428  -1.956  -1.738  1.00  0.00    -0.478 OA
ATOM     13  H   UNL     1      -4.194  -1.448  -1.439  1.00  0.00     0.297 HD
ENDBRANCH  10  12
ENDBRANCH   6  10
BRANCH   7  14
ATOM     14  C   UNL     1      -7.068  -5.619  -7.524  1.00  0.00     0.040 A 
ATOM     15  C   UNL     1      -8.203  -6.073  -6.851  1.00  0.00     0.034 A 
ATOM     16  C   UNL     1      -6.862  -5.983  -8.857  1.00  0.00     0.034 A 
ATOM     17  C   UNL     1      -9.116  -6.876  -7.505  1.00  0.00     0.043 A 
ATOM     18  C   UNL     1      -7.782  -6.786  -9.500  1.00  0.00     0.043 A 
ATOM     19  C   UNL     1      -8.906  -7.233  -8.826  1.00  0.00     0.041 A 
ATOM     20  Cl  UNL     1     -10.528  -7.441  -6.669  1.00  0.00    -0.084 Cl
ATOM     21  Cl  UNL     1      -7.528  -7.240 -11.157  1.00  0.00    -0.084 Cl
ENDBRANCH   7  14
TORSDOF 3
ENDMDL
MODEL 8
REMARK VINA RESULT:    -4.066      5.240      8.828
REMARK INTER + INTRA:          -4.944
REMARK INTER:                  -4.646
REMARK INTRA:                  -0.298
REMARK UNBOUND:                -0.283
REMARK SMILES O=C(O)c1ccc2nc(-c3cc(Cl)cc(Cl)c3)oc2c1
REMARK SMILES IDX 5 1 6 2 20 3 8 4 18 5 4 6 9 7 7 8 19 9 2 10 1 11 3 12 10 14
REMARK SMILES IDX 11 15 17 16 12 17 15 18 14 19 13 20 16 21
REMARK H PARENT 3 13
ROOT
ATOM      1  C   UNL     1      -2.789  -2.052  -5.392  1.00  0.00     0.018 A 
ATOM      2  C   UNL     1      -3.266  -2.642  -6.524  1.00  0.00     0.033 A 
ATOM      3  C   UNL     1      -4.565  -3.063  -4.088  1.00  0.00     0.065 A 
ATOM      4  N   UNL     1      -5.094  -4.155  -7.390  1.00  0.00    -0.209 NA
ATOM      5  O   UNL     1      -6.104  -4.474  -5.490  1.00  0.00    -0.436 OA
ATOM      6  C   UNL     1      -3.429  -2.256  -4.162  1.00  0.00     0.063 A 
ATOM      7  C   UNL     1      -6.100  -4.757  -6.806  1.00  0.00     0.227 A 
ATOM      8  C   UNL     1      -4.404  -3.455  -6.464  1.00  0.00     0.110 A 
ATOM      9  C   UNL     1      -5.055  -3.660  -5.235  1.00  0.00     0.156 A 
ENDROOT
BRANCH   6  10
ATOM     10  C   UNL     1      -2.901  -1.617  -2.943  1.00  0.00     0.335 C 
ATOM     11  O   UNL     1      -2.000  -0.806  -3.024  1.00  0.00    -0.246 OA
BRANCH  10  12
ATOM     12  O   UNL     1      -3.415  -1.934  -1.738  1.00  0.00    -0.478 OA
ATOM     13  H   UNL     1      -4.253  -1.519  -1.496  1.00  0.00     0.297 HD
ENDBRANCH  10  12
ENDBRANCH   6  10
BRANCH   7  14
ATOM     14  C   UNL     1      -7.086  -5.618  -7.491  1.00  0.00     0.040 A 
ATOM     15  C   UNL     1      -6.886  -5.991  -8.821  1.00  0.00     0.034 A 
ATOM     16  C   UNL     1      -8.221  -6.062  -6.810  1.00  0.00     0.034 A 
ATOM     17  C   UNL     1      -7.810  -6.798  -9.455  1.00  0.00     0.043 A 
ATOM     18  C   UNL     1      -9.138  -6.868  -7.456  1.00  0.00     0.043 A 
ATOM     19  C   UNL     1      -8.934  -7.235  -8.775  1.00  0.00     0.041 A 
ATOM     20  Cl  UNL     1      -7.563  -7.264 -11.109  1.00  0.00    -0.084 Cl
ATOM     21  Cl  UNL     1     -10.551  -7.421  -6.611  1.00  0.00    -0.084 Cl
ENDBRANCH   7  14
TORSDOF 3
ENDMDL
MODEL 9
REMARK VINA RESULT:    -4.047      4.952      8.737
REMARK INTER + INTRA:          -4.922
REMARK INTER:                  -4.624
REMARK INTRA:                  -0.298
REMARK UNBOUND:                -0.283
REMARK SMILES O=C(O)c1ccc2nc(-c3cc(Cl)cc(Cl)c3)oc2c1
REMARK SMILES IDX 5 1 6 2 20 3 8 4 18 5 4 6 9 7 7 8 19 9 2 10 1 11 3 12 10 14
REMARK SMILES IDX 11 15 17 16 12 17 15 18 14 19 13 20 16 21
REMARK H PARENT 3 13
ROOT
ATOM      1  C   UNL     1      -3.720  -2.612  -3.557  1.00  0.00     0.018 A 
ATOM      2  C   UNL     1      -4.809  -3.425  -3.656  1.00  0.00     0.033 A 
ATOM      3  C   UNL     1      -3.380  -2.736  -5.955  1.00  0.00     0.065 A 
ATOM      4  N   UNL     1      -6.217  -4.715  -5.310  1.00  0.00    -0.209 NA
ATOM      5  O   UNL     1      -5.095  -4.178  -7.096  1.00  0.00    -0.436 OA
ATOM      6  C   UNL     1      -2.993  -2.256  -4.703  1.00  0.00     0.063 A 
ATOM      7  C   UNL     1      -6.144  -4.867  -6.609  1.00  0.00     0.227 A 
ATOM      8  C   UNL     1      -5.208  -3.913  -4.906  1.00  0.00     0.110 A 
ATOM      9  C   UNL     1      -4.482  -3.565  -6.059  1.00  0.00     0.156 A 
ENDROOT
BRANCH   6  10
ATOM     10  C   UNL     1      -1.820  -1.372  -4.584  1.00  0.00     0.335 C 
ATOM     11  O   UNL     1      -1.452  -0.995  -3.490  1.00  0.00    -0.246 OA
BRANCH  10  12
ATOM     12  O   UNL     1      -1.156  -0.981  -5.690  1.00  0.00    -0.478 OA
ATOM     13  H   UNL     1      -0.946  -0.041  -5.766  1.00  0.00     0.297 HD
ENDBRANCH  10  12
ENDBRANCH   6  10
BRANCH   7  14
ATOM     14  C   UNL     1      -7.077  -5.677  -7.420  1.00  0.00     0.040 A 
ATOM     15  C   UNL     1      -8.258  -6.162  -6.856  1.00  0.00     0.034 A 
ATOM     16  C   UNL     1      -6.779  -5.962  -8.754  1.00  0.00     0.034 A 
ATOM     17  C   UNL     1      -9.126  -6.917  -7.619  1.00  0.00     0.043 A 
ATOM     18  C   UNL     1      -7.655  -6.719  -9.507  1.00  0.00     0.043 A 
ATOM     19  C   UNL     1      -8.825  -7.196  -8.941  1.00  0.00     0.041 A 
ATOM     20  Cl  UNL     1     -10.595  -7.520  -6.920  1.00  0.00    -0.084 Cl
ATOM     21  Cl  UNL     1      -7.287  -7.074 -11.166  1.00  0.00    -0.084 Cl
ENDBRANCH   7  14
TORSDOF 3
ENDMDL
