MODEL 1
REMARK VINA RESULT:    -4.545      0.000      0.000
REMARK INTER + INTRA:          -5.491
REMARK INTER:                  -5.209
REMARK INTRA:                  -0.282
REMARK UNBOUND:                -0.282
REMARK SMILES O=C(O)c1ccc2nc(-c3cc(Cl)cc(Cl)c3)oc2c1
REMARK SMILES IDX 5 1 6 2 20 3 8 4 18 5 4 6 9 7 7 8 19 9 2 10 1 11 3 12 10 14
REMARK SMILES IDX 11 15 17 16 12 17 15 18 14 19 13 20 16 21
REMARK H PARENT 3 13
ROOT
ATOM      1  C   UNL     1     -12.256   0.532 -13.860  1.00  0.00     0.018 A 
ATOM      2  C   UNL     1     -12.392  -0.351 -12.830  1.00  0.00     0.033 A 
ATOM      3  C   UNL     1      -9.904   0.810 -13.343  1.00  0.00     0.065 A 
ATOM      4  N   UNL     1     -11.115  -1.487 -10.970  1.00  0.00    -0.209 NA
ATOM      5  O   UNL     1      -9.181  -0.575 -11.373  1.00  0.00    -0.436 OA
ATOM      6  C   UNL     1     -11.013   1.121 -14.131  1.00  0.00     0.063 A 
ATOM      7  C   UNL     1      -9.864  -1.426 -10.585  1.00  0.00     0.227 A 
ATOM      8  C   UNL     1     -11.287  -0.671 -12.032  1.00  0.00     0.110 A 
ATOM      9  C   UNL     1     -10.038  -0.080 -12.294  1.00  0.00     0.156 A 
ENDROOT
BRANCH   6  10
ATOM     10  C   UNL     1     -10.878   2.069 -15.251  1.00  0.00     0.335 C 
ATOM     11  O   UNL     1     -10.796   1.656 -16.390  1.00  0.00    -0.246 OA
BRANCH  10  12
ATOM     12  O   UNL     1     -10.843   3.395 -15.012  1.00  0.00    -0.478 OA
ATOM     13  H   UNL     1     -10.663   3.973 -15.765  1.00  0.00     0.297 HD
ENDBRANCH  10  12
ENDBRANCH   6  10
BRANCH   7  14
ATOM     14  C   UNL     1      -9.289  -2.179  -9.451  1.00  0.00     0.040 A 
ATOM     15  C   UNL     1      -8.405  -1.555  -8.570  1.00  0.00     0.034 A 
ATOM     16  C   UNL     1      -9.628  -3.520  -9.257  1.00  0.00     0.034 A 
ATOM     17  C   UNL     1      -7.872  -2.264  -7.512  1.00  0.00     0.043 A 
ATOM     18  C   UNL     1      -9.089  -4.219  -8.196  1.00  0.00     0.043 A 
ATOM     19  C   UNL     1      -8.212  -3.594  -7.326  1.00  0.00     0.041 A 
ATOM     20  Cl  UNL     1      -6.773  -1.490  -6.415  1.00  0.00    -0.084 Cl
ATOM     21  Cl  UNL     1      -9.509  -5.886  -7.953  1.00  0.00    -0.084 Cl
ENDBRANCH   7  14
TORSDOF 3
ENDMDL
MODEL 2
REMARK VINA RESULT:    -4.514      0.056      2.020
REMARK INTER + INTRA:          -5.457
REMARK INTER:                  -5.175
REMARK INTRA:                  -0.282
REMARK UNBOUND:                -0.282
REMARK SMILES O=C(O)c1ccc2nc(-c3cc(Cl)cc(Cl)c3)oc2c1
REMARK SMILES IDX 5 1 6 2 20 3 8 4 18 5 4 6 9 7 7 8 19 9 2 10 1 11 3 12 10 14
REMARK SMILES IDX 11 15 17 16 12 17 15 18 14 19 13 20 16 21
REMARK H PARENT 3 13
ROOT
ATOM      1  C   UNL     1     -12.288   0.586 -13.786  1.00  0.00     0.018 A 
ATOM      2  C   UNL     1     -12.422  -0.274 -12.737  1.00  0.00     0.033 A 
ATOM      3  C   UNL     1      -9.911   0.786 -13.347  1.00  0.00     0.065 A 
ATOM      4  N   UNL     1     -11.129  -1.425 -10.898  1.00  0.00    -0.209 NA
ATOM      5  O   UNL     1      -9.177  -0.592 -11.377  1.00  0.00    -0.436 OA
ATOM      6  C   UNL     1     -11.033   1.124 -14.106  1.00  0.00     0.063 A 
ATOM      7  C   UNL     1      -9.865  -1.404 -10.552  1.00  0.00     0.227 A 
ATOM      8  C   UNL     1     -11.305  -0.621 -11.968  1.00  0.00     0.110 A 
ATOM      9  C   UNL     1     -10.044  -0.082 -12.279  1.00  0.00     0.156 A 
ENDROOT
BRANCH   6  10
ATOM     10  C   UNL     1     -10.899   2.048 -15.246  1.00  0.00     0.335 C 
ATOM     11  O   UNL     1     -10.803   1.609 -16.375  1.00  0.00    -0.246 OA
BRANCH  10  12
ATOM     12  O   UNL     1     -10.882   3.380 -15.038  1.00  0.00    -0.478 OA
ATOM     13  H   UNL     1     -11.598   3.750 -14.504  1.00  0.00     0.297 HD
ENDBRANCH  10  12
ENDBRANCH   6  10
BRANCH   7  14
ATOM     14  C   UNL     1      -9.282  -2.159  -9.424  1.00  0.00     0.040 A 
ATOM     15  C   UNL     1      -9.627  -3.496  -9.223  1.00  0.00     0.034 A 
ATOM     16  C   UNL     1      -8.385  -1.537  -8.554  1.00  0.00     0.034 A 
ATOM     17  C   UNL     1      -9.078  -4.197  -8.167  1.00  0.00     0.043 A 
ATOM     18  C   UNL     1      -7.843  -2.248  -7.502  1.00  0.00     0.043 A 
ATOM     19  C   UNL     1      -8.189  -3.574  -7.308  1.00  0.00     0.041 A 
ATOM     20  Cl  UNL     1      -9.505  -5.860  -7.916  1.00  0.00    -0.084 Cl
ATOM     21  Cl  UNL     1      -6.726  -1.476  -6.419  1.00  0.00    -0.084 Cl
ENDBRANCH   7  14
TORSDOF 3
ENDMDL
MODEL 3
REMARK VINA RESULT:    -4.101      5.073      6.704
REMARK INTER + INTRA:          -4.983
REMARK INTER:                  -4.687
REMARK INTRA:                  -0.296
REMARK UNBOUND:                -0.282
REMARK SMILES O=C(O)c1ccc2nc(-c3cc(Cl)cc(Cl)c3)oc2c1
REMARK SMILES IDX 5 1 6 2 20 3 8 4 18 5 4 6 9 7 7 8 19 9 2 10 1 11 3 12 10 14
REMARK SMILES IDX 11 15 17 16 12 17 15 18 14 19 13 20 16 21
REMARK H PARENT 3 13
ROOT
ATOM      1  C   UNL     1     -10.320  -3.346  -9.940  1.00  0.00     0.018 A 
ATOM      2  C   UNL     1      -9.567  -2.353  -9.389  1.00  0.00     0.033 A 
ATOM      3  C   UNL     1      -9.291  -4.976  -8.469  1.00  0.00     0.065 A 
ATOM      4  N   UNL     1      -7.797  -1.900  -7.644  1.00  0.00    -0.209 NA
ATOM      5  O   UNL     1      -7.584  -3.946  -6.937  1.00  0.00    -0.436 OA
ATOM      6  C   UNL     1     -10.194  -4.667  -9.488  1.00  0.00     0.063 A 
ATOM      7  C   UNL     1      -7.164  -2.675  -6.798  1.00  0.00     0.227 A 
ATOM      8  C   UNL     1      -8.657  -2.649  -8.366  1.00  0.00     0.110 A 
ATOM      9  C   UNL     1      -8.521  -3.972  -7.910  1.00  0.00     0.156 A 
ENDROOT
BRANCH   6  10
ATOM     10  C   UNL     1     -11.018  -5.732 -10.088  1.00  0.00     0.335 C 
ATOM     11  O   UNL     1     -10.877  -6.884  -9.729  1.00  0.00    -0.246 OA
BRANCH  10  12
ATOM     12  O   UNL     1     -11.927  -5.428 -11.036  1.00  0.00    -0.478 OA
ATOM     13  H   UNL     1     -11.660  -4.792 -11.712  1.00  0.00     0.297 HD
ENDBRANCH  10  12
ENDBRANCH   6  10
BRANCH   7  14
ATOM     14  C   UNL     1      -6.140  -2.219  -5.835  1.00  0.00     0.040 A 
ATOM     15  C   UNL     1      -5.151  -3.100  -5.395  1.00  0.00     0.034 A 
ATOM     16  C   UNL     1      -6.160  -0.906  -5.361  1.00  0.00     0.034 A 
ATOM     17  C   UNL     1      -4.196  -2.668  -4.496  1.00  0.00     0.043 A 
ATOM     18  C   UNL     1      -5.200  -0.486  -4.462  1.00  0.00     0.043 A 
ATOM     19  C   UNL     1      -4.221  -1.364  -4.030  1.00  0.00     0.041 A 
ATOM     20  Cl  UNL     1      -2.964  -3.760  -3.948  1.00  0.00    -0.084 Cl
ATOM     21  Cl  UNL     1      -5.222   1.147  -3.871  1.00  0.00    -0.084 Cl
ENDBRANCH   7  14
TORSDOF 3
ENDMDL
MODEL 4
REMARK VINA RESULT:    -4.098      5.076      6.546
REMARK INTER + INTRA:          -4.979
REMARK INTER:                  -4.683
REMARK INTRA:                  -0.296
REMARK UNBOUND:                -0.282
REMARK SMILES O=C(O)c1ccc2nc(-c3cc(Cl)cc(Cl)c3)oc2c1
REMARK SMILES IDX 5 1 6 2 20 3 8 4 18 5 4 6 9 7 7 8 19 9 2 10 1 11 3 12 10 14
REMARK SMILES IDX 11 15 17 16 12 17 15 18 14 19 13 20 16 21
REMARK H PARENT 3 13
ROOT
ATOM      1  C   UNL     1     -10.318  -3.351  -9.937  1.00  0.00     0.018 A 
ATOM      2  C   UNL     1      -9.565  -2.356  -9.388  1.00  0.00     0.033 A 
ATOM      3  C   UNL     1      -9.292  -4.976  -8.458  1.00  0.00     0.065 A 
ATOM      4  N   UNL     1      -7.797  -1.898  -7.643  1.00  0.00    -0.209 NA
ATOM      5  O   UNL     1      -7.587  -3.942  -6.927  1.00  0.00    -0.436 OA
ATOM      6  C   UNL     1     -10.194  -4.670  -9.479  1.00  0.00     0.063 A 
ATOM      7  C   UNL     1      -7.166  -2.670  -6.793  1.00  0.00     0.227 A 
ATOM      8  C   UNL     1      -8.657  -2.649  -8.363  1.00  0.00     0.110 A 
ATOM      9  C   UNL     1      -8.523  -3.971  -7.902  1.00  0.00     0.156 A 
ENDROOT
BRANCH   6  10
ATOM     10  C   UNL     1     -11.018  -5.736 -10.076  1.00  0.00     0.335 C 
ATOM     11  O   UNL     1     -10.886  -6.885  -9.705  1.00  0.00    -0.246 OA
BRANCH  10  12
ATOM     12  O   UNL     1     -11.917  -5.437 -11.035  1.00  0.00    -0.478 OA
ATOM     13  H   UNL     1     -12.834  -5.315 -10.754  1.00  0.00     0.297 HD
ENDBRANCH  10  12
ENDBRANCH   6  10
BRANCH   7  14
ATOM     14  C   UNL     1      -6.143  -2.212  -5.830  1.00  0.00     0.040 A 
ATOM     15  C   UNL     1      -6.161  -0.898  -5.360  1.00  0.00     0.034 A 
ATOM     16  C   UNL     1      -5.154  -3.093  -5.388  1.00  0.00     0.034 A 
ATOM     17  C   UNL     1      -5.203  -0.477  -4.460  1.00  0.00     0.043 A 
ATOM     18  C   UNL     1      -4.201  -2.659  -4.488  1.00  0.00     0.043 A 
ATOM     19  C   UNL     1      -4.224  -1.355  -4.025  1.00  0.00     0.041 A 
ATOM     20  Cl  UNL     1      -5.223   1.157  -3.873  1.00  0.00    -0.084 Cl
ATOM     21  Cl  UNL     1      -2.970  -3.753  -3.936  1.00  0.00    -0.084 Cl
ENDBRANCH   7  14
TORSDOF 3
ENDMDL
MODEL 5
REMARK VINA RESULT:    -4.084      3.549      5.601
REMARK INTER + INTRA:          -4.964
REMARK INTER:                  -4.668
REMARK INTRA:                  -0.296
REMARK UNBOUND:                -0.282
REMARK SMILES O=C(O)c1ccc2nc(-c3cc(Cl)cc(Cl)c3)oc2c1
REMARK SMILES IDX 5 1 6 2 20 3 8 4 18 5 4 6 9 7 7 8 19 9 2 10 1 11 3 12 10 14
REMARK SMILES IDX 11 15 17 16 12 17 15 18 14 19 13 20 16 21
REMARK H PARENT 3 13
ROOT
ATOM      1  C   UNL     1     -10.376  -3.474  -9.843  1.00  0.00     0.018 A 
ATOM      2  C   UNL     1      -9.512  -4.007  -8.934  1.00  0.00     0.033 A 
ATOM      3  C   UNL     1      -9.407  -1.276  -9.513  1.00  0.00     0.065 A 
ATOM      4  N   UNL     1      -7.616  -3.417  -7.371  1.00  0.00    -0.209 NA
ATOM      5  O   UNL     1      -7.544  -1.290  -7.824  1.00  0.00    -0.436 OA
ATOM      6  C   UNL     1     -10.334  -2.106 -10.145  1.00  0.00     0.063 A 
ATOM      7  C   UNL     1      -7.008  -2.289  -7.098  1.00  0.00     0.227 A 
ATOM      8  C   UNL     1      -8.576  -3.186  -8.292  1.00  0.00     0.110 A 
ATOM      9  C   UNL     1      -8.531  -1.812  -8.587  1.00  0.00     0.156 A 
ENDROOT
BRANCH   6  10
ATOM     10  C   UNL     1     -11.270  -1.543 -11.135  1.00  0.00     0.335 C 
ATOM     11  O   UNL     1     -11.244  -0.355 -11.388  1.00  0.00    -0.246 OA
BRANCH  10  12
ATOM     12  O   UNL     1     -12.156  -2.345 -11.758  1.00  0.00    -0.478 OA
ATOM     13  H   UNL     1     -12.125  -2.368 -12.723  1.00  0.00     0.297 HD
ENDBRANCH  10  12
ENDBRANCH   6  10
BRANCH   7  14
ATOM     14  C   UNL     1      -5.898  -2.137  -6.135  1.00  0.00     0.040 A 
ATOM     15  C   UNL     1      -5.053  -3.214  -5.863  1.00  0.00     0.034 A 
ATOM     16  C   UNL     1      -5.690  -0.914  -5.494  1.00  0.00     0.034 A 
ATOM     17  C   UNL     1      -4.017  -3.065  -4.963  1.00  0.00     0.043 A 
ATOM     18  C   UNL     1      -4.650  -0.778  -4.596  1.00  0.00     0.043 A 
ATOM     19  C   UNL     1      -3.816  -1.850  -4.329  1.00  0.00     0.041 A 
ATOM     20  Cl  UNL     1      -2.965  -4.403  -4.622  1.00  0.00    -0.084 Cl
ATOM     21  Cl  UNL     1      -4.390   0.742  -3.796  1.00  0.00    -0.084 Cl
ENDBRANCH   7  14
TORSDOF 3
ENDMDL
MODEL 6
REMARK VINA RESULT:    -4.078      3.542      5.345
REMARK INTER + INTRA:          -4.956
REMARK INTER:                  -4.660
REMARK INTRA:                  -0.296
REMARK UNBOUND:                -0.282
REMARK SMILES O=C(O)c1ccc2nc(-c3cc(Cl)cc(Cl)c3)oc2c1
REMARK SMILES IDX 5 1 6 2 20 3 8 4 18 5 4 6 9 7 7 8 19 9 2 10 1 11 3 12 10 14
REMARK SMILES IDX 11 15 17 16 12 17 15 18 14 19 13 20 16 21
REMARK H PARENT 3 13
ROOT
ATOM      1  C   UNL     1     -10.369  -3.465  -9.842  1.00  0.00     0.018 A 
ATOM      2  C   UNL     1      -9.509  -3.998  -8.929  1.00  0.00     0.033 A 
ATOM      3  C   UNL     1      -9.386  -1.271  -9.520  1.00  0.00     0.065 A 
ATOM      4  N   UNL     1      -7.612  -3.414  -7.367  1.00  0.00    -0.209 NA
ATOM      5  O   UNL     1      -7.526  -1.289  -7.829  1.00  0.00    -0.436 OA
ATOM      6  C   UNL     1     -10.318  -2.098 -10.150  1.00  0.00     0.063 A 
ATOM      7  C   UNL     1      -6.997  -2.289  -7.098  1.00  0.00     0.227 A 
ATOM      8  C   UNL     1      -8.569  -3.180  -8.290  1.00  0.00     0.110 A 
ATOM      9  C   UNL     1      -8.515  -1.808  -8.590  1.00  0.00     0.156 A 
ENDROOT
BRANCH   6  10
ATOM     10  C   UNL     1     -11.249  -1.533 -11.144  1.00  0.00     0.335 C 
ATOM     11  O   UNL     1     -11.217  -0.346 -11.399  1.00  0.00    -0.246 OA
BRANCH  10  12
ATOM     12  O   UNL     1     -12.137  -2.333 -11.767  1.00  0.00    -0.478 OA
ATOM     13  H   UNL     1     -12.930  -1.913 -12.125  1.00  0.00     0.297 HD
ENDBRANCH  10  12
ENDBRANCH   6  10
BRANCH   7  14
ATOM     14  C   UNL     1      -5.888  -2.139  -6.134  1.00  0.00     0.040 A 
ATOM     15  C   UNL     1      -5.675  -0.918  -5.493  1.00  0.00     0.034 A 
ATOM     16  C   UNL     1      -5.046  -3.220  -5.861  1.00  0.00     0.034 A 
ATOM     17  C   UNL     1      -4.637  -0.785  -4.592  1.00  0.00     0.043 A 
ATOM     18  C   UNL     1      -4.012  -3.075  -4.959  1.00  0.00     0.043 A 
ATOM     19  C   UNL     1      -3.806  -1.861  -4.326  1.00  0.00     0.041 A 
ATOM     20  Cl  UNL     1      -4.371   0.732  -3.793  1.00  0.00    -0.084 Cl
ATOM     21  Cl  UNL     1      -2.965  -4.418  -4.618  1.00  0.00    -0.084 Cl
ENDBRANCH   7  14
TORSDOF 3
ENDMDL
MODEL 7
REMARK VINA RESULT:    -3.999      5.188      8.962
REMARK INTER + INTRA:          -4.865
REMARK INTER:                  -4.568
REMARK INTRA:                  -0.298
REMARK UNBOUND:                -0.282
REMARK SMILES O=C(O)c1ccc2nc(-c3cc(Cl)cc(Cl)c3)oc2c1
REMARK SMILES IDX 5 1 6 2 20 3 8 4 18 5 4 6 9 7 7 8 19 9 2 10 1 11 3 12 10 14
REMARK SMILES IDX 11 15 17 16 12 17 15 18 14 19 13 20 16 21
REMARK H PARENT 3 13
ROOT
ATOM      1  C   UNL     1      -4.405  -0.692  -4.469  1.00  0.00     0.018 A 
ATOM      2  C   UNL     1      -5.354  -0.309  -5.369  1.00  0.00     0.033 A 
ATOM      3  C   UNL     1      -4.928  -3.025  -4.873  1.00  0.00     0.065 A 
ATOM      4  N   UNL     1      -7.097  -1.207  -6.962  1.00  0.00    -0.209 NA
ATOM      5  O   UNL     1      -6.763  -3.320  -6.566  1.00  0.00    -0.436 OA
ATOM      6  C   UNL     1      -4.178  -2.051  -4.210  1.00  0.00     0.063 A 
ATOM      7  C   UNL     1      -7.478  -2.422  -7.269  1.00  0.00     0.227 A 
ATOM      8  C   UNL     1      -6.112  -1.276  -6.040  1.00  0.00     0.110 A 
ATOM      9  C   UNL     1      -5.895  -2.641  -5.783  1.00  0.00     0.156 A 
ENDROOT
BRANCH   6  10
ATOM     10  C   UNL     1      -3.145  -2.453  -3.239  1.00  0.00     0.335 C 
ATOM     11  O   UNL     1      -2.852  -3.625  -3.114  1.00  0.00    -0.246 OA
BRANCH  10  12
ATOM     12  O   UNL     1      -2.527  -1.520  -2.488  1.00  0.00    -0.478 OA
ATOM     13  H   UNL     1      -1.919  -0.922  -2.943  1.00  0.00     0.297 HD
ENDBRANCH  10  12
ENDBRANCH   6  10
BRANCH   7  14
ATOM     14  C   UNL     1      -8.536  -2.756  -8.245  1.00  0.00     0.040 A 
ATOM     15  C   UNL     1      -9.020  -4.062  -8.334  1.00  0.00     0.034 A 
ATOM     16  C   UNL     1      -9.056  -1.766  -9.081  1.00  0.00     0.034 A 
ATOM     17  C   UNL     1     -10.010  -4.368  -9.247  1.00  0.00     0.043 A 
ATOM     18  C   UNL     1     -10.046  -2.085  -9.989  1.00  0.00     0.043 A 
ATOM     19  C   UNL     1     -10.521  -3.382 -10.073  1.00  0.00     0.041 A 
ATOM     20  Cl  UNL     1     -10.614  -5.992  -9.359  1.00  0.00    -0.084 Cl
ATOM     21  Cl  UNL     1     -10.694  -0.855 -11.030  1.00  0.00    -0.084 Cl
ENDBRANCH   7  14
TORSDOF 3
ENDMDL
MODEL 8
REMARK VINA RESULT:    -3.989      5.181      8.805
REMARK INTER + INTRA:          -4.855
REMARK INTER:                  -4.557
REMARK INTRA:                  -0.298
REMARK UNBOUND:                -0.282
REMARK SMILES O=C(O)c1ccc2nc(-c3cc(Cl)cc(Cl)c3)oc2c1
REMARK SMILES IDX 5 1 6 2 20 3 8 4 18 5 4 6 9 7 7 8 19 9 2 10 1 11 3 12 10 14
REMARK SMILES IDX 11 15 17 16 12 17 15 18 14 19 13 20 16 21
REMARK H PARENT 3 13
ROOT
ATOM      1  C   UNL     1      -4.409  -0.694  -4.462  1.00  0.00     0.018 A 
ATOM      2  C   UNL     1      -5.359  -0.308  -5.359  1.00  0.00     0.033 A 
ATOM      3  C   UNL     1      -4.925  -3.026  -4.884  1.00  0.00     0.065 A 
ATOM      4  N   UNL     1      -7.100  -1.198  -6.959  1.00  0.00    -0.209 NA
ATOM      5  O   UNL     1      -6.759  -3.313  -6.579  1.00  0.00    -0.436 OA
ATOM      6  C   UNL     1      -4.178  -2.054  -4.214  1.00  0.00     0.063 A 
ATOM      7  C   UNL     1      -7.477  -2.412  -7.276  1.00  0.00     0.227 A 
ATOM      8  C   UNL     1      -6.115  -1.271  -6.038  1.00  0.00     0.110 A 
ATOM      9  C   UNL     1      -5.893  -2.638  -5.791  1.00  0.00     0.156 A 
ENDROOT
BRANCH   6  10
ATOM     10  C   UNL     1      -3.144  -2.460  -3.246  1.00  0.00     0.335 C 
ATOM     11  O   UNL     1      -2.849  -3.633  -3.128  1.00  0.00    -0.246 OA
BRANCH  10  12
ATOM     12  O   UNL     1      -2.526  -1.531  -2.490  1.00  0.00    -0.478 OA
ATOM     13  H   UNL     1      -2.121  -0.786  -2.954  1.00  0.00     0.297 HD
ENDBRANCH  10  12
ENDBRANCH   6  10
BRANCH   7  14
ATOM     14  C   UNL     1      -8.534  -2.743  -8.253  1.00  0.00     0.040 A 
ATOM     15  C   UNL     1      -9.056  -1.750  -9.084  1.00  0.00     0.034 A 
ATOM     16  C   UNL     1      -9.016  -4.050  -8.349  1.00  0.00     0.034 A 
ATOM     17  C   UNL     1     -10.044  -2.066  -9.996  1.00  0.00     0.043 A 
ATOM     18  C   UNL     1     -10.003  -4.353  -9.265  1.00  0.00     0.043 A 
ATOM     19  C   UNL     1     -10.517  -3.364 -10.086  1.00  0.00     0.041 A 
ATOM     20  Cl  UNL     1     -10.694  -0.833 -11.031  1.00  0.00    -0.084 Cl
ATOM     21  Cl  UNL     1     -10.604  -5.978  -9.385  1.00  0.00    -0.084 Cl
ENDBRANCH   7  14
TORSDOF 3
ENDMDL
MODEL 9
REMARK VINA RESULT:    -3.903      5.132      7.784
REMARK INTER + INTRA:          -4.756
REMARK INTER:                  -4.470
REMARK INTRA:                  -0.286
REMARK UNBOUND:                -0.282
REMARK SMILES O=C(O)c1ccc2nc(-c3cc(Cl)cc(Cl)c3)oc2c1
REMARK SMILES IDX 5 1 6 2 20 3 8 4 18 5 4 6 9 7 7 8 19 9 2 10 1 11 3 12 10 14
REMARK SMILES IDX 11 15 17 16 12 17 15 18 14 19 13 20 16 21
REMARK H PARENT 3 13
ROOT
ATOM      1  C   UNL     1     -13.029  -8.757  -8.457  1.00  0.00     0.018 A 
ATOM      2  C   UNL     1     -12.379  -7.856  -7.669  1.00  0.00     0.033 A 
ATOM      3  C   UNL     1     -12.109  -7.719 -10.446  1.00  0.00     0.065 A 
ATOM      4  N   UNL     1     -10.833  -5.859  -7.746  1.00  0.00    -0.209 NA
ATOM      5  O   UNL     1     -10.632  -5.756  -9.910  1.00  0.00    -0.436 OA
ATOM      6  C   UNL     1     -12.902  -8.703  -9.852  1.00  0.00     0.063 A 
ATOM      7  C   UNL     1     -10.274  -5.206  -8.734  1.00  0.00     0.227 A 
ATOM      8  C   UNL     1     -11.580  -6.864  -8.251  1.00  0.00     0.110 A 
ATOM      9  C   UNL     1     -11.451  -6.799  -9.650  1.00  0.00     0.156 A 
ENDROOT
BRANCH   6  10
ATOM     10  C   UNL     1     -13.606  -9.687 -10.694  1.00  0.00     0.335 C 
ATOM     11  O   UNL     1     -14.160  -9.328 -11.714  1.00  0.00    -0.246 OA
BRANCH  10  12
ATOM     12  O   UNL     1     -13.635 -10.985 -10.333  1.00  0.00    -0.478 OA
ATOM     13  H   UNL     1     -14.501 -11.413 -10.304  1.00  0.00     0.297 HD
ENDBRANCH  10  12
ENDBRANCH   6  10
BRANCH   7  14
ATOM     14  C   UNL     1      -9.382  -4.039  -8.581  1.00  0.00     0.040 A 
ATOM     15  C   UNL     1      -9.658  -2.851  -9.259  1.00  0.00     0.034 A 
ATOM     16  C   UNL     1      -8.258  -4.120  -7.756  1.00  0.00     0.034 A 
ATOM     17  C   UNL     1      -8.821  -1.763  -9.110  1.00  0.00     0.043 A 
ATOM     18  C   UNL     1      -7.428  -3.025  -7.616  1.00  0.00     0.043 A 
ATOM     19  C   UNL     1      -7.708  -1.850  -8.291  1.00  0.00     0.041 A 
ATOM     20  Cl  UNL     1      -9.163  -0.284  -9.953  1.00  0.00    -0.084 Cl
ATOM     21  Cl  UNL     1      -6.030  -3.124  -6.591  1.00  0.00    -0.084 Cl
ENDBRANCH   7  14
TORSDOF 3
ENDMDL
