MODEL 1
REMARK VINA RESULT:    -5.536      0.000      0.000
REMARK INTER + INTRA:          -8.283
REMARK INTER:                  -7.639
REMARK INTRA:                  -0.644
REMARK UNBOUND:                -0.644
REMARK SMILES Cc1n[nH]c(C)c1CCCOc1cc(C(=O)O)ccc1F
REMARK SMILES IDX 11 1 12 2 14 3 18 4 13 5 19 6 20 7 21 8 15 9 16 10 17 11
REMARK SMILES IDX 10 13 9 14 8 15 7 16 5 17 2 18 4 19 3 20 6 21 1 22
REMARK H PARENT 17 12 4 23
ROOT
ATOM      1  O   UNL     1      -7.040  -1.134  -6.108  1.00  0.00    -0.490 OA
ENDROOT
BRANCH   1   2
ATOM      2  C   UNL     1      -5.894  -1.388  -5.422  1.00  0.00     0.155 A 
ATOM      3  C   UNL     1      -4.063  -2.851  -4.885  1.00  0.00     0.063 A 
ATOM      4  C   UNL     1      -3.548  -1.883  -4.019  1.00  0.00     0.019 A 
ATOM      5  C   UNL     1      -5.243  -2.596  -5.588  1.00  0.00     0.065 A 
ATOM      6  C   UNL     1      -4.202  -0.679  -3.865  1.00  0.00     0.044 A 
ATOM      7  C   UNL     1      -5.369  -0.426  -4.566  1.00  0.00     0.165 A 
ATOM      8  F   UNL     1      -6.005   0.756  -4.411  1.00  0.00    -0.203 F 
BRANCH   3   9
ATOM      9  C   UNL     1      -3.365  -4.141  -5.053  1.00  0.00     0.335 C 
ATOM     10  O   UNL     1      -3.961  -5.182  -4.868  1.00  0.00    -0.246 OA
BRANCH   9  11
ATOM     11  O   UNL     1      -2.068  -4.162  -5.418  1.00  0.00    -0.478 OA
ATOM     12  H   UNL     1      -1.531  -4.895  -5.086  1.00  0.00     0.297 HD
ENDBRANCH   9  11
ENDBRANCH   3   9
ENDBRANCH   1   2
BRANCH   1  13
ATOM     13  C   UNL     1      -8.263  -1.584  -5.518  1.00  0.00     0.230 C 
BRANCH  13  14
ATOM     14  C   UNL     1      -9.235  -2.006  -6.621  1.00  0.00     0.046 C 
BRANCH  14  15
ATOM     15  C   UNL     1      -8.447  -2.525  -7.825  1.00  0.00     0.043 C 
BRANCH  15  16
ATOM     16  C   UNL     1      -9.405  -2.974  -8.898  1.00  0.00    -0.004 A 
ATOM     17  C   UNL     1      -9.859  -4.235  -9.083  1.00  0.00     0.036 A 
ATOM     18  C   UNL     1      -9.988  -2.159  -9.875  1.00  0.00     0.063 A 
ATOM     19  N   UNL     1     -10.694  -4.220 -10.144  1.00  0.00    -0.282 N 
ATOM     20  N   UNL     1     -10.755  -2.906 -10.626  1.00  0.00    -0.181 NA
ATOM     21  C   UNL     1      -9.497  -5.440  -8.254  1.00  0.00     0.066 C 
ATOM     22  C   UNL     1      -9.761  -0.678 -10.041  1.00  0.00     0.069 C 
ATOM     23  H   UNL     1     -11.167  -4.984 -10.508  1.00  0.00     0.190 HD
ENDBRANCH  15  16
ENDBRANCH  14  15
ENDBRANCH  13  14
ENDBRANCH   1  13
TORSDOF 7
ENDMDL
MODEL 2
REMARK VINA RESULT:    -5.519      1.995      3.698
REMARK INTER + INTRA:          -8.260
REMARK INTER:                  -7.613
REMARK INTRA:                  -0.647
REMARK UNBOUND:                -0.644
REMARK SMILES Cc1n[nH]c(C)c1CCCOc1cc(C(=O)O)ccc1F
REMARK SMILES IDX 11 1 12 2 14 3 18 4 13 5 19 6 20 7 21 8 15 9 16 10 17 11
REMARK SMILES IDX 10 13 9 14 8 15 7 16 5 17 2 18 4 19 3 20 6 21 1 22
REMARK H PARENT 17 12 4 23
ROOT
ATOM      1  O   UNL     1      -5.646  -3.537  -6.635  1.00  0.00    -0.490 OA
ENDROOT
BRANCH   1   2
ATOM      2  C   UNL     1      -5.067  -2.743  -5.695  1.00  0.00     0.155 A 
ATOM      3  C   UNL     1      -5.011  -0.690  -4.444  1.00  0.00     0.063 A 
ATOM      4  C   UNL     1      -3.876  -1.140  -3.764  1.00  0.00     0.019 A 
ATOM      5  C   UNL     1      -5.605  -1.501  -5.413  1.00  0.00     0.065 A 
ATOM      6  C   UNL     1      -3.350  -2.382  -4.048  1.00  0.00     0.044 A 
ATOM      7  C   UNL     1      -3.944  -3.187  -5.006  1.00  0.00     0.165 A 
ATOM      8  F   UNL     1      -3.423  -4.404  -5.279  1.00  0.00    -0.203 F 
BRANCH   3   9
ATOM      9  C   UNL     1      -5.577   0.639  -4.143  1.00  0.00     0.335 C 
ATOM     10  O   UNL     1      -5.760   1.439  -5.037  1.00  0.00    -0.246 OA
BRANCH   9  11
ATOM     11  O   UNL     1      -5.897   0.963  -2.874  1.00  0.00    -0.478 OA
ATOM     12  H   UNL     1      -5.946   0.238  -2.235  1.00  0.00     0.297 HD
ENDBRANCH   9  11
ENDBRANCH   3   9
ENDBRANCH   1   2
BRANCH   1  13
ATOM     13  C   UNL     1      -5.410  -3.199  -8.004  1.00  0.00     0.230 C 
BRANCH  13  14
ATOM     14  C   UNL     1      -6.651  -3.536  -8.832  1.00  0.00     0.046 C 
BRANCH  14  15
ATOM     15  C   UNL     1      -7.907  -3.151  -8.048  1.00  0.00     0.043 C 
BRANCH  15  16
ATOM     16  C   UNL     1      -9.123  -3.361  -8.912  1.00  0.00    -0.004 A 
ATOM     17  C   UNL     1      -9.719  -2.427  -9.689  1.00  0.00     0.036 A 
ATOM     18  C   UNL     1      -9.833  -4.558  -9.058  1.00  0.00     0.063 A 
ATOM     19  N   UNL     1     -10.772  -3.010 -10.300  1.00  0.00    -0.282 N 
ATOM     20  N   UNL     1     -10.826  -4.346  -9.884  1.00  0.00    -0.181 NA
ATOM     21  C   UNL     1      -9.284  -0.993  -9.845  1.00  0.00     0.066 C 
ATOM     22  C   UNL     1      -9.517  -5.862  -8.372  1.00  0.00     0.069 C 
ATOM     23  H   UNL     1     -11.384  -2.579 -10.917  1.00  0.00     0.190 HD
ENDBRANCH  15  16
ENDBRANCH  14  15
ENDBRANCH  13  14
ENDBRANCH   1  13
TORSDOF 7
ENDMDL
MODEL 3
REMARK VINA RESULT:    -5.513      2.121      3.267
REMARK INTER + INTRA:          -8.252
REMARK INTER:                  -7.652
REMARK INTRA:                  -0.600
REMARK UNBOUND:                -0.644
REMARK SMILES Cc1n[nH]c(C)c1CCCOc1cc(C(=O)O)ccc1F
REMARK SMILES IDX 11 1 12 2 14 3 18 4 13 5 19 6 20 7 21 8 15 9 16 10 17 11
REMARK SMILES IDX 10 13 9 14 8 15 7 16 5 17 2 18 4 19 3 20 6 21 1 22
REMARK H PARENT 17 12 4 23
ROOT
ATOM      1  O   UNL     1      -4.685  -2.679  -7.685  1.00  0.00    -0.490 OA
ENDROOT
BRANCH   1   2
ATOM      2  C   UNL     1      -4.534  -2.262  -6.400  1.00  0.00     0.155 A 
ATOM      3  C   UNL     1      -4.941  -0.644  -4.669  1.00  0.00     0.063 A 
ATOM      4  C   UNL     1      -4.223  -1.434  -3.767  1.00  0.00     0.019 A 
ATOM      5  C   UNL     1      -5.093  -1.066  -5.991  1.00  0.00     0.065 A 
ATOM      6  C   UNL     1      -3.674  -2.629  -4.182  1.00  0.00     0.044 A 
ATOM      7  C   UNL     1      -3.831  -3.048  -5.493  1.00  0.00     0.165 A 
ATOM      8  F   UNL     1      -3.291  -4.220  -5.894  1.00  0.00    -0.203 F 
BRANCH   3   9
ATOM      9  C   UNL     1      -5.530   0.635  -4.227  1.00  0.00     0.335 C 
ATOM     10  O   UNL     1      -5.751   1.514  -5.035  1.00  0.00    -0.246 OA
BRANCH   9  11
ATOM     11  O   UNL     1      -5.829   0.825  -2.926  1.00  0.00    -0.478 OA
ATOM     12  H   UNL     1      -6.683   1.234  -2.727  1.00  0.00     0.297 HD
ENDBRANCH   9  11
ENDBRANCH   3   9
ENDBRANCH   1   2
BRANCH   1  13
ATOM     13  C   UNL     1      -5.689  -3.666  -7.934  1.00  0.00     0.230 C 
BRANCH  13  14
ATOM     14  C   UNL     1      -6.838  -3.036  -8.722  1.00  0.00     0.046 C 
BRANCH  14  15
ATOM     15  C   UNL     1      -8.134  -3.155  -7.917  1.00  0.00     0.043 C 
BRANCH  15  16
ATOM     16  C   UNL     1      -9.259  -3.567  -8.832  1.00  0.00    -0.004 A 
ATOM     17  C   UNL     1      -9.791  -4.807  -8.932  1.00  0.00     0.036 A 
ATOM     18  C   UNL     1      -9.942  -2.733  -9.723  1.00  0.00     0.063 A 
ATOM     19  N   UNL     1     -10.771  -4.761  -9.858  1.00  0.00    -0.282 N 
ATOM     20  N   UNL     1     -10.843  -3.449 -10.344  1.00  0.00    -0.181 NA
ATOM     21  C   UNL     1      -9.365  -6.021  -8.148  1.00  0.00     0.066 C 
ATOM     22  C   UNL     1      -9.676  -1.265  -9.940  1.00  0.00     0.069 C 
ATOM     23  H   UNL     1     -11.326  -5.505 -10.139  1.00  0.00     0.190 HD
ENDBRANCH  15  16
ENDBRANCH  14  15
ENDBRANCH  13  14
ENDBRANCH   1  13
TORSDOF 7
ENDMDL
MODEL 4
REMARK VINA RESULT:    -5.501      0.629      1.871
REMARK INTER + INTRA:          -8.235
REMARK INTER:                  -7.711
REMARK INTRA:                  -0.523
REMARK UNBOUND:                -0.644
REMARK SMILES Cc1n[nH]c(C)c1CCCOc1cc(C(=O)O)ccc1F
REMARK SMILES IDX 11 1 12 2 14 3 18 4 13 5 19 6 20 7 21 8 15 9 16 10 17 11
REMARK SMILES IDX 10 13 9 14 8 15 7 16 5 17 2 18 4 19 3 20 6 21 1 22
REMARK H PARENT 17 12 4 23
ROOT
ATOM      1  O   UNL     1      -7.755  -1.961  -4.620  1.00  0.00    -0.490 OA
ENDROOT
BRANCH   1   2
ATOM      2  C   UNL     1      -6.399  -1.894  -4.557  1.00  0.00     0.155 A 
ATOM      3  C   UNL     1      -4.245  -2.944  -4.754  1.00  0.00     0.063 A 
ATOM      4  C   UNL     1      -3.629  -1.731  -4.435  1.00  0.00     0.019 A 
ATOM      5  C   UNL     1      -5.638  -3.019  -4.814  1.00  0.00     0.065 A 
ATOM      6  C   UNL     1      -4.396  -0.612  -4.186  1.00  0.00     0.044 A 
ATOM      7  C   UNL     1      -5.777  -0.688  -4.251  1.00  0.00     0.165 A 
ATOM      8  F   UNL     1      -6.523   0.412  -4.007  1.00  0.00    -0.203 F 
BRANCH   3   9
ATOM      9  C   UNL     1      -3.426  -4.143  -5.020  1.00  0.00     0.335 C 
ATOM     10  O   UNL     1      -3.901  -5.249  -4.865  1.00  0.00    -0.246 OA
BRANCH   9  11
ATOM     11  O   UNL     1      -2.154  -4.009  -5.442  1.00  0.00    -0.478 OA
ATOM     12  H   UNL     1      -1.765  -4.761  -5.911  1.00  0.00     0.297 HD
ENDBRANCH   9  11
ENDBRANCH   3   9
ENDBRANCH   1   2
BRANCH   1  13
ATOM     13  C   UNL     1      -8.397  -1.196  -5.643  1.00  0.00     0.230 C 
BRANCH  13  14
ATOM     14  C   UNL     1      -9.217  -2.127  -6.537  1.00  0.00     0.046 C 
BRANCH  14  15
ATOM     15  C   UNL     1      -8.437  -2.419  -7.821  1.00  0.00     0.043 C 
BRANCH  15  16
ATOM     16  C   UNL     1      -9.403  -2.698  -8.944  1.00  0.00    -0.004 A 
ATOM     17  C   UNL     1      -9.877  -1.792  -9.830  1.00  0.00     0.036 A 
ATOM     18  C   UNL     1      -9.963  -3.941  -9.258  1.00  0.00     0.063 A 
ATOM     19  N   UNL     1     -10.713  -2.437 -10.671  1.00  0.00    -0.282 N 
ATOM     20  N   UNL     1     -10.753  -3.785 -10.289  1.00  0.00    -0.181 NA
ATOM     21  C   UNL     1      -9.534  -0.326  -9.871  1.00  0.00     0.066 C 
ATOM     22  C   UNL     1      -9.709  -5.235  -8.527  1.00  0.00     0.069 C 
ATOM     23  H   UNL     1     -11.199  -2.039 -11.409  1.00  0.00     0.190 HD
ENDBRANCH  15  16
ENDBRANCH  14  15
ENDBRANCH  13  14
ENDBRANCH   1  13
TORSDOF 7
ENDMDL
MODEL 5
REMARK VINA RESULT:    -4.559      3.726      6.615
REMARK INTER + INTRA:          -6.935
REMARK INTER:                  -6.076
REMARK INTRA:                  -0.859
REMARK UNBOUND:                -0.644
REMARK SMILES Cc1n[nH]c(C)c1CCCOc1cc(C(=O)O)ccc1F
REMARK SMILES IDX 11 1 12 2 14 3 18 4 13 5 19 6 20 7 21 8 15 9 16 10 17 11
REMARK SMILES IDX 10 13 9 14 8 15 7 16 5 17 2 18 4 19 3 20 6 21 1 22
REMARK H PARENT 17 12 4 23
ROOT
ATOM      1  O   UNL     1      -7.512  -1.433  -7.259  1.00  0.00    -0.490 OA
ENDROOT
BRANCH   1   2
ATOM      2  C   UNL     1      -8.359  -2.164  -8.031  1.00  0.00     0.155 A 
ATOM      3  C   UNL     1      -9.446  -4.246  -8.543  1.00  0.00     0.063 A 
ATOM      4  C   UNL     1     -10.102  -3.636  -9.616  1.00  0.00     0.019 A 
ATOM      5  C   UNL     1      -8.571  -3.500  -7.751  1.00  0.00     0.065 A 
ATOM      6  C   UNL     1      -9.889  -2.301  -9.884  1.00  0.00     0.044 A 
ATOM      7  C   UNL     1      -9.024  -1.561  -9.093  1.00  0.00     0.165 A 
ATOM      8  F   UNL     1      -8.820  -0.253  -9.362  1.00  0.00    -0.203 F 
BRANCH   3   9
ATOM      9  C   UNL     1      -9.672  -5.676  -8.253  1.00  0.00     0.335 C 
ATOM     10  O   UNL     1      -8.941  -6.517  -8.734  1.00  0.00    -0.246 OA
BRANCH   9  11
ATOM     11  O   UNL     1     -10.687  -6.047  -7.448  1.00  0.00    -0.478 OA
ATOM     12  H   UNL     1     -10.762  -5.592  -6.597  1.00  0.00     0.297 HD
ENDBRANCH   9  11
ENDBRANCH   3   9
ENDBRANCH   1   2
BRANCH   1  13
ATOM     13  C   UNL     1      -7.503  -1.718  -5.858  1.00  0.00     0.230 C 
BRANCH  13  14
ATOM     14  C   UNL     1      -6.375  -0.932  -5.186  1.00  0.00     0.046 C 
BRANCH  14  15
ATOM     15  C   UNL     1      -5.132  -0.961  -6.077  1.00  0.00     0.043 C 
BRANCH  15  16
ATOM     16  C   UNL     1      -4.324  -2.196  -5.774  1.00  0.00    -0.004 A 
ATOM     17  C   UNL     1      -4.148  -3.254  -6.599  1.00  0.00     0.036 A 
ATOM     18  C   UNL     1      -3.618  -2.449  -4.593  1.00  0.00     0.063 A 
ATOM     19  N   UNL     1      -3.364  -4.148  -5.960  1.00  0.00    -0.282 N 
ATOM     20  N   UNL     1      -3.048  -3.621  -4.701  1.00  0.00    -0.181 NA
ATOM     21  C   UNL     1      -4.723  -3.407  -7.983  1.00  0.00     0.066 C 
ATOM     22  C   UNL     1      -3.538  -1.534  -3.398  1.00  0.00     0.069 C 
ATOM     23  H   UNL     1      -3.072  -5.004  -6.310  1.00  0.00     0.190 HD
ENDBRANCH  15  16
ENDBRANCH  14  15
ENDBRANCH  13  14
ENDBRANCH   1  13
TORSDOF 7
ENDMDL
MODEL 6
REMARK VINA RESULT:    -4.546      3.765      7.109
REMARK INTER + INTRA:          -6.918
REMARK INTER:                  -6.135
REMARK INTRA:                  -0.783
REMARK UNBOUND:                -0.644
REMARK SMILES Cc1n[nH]c(C)c1CCCOc1cc(C(=O)O)ccc1F
REMARK SMILES IDX 11 1 12 2 14 3 18 4 13 5 19 6 20 7 21 8 15 9 16 10 17 11
REMARK SMILES IDX 10 13 9 14 8 15 7 16 5 17 2 18 4 19 3 20 6 21 1 22
REMARK H PARENT 17 12 4 23
ROOT
ATOM      1  O   UNL     1      -7.099  -3.564  -6.918  1.00  0.00    -0.490 OA
ENDROOT
BRANCH   1   2
ATOM      2  C   UNL     1      -8.077  -3.386  -7.845  1.00  0.00     0.155 A 
ATOM      3  C   UNL     1      -9.246  -1.977  -9.404  1.00  0.00     0.063 A 
ATOM      4  C   UNL     1     -10.075  -3.048  -9.745  1.00  0.00     0.019 A 
ATOM      5  C   UNL     1      -8.243  -2.153  -8.448  1.00  0.00     0.065 A 
ATOM      6  C   UNL     1      -9.898  -4.276  -9.143  1.00  0.00     0.044 A 
ATOM      7  C   UNL     1      -8.900  -4.450  -8.199  1.00  0.00     0.165 A 
ATOM      8  F   UNL     1      -8.731  -5.656  -7.613  1.00  0.00    -0.203 F 
BRANCH   3   9
ATOM      9  C   UNL     1      -9.433  -0.661 -10.047  1.00  0.00     0.335 C 
ATOM     10  O   UNL     1     -10.077   0.203  -9.487  1.00  0.00    -0.246 OA
BRANCH   9  11
ATOM     11  O   UNL     1      -8.882  -0.417 -11.252  1.00  0.00    -0.478 OA
ATOM     12  H   UNL     1      -9.449  -0.003 -11.918  1.00  0.00     0.297 HD
ENDBRANCH   9  11
ENDBRANCH   3   9
ENDBRANCH   1   2
BRANCH   1  13
ATOM     13  C   UNL     1      -5.808  -3.032  -7.227  1.00  0.00     0.230 C 
BRANCH  13  14
ATOM     14  C   UNL     1      -4.873  -3.242  -6.035  1.00  0.00     0.046 C 
BRANCH  14  15
ATOM     15  C   UNL     1      -5.662  -3.083  -4.733  1.00  0.00     0.043 C 
BRANCH  15  16
ATOM     16  C   UNL     1      -5.701  -1.629  -4.342  1.00  0.00    -0.004 A 
ATOM     17  C   UNL     1      -4.647  -0.886  -3.930  1.00  0.00     0.036 A 
ATOM     18  C   UNL     1      -6.831  -0.805  -4.347  1.00  0.00     0.063 A 
ATOM     19  N   UNL     1      -5.096   0.361  -3.677  1.00  0.00    -0.282 N 
ATOM     20  N   UNL     1      -6.471   0.386  -3.942  1.00  0.00    -0.181 NA
ATOM     21  C   UNL     1      -3.227  -1.366  -3.782  1.00  0.00     0.066 C 
ATOM     22  C   UNL     1      -8.226  -1.221  -4.739  1.00  0.00     0.069 C 
ATOM     23  H   UNL     1      -4.561   1.108  -3.366  1.00  0.00     0.190 HD
ENDBRANCH  15  16
ENDBRANCH  14  15
ENDBRANCH  13  14
ENDBRANCH   1  13
TORSDOF 7
ENDMDL
MODEL 7
REMARK VINA RESULT:    -4.487      3.724      6.578
REMARK INTER + INTRA:          -6.835
REMARK INTER:                  -5.989
REMARK INTRA:                  -0.847
REMARK UNBOUND:                -0.644
REMARK SMILES Cc1n[nH]c(C)c1CCCOc1cc(C(=O)O)ccc1F
REMARK SMILES IDX 11 1 12 2 14 3 18 4 13 5 19 6 20 7 21 8 15 9 16 10 17 11
REMARK SMILES IDX 10 13 9 14 8 15 7 16 5 17 2 18 4 19 3 20 6 21 1 22
REMARK H PARENT 17 12 4 23
ROOT
ATOM      1  O   UNL     1      -7.657  -1.392  -7.232  1.00  0.00    -0.490 OA
ENDROOT
BRANCH   1   2
ATOM      2  C   UNL     1      -8.457  -2.147  -8.031  1.00  0.00     0.155 A 
ATOM      3  C   UNL     1      -9.449  -4.265  -8.589  1.00  0.00     0.063 A 
ATOM      4  C   UNL     1     -10.104  -3.669  -9.670  1.00  0.00     0.019 A 
ATOM      5  C   UNL     1      -8.622  -3.494  -7.769  1.00  0.00     0.065 A 
ATOM      6  C   UNL     1      -9.938  -2.323  -9.920  1.00  0.00     0.044 A 
ATOM      7  C   UNL     1      -9.122  -1.560  -9.102  1.00  0.00     0.165 A 
ATOM      8  F   UNL     1      -8.963  -0.241  -9.352  1.00  0.00    -0.203 F 
BRANCH   3   9
ATOM      9  C   UNL     1      -9.625  -5.706  -8.319  1.00  0.00     0.335 C 
ATOM     10  O   UNL     1     -10.474  -6.077  -7.535  1.00  0.00    -0.246 OA
BRANCH   9  11
ATOM     11  O   UNL     1      -8.847  -6.608  -8.947  1.00  0.00    -0.478 OA
ATOM     12  H   UNL     1      -8.102  -6.971  -8.447  1.00  0.00     0.297 HD
ENDBRANCH   9  11
ENDBRANCH   3   9
ENDBRANCH   1   2
BRANCH   1  13
ATOM     13  C   UNL     1      -7.529  -1.803  -5.868  1.00  0.00     0.230 C 
BRANCH  13  14
ATOM     14  C   UNL     1      -6.429  -0.984  -5.191  1.00  0.00     0.046 C 
BRANCH  14  15
ATOM     15  C   UNL     1      -5.190  -0.954  -6.088  1.00  0.00     0.043 C 
BRANCH  15  16
ATOM     16  C   UNL     1      -4.344  -2.171  -5.819  1.00  0.00    -0.004 A 
ATOM     17  C   UNL     1      -3.641  -2.419  -4.689  1.00  0.00     0.036 A 
ATOM     18  C   UNL     1      -4.150  -3.248  -6.691  1.00  0.00     0.063 A 
ATOM     19  N   UNL     1      -3.020  -3.607  -4.843  1.00  0.00    -0.282 N 
ATOM     20  N   UNL     1      -3.352  -4.106  -6.110  1.00  0.00    -0.181 NA
ATOM     21  C   UNL     1      -3.567  -1.528  -3.477  1.00  0.00     0.066 C 
ATOM     22  C   UNL     1      -4.748  -3.389  -8.067  1.00  0.00     0.069 C 
ATOM     23  H   UNL     1      -2.445  -4.039  -4.193  1.00  0.00     0.190 HD
ENDBRANCH  15  16
ENDBRANCH  14  15
ENDBRANCH  13  14
ENDBRANCH   1  13
TORSDOF 7
ENDMDL
MODEL 8
REMARK VINA RESULT:    -4.399      4.470      8.169
REMARK INTER + INTRA:          -6.715
REMARK INTER:                  -6.013
REMARK INTRA:                  -0.701
REMARK UNBOUND:                -0.644
REMARK SMILES Cc1n[nH]c(C)c1CCCOc1cc(C(=O)O)ccc1F
REMARK SMILES IDX 11 1 12 2 14 3 18 4 13 5 19 6 20 7 21 8 15 9 16 10 17 11
REMARK SMILES IDX 10 13 9 14 8 15 7 16 5 17 2 18 4 19 3 20 6 21 1 22
REMARK H PARENT 17 12 4 23
ROOT
ATOM      1  O   UNL     1      -9.416  -1.431  -9.300  1.00  0.00    -0.490 OA
ENDROOT
BRANCH   1   2
ATOM      2  C   UNL     1     -10.063  -1.040 -10.430  1.00  0.00     0.155 A 
ATOM      3  C   UNL     1     -12.019  -1.059 -11.829  1.00  0.00     0.063 A 
ATOM      4  C   UNL     1     -11.372  -0.220 -12.740  1.00  0.00     0.019 A 
ATOM      5  C   UNL     1     -11.356  -1.468 -10.670  1.00  0.00     0.065 A 
ATOM      6  C   UNL     1     -10.085   0.207 -12.489  1.00  0.00     0.044 A 
ATOM      7  C   UNL     1      -9.430  -0.196 -11.336  1.00  0.00     0.165 A 
ATOM      8  F   UNL     1      -8.169   0.226 -11.096  1.00  0.00    -0.203 F 
BRANCH   3   9
ATOM      9  C   UNL     1     -13.397  -1.517 -12.094  1.00  0.00     0.335 C 
ATOM     10  O   UNL     1     -14.078  -0.948 -12.922  1.00  0.00    -0.246 OA
BRANCH   9  11
ATOM     11  O   UNL     1     -13.897  -2.573 -11.421  1.00  0.00    -0.478 OA
ATOM     12  H   UNL     1     -13.545  -3.445 -11.648  1.00  0.00     0.297 HD
ENDBRANCH   9  11
ENDBRANCH   3   9
ENDBRANCH   1   2
BRANCH   1  13
ATOM     13  C   UNL     1      -9.291  -2.838  -9.079  1.00  0.00     0.230 C 
BRANCH  13  14
ATOM     14  C   UNL     1      -8.459  -3.083  -7.820  1.00  0.00     0.046 C 
BRANCH  14  15
ATOM     15  C   UNL     1      -7.501  -1.909  -7.604  1.00  0.00     0.043 C 
BRANCH  15  16
ATOM     16  C   UNL     1      -6.542  -2.240  -6.490  1.00  0.00    -0.004 A 
ATOM     17  C   UNL     1      -5.321  -2.806  -6.632  1.00  0.00     0.036 A 
ATOM     18  C   UNL     1      -6.754  -2.010  -5.127  1.00  0.00     0.063 A 
ATOM     19  N   UNL     1      -4.782  -2.936  -5.402  1.00  0.00    -0.282 N 
ATOM     20  N   UNL     1      -5.703  -2.433  -4.473  1.00  0.00    -0.181 NA
ATOM     21  C   UNL     1      -4.679  -3.218  -7.931  1.00  0.00     0.066 C 
ATOM     22  C   UNL     1      -7.986  -1.393  -4.515  1.00  0.00     0.069 C 
ATOM     23  H   UNL     1      -3.912  -3.312  -5.196  1.00  0.00     0.190 HD
ENDBRANCH  15  16
ENDBRANCH  14  15
ENDBRANCH  13  14
ENDBRANCH   1  13
TORSDOF 7
ENDMDL
MODEL 9
REMARK VINA RESULT:    -4.379      4.906      8.095
REMARK INTER + INTRA:          -6.686
REMARK INTER:                  -6.041
REMARK INTRA:                  -0.645
REMARK UNBOUND:                -0.644
REMARK SMILES Cc1n[nH]c(C)c1CCCOc1cc(C(=O)O)ccc1F
REMARK SMILES IDX 11 1 12 2 14 3 18 4 13 5 19 6 20 7 21 8 15 9 16 10 17 11
REMARK SMILES IDX 10 13 9 14 8 15 7 16 5 17 2 18 4 19 3 20 6 21 1 22
REMARK H PARENT 17 12 4 23
ROOT
ATOM      1  O   UNL     1      -9.049  -4.967  -8.620  1.00  0.00    -0.490 OA
ENDROOT
BRANCH   1   2
ATOM      2  C   UNL     1     -10.098  -5.770  -8.944  1.00  0.00     0.155 A 
ATOM      3  C   UNL     1     -11.613  -6.665 -10.583  1.00  0.00     0.063 A 
ATOM      4  C   UNL     1     -12.236  -7.423  -9.587  1.00  0.00     0.019 A 
ATOM      5  C   UNL     1     -10.539  -5.836 -10.253  1.00  0.00     0.065 A 
ATOM      6  C   UNL     1     -11.785  -7.354  -8.286  1.00  0.00     0.044 A 
ATOM      7  C   UNL     1     -10.717  -6.535  -7.962  1.00  0.00     0.165 A 
ATOM      8  F   UNL     1     -10.280  -6.473  -6.685  1.00  0.00    -0.203 F 
BRANCH   3   9
ATOM      9  C   UNL     1     -12.093  -6.736 -11.977  1.00  0.00     0.335 C 
ATOM     10  O   UNL     1     -12.799  -7.659 -12.330  1.00  0.00    -0.246 OA
BRANCH   9  11
ATOM     11  O   UNL     1     -11.753  -5.773 -12.856  1.00  0.00    -0.478 OA
ATOM     12  H   UNL     1     -12.351  -5.017 -12.933  1.00  0.00     0.297 HD
ENDBRANCH   9  11
ENDBRANCH   3   9
ENDBRANCH   1   2
BRANCH   1  13
ATOM     13  C   UNL     1      -9.347  -3.604  -8.310  1.00  0.00     0.230 C 
BRANCH  13  14
ATOM     14  C   UNL     1      -8.044  -2.839  -8.072  1.00  0.00     0.046 C 
BRANCH  14  15
ATOM     15  C   UNL     1      -7.357  -3.380  -6.816  1.00  0.00     0.043 C 
BRANCH  15  16
ATOM     16  C   UNL     1      -6.369  -2.364  -6.306  1.00  0.00    -0.004 A 
ATOM     17  C   UNL     1      -6.599  -1.444  -5.341  1.00  0.00     0.036 A 
ATOM     18  C   UNL     1      -5.049  -2.208  -6.742  1.00  0.00     0.063 A 
ATOM     19  N   UNL     1      -5.467  -0.727  -5.176  1.00  0.00    -0.282 N 
ATOM     20  N   UNL     1      -4.510  -1.224  -6.071  1.00  0.00    -0.181 NA
ATOM     21  C   UNL     1      -7.888  -1.254  -4.585  1.00  0.00     0.066 C 
ATOM     22  C   UNL     1      -4.369  -3.026  -7.811  1.00  0.00     0.069 C 
ATOM     23  H   UNL     1      -5.340   0.002  -4.551  1.00  0.00     0.190 HD
ENDBRANCH  15  16
ENDBRANCH  14  15
ENDBRANCH  13  14
ENDBRANCH   1  13
TORSDOF 7
ENDMDL
