MODEL 1
REMARK VINA RESULT:    -5.745      0.000      0.000
REMARK INTER + INTRA:          -8.570
REMARK INTER:                  -7.928
REMARK INTRA:                  -0.642
REMARK UNBOUND:                -0.642
REMARK SMILES Cc1n[nH]c(C)c1CCCOc1cc(C(=O)O)ccc1F
REMARK SMILES IDX 11 1 12 2 14 3 18 4 13 5 19 6 20 7 21 8 15 9 16 10 17 11
REMARK SMILES IDX 10 13 9 14 8 15 7 16 5 17 2 18 4 19 3 20 6 21 1 22
REMARK H PARENT 17 12 4 23
ROOT
ATOM      1  O   UNL     1       7.060  -1.754  -6.367  1.00  0.00    -0.490 OA
ENDROOT
BRANCH   1   2
ATOM      2  C   UNL     1       6.175  -1.599  -5.347  1.00  0.00     0.155 A 
ATOM      3  C   UNL     1       5.261  -2.330  -3.246  1.00  0.00     0.063 A 
ATOM      4  C   UNL     1       4.364  -1.258  -3.268  1.00  0.00     0.019 A 
ATOM      5  C   UNL     1       6.169  -2.495  -4.294  1.00  0.00     0.065 A 
ATOM      6  C   UNL     1       4.382  -0.366  -4.319  1.00  0.00     0.044 A 
ATOM      7  C   UNL     1       5.286  -0.529  -5.355  1.00  0.00     0.165 A 
ATOM      8  F   UNL     1       5.298   0.348  -6.382  1.00  0.00    -0.203 F 
BRANCH   3   9
ATOM      9  C   UNL     1       5.245  -3.286  -2.122  1.00  0.00     0.335 C 
ATOM     10  O   UNL     1       4.196  -3.771  -1.752  1.00  0.00    -0.246 OA
BRANCH   9  11
ATOM     11  O   UNL     1       6.397  -3.627  -1.512  1.00  0.00    -0.478 OA
ATOM     12  H   UNL     1       6.941  -2.905  -1.166  1.00  0.00     0.297 HD
ENDBRANCH   9  11
ENDBRANCH   3   9
ENDBRANCH   1   2
BRANCH   1  13
ATOM     13  C   UNL     1       6.624  -2.519  -7.494  1.00  0.00     0.230 C 
BRANCH  13  14
ATOM     14  C   UNL     1       7.840  -2.962  -8.309  1.00  0.00     0.046 C 
BRANCH  14  15
ATOM     15  C   UNL     1       9.012  -3.244  -7.366  1.00  0.00     0.043 C 
BRANCH  15  16
ATOM     16  C   UNL     1      10.131  -3.896  -8.135  1.00  0.00    -0.004 A 
ATOM     17  C   UNL     1      10.382  -5.224  -8.204  1.00  0.00     0.036 A 
ATOM     18  C   UNL     1      11.091  -3.236  -8.910  1.00  0.00     0.063 A 
ATOM     19  N   UNL     1      11.467  -5.397  -8.989  1.00  0.00    -0.282 N 
ATOM     20  N   UNL     1      11.896  -4.134  -9.417  1.00  0.00    -0.181 NA
ATOM     21  C   UNL     1       9.593  -6.313  -7.526  1.00  0.00     0.066 C 
ATOM     22  C   UNL     1      11.188  -1.746  -9.116  1.00  0.00     0.069 C 
ATOM     23  H   UNL     1      11.877  -6.246  -9.216  1.00  0.00     0.190 HD
ENDBRANCH  15  16
ENDBRANCH  14  15
ENDBRANCH  13  14
ENDBRANCH   1  13
TORSDOF 7
ENDMDL
MODEL 2
REMARK VINA RESULT:    -5.742      2.153      3.665
REMARK INTER + INTRA:          -8.567
REMARK INTER:                  -7.969
REMARK INTRA:                  -0.598
REMARK UNBOUND:                -0.642
REMARK SMILES Cc1n[nH]c(C)c1CCCOc1cc(C(=O)O)ccc1F
REMARK SMILES IDX 11 1 12 2 14 3 18 4 13 5 19 6 20 7 21 8 15 9 16 10 17 11
REMARK SMILES IDX 10 13 9 14 8 15 7 16 5 17 2 18 4 19 3 20 6 21 1 22
REMARK H PARENT 17 12 4 23
ROOT
ATOM      1  O   UNL     1       8.344  -2.097  -3.728  1.00  0.00    -0.490 OA
ENDROOT
BRANCH   1   2
ATOM      2  C   UNL     1       7.006  -1.870  -3.808  1.00  0.00     0.155 A 
ATOM      3  C   UNL     1       5.139  -0.714  -4.789  1.00  0.00     0.063 A 
ATOM      4  C   UNL     1       4.268  -1.430  -3.964  1.00  0.00     0.019 A 
ATOM      5  C   UNL     1       6.515  -0.940  -4.706  1.00  0.00     0.065 A 
ATOM      6  C   UNL     1       4.766  -2.360  -3.076  1.00  0.00     0.044 A 
ATOM      7  C   UNL     1       6.131  -2.586  -2.999  1.00  0.00     0.165 A 
ATOM      8  F   UNL     1       6.613  -3.499  -2.127  1.00  0.00    -0.203 F 
BRANCH   3   9
ATOM      9  C   UNL     1       4.609   0.282  -5.740  1.00  0.00     0.335 C 
ATOM     10  O   UNL     1       5.317   1.187  -6.130  1.00  0.00    -0.246 OA
BRANCH   9  11
ATOM     11  O   UNL     1       3.339   0.181  -6.182  1.00  0.00    -0.478 OA
ATOM     12  H   UNL     1       3.202   0.223  -7.139  1.00  0.00     0.297 HD
ENDBRANCH   9  11
ENDBRANCH   3   9
ENDBRANCH   1   2
BRANCH   1  13
ATOM     13  C   UNL     1       8.828  -3.325  -4.276  1.00  0.00     0.230 C 
BRANCH  13  14
ATOM     14  C   UNL     1       9.753  -3.027  -5.457  1.00  0.00     0.046 C 
BRANCH  14  15
ATOM     15  C   UNL     1       9.026  -3.343  -6.766  1.00  0.00     0.043 C 
BRANCH  15  16
ATOM     16  C   UNL     1      10.024  -3.803  -7.797  1.00  0.00    -0.004 A 
ATOM     17  C   UNL     1      10.790  -3.004  -8.576  1.00  0.00     0.036 A 
ATOM     18  C   UNL     1      10.328  -5.131  -8.115  1.00  0.00     0.063 A 
ATOM     19  N   UNL     1      11.547  -3.798  -9.362  1.00  0.00    -0.282 N 
ATOM     20  N   UNL     1      11.235  -5.130  -9.057  1.00  0.00    -0.181 NA
ATOM     21  C   UNL     1      10.798  -1.497  -8.566  1.00  0.00     0.066 C 
ATOM     22  C   UNL     1       9.707  -6.354  -7.487  1.00  0.00     0.069 C 
ATOM     23  H   UNL     1      12.191  -3.500 -10.023  1.00  0.00     0.190 HD
ENDBRANCH  15  16
ENDBRANCH  14  15
ENDBRANCH  13  14
ENDBRANCH   1  13
TORSDOF 7
ENDMDL
MODEL 3
REMARK VINA RESULT:    -5.706      2.097      3.127
REMARK INTER + INTRA:          -8.517
REMARK INTER:                  -7.885
REMARK INTRA:                  -0.632
REMARK UNBOUND:                -0.642
REMARK SMILES Cc1n[nH]c(C)c1CCCOc1cc(C(=O)O)ccc1F
REMARK SMILES IDX 11 1 12 2 14 3 18 4 13 5 19 6 20 7 21 8 15 9 16 10 17 11
REMARK SMILES IDX 10 13 9 14 8 15 7 16 5 17 2 18 4 19 3 20 6 21 1 22
REMARK H PARENT 17 12 4 23
ROOT
ATOM      1  O   UNL     1       8.311  -2.255  -4.057  1.00  0.00    -0.490 OA
ENDROOT
BRANCH   1   2
ATOM      2  C   UNL     1       6.986  -1.953  -4.012  1.00  0.00     0.155 A 
ATOM      3  C   UNL     1       5.099  -0.713  -4.838  1.00  0.00     0.063 A 
ATOM      4  C   UNL     1       4.275  -1.357  -3.911  1.00  0.00     0.019 A 
ATOM      5  C   UNL     1       6.461  -1.018  -4.884  1.00  0.00     0.065 A 
ATOM      6  C   UNL     1       4.807  -2.293  -3.049  1.00  0.00     0.044 A 
ATOM      7  C   UNL     1       6.157  -2.597  -3.100  1.00  0.00     0.165 A 
ATOM      8  F   UNL     1       6.673  -3.515  -2.253  1.00  0.00    -0.203 F 
BRANCH   3   9
ATOM      9  C   UNL     1       4.532   0.289  -5.762  1.00  0.00     0.335 C 
ATOM     10  O   UNL     1       5.216   1.214  -6.148  1.00  0.00    -0.246 OA
BRANCH   9  11
ATOM     11  O   UNL     1       3.257   0.172  -6.183  1.00  0.00    -0.478 OA
ATOM     12  H   UNL     1       2.582   0.037  -5.504  1.00  0.00     0.297 HD
ENDBRANCH   9  11
ENDBRANCH   3   9
ENDBRANCH   1   2
BRANCH   1  13
ATOM     13  C   UNL     1       8.698  -3.353  -4.887  1.00  0.00     0.230 C 
BRANCH  13  14
ATOM     14  C   UNL     1       9.539  -2.837  -6.056  1.00  0.00     0.046 C 
BRANCH  14  15
ATOM     15  C   UNL     1       8.999  -3.413  -7.366  1.00  0.00     0.043 C 
BRANCH  15  16
ATOM     16  C   UNL     1      10.124  -4.059  -8.133  1.00  0.00    -0.004 A 
ATOM     17  C   UNL     1      10.389  -5.385  -8.193  1.00  0.00     0.036 A 
ATOM     18  C   UNL     1      11.076  -3.394  -8.914  1.00  0.00     0.063 A 
ATOM     19  N   UNL     1      11.474  -5.552  -8.979  1.00  0.00    -0.282 N 
ATOM     20  N   UNL     1      11.889  -4.287  -9.416  1.00  0.00    -0.181 NA
ATOM     21  C   UNL     1       9.613  -6.477  -7.506  1.00  0.00     0.066 C 
ATOM     22  C   UNL     1      11.157  -1.904  -9.130  1.00  0.00     0.069 C 
ATOM     23  H   UNL     1      11.893  -6.398  -9.201  1.00  0.00     0.190 HD
ENDBRANCH  15  16
ENDBRANCH  14  15
ENDBRANCH  13  14
ENDBRANCH   1  13
TORSDOF 7
ENDMDL
MODEL 4
REMARK VINA RESULT:    -5.663      0.411      1.808
REMARK INTER + INTRA:          -8.457
REMARK INTER:                  -7.808
REMARK INTRA:                  -0.648
REMARK UNBOUND:                -0.642
REMARK SMILES Cc1n[nH]c(C)c1CCCOc1cc(C(=O)O)ccc1F
REMARK SMILES IDX 11 1 12 2 14 3 18 4 13 5 19 6 20 7 21 8 15 9 16 10 17 11
REMARK SMILES IDX 10 13 9 14 8 15 7 16 5 17 2 18 4 19 3 20 6 21 1 22
REMARK H PARENT 17 12 4 23
ROOT
ATOM      1  O   UNL     1       7.117  -1.841  -6.315  1.00  0.00    -0.490 OA
ENDROOT
BRANCH   1   2
ATOM      2  C   UNL     1       6.219  -1.660  -5.310  1.00  0.00     0.155 A 
ATOM      3  C   UNL     1       5.261  -2.354  -3.217  1.00  0.00     0.063 A 
ATOM      4  C   UNL     1       4.384  -1.267  -3.262  1.00  0.00     0.019 A 
ATOM      5  C   UNL     1       6.181  -2.546  -4.250  1.00  0.00     0.065 A 
ATOM      6  C   UNL     1       4.434  -0.385  -4.321  1.00  0.00     0.044 A 
ATOM      7  C   UNL     1       5.350  -0.575  -5.341  1.00  0.00     0.165 A 
ATOM      8  F   UNL     1       5.394   0.293  -6.376  1.00  0.00    -0.203 F 
BRANCH   3   9
ATOM      9  C   UNL     1       5.210  -3.300  -2.085  1.00  0.00     0.335 C 
ATOM     10  O   UNL     1       4.147  -3.765  -1.728  1.00  0.00    -0.246 OA
BRANCH   9  11
ATOM     11  O   UNL     1       6.346  -3.652  -1.451  1.00  0.00    -0.478 OA
ATOM     12  H   UNL     1       6.827  -2.951  -0.989  1.00  0.00     0.297 HD
ENDBRANCH   9  11
ENDBRANCH   3   9
ENDBRANCH   1   2
BRANCH   1  13
ATOM     13  C   UNL     1       6.667  -2.564  -7.463  1.00  0.00     0.230 C 
BRANCH  13  14
ATOM     14  C   UNL     1       7.869  -2.929  -8.337  1.00  0.00     0.046 C 
BRANCH  14  15
ATOM     15  C   UNL     1       9.134  -2.960  -7.477  1.00  0.00     0.043 C 
BRANCH  15  16
ATOM     16  C   UNL     1      10.306  -3.390  -8.322  1.00  0.00    -0.004 A 
ATOM     17  C   UNL     1      11.129  -2.571  -9.017  1.00  0.00     0.036 A 
ATOM     18  C   UNL     1      10.740  -4.705  -8.520  1.00  0.00     0.063 A 
ATOM     19  N   UNL     1      12.046  -3.341  -9.639  1.00  0.00    -0.282 N 
ATOM     20  N   UNL     1      11.778  -4.677  -9.315  1.00  0.00    -0.181 NA
ATOM     21  C   UNL     1      11.037  -1.069  -9.085  1.00  0.00     0.066 C 
ATOM     22  C   UNL     1      10.111  -5.941  -7.930  1.00  0.00     0.069 C 
ATOM     23  H   UNL     1      12.764  -3.025 -10.210  1.00  0.00     0.190 HD
ENDBRANCH  15  16
ENDBRANCH  14  15
ENDBRANCH  13  14
ENDBRANCH   1  13
TORSDOF 7
ENDMDL
MODEL 5
REMARK VINA RESULT:    -4.743      8.987     11.291
REMARK INTER + INTRA:          -7.187
REMARK INTER:                  -5.084
REMARK INTRA:                  -2.103
REMARK UNBOUND:                -0.642
REMARK SMILES Cc1n[nH]c(C)c1CCCOc1cc(C(=O)O)ccc1F
REMARK SMILES IDX 11 1 12 2 14 3 18 4 13 5 19 6 20 7 21 8 15 9 16 10 17 11
REMARK SMILES IDX 10 13 9 14 8 15 7 16 5 17 2 18 4 19 3 20 6 21 1 22
REMARK H PARENT 17 12 4 23
ROOT
ATOM      1  O   UNL     1      13.768 -11.344 -11.290  1.00  0.00    -0.490 OA
ENDROOT
BRANCH   1   2
ATOM      2  C   UNL     1      13.741 -10.047 -11.698  1.00  0.00     0.155 A 
ATOM      3  C   UNL     1      13.775  -7.698 -11.188  1.00  0.00     0.063 A 
ATOM      4  C   UNL     1      13.694  -7.405 -12.552  1.00  0.00     0.019 A 
ATOM      5  C   UNL     1      13.798  -9.028 -10.766  1.00  0.00     0.065 A 
ATOM      6  C   UNL     1      13.644  -8.428 -13.475  1.00  0.00     0.044 A 
ATOM      7  C   UNL     1      13.671  -9.747 -13.054  1.00  0.00     0.165 A 
ATOM      8  F   UNL     1      13.621 -10.745 -13.963  1.00  0.00    -0.203 F 
BRANCH   3   9
ATOM      9  C   UNL     1      13.830  -6.605 -10.198  1.00  0.00     0.335 C 
ATOM     10  O   UNL     1      13.201  -5.583 -10.385  1.00  0.00    -0.246 OA
BRANCH   9  11
ATOM     11  O   UNL     1      14.574  -6.744  -9.083  1.00  0.00    -0.478 OA
ATOM     12  H   UNL     1      14.482  -6.059  -8.405  1.00  0.00     0.297 HD
ENDBRANCH   9  11
ENDBRANCH   3   9
ENDBRANCH   1   2
BRANCH   1  13
ATOM     13  C   UNL     1      12.665 -11.799 -10.502  1.00  0.00     0.230 C 
BRANCH  13  14
ATOM     14  C   UNL     1      11.616 -12.437 -11.414  1.00  0.00     0.046 C 
BRANCH  14  15
ATOM     15  C   UNL     1      10.230 -11.899 -11.051  1.00  0.00     0.043 C 
BRANCH  15  16
ATOM     16  C   UNL     1       9.973 -10.621 -11.807  1.00  0.00    -0.004 A 
ATOM     17  C   UNL     1       9.784 -10.511 -13.143  1.00  0.00     0.036 A 
ATOM     18  C   UNL     1       9.880  -9.340 -11.253  1.00  0.00     0.063 A 
ATOM     19  N   UNL     1       9.585  -9.206 -13.424  1.00  0.00    -0.282 N 
ATOM     20  N   UNL     1       9.655  -8.491 -12.221  1.00  0.00    -0.181 NA
ATOM     21  C   UNL     1       9.793 -11.643 -14.137  1.00  0.00     0.066 C 
ATOM     22  C   UNL     1      10.027  -8.997  -9.792  1.00  0.00     0.069 C 
ATOM     23  H   UNL     1       9.424  -8.830 -14.303  1.00  0.00     0.190 HD
ENDBRANCH  15  16
ENDBRANCH  14  15
ENDBRANCH  13  14
ENDBRANCH   1  13
TORSDOF 7
ENDMDL
MODEL 6
REMARK VINA RESULT:    -4.729      3.835      7.302
REMARK INTER + INTRA:          -7.169
REMARK INTER:                  -6.353
REMARK INTRA:                  -0.815
REMARK UNBOUND:                -0.642
REMARK SMILES Cc1n[nH]c(C)c1CCCOc1cc(C(=O)O)ccc1F
REMARK SMILES IDX 11 1 12 2 14 3 18 4 13 5 19 6 20 7 21 8 15 9 16 10 17 11
REMARK SMILES IDX 10 13 9 14 8 15 7 16 5 17 2 18 4 19 3 20 6 21 1 22
REMARK H PARENT 17 12 4 23
ROOT
ATOM      1  O   UNL     1       8.034  -3.611  -6.015  1.00  0.00    -0.490 OA
ENDROOT
BRANCH   1   2
ATOM      2  C   UNL     1       9.021  -3.625  -6.950  1.00  0.00     0.155 A 
ATOM      3  C   UNL     1      10.585  -2.455  -8.353  1.00  0.00     0.063 A 
ATOM      4  C   UNL     1      11.043  -3.676  -8.854  1.00  0.00     0.019 A 
ATOM      5  C   UNL     1       9.568  -2.436  -7.395  1.00  0.00     0.065 A 
ATOM      6  C   UNL     1      10.495  -4.857  -8.400  1.00  0.00     0.044 A 
ATOM      7  C   UNL     1       9.490  -4.836  -7.447  1.00  0.00     0.165 A 
ATOM      8  F   UNL     1       8.957  -5.997  -7.005  1.00  0.00    -0.203 F 
BRANCH   3   9
ATOM      9  C   UNL     1      11.170  -1.189  -8.837  1.00  0.00     0.335 C 
ATOM     10  O   UNL     1      10.812  -0.133  -8.359  1.00  0.00    -0.246 OA
BRANCH   9  11
ATOM     11  O   UNL     1      12.106  -1.208  -9.806  1.00  0.00    -0.478 OA
ATOM     12  H   UNL     1      13.028  -1.289  -9.524  1.00  0.00     0.297 HD
ENDBRANCH   9  11
ENDBRANCH   3   9
ENDBRANCH   1   2
BRANCH   1  13
ATOM     13  C   UNL     1       8.197  -2.713  -4.914  1.00  0.00     0.230 C 
BRANCH  13  14
ATOM     14  C   UNL     1       6.973  -2.799  -4.001  1.00  0.00     0.046 C 
BRANCH  14  15
ATOM     15  C   UNL     1       5.739  -3.151  -4.835  1.00  0.00     0.043 C 
BRANCH  15  16
ATOM     16  C   UNL     1       5.077  -1.884  -5.313  1.00  0.00    -0.004 A 
ATOM     17  C   UNL     1       4.433  -0.980  -4.538  1.00  0.00     0.036 A 
ATOM     18  C   UNL     1       5.025  -1.431  -6.635  1.00  0.00     0.063 A 
ATOM     19  N   UNL     1       3.984   0.006  -5.342  1.00  0.00    -0.282 N 
ATOM     20  N   UNL     1       4.364  -0.302  -6.655  1.00  0.00    -0.181 NA
ATOM     21  C   UNL     1       4.251  -1.061  -3.045  1.00  0.00     0.066 C 
ATOM     22  C   UNL     1       5.617  -2.130  -7.833  1.00  0.00     0.069 C 
ATOM     23  H   UNL     1       3.486   0.789  -5.061  1.00  0.00     0.190 HD
ENDBRANCH  15  16
ENDBRANCH  14  15
ENDBRANCH  13  14
ENDBRANCH   1  13
TORSDOF 7
ENDMDL
MODEL 7
REMARK VINA RESULT:    -4.540      4.288      8.067
REMARK INTER + INTRA:          -6.907
REMARK INTER:                  -6.184
REMARK INTRA:                  -0.723
REMARK UNBOUND:                -0.642
REMARK SMILES Cc1n[nH]c(C)c1CCCOc1cc(C(=O)O)ccc1F
REMARK SMILES IDX 11 1 12 2 14 3 18 4 13 5 19 6 20 7 21 8 15 9 16 10 17 11
REMARK SMILES IDX 10 13 9 14 8 15 7 16 5 17 2 18 4 19 3 20 6 21 1 22
REMARK H PARENT 17 12 4 23
ROOT
ATOM      1  O   UNL     1       9.820  -2.151  -8.456  1.00  0.00    -0.490 OA
ENDROOT
BRANCH   1   2
ATOM      2  C   UNL     1      11.008  -1.820  -9.027  1.00  0.00     0.155 A 
ATOM      3  C   UNL     1      12.824  -2.334 -10.517  1.00  0.00     0.063 A 
ATOM      4  C   UNL     1      13.432  -1.119 -10.189  1.00  0.00     0.019 A 
ATOM      5  C   UNL     1      11.606  -2.680  -9.929  1.00  0.00     0.065 A 
ATOM      6  C   UNL     1      12.826  -0.265  -9.292  1.00  0.00     0.044 A 
ATOM      7  C   UNL     1      11.615  -0.608  -8.714  1.00  0.00     0.165 A 
ATOM      8  F   UNL     1      11.025   0.233  -7.837  1.00  0.00    -0.203 F 
BRANCH   3   9
ATOM      9  C   UNL     1      13.471  -3.250 -11.477  1.00  0.00     0.335 C 
ATOM     10  O   UNL     1      14.624  -3.588 -11.311  1.00  0.00    -0.246 OA
BRANCH   9  11
ATOM     11  O   UNL     1      12.777  -3.716 -12.534  1.00  0.00    -0.478 OA
ATOM     12  H   UNL     1      13.220  -4.364 -13.099  1.00  0.00     0.297 HD
ENDBRANCH   9  11
ENDBRANCH   3   9
ENDBRANCH   1   2
BRANCH   1  13
ATOM     13  C   UNL     1       9.622  -3.527  -8.121  1.00  0.00     0.230 C 
BRANCH  13  14
ATOM     14  C   UNL     1       8.789  -3.625  -6.842  1.00  0.00     0.046 C 
BRANCH  14  15
ATOM     15  C   UNL     1       8.257  -2.239  -6.472  1.00  0.00     0.043 C 
BRANCH  15  16
ATOM     16  C   UNL     1       7.040  -2.385  -5.597  1.00  0.00    -0.004 A 
ATOM     17  C   UNL     1       7.038  -2.499  -4.248  1.00  0.00     0.036 A 
ATOM     18  C   UNL     1       5.711  -2.419  -6.033  1.00  0.00     0.063 A 
ATOM     19  N   UNL     1       5.754  -2.609  -3.846  1.00  0.00    -0.282 N 
ATOM     20  N   UNL     1       4.940  -2.561  -4.986  1.00  0.00    -0.181 NA
ATOM     21  C   UNL     1       8.251  -2.503  -3.356  1.00  0.00     0.066 C 
ATOM     22  C   UNL     1       5.248  -2.323  -7.465  1.00  0.00     0.069 C 
ATOM     23  H   UNL     1       5.449  -2.705  -2.931  1.00  0.00     0.190 HD
ENDBRANCH  15  16
ENDBRANCH  14  15
ENDBRANCH  13  14
ENDBRANCH   1  13
TORSDOF 7
ENDMDL
MODEL 8
REMARK VINA RESULT:    -4.505      4.708      8.177
REMARK INTER + INTRA:          -6.860
REMARK INTER:                  -6.170
REMARK INTRA:                  -0.690
REMARK UNBOUND:                -0.642
REMARK SMILES Cc1n[nH]c(C)c1CCCOc1cc(C(=O)O)ccc1F
REMARK SMILES IDX 11 1 12 2 14 3 18 4 13 5 19 6 20 7 21 8 15 9 16 10 17 11
REMARK SMILES IDX 10 13 9 14 8 15 7 16 5 17 2 18 4 19 3 20 6 21 1 22
REMARK H PARENT 17 12 4 23
ROOT
ATOM      1  O   UNL     1       9.783  -4.999  -7.259  1.00  0.00    -0.490 OA
ENDROOT
BRANCH   1   2
ATOM      2  C   UNL     1      10.275  -6.046  -7.972  1.00  0.00     0.155 A 
ATOM      3  C   UNL     1      12.036  -7.047  -9.268  1.00  0.00     0.063 A 
ATOM      4  C   UNL     1      11.265  -8.203  -9.417  1.00  0.00     0.019 A 
ATOM      5  C   UNL     1      11.533  -5.967  -8.540  1.00  0.00     0.065 A 
ATOM      6  C   UNL     1      10.013  -8.275  -8.842  1.00  0.00     0.044 A 
ATOM      7  C   UNL     1       9.518  -7.204  -8.117  1.00  0.00     0.165 A 
ATOM      8  F   UNL     1       8.291  -7.282  -7.555  1.00  0.00    -0.203 F 
BRANCH   3   9
ATOM      9  C   UNL     1      13.376  -6.966  -9.882  1.00  0.00     0.335 C 
ATOM     10  O   UNL     1      13.521  -7.223 -11.059  1.00  0.00    -0.246 OA
BRANCH   9  11
ATOM     11  O   UNL     1      14.437  -6.601  -9.136  1.00  0.00    -0.478 OA
ATOM     12  H   UNL     1      14.333  -5.819  -8.575  1.00  0.00     0.297 HD
ENDBRANCH   9  11
ENDBRANCH   3   9
ENDBRANCH   1   2
BRANCH   1  13
ATOM     13  C   UNL     1       9.497  -3.799  -7.982  1.00  0.00     0.230 C 
BRANCH  13  14
ATOM     14  C   UNL     1       8.860  -2.776  -7.040  1.00  0.00     0.046 C 
BRANCH  14  15
ATOM     15  C   UNL     1       7.759  -3.453  -6.221  1.00  0.00     0.043 C 
BRANCH  15  16
ATOM     16  C   UNL     1       6.944  -2.405  -5.509  1.00  0.00    -0.004 A 
ATOM     17  C   UNL     1       5.846  -1.782  -5.996  1.00  0.00     0.036 A 
ATOM     18  C   UNL     1       7.186  -1.908  -4.224  1.00  0.00     0.063 A 
ATOM     19  N   UNL     1       5.412  -0.917  -5.056  1.00  0.00    -0.282 N 
ATOM     20  N   UNL     1       6.272  -1.011  -3.954  1.00  0.00    -0.181 NA
ATOM     21  C   UNL     1       5.220  -2.014  -7.347  1.00  0.00     0.066 C 
ATOM     22  C   UNL     1       8.312  -2.324  -3.312  1.00  0.00     0.069 C 
ATOM     23  H   UNL     1       4.642  -0.333  -5.130  1.00  0.00     0.190 HD
ENDBRANCH  15  16
ENDBRANCH  14  15
ENDBRANCH  13  14
ENDBRANCH   1  13
TORSDOF 7
ENDMDL
MODEL 9
REMARK VINA RESULT:    -4.443      4.105      7.160
REMARK INTER + INTRA:          -6.773
REMARK INTER:                  -6.320
REMARK INTRA:                  -0.453
REMARK UNBOUND:                -0.642
REMARK SMILES Cc1n[nH]c(C)c1CCCOc1cc(C(=O)O)ccc1F
REMARK SMILES IDX 11 1 12 2 14 3 18 4 13 5 19 6 20 7 21 8 15 9 16 10 17 11
REMARK SMILES IDX 10 13 9 14 8 15 7 16 5 17 2 18 4 19 3 20 6 21 1 22
REMARK H PARENT 17 12 4 23
ROOT
ATOM      1  O   UNL     1       8.113  -2.281  -7.305  1.00  0.00    -0.490 OA
ENDROOT
BRANCH   1   2
ATOM      2  C   UNL     1       9.115  -3.068  -7.779  1.00  0.00     0.155 A 
ATOM      3  C   UNL     1      10.078  -5.245  -8.119  1.00  0.00     0.063 A 
ATOM      4  C   UNL     1      11.170  -4.657  -8.764  1.00  0.00     0.019 A 
ATOM      5  C   UNL     1       9.048  -4.440  -7.627  1.00  0.00     0.065 A 
ATOM      6  C   UNL     1      11.225  -3.288  -8.916  1.00  0.00     0.044 A 
ATOM      7  C   UNL     1      10.201  -2.492  -8.431  1.00  0.00     0.165 A 
ATOM      8  F   UNL     1      10.261  -1.151  -8.583  1.00  0.00    -0.203 F 
BRANCH   3   9
ATOM      9  C   UNL     1      10.015  -6.710  -7.955  1.00  0.00     0.335 C 
ATOM     10  O   UNL     1      10.898  -7.411  -8.407  1.00  0.00    -0.246 OA
BRANCH   9  11
ATOM     11  O   UNL     1       8.981  -7.271  -7.298  1.00  0.00    -0.478 OA
ATOM     12  H   UNL     1       9.123  -7.500  -6.369  1.00  0.00     0.297 HD
ENDBRANCH   9  11
ENDBRANCH   3   9
ENDBRANCH   1   2
BRANCH   1  13
ATOM     13  C   UNL     1       6.800  -2.526  -7.816  1.00  0.00     0.230 C 
BRANCH  13  14
ATOM     14  C   UNL     1       5.803  -2.576  -6.657  1.00  0.00     0.046 C 
BRANCH  14  15
ATOM     15  C   UNL     1       6.476  -2.059  -5.383  1.00  0.00     0.043 C 
BRANCH  15  16
ATOM     16  C   UNL     1       5.422  -1.636  -4.393  1.00  0.00    -0.004 A 
ATOM     17  C   UNL     1       5.153  -2.237  -3.211  1.00  0.00     0.036 A 
ATOM     18  C   UNL     1       4.551  -0.550  -4.531  1.00  0.00     0.063 A 
ATOM     19  N   UNL     1       4.144  -1.559  -2.624  1.00  0.00    -0.282 N 
ATOM     20  N   UNL     1       3.781  -0.506  -3.475  1.00  0.00    -0.181 NA
ATOM     21  C   UNL     1       5.854  -3.447  -2.650  1.00  0.00     0.066 C 
ATOM     22  C   UNL     1       4.502   0.400  -5.700  1.00  0.00     0.069 C 
ATOM     23  H   UNL     1       3.741  -1.765  -1.767  1.00  0.00     0.190 HD
ENDBRANCH  15  16
ENDBRANCH  14  15
ENDBRANCH  13  14
ENDBRANCH   1  13
TORSDOF 7
ENDMDL
