MODEL 1
REMARK VINA RESULT:    -4.200      0.000      0.000
REMARK INTER + INTRA:          -5.111
REMARK INTER:                  -4.813
REMARK INTRA:                  -0.298
REMARK UNBOUND:                -0.298
REMARK SMILES O=C(O)c1ccc2nc(-c3cc(Cl)cc(Cl)c3)oc2c1
REMARK SMILES IDX 5 1 6 2 20 3 8 4 18 5 4 6 9 7 7 8 19 9 2 10 1 11 3 12 10 14
REMARK SMILES IDX 11 15 17 16 12 17 15 18 14 19 13 20 16 21
REMARK H PARENT 3 13
ROOT
ATOM      1  C   UNL     1       2.642   2.692  -5.581  1.00  0.00     0.018 A 
ATOM      2  C   UNL     1       3.122   3.612  -6.464  1.00  0.00     0.033 A 
ATOM      3  C   UNL     1       3.434   0.887  -6.994  1.00  0.00     0.065 A 
ATOM      4  N   UNL     1       4.332   3.847  -8.669  1.00  0.00    -0.209 NA
ATOM      5  O   UNL     1       4.567   1.723  -9.077  1.00  0.00    -0.436 OA
ATOM      6  C   UNL     1       2.793   1.321  -5.832  1.00  0.00     0.063 A 
ATOM      7  C   UNL     1       4.805   2.972  -9.521  1.00  0.00     0.227 A 
ATOM      8  C   UNL     1       3.767   3.191  -7.633  1.00  0.00     0.110 A 
ATOM      9  C   UNL     1       3.918   1.818  -7.895  1.00  0.00     0.156 A 
ENDROOT
BRANCH   6  10
ATOM     10  C   UNL     1       2.276   0.335  -4.866  1.00  0.00     0.335 C 
ATOM     11  O   UNL     1       1.684   0.710  -3.873  1.00  0.00    -0.246 OA
BRANCH  10  12
ATOM     12  O   UNL     1       2.459  -0.982  -5.083  1.00  0.00    -0.478 OA
ATOM     13  H   UNL     1       3.198  -1.235  -5.652  1.00  0.00     0.297 HD
ENDBRANCH  10  12
ENDBRANCH   6  10
BRANCH   7  14
ATOM     14  C   UNL     1       5.496   3.306 -10.783  1.00  0.00     0.040 A 
ATOM     15  C   UNL     1       5.857   4.626 -11.057  1.00  0.00     0.034 A 
ATOM     16  C   UNL     1       5.791   2.301 -11.707  1.00  0.00     0.034 A 
ATOM     17  C   UNL     1       6.503   4.931 -12.238  1.00  0.00     0.043 A 
ATOM     18  C   UNL     1       6.438   2.619 -12.885  1.00  0.00     0.043 A 
ATOM     19  C   UNL     1       6.793   3.930 -13.151  1.00  0.00     0.041 A 
ATOM     20  Cl  UNL     1       6.953   6.572 -12.581  1.00  0.00    -0.084 Cl
ATOM     21  Cl  UNL     1       6.806   1.371 -14.035  1.00  0.00    -0.084 Cl
ENDBRANCH   7  14
TORSDOF 3
ENDMDL
MODEL 2
REMARK VINA RESULT:    -4.192      0.034      2.020
REMARK INTER + INTRA:          -5.103
REMARK INTER:                  -4.805
REMARK INTRA:                  -0.298
REMARK UNBOUND:                -0.298
REMARK SMILES O=C(O)c1ccc2nc(-c3cc(Cl)cc(Cl)c3)oc2c1
REMARK SMILES IDX 5 1 6 2 20 3 8 4 18 5 4 6 9 7 7 8 19 9 2 10 1 11 3 12 10 14
REMARK SMILES IDX 11 15 17 16 12 17 15 18 14 19 13 20 16 21
REMARK H PARENT 3 13
ROOT
ATOM      1  C   UNL     1       2.634   2.696  -5.578  1.00  0.00     0.018 A 
ATOM      2  C   UNL     1       3.111   3.621  -6.457  1.00  0.00     0.033 A 
ATOM      3  C   UNL     1       3.436   0.900  -6.996  1.00  0.00     0.065 A 
ATOM      4  N   UNL     1       4.325   3.870  -8.659  1.00  0.00    -0.209 NA
ATOM      5  O   UNL     1       4.570   1.748  -9.074  1.00  0.00    -0.436 OA
ATOM      6  C   UNL     1       2.791   1.327  -5.834  1.00  0.00     0.063 A 
ATOM      7  C   UNL     1       4.803   2.999  -9.513  1.00  0.00     0.227 A 
ATOM      8  C   UNL     1       3.761   3.207  -7.627  1.00  0.00     0.110 A 
ATOM      9  C   UNL     1       3.918   1.835  -7.893  1.00  0.00     0.156 A 
ENDROOT
BRANCH   6  10
ATOM     10  C   UNL     1       2.275   0.335  -4.873  1.00  0.00     0.335 C 
ATOM     11  O   UNL     1       1.685   0.705  -3.878  1.00  0.00    -0.246 OA
BRANCH  10  12
ATOM     12  O   UNL     1       2.460  -0.981  -5.097  1.00  0.00    -0.478 OA
ATOM     13  H   UNL     1       2.531  -1.553  -4.321  1.00  0.00     0.297 HD
ENDBRANCH  10  12
ENDBRANCH   6  10
BRANCH   7  14
ATOM     14  C   UNL     1       5.496   3.340 -10.773  1.00  0.00     0.040 A 
ATOM     15  C   UNL     1       5.794   2.343 -11.702  1.00  0.00     0.034 A 
ATOM     16  C   UNL     1       5.856   4.663 -11.038  1.00  0.00     0.034 A 
ATOM     17  C   UNL     1       6.440   2.669 -12.878  1.00  0.00     0.043 A 
ATOM     18  C   UNL     1       6.502   4.977 -12.217  1.00  0.00     0.043 A 
ATOM     19  C   UNL     1       6.794   3.982 -13.134  1.00  0.00     0.041 A 
ATOM     20  Cl  UNL     1       6.811   1.429 -14.035  1.00  0.00    -0.084 Cl
ATOM     21  Cl  UNL     1       6.950   6.621 -12.549  1.00  0.00    -0.084 Cl
ENDBRANCH   7  14
TORSDOF 3
ENDMDL
MODEL 3
REMARK VINA RESULT:    -4.173      3.740      7.433
REMARK INTER + INTRA:          -5.081
REMARK INTER:                  -4.785
REMARK INTRA:                  -0.296
REMARK UNBOUND:                -0.298
REMARK SMILES O=C(O)c1ccc2nc(-c3cc(Cl)cc(Cl)c3)oc2c1
REMARK SMILES IDX 5 1 6 2 20 3 8 4 18 5 4 6 9 7 7 8 19 9 2 10 1 11 3 12 10 14
REMARK SMILES IDX 11 15 17 16 12 17 15 18 14 19 13 20 16 21
REMARK H PARENT 3 13
ROOT
ATOM      1  C   UNL     1       6.738   4.204 -12.904  1.00  0.00     0.018 A 
ATOM      2  C   UNL     1       6.170   4.617 -11.736  1.00  0.00     0.033 A 
ATOM      3  C   UNL     1       6.157   1.904 -12.400  1.00  0.00     0.065 A 
ATOM      4  N   UNL     1       4.963   3.786  -9.678  1.00  0.00    -0.209 NA
ATOM      5  O   UNL     1       4.962   1.674 -10.200  1.00  0.00    -0.436 OA
ATOM      6  C   UNL     1       6.737   2.846 -13.251  1.00  0.00     0.063 A 
ATOM      7  C   UNL     1       4.595   2.591  -9.286  1.00  0.00     0.227 A 
ATOM      8  C   UNL     1       5.585   3.683 -10.872  1.00  0.00     0.110 A 
ATOM      9  C   UNL     1       5.585   2.319 -11.211  1.00  0.00     0.156 A 
ENDROOT
BRANCH   6  10
ATOM     10  C   UNL     1       7.348   2.411 -14.521  1.00  0.00     0.335 C 
ATOM     11  O   UNL     1       7.423   1.228 -14.785  1.00  0.00    -0.246 OA
BRANCH  10  12
ATOM     12  O   UNL     1       7.826   3.327 -15.387  1.00  0.00    -0.478 OA
ATOM     13  H   UNL     1       8.785   3.364 -15.503  1.00  0.00     0.297 HD
ENDBRANCH  10  12
ENDBRANCH   6  10
BRANCH   7  14
ATOM     14  C   UNL     1       3.884   2.296  -8.025  1.00  0.00     0.040 A 
ATOM     15  C   UNL     1       3.108   3.279  -7.410  1.00  0.00     0.034 A 
ATOM     16  C   UNL     1       3.988   1.031  -7.442  1.00  0.00     0.034 A 
ATOM     17  C   UNL     1       2.445   2.996  -6.233  1.00  0.00     0.043 A 
ATOM     18  C   UNL     1       3.320   0.760  -6.265  1.00  0.00     0.043 A 
ATOM     19  C   UNL     1       2.551   1.740  -5.660  1.00  0.00     0.041 A 
ATOM     20  Cl  UNL     1       1.477   4.217  -5.467  1.00  0.00    -0.084 Cl
ATOM     21  Cl  UNL     1       3.447  -0.812  -5.539  1.00  0.00    -0.084 Cl
ENDBRANCH   7  14
TORSDOF 3
ENDMDL
MODEL 4
REMARK VINA RESULT:    -4.173      3.740      7.674
REMARK INTER + INTRA:          -5.081
REMARK INTER:                  -4.785
REMARK INTRA:                  -0.296
REMARK UNBOUND:                -0.298
REMARK SMILES O=C(O)c1ccc2nc(-c3cc(Cl)cc(Cl)c3)oc2c1
REMARK SMILES IDX 5 1 6 2 20 3 8 4 18 5 4 6 9 7 7 8 19 9 2 10 1 11 3 12 10 14
REMARK SMILES IDX 11 15 17 16 12 17 15 18 14 19 13 20 16 21
REMARK H PARENT 3 13
ROOT
ATOM      1  C   UNL     1       6.737   4.203 -12.903  1.00  0.00     0.018 A 
ATOM      2  C   UNL     1       6.170   4.616 -11.735  1.00  0.00     0.033 A 
ATOM      3  C   UNL     1       6.157   1.903 -12.400  1.00  0.00     0.065 A 
ATOM      4  N   UNL     1       4.963   3.784  -9.677  1.00  0.00    -0.209 NA
ATOM      5  O   UNL     1       4.962   1.672 -10.200  1.00  0.00    -0.436 OA
ATOM      6  C   UNL     1       6.737   2.845 -13.252  1.00  0.00     0.063 A 
ATOM      7  C   UNL     1       4.595   2.589  -9.285  1.00  0.00     0.227 A 
ATOM      8  C   UNL     1       5.585   3.682 -10.871  1.00  0.00     0.110 A 
ATOM      9  C   UNL     1       5.585   2.317 -11.211  1.00  0.00     0.156 A 
ENDROOT
BRANCH   6  10
ATOM     10  C   UNL     1       7.348   2.412 -14.521  1.00  0.00     0.335 C 
ATOM     11  O   UNL     1       7.420   1.229 -14.787  1.00  0.00    -0.246 OA
BRANCH  10  12
ATOM     12  O   UNL     1       7.828   3.327 -15.386  1.00  0.00    -0.478 OA
ATOM     13  H   UNL     1       8.709   3.682 -15.206  1.00  0.00     0.297 HD
ENDBRANCH  10  12
ENDBRANCH   6  10
BRANCH   7  14
ATOM     14  C   UNL     1       3.884   2.293  -8.024  1.00  0.00     0.040 A 
ATOM     15  C   UNL     1       3.986   1.029  -7.442  1.00  0.00     0.034 A 
ATOM     16  C   UNL     1       3.107   3.277  -7.411  1.00  0.00     0.034 A 
ATOM     17  C   UNL     1       3.320   0.759  -6.263  1.00  0.00     0.043 A 
ATOM     18  C   UNL     1       2.446   2.995  -6.232  1.00  0.00     0.043 A 
ATOM     19  C   UNL     1       2.551   1.739  -5.660  1.00  0.00     0.041 A 
ATOM     20  Cl  UNL     1       3.447  -0.813  -5.537  1.00  0.00    -0.084 Cl
ATOM     21  Cl  UNL     1       1.478   4.218  -5.468  1.00  0.00    -0.084 Cl
ENDBRANCH   7  14
TORSDOF 3
ENDMDL
MODEL 5
REMARK VINA RESULT:    -4.146      3.899      7.834
REMARK INTER + INTRA:          -5.050
REMARK INTER:                  -4.753
REMARK INTRA:                  -0.296
REMARK UNBOUND:                -0.298
REMARK SMILES O=C(O)c1ccc2nc(-c3cc(Cl)cc(Cl)c3)oc2c1
REMARK SMILES IDX 5 1 6 2 20 3 8 4 18 5 4 6 9 7 7 8 19 9 2 10 1 11 3 12 10 14
REMARK SMILES IDX 11 15 17 16 12 17 15 18 14 19 13 20 16 21
REMARK H PARENT 3 13
ROOT
ATOM      1  C   UNL     1       6.649   3.532 -13.086  1.00  0.00     0.018 A 
ATOM      2  C   UNL     1       6.193   2.513 -12.305  1.00  0.00     0.033 A 
ATOM      3  C   UNL     1       6.027   5.146 -11.386  1.00  0.00     0.065 A 
ATOM      4  N   UNL     1       5.121   2.010 -10.073  1.00  0.00    -0.209 NA
ATOM      5  O   UNL     1       4.991   4.063  -9.367  1.00  0.00    -0.436 OA
ATOM      6  C   UNL     1       6.574   4.859 -12.638  1.00  0.00     0.063 A 
ATOM      7  C   UNL     1       4.738   2.773  -9.080  1.00  0.00     0.227 A 
ATOM      8  C   UNL     1       5.642   2.787 -11.047  1.00  0.00     0.110 A 
ATOM      9  C   UNL     1       5.559   4.115 -10.592  1.00  0.00     0.156 A 
ENDROOT
BRANCH   6  10
ATOM     10  C   UNL     1       7.076   5.952 -13.489  1.00  0.00     0.335 C 
ATOM     11  O   UNL     1       7.131   7.085 -13.053  1.00  0.00    -0.246 OA
BRANCH  10  12
ATOM     12  O   UNL     1       7.471   5.697 -14.752  1.00  0.00    -0.478 OA
ATOM     13  H   UNL     1       7.077   4.930 -15.189  1.00  0.00     0.297 HD
ENDBRANCH  10  12
ENDBRANCH   6  10
BRANCH   7  14
ATOM     14  C   UNL     1       4.118   2.287  -7.830  1.00  0.00     0.040 A 
ATOM     15  C   UNL     1       4.324   0.973  -7.409  1.00  0.00     0.034 A 
ATOM     16  C   UNL     1       3.322   3.142  -7.065  1.00  0.00     0.034 A 
ATOM     17  C   UNL     1       3.743   0.525  -6.239  1.00  0.00     0.043 A 
ATOM     18  C   UNL     1       2.746   2.683  -5.897  1.00  0.00     0.043 A 
ATOM     19  C   UNL     1       2.955   1.378  -5.485  1.00  0.00     0.041 A 
ATOM     20  Cl  UNL     1       3.999  -1.109  -5.714  1.00  0.00    -0.084 Cl
ATOM     21  Cl  UNL     1       1.756   3.745  -4.944  1.00  0.00    -0.084 Cl
ENDBRANCH   7  14
TORSDOF 3
ENDMDL
MODEL 6
REMARK VINA RESULT:    -4.139      3.899      7.599
REMARK INTER + INTRA:          -5.042
REMARK INTER:                  -4.745
REMARK INTRA:                  -0.297
REMARK UNBOUND:                -0.298
REMARK SMILES O=C(O)c1ccc2nc(-c3cc(Cl)cc(Cl)c3)oc2c1
REMARK SMILES IDX 5 1 6 2 20 3 8 4 18 5 4 6 9 7 7 8 19 9 2 10 1 11 3 12 10 14
REMARK SMILES IDX 11 15 17 16 12 17 15 18 14 19 13 20 16 21
REMARK H PARENT 3 13
ROOT
ATOM      1  C   UNL     1       6.646   3.529 -13.089  1.00  0.00     0.018 A 
ATOM      2  C   UNL     1       6.190   2.511 -12.307  1.00  0.00     0.033 A 
ATOM      3  C   UNL     1       6.027   5.143 -11.387  1.00  0.00     0.065 A 
ATOM      4  N   UNL     1       5.121   2.008 -10.073  1.00  0.00    -0.209 NA
ATOM      5  O   UNL     1       4.993   4.062  -9.367  1.00  0.00    -0.436 OA
ATOM      6  C   UNL     1       6.572   4.856 -12.640  1.00  0.00     0.063 A 
ATOM      7  C   UNL     1       4.739   2.772  -9.080  1.00  0.00     0.227 A 
ATOM      8  C   UNL     1       5.641   2.785 -11.048  1.00  0.00     0.110 A 
ATOM      9  C   UNL     1       5.560   4.113 -10.593  1.00  0.00     0.156 A 
ENDROOT
BRANCH   6  10
ATOM     10  C   UNL     1       7.074   5.949 -13.492  1.00  0.00     0.335 C 
ATOM     11  O   UNL     1       7.105   7.086 -13.066  1.00  0.00    -0.246 OA
BRANCH  10  12
ATOM     12  O   UNL     1       7.496   5.688 -14.745  1.00  0.00    -0.478 OA
ATOM     13  H   UNL     1       6.887   5.210 -15.323  1.00  0.00     0.297 HD
ENDBRANCH  10  12
ENDBRANCH   6  10
BRANCH   7  14
ATOM     14  C   UNL     1       4.121   2.287  -7.828  1.00  0.00     0.040 A 
ATOM     15  C   UNL     1       3.324   3.140  -7.064  1.00  0.00     0.034 A 
ATOM     16  C   UNL     1       4.332   0.972  -7.406  1.00  0.00     0.034 A 
ATOM     17  C   UNL     1       2.748   2.680  -5.896  1.00  0.00     0.043 A 
ATOM     18  C   UNL     1       3.750   0.525  -6.237  1.00  0.00     0.043 A 
ATOM     19  C   UNL     1       2.961   1.376  -5.483  1.00  0.00     0.041 A 
ATOM     20  Cl  UNL     1       1.756   3.739  -4.944  1.00  0.00    -0.084 Cl
ATOM     21  Cl  UNL     1       4.012  -1.109  -5.710  1.00  0.00    -0.084 Cl
ENDBRANCH   7  14
TORSDOF 3
ENDMDL
MODEL 7
REMARK VINA RESULT:    -4.137      1.066      2.665
REMARK INTER + INTRA:          -5.040
REMARK INTER:                  -4.743
REMARK INTRA:                  -0.297
REMARK UNBOUND:                -0.298
REMARK SMILES O=C(O)c1ccc2nc(-c3cc(Cl)cc(Cl)c3)oc2c1
REMARK SMILES IDX 5 1 6 2 20 3 8 4 18 5 4 6 9 7 7 8 19 9 2 10 1 11 3 12 10 14
REMARK SMILES IDX 11 15 17 16 12 17 15 18 14 19 13 20 16 21
REMARK H PARENT 3 13
ROOT
ATOM      1  C   UNL     1       3.334   0.574  -5.992  1.00  0.00     0.018 A 
ATOM      2  C   UNL     1       4.006   0.340  -7.154  1.00  0.00     0.033 A 
ATOM      3  C   UNL     1       3.272   2.949  -6.477  1.00  0.00     0.065 A 
ATOM      4  N   UNL     1       4.970   1.487  -9.188  1.00  0.00    -0.209 NA
ATOM      5  O   UNL     1       4.399   3.516  -8.651  1.00  0.00    -0.436 OA
ATOM      6  C   UNL     1       2.957   1.877  -5.640  1.00  0.00     0.063 A 
ATOM      7  C   UNL     1       5.009   2.740  -9.567  1.00  0.00     0.227 A 
ATOM      8  C   UNL     1       4.328   1.406  -8.003  1.00  0.00     0.110 A 
ATOM      9  C   UNL     1       3.958   2.717  -7.655  1.00  0.00     0.156 A 
ENDROOT
BRANCH   6  10
ATOM     10  C   UNL     1       2.225   2.117  -4.383  1.00  0.00     0.335 C 
ATOM     11  O   UNL     1       1.857   1.178  -3.706  1.00  0.00    -0.246 OA
BRANCH  10  12
ATOM     12  O   UNL     1       1.962   3.378  -3.985  1.00  0.00    -0.478 OA
ATOM     13  H   UNL     1       1.561   3.488  -3.113  1.00  0.00     0.297 HD
ENDBRANCH  10  12
ENDBRANCH   6  10
BRANCH   7  14
ATOM     14  C   UNL     1       5.630   3.229 -10.816  1.00  0.00     0.040 A 
ATOM     15  C   UNL     1       5.951   2.333 -11.836  1.00  0.00     0.034 A 
ATOM     16  C   UNL     1       5.899   4.589 -10.978  1.00  0.00     0.034 A 
ATOM     17  C   UNL     1       6.530   2.797 -13.001  1.00  0.00     0.043 A 
ATOM     18  C   UNL     1       6.478   5.041 -12.147  1.00  0.00     0.043 A 
ATOM     19  C   UNL     1       6.795   4.147 -13.156  1.00  0.00     0.041 A 
ATOM     20  Cl  UNL     1       6.930   1.685 -14.272  1.00  0.00    -0.084 Cl
ATOM     21  Cl  UNL     1       6.813   6.732 -12.351  1.00  0.00    -0.084 Cl
ENDBRANCH   7  14
TORSDOF 3
ENDMDL
MODEL 8
REMARK VINA RESULT:    -4.136      5.279      8.848
REMARK INTER + INTRA:          -5.038
REMARK INTER:                  -4.755
REMARK INTRA:                  -0.283
REMARK UNBOUND:                -0.298
REMARK SMILES O=C(O)c1ccc2nc(-c3cc(Cl)cc(Cl)c3)oc2c1
REMARK SMILES IDX 5 1 6 2 20 3 8 4 18 5 4 6 9 7 7 8 19 9 2 10 1 11 3 12 10 14
REMARK SMILES IDX 11 15 17 16 12 17 15 18 14 19 13 20 16 21
REMARK H PARENT 3 13
ROOT
ATOM      1  C   UNL     1       8.971   9.464 -13.743  1.00  0.00     0.018 A 
ATOM      2  C   UNL     1       8.256   8.356 -14.086  1.00  0.00     0.033 A 
ATOM      3  C   UNL     1       8.876   8.831 -11.404  1.00  0.00     0.065 A 
ATOM      4  N   UNL     1       7.129   6.309 -13.125  1.00  0.00    -0.209 NA
ATOM      5  O   UNL     1       7.612   6.689 -11.038  1.00  0.00    -0.436 OA
ATOM      6  C   UNL     1       9.292   9.715 -12.401  1.00  0.00     0.063 A 
ATOM      7  C   UNL     1       7.002   5.856 -11.903  1.00  0.00     0.227 A 
ATOM      8  C   UNL     1       7.833   7.461 -13.095  1.00  0.00     0.110 A 
ATOM      9  C   UNL     1       8.146   7.708 -11.747  1.00  0.00     0.156 A 
ENDROOT
BRANCH   6  10
ATOM     10  C   UNL     1      10.071  10.914 -12.043  1.00  0.00     0.335 C 
ATOM     11  O   UNL     1      11.279  10.843 -11.935  1.00  0.00    -0.246 OA
BRANCH  10  12
ATOM     12  O   UNL     1       9.444  12.088 -11.835  1.00  0.00    -0.478 OA
ATOM     13  H   UNL     1       9.611  12.532 -10.993  1.00  0.00     0.297 HD
ENDBRANCH  10  12
ENDBRANCH   6  10
BRANCH   7  14
ATOM     14  C   UNL     1       6.293   4.615 -11.528  1.00  0.00     0.040 A 
ATOM     15  C   UNL     1       5.576   4.550 -10.333  1.00  0.00     0.034 A 
ATOM     16  C   UNL     1       6.339   3.502 -12.370  1.00  0.00     0.034 A 
ATOM     17  C   UNL     1       4.914   3.388  -9.990  1.00  0.00     0.043 A 
ATOM     18  C   UNL     1       5.674   2.345 -12.016  1.00  0.00     0.043 A 
ATOM     19  C   UNL     1       4.964   2.287 -10.828  1.00  0.00     0.041 A 
ATOM     20  Cl  UNL     1       4.021   3.305  -8.504  1.00  0.00    -0.084 Cl
ATOM     21  Cl  UNL     1       5.729   0.959 -13.060  1.00  0.00    -0.084 Cl
ENDBRANCH   7  14
TORSDOF 3
ENDMDL
MODEL 9
REMARK VINA RESULT:    -4.132      5.281      8.996
REMARK INTER + INTRA:          -5.034
REMARK INTER:                  -4.751
REMARK INTRA:                  -0.283
REMARK UNBOUND:                -0.298
REMARK SMILES O=C(O)c1ccc2nc(-c3cc(Cl)cc(Cl)c3)oc2c1
REMARK SMILES IDX 5 1 6 2 20 3 8 4 18 5 4 6 9 7 7 8 19 9 2 10 1 11 3 12 10 14
REMARK SMILES IDX 11 15 17 16 12 17 15 18 14 19 13 20 16 21
REMARK H PARENT 3 13
ROOT
ATOM      1  C   UNL     1       8.973   9.464 -13.747  1.00  0.00     0.018 A 
ATOM      2  C   UNL     1       8.258   8.355 -14.089  1.00  0.00     0.033 A 
ATOM      3  C   UNL     1       8.875   8.834 -11.407  1.00  0.00     0.065 A 
ATOM      4  N   UNL     1       7.130   6.310 -13.126  1.00  0.00    -0.209 NA
ATOM      5  O   UNL     1       7.610   6.693 -11.039  1.00  0.00    -0.436 OA
ATOM      6  C   UNL     1       9.292   9.717 -12.405  1.00  0.00     0.063 A 
ATOM      7  C   UNL     1       7.002   5.859 -11.903  1.00  0.00     0.227 A 
ATOM      8  C   UNL     1       7.834   7.462 -13.097  1.00  0.00     0.110 A 
ATOM      9  C   UNL     1       8.145   7.711 -11.749  1.00  0.00     0.156 A 
ENDROOT
BRANCH   6  10
ATOM     10  C   UNL     1      10.071  10.916 -12.048  1.00  0.00     0.335 C 
ATOM     11  O   UNL     1      11.283  10.857 -11.985  1.00  0.00    -0.246 OA
BRANCH  10  12
ATOM     12  O   UNL     1       9.439  12.078 -11.790  1.00  0.00    -0.478 OA
ATOM     13  H   UNL     1       9.706  12.848 -12.309  1.00  0.00     0.297 HD
ENDBRANCH  10  12
ENDBRANCH   6  10
BRANCH   7  14
ATOM     14  C   UNL     1       6.292   4.618 -11.528  1.00  0.00     0.040 A 
ATOM     15  C   UNL     1       6.333   3.505 -12.368  1.00  0.00     0.034 A 
ATOM     16  C   UNL     1       5.576   4.556 -10.330  1.00  0.00     0.034 A 
ATOM     17  C   UNL     1       5.669   2.348 -12.011  1.00  0.00     0.043 A 
ATOM     18  C   UNL     1       4.916   3.394  -9.984  1.00  0.00     0.043 A 
ATOM     19  C   UNL     1       4.961   2.293 -10.823  1.00  0.00     0.041 A 
ATOM     20  Cl  UNL     1       5.720   0.962 -13.055  1.00  0.00    -0.084 Cl
ATOM     21  Cl  UNL     1       4.026   3.314  -8.496  1.00  0.00    -0.084 Cl
ENDBRANCH   7  14
TORSDOF 3
ENDMDL
