MODEL 1
REMARK VINA RESULT:    -5.403      0.000      0.000
REMARK INTER + INTRA:          -8.097
REMARK INTER:                  -7.456
REMARK INTRA:                  -0.641
REMARK UNBOUND:                -0.641
REMARK SMILES Cc1n[nH]c(C)c1CCCOc1cc(C(=O)O)ccc1F
REMARK SMILES IDX 11 1 12 2 14 3 18 4 13 5 19 6 20 7 21 8 15 9 16 10 17 11
REMARK SMILES IDX 10 13 9 14 8 15 7 16 5 17 2 18 4 19 3 20 6 21 1 22
REMARK H PARENT 17 12 4 23
ROOT
ATOM      1  O   UNL     1       3.856   3.377  -8.404  1.00  0.00    -0.490 OA
ENDROOT
BRANCH   1   2
ATOM      2  C   UNL     1       3.462   2.700  -7.292  1.00  0.00     0.155 A 
ATOM      3  C   UNL     1       3.522   0.728  -5.918  1.00  0.00     0.063 A 
ATOM      4  C   UNL     1       2.653   1.339  -5.009  1.00  0.00     0.019 A 
ATOM      5  C   UNL     1       3.924   1.417  -7.063  1.00  0.00     0.065 A 
ATOM      6  C   UNL     1       2.202   2.621  -5.243  1.00  0.00     0.044 A 
ATOM      7  C   UNL     1       2.607   3.305  -6.377  1.00  0.00     0.165 A 
ATOM      8  F   UNL     1       2.161   4.561  -6.601  1.00  0.00    -0.203 F 
BRANCH   3   9
ATOM      9  C   UNL     1       4.007  -0.644  -5.670  1.00  0.00     0.335 C 
ATOM     10  O   UNL     1       3.215  -1.540  -5.462  1.00  0.00    -0.246 OA
BRANCH   9  11
ATOM     11  O   UNL     1       5.329  -0.903  -5.683  1.00  0.00    -0.478 OA
ATOM     12  H   UNL     1       5.757  -0.960  -6.548  1.00  0.00     0.297 HD
ENDBRANCH   9  11
ENDBRANCH   3   9
ENDBRANCH   1   2
BRANCH   1  13
ATOM     13  C   UNL     1       2.997   3.306  -9.544  1.00  0.00     0.230 C 
BRANCH  13  14
ATOM     14  C   UNL     1       3.782   3.693 -10.798  1.00  0.00     0.046 C 
BRANCH  14  15
ATOM     15  C   UNL     1       5.281   3.536 -10.531  1.00  0.00     0.043 C 
BRANCH  15  16
ATOM     16  C   UNL     1       6.052   3.848 -11.786  1.00  0.00    -0.004 A 
ATOM     17  C   UNL     1       6.382   2.966 -12.759  1.00  0.00     0.036 A 
ATOM     18  C   UNL     1       6.548   5.103 -12.157  1.00  0.00     0.063 A 
ATOM     19  N   UNL     1       7.068   3.638 -13.707  1.00  0.00    -0.282 N 
ATOM     20  N   UNL     1       7.163   4.976 -13.305  1.00  0.00    -0.181 NA
ATOM     21  C   UNL     1       6.044   1.499 -12.778  1.00  0.00     0.066 C 
ATOM     22  C   UNL     1       6.408   6.378 -11.365  1.00  0.00     0.069 C 
ATOM     23  H   UNL     1       7.432   3.260 -14.523  1.00  0.00     0.190 HD
ENDBRANCH  15  16
ENDBRANCH  14  15
ENDBRANCH  13  14
ENDBRANCH   1  13
TORSDOF 7
ENDMDL
MODEL 2
REMARK VINA RESULT:    -5.381      2.098      3.610
REMARK INTER + INTRA:          -8.066
REMARK INTER:                  -7.401
REMARK INTRA:                  -0.665
REMARK UNBOUND:                -0.641
REMARK SMILES Cc1n[nH]c(C)c1CCCOc1cc(C(=O)O)ccc1F
REMARK SMILES IDX 11 1 12 2 14 3 18 4 13 5 19 6 20 7 21 8 15 9 16 10 17 11
REMARK SMILES IDX 10 13 9 14 8 15 7 16 5 17 2 18 4 19 3 20 6 21 1 22
REMARK H PARENT 17 12 4 23
ROOT
ATOM      1  O   UNL     1       5.673   1.005  -7.646  1.00  0.00    -0.490 OA
ENDROOT
BRANCH   1   2
ATOM      2  C   UNL     1       4.566   1.175  -6.875  1.00  0.00     0.155 A 
ATOM      3  C   UNL     1       2.728   2.536  -6.132  1.00  0.00     0.063 A 
ATOM      4  C   UNL     1       2.302   1.498  -5.299  1.00  0.00     0.019 A 
ATOM      5  C   UNL     1       3.867   2.367  -6.922  1.00  0.00     0.065 A 
ATOM      6  C   UNL     1       3.002   0.311  -5.263  1.00  0.00     0.044 A 
ATOM      7  C   UNL     1       4.129   0.144  -6.051  1.00  0.00     0.165 A 
ATOM      8  F   UNL     1       4.811  -1.022  -6.011  1.00  0.00    -0.203 F 
BRANCH   3   9
ATOM      9  C   UNL     1       1.981   3.808  -6.173  1.00  0.00     0.335 C 
ATOM     10  O   UNL     1       0.769   3.803  -6.091  1.00  0.00    -0.246 OA
BRANCH   9  11
ATOM     11  O   UNL     1       2.644   4.974  -6.295  1.00  0.00    -0.478 OA
ATOM     12  H   UNL     1       3.303   5.178  -5.617  1.00  0.00     0.297 HD
ENDBRANCH   9  11
ENDBRANCH   3   9
ENDBRANCH   1   2
BRANCH   1  13
ATOM     13  C   UNL     1       6.398   2.183  -8.008  1.00  0.00     0.230 C 
BRANCH  13  14
ATOM     14  C   UNL     1       6.755   2.125  -9.495  1.00  0.00     0.046 C 
BRANCH  14  15
ATOM     15  C   UNL     1       5.580   2.651 -10.322  1.00  0.00     0.043 C 
BRANCH  15  16
ATOM     16  C   UNL     1       6.088   3.179 -11.638  1.00  0.00    -0.004 A 
ATOM     17  C   UNL     1       6.429   4.461 -11.904  1.00  0.00     0.036 A 
ATOM     18  C   UNL     1       6.297   2.428 -12.800  1.00  0.00     0.063 A 
ATOM     19  N   UNL     1       6.832   4.521 -13.191  1.00  0.00    -0.282 N 
ATOM     20  N   UNL     1       6.736   3.233 -13.733  1.00  0.00    -0.181 NA
ATOM     21  C   UNL     1       6.369   5.614 -10.937  1.00  0.00     0.066 C 
ATOM     22  C   UNL     1       6.046   0.950 -12.955  1.00  0.00     0.069 C 
ATOM     23  H   UNL     1       7.135   5.315 -13.657  1.00  0.00     0.190 HD
ENDBRANCH  15  16
ENDBRANCH  14  15
ENDBRANCH  13  14
ENDBRANCH   1  13
TORSDOF 7
ENDMDL
MODEL 3
REMARK VINA RESULT:    -5.341      0.121      1.771
REMARK INTER + INTRA:          -8.012
REMARK INTER:                  -7.369
REMARK INTRA:                  -0.643
REMARK UNBOUND:                -0.641
REMARK SMILES Cc1n[nH]c(C)c1CCCOc1cc(C(=O)O)ccc1F
REMARK SMILES IDX 11 1 12 2 14 3 18 4 13 5 19 6 20 7 21 8 15 9 16 10 17 11
REMARK SMILES IDX 10 13 9 14 8 15 7 16 5 17 2 18 4 19 3 20 6 21 1 22
REMARK H PARENT 17 12 4 23
ROOT
ATOM      1  O   UNL     1       3.938   3.319  -8.475  1.00  0.00    -0.490 OA
ENDROOT
BRANCH   1   2
ATOM      2  C   UNL     1       3.527   2.672  -7.352  1.00  0.00     0.155 A 
ATOM      3  C   UNL     1       3.540   0.725  -5.941  1.00  0.00     0.063 A 
ATOM      4  C   UNL     1       2.683   1.372  -5.046  1.00  0.00     0.019 A 
ATOM      5  C   UNL     1       3.961   1.385  -7.098  1.00  0.00     0.065 A 
ATOM      6  C   UNL     1       2.261   2.659  -5.305  1.00  0.00     0.044 A 
ATOM      7  C   UNL     1       2.683   3.313  -6.451  1.00  0.00     0.165 A 
ATOM      8  F   UNL     1       2.266   4.574  -6.699  1.00  0.00    -0.203 F 
BRANCH   3   9
ATOM      9  C   UNL     1       3.994  -0.652  -5.666  1.00  0.00     0.335 C 
ATOM     10  O   UNL     1       3.182  -1.531  -5.463  1.00  0.00    -0.246 OA
BRANCH   9  11
ATOM     11  O   UNL     1       5.312  -0.935  -5.648  1.00  0.00    -0.478 OA
ATOM     12  H   UNL     1       5.761  -0.880  -4.793  1.00  0.00     0.297 HD
ENDBRANCH   9  11
ENDBRANCH   3   9
ENDBRANCH   1   2
BRANCH   1  13
ATOM     13  C   UNL     1       3.084   3.241  -9.618  1.00  0.00     0.230 C 
BRANCH  13  14
ATOM     14  C   UNL     1       3.845   3.718 -10.856  1.00  0.00     0.046 C 
BRANCH  14  15
ATOM     15  C   UNL     1       5.349   3.554 -10.625  1.00  0.00     0.043 C 
BRANCH  15  16
ATOM     16  C   UNL     1       6.094   3.934 -11.878  1.00  0.00    -0.004 A 
ATOM     17  C   UNL     1       6.516   5.177 -12.208  1.00  0.00     0.036 A 
ATOM     18  C   UNL     1       6.480   3.063 -12.902  1.00  0.00     0.063 A 
ATOM     19  N   UNL     1       7.139   5.096 -13.402  1.00  0.00    -0.282 N 
ATOM     20  N   UNL     1       7.100   3.759 -13.820  1.00  0.00    -0.181 NA
ATOM     21  C   UNL     1       6.323   6.426 -11.389  1.00  0.00     0.066 C 
ATOM     22  C   UNL     1       6.215   1.579 -12.948  1.00  0.00     0.069 C 
ATOM     23  H   UNL     1       7.543   5.833 -13.886  1.00  0.00     0.190 HD
ENDBRANCH  15  16
ENDBRANCH  14  15
ENDBRANCH  13  14
ENDBRANCH   1  13
TORSDOF 7
ENDMDL
MODEL 4
REMARK VINA RESULT:    -5.239      2.096      3.147
REMARK INTER + INTRA:          -7.871
REMARK INTER:                  -7.208
REMARK INTRA:                  -0.662
REMARK UNBOUND:                -0.641
REMARK SMILES Cc1n[nH]c(C)c1CCCOc1cc(C(=O)O)ccc1F
REMARK SMILES IDX 11 1 12 2 14 3 18 4 13 5 19 6 20 7 21 8 15 9 16 10 17 11
REMARK SMILES IDX 10 13 9 14 8 15 7 16 5 17 2 18 4 19 3 20 6 21 1 22
REMARK H PARENT 17 12 4 23
ROOT
ATOM      1  O   UNL     1       5.642   1.012  -7.671  1.00  0.00    -0.490 OA
ENDROOT
BRANCH   1   2
ATOM      2  C   UNL     1       4.544   1.177  -6.886  1.00  0.00     0.155 A 
ATOM      3  C   UNL     1       2.706   2.528  -6.124  1.00  0.00     0.063 A 
ATOM      4  C   UNL     1       2.298   1.490  -5.281  1.00  0.00     0.019 A 
ATOM      5  C   UNL     1       3.836   2.364  -6.928  1.00  0.00     0.065 A 
ATOM      6  C   UNL     1       3.007   0.308  -5.250  1.00  0.00     0.044 A 
ATOM      7  C   UNL     1       4.125   0.146  -6.052  1.00  0.00     0.165 A 
ATOM      8  F   UNL     1       4.815  -1.015  -6.018  1.00  0.00    -0.203 F 
BRANCH   3   9
ATOM      9  C   UNL     1       1.949   3.794  -6.159  1.00  0.00     0.335 C 
ATOM     10  O   UNL     1       0.737   3.779  -6.107  1.00  0.00    -0.246 OA
BRANCH   9  11
ATOM     11  O   UNL     1       2.605   4.968  -6.244  1.00  0.00    -0.478 OA
ATOM     12  H   UNL     1       2.916   5.359  -5.414  1.00  0.00     0.297 HD
ENDBRANCH   9  11
ENDBRANCH   3   9
ENDBRANCH   1   2
BRANCH   1  13
ATOM     13  C   UNL     1       6.409   2.181  -7.967  1.00  0.00     0.230 C 
BRANCH  13  14
ATOM     14  C   UNL     1       6.799   2.173  -9.446  1.00  0.00     0.046 C 
BRANCH  14  15
ATOM     15  C   UNL     1       5.628   2.690 -10.285  1.00  0.00     0.043 C 
BRANCH  15  16
ATOM     16  C   UNL     1       6.146   3.232 -11.592  1.00  0.00    -0.004 A 
ATOM     17  C   UNL     1       6.343   2.523 -12.727  1.00  0.00     0.036 A 
ATOM     18  C   UNL     1       6.502   4.561 -11.848  1.00  0.00     0.063 A 
ATOM     19  N   UNL     1       6.813   3.370 -13.666  1.00  0.00    -0.282 N 
ATOM     20  N   UNL     1       6.909   4.643 -13.088  1.00  0.00    -0.181 NA
ATOM     21  C   UNL     1       6.083   1.050 -12.910  1.00  0.00     0.066 C 
ATOM     22  C   UNL     1       6.440   5.699 -10.861  1.00  0.00     0.069 C 
ATOM     23  H   UNL     1       7.045   3.139 -14.579  1.00  0.00     0.190 HD
ENDBRANCH  15  16
ENDBRANCH  14  15
ENDBRANCH  13  14
ENDBRANCH   1  13
TORSDOF 7
ENDMDL
MODEL 5
REMARK VINA RESULT:    -4.593      3.804      7.339
REMARK INTER + INTRA:          -6.979
REMARK INTER:                  -6.186
REMARK INTRA:                  -0.793
REMARK UNBOUND:                -0.641
REMARK SMILES Cc1n[nH]c(C)c1CCCOc1cc(C(=O)O)ccc1F
REMARK SMILES IDX 11 1 12 2 14 3 18 4 13 5 19 6 20 7 21 8 15 9 16 10 17 11
REMARK SMILES IDX 10 13 9 14 8 15 7 16 5 17 2 18 4 19 3 20 6 21 1 22
REMARK H PARENT 17 12 4 23
ROOT
ATOM      1  O   UNL     1       5.006   1.879  -9.794  1.00  0.00    -0.490 OA
ENDROOT
BRANCH   1   2
ATOM      2  C   UNL     1       5.539   2.663 -10.769  1.00  0.00     0.155 A 
ATOM      3  C   UNL     1       6.316   4.807 -11.532  1.00  0.00     0.063 A 
ATOM      4  C   UNL     1       6.639   4.244 -12.771  1.00  0.00     0.019 A 
ATOM      5  C   UNL     1       5.764   4.006 -10.531  1.00  0.00     0.065 A 
ATOM      6  C   UNL     1       6.417   2.903 -12.997  1.00  0.00     0.044 A 
ATOM      7  C   UNL     1       5.873   2.109 -12.000  1.00  0.00     0.165 A 
ATOM      8  F   UNL     1       5.658   0.795 -12.228  1.00  0.00    -0.203 F 
BRANCH   3   9
ATOM      9  C   UNL     1       6.553   6.243 -11.287  1.00  0.00     0.335 C 
ATOM     10  O   UNL     1       6.497   6.683 -10.157  1.00  0.00    -0.246 OA
BRANCH   9  11
ATOM     11  O   UNL     1       6.839   7.064 -12.316  1.00  0.00    -0.478 OA
ATOM     12  H   UNL     1       6.173   7.728 -12.546  1.00  0.00     0.297 HD
ENDBRANCH   9  11
ENDBRANCH   3   9
ENDBRANCH   1   2
BRANCH   1  13
ATOM     13  C   UNL     1       5.501   2.068  -8.466  1.00  0.00     0.230 C 
BRANCH  13  14
ATOM     14  C   UNL     1       4.797   1.098  -7.517  1.00  0.00     0.046 C 
BRANCH  14  15
ATOM     15  C   UNL     1       3.316   1.002  -7.891  1.00  0.00     0.043 C 
BRANCH  15  16
ATOM     16  C   UNL     1       2.561   2.136  -7.249  1.00  0.00    -0.004 A 
ATOM     17  C   UNL     1       2.032   3.205  -7.889  1.00  0.00     0.036 A 
ATOM     18  C   UNL     1       2.276   2.268  -5.885  1.00  0.00     0.063 A 
ATOM     19  N   UNL     1       1.440   3.988  -6.963  1.00  0.00    -0.282 N 
ATOM     20  N   UNL     1       1.610   3.381  -5.712  1.00  0.00    -0.181 NA
ATOM     21  C   UNL     1       2.094   3.473  -9.370  1.00  0.00     0.066 C 
ATOM     22  C   UNL     1       2.677   1.300  -4.801  1.00  0.00     0.069 C 
ATOM     23  H   UNL     1       0.979   4.824  -7.133  1.00  0.00     0.190 HD
ENDBRANCH  15  16
ENDBRANCH  14  15
ENDBRANCH  13  14
ENDBRANCH   1  13
TORSDOF 7
ENDMDL
MODEL 6
REMARK VINA RESULT:    -4.580      3.728      6.787
REMARK INTER + INTRA:          -6.961
REMARK INTER:                  -6.137
REMARK INTRA:                  -0.824
REMARK UNBOUND:                -0.641
REMARK SMILES Cc1n[nH]c(C)c1CCCOc1cc(C(=O)O)ccc1F
REMARK SMILES IDX 11 1 12 2 14 3 18 4 13 5 19 6 20 7 21 8 15 9 16 10 17 11
REMARK SMILES IDX 10 13 9 14 8 15 7 16 5 17 2 18 4 19 3 20 6 21 1 22
REMARK H PARENT 17 12 4 23
ROOT
ATOM      1  O   UNL     1       4.688   3.817  -9.297  1.00  0.00    -0.490 OA
ENDROOT
BRANCH   1   2
ATOM      2  C   UNL     1       5.334   3.749 -10.491  1.00  0.00     0.155 A 
ATOM      3  C   UNL     1       6.028   2.494 -12.421  1.00  0.00     0.063 A 
ATOM      4  C   UNL     1       6.651   3.635 -12.935  1.00  0.00     0.019 A 
ATOM      5  C   UNL     1       5.368   2.559 -11.193  1.00  0.00     0.065 A 
ATOM      6  C   UNL     1       6.607   4.820 -12.231  1.00  0.00     0.044 A 
ATOM      7  C   UNL     1       5.947   4.883 -11.014  1.00  0.00     0.165 A 
ATOM      8  F   UNL     1       5.908   6.047 -10.330  1.00  0.00    -0.203 F 
BRANCH   3   9
ATOM      9  C   UNL     1       6.073   1.225 -13.173  1.00  0.00     0.335 C 
ATOM     10  O   UNL     1       5.302   0.328 -12.896  1.00  0.00    -0.246 OA
BRANCH   9  11
ATOM     11  O   UNL     1       6.965   1.063 -14.170  1.00  0.00    -0.478 OA
ATOM     12  H   UNL     1       7.771   1.596 -14.128  1.00  0.00     0.297 HD
ENDBRANCH   9  11
ENDBRANCH   3   9
ENDBRANCH   1   2
BRANCH   1  13
ATOM     13  C   UNL     1       3.425   3.154  -9.204  1.00  0.00     0.230 C 
BRANCH  13  14
ATOM     14  C   UNL     1       2.877   3.298  -7.783  1.00  0.00     0.046 C 
BRANCH  14  15
ATOM     15  C   UNL     1       4.032   3.219  -6.781  1.00  0.00     0.043 C 
BRANCH  15  16
ATOM     16  C   UNL     1       4.299   1.778  -6.433  1.00  0.00    -0.004 A 
ATOM     17  C   UNL     1       5.385   1.059  -6.799  1.00  0.00     0.036 A 
ATOM     18  C   UNL     1       3.471   0.949  -5.669  1.00  0.00     0.063 A 
ATOM     19  N   UNL     1       5.246  -0.184  -6.291  1.00  0.00    -0.282 N 
ATOM     20  N   UNL     1       4.035  -0.229  -5.589  1.00  0.00    -0.181 NA
ATOM     21  C   UNL     1       6.542   1.556  -7.626  1.00  0.00     0.066 C 
ATOM     22  C   UNL     1       2.152   1.341  -5.055  1.00  0.00     0.069 C 
ATOM     23  H   UNL     1       5.874  -0.916  -6.393  1.00  0.00     0.190 HD
ENDBRANCH  15  16
ENDBRANCH  14  15
ENDBRANCH  13  14
ENDBRANCH   1  13
TORSDOF 7
ENDMDL
MODEL 7
REMARK VINA RESULT:    -4.489      4.806      8.272
REMARK INTER + INTRA:          -6.836
REMARK INTER:                  -6.149
REMARK INTRA:                  -0.687
REMARK UNBOUND:                -0.641
REMARK SMILES Cc1n[nH]c(C)c1CCCOc1cc(C(=O)O)ccc1F
REMARK SMILES IDX 11 1 12 2 14 3 18 4 13 5 19 6 20 7 21 8 15 9 16 10 17 11
REMARK SMILES IDX 10 13 9 14 8 15 7 16 5 17 2 18 4 19 3 20 6 21 1 22
REMARK H PARENT 17 12 4 23
ROOT
ATOM      1  O   UNL     1       6.260   1.955 -12.139  1.00  0.00    -0.490 OA
ENDROOT
BRANCH   1   2
ATOM      2  C   UNL     1       6.487   1.662 -13.447  1.00  0.00     0.155 A 
ATOM      3  C   UNL     1       7.705   2.027 -15.487  1.00  0.00     0.063 A 
ATOM      4  C   UNL     1       6.941   1.040 -16.116  1.00  0.00     0.019 A 
ATOM      5  C   UNL     1       7.471   2.335 -14.146  1.00  0.00     0.065 A 
ATOM      6  C   UNL     1       5.965   0.369 -15.409  1.00  0.00     0.044 A 
ATOM      7  C   UNL     1       5.739   0.673 -14.077  1.00  0.00     0.165 A 
ATOM      8  F   UNL     1       4.781   0.012 -13.389  1.00  0.00    -0.203 F 
BRANCH   3   9
ATOM      9  C   UNL     1       8.750   2.747 -16.241  1.00  0.00     0.335 C 
ATOM     10  O   UNL     1       8.779   2.682 -17.453  1.00  0.00    -0.246 OA
BRANCH   9  11
ATOM     11  O   UNL     1       9.669   3.481 -15.584  1.00  0.00    -0.478 OA
ATOM     12  H   UNL     1       9.342   4.092 -14.908  1.00  0.00     0.297 HD
ENDBRANCH   9  11
ENDBRANCH   3   9
ENDBRANCH   1   2
BRANCH   1  13
ATOM     13  C   UNL     1       5.870   3.296 -11.833  1.00  0.00     0.230 C 
BRANCH  13  14
ATOM     14  C   UNL     1       5.607   3.420 -10.331  1.00  0.00     0.046 C 
BRANCH  14  15
ATOM     15  C   UNL     1       4.831   2.194  -9.846  1.00  0.00     0.043 C 
BRANCH  15  16
ATOM     16  C   UNL     1       4.313   2.444  -8.454  1.00  0.00    -0.004 A 
ATOM     17  C   UNL     1       3.090   2.925  -8.134  1.00  0.00     0.036 A 
ATOM     18  C   UNL     1       5.010   2.214  -7.263  1.00  0.00     0.063 A 
ATOM     19  N   UNL     1       3.017   3.003  -6.788  1.00  0.00    -0.282 N 
ATOM     20  N   UNL     1       4.237   2.555  -6.264  1.00  0.00    -0.181 NA
ATOM     21  C   UNL     1       2.003   3.306  -9.105  1.00  0.00     0.066 C 
ATOM     22  C   UNL     1       6.414   1.677  -7.150  1.00  0.00     0.069 C 
ATOM     23  H   UNL     1       2.256   3.315  -6.275  1.00  0.00     0.190 HD
ENDBRANCH  15  16
ENDBRANCH  14  15
ENDBRANCH  13  14
ENDBRANCH   1  13
TORSDOF 7
ENDMDL
MODEL 8
REMARK VINA RESULT:    -4.429      4.472      8.360
REMARK INTER + INTRA:          -6.752
REMARK INTER:                  -6.085
REMARK INTRA:                  -0.667
REMARK UNBOUND:                -0.641
REMARK SMILES Cc1n[nH]c(C)c1CCCOc1cc(C(=O)O)ccc1F
REMARK SMILES IDX 11 1 12 2 14 3 18 4 13 5 19 6 20 7 21 8 15 9 16 10 17 11
REMARK SMILES IDX 10 13 9 14 8 15 7 16 5 17 2 18 4 19 3 20 6 21 1 22
REMARK H PARENT 17 12 4 23
ROOT
ATOM      1  O   UNL     1       5.757   5.294 -11.344  1.00  0.00    -0.490 OA
ENDROOT
BRANCH   1   2
ATOM      2  C   UNL     1       6.583   6.187 -11.952  1.00  0.00     0.155 A 
ATOM      3  C   UNL     1       7.534   7.127 -13.951  1.00  0.00     0.063 A 
ATOM      4  C   UNL     1       8.268   8.027 -13.174  1.00  0.00     0.019 A 
ATOM      5  C   UNL     1       6.688   6.205 -13.330  1.00  0.00     0.065 A 
ATOM      6  C   UNL     1       8.152   8.006 -11.800  1.00  0.00     0.044 A 
ATOM      7  C   UNL     1       7.309   7.093 -11.187  1.00  0.00     0.165 A 
ATOM      8  F   UNL     1       7.200   7.078  -9.840  1.00  0.00    -0.203 F 
BRANCH   3   9
ATOM      9  C   UNL     1       7.655   7.148 -15.422  1.00  0.00     0.335 C 
ATOM     10  O   UNL     1       8.423   7.920 -15.957  1.00  0.00    -0.246 OA
BRANCH   9  11
ATOM     11  O   UNL     1       6.918   6.303 -16.170  1.00  0.00    -0.478 OA
ATOM     12  H   UNL     1       6.743   6.565 -17.084  1.00  0.00     0.297 HD
ENDBRANCH   9  11
ENDBRANCH   3   9
ENDBRANCH   1   2
BRANCH   1  13
ATOM     13  C   UNL     1       6.168   3.924 -11.349  1.00  0.00     0.230 C 
BRANCH  13  14
ATOM     14  C   UNL     1       5.102   3.071 -10.658  1.00  0.00     0.046 C 
BRANCH  14  15
ATOM     15  C   UNL     1       4.858   3.606  -9.245  1.00  0.00     0.043 C 
BRANCH  15  16
ATOM     16  C   UNL     1       4.286   2.510  -8.385  1.00  0.00    -0.004 A 
ATOM     17  C   UNL     1       2.974   2.204  -8.253  1.00  0.00     0.036 A 
ATOM     18  C   UNL     1       5.017   1.625  -7.586  1.00  0.00     0.063 A 
ATOM     19  N   UNL     1       2.878   1.166  -7.395  1.00  0.00    -0.282 N 
ATOM     20  N   UNL     1       4.174   0.823  -6.987  1.00  0.00    -0.181 NA
ATOM     21  C   UNL     1       1.827   2.897  -8.940  1.00  0.00     0.066 C 
ATOM     22  C   UNL     1       6.516   1.605  -7.431  1.00  0.00     0.069 C 
ATOM     23  H   UNL     1       2.058   0.734  -7.111  1.00  0.00     0.190 HD
ENDBRANCH  15  16
ENDBRANCH  14  15
ENDBRANCH  13  14
ENDBRANCH   1  13
TORSDOF 7
ENDMDL
MODEL 9
REMARK VINA RESULT:    -4.318      3.794      6.893
REMARK INTER + INTRA:          -6.600
REMARK INTER:                  -5.659
REMARK INTRA:                  -0.941
REMARK UNBOUND:                -0.641
REMARK SMILES Cc1n[nH]c(C)c1CCCOc1cc(C(=O)O)ccc1F
REMARK SMILES IDX 11 1 12 2 14 3 18 4 13 5 19 6 20 7 21 8 15 9 16 10 17 11
REMARK SMILES IDX 10 13 9 14 8 15 7 16 5 17 2 18 4 19 3 20 6 21 1 22
REMARK H PARENT 17 12 4 23
ROOT
ATOM      1  O   UNL     1       5.703   3.020  -8.947  1.00  0.00    -0.490 OA
ENDROOT
BRANCH   1   2
ATOM      2  C   UNL     1       5.952   3.178 -10.274  1.00  0.00     0.155 A 
ATOM      3  C   UNL     1       6.243   2.243 -12.470  1.00  0.00     0.063 A 
ATOM      4  C   UNL     1       6.452   3.525 -12.985  1.00  0.00     0.019 A 
ATOM      5  C   UNL     1       5.992   2.076 -11.107  1.00  0.00     0.065 A 
ATOM      6  C   UNL     1       6.404   4.620 -12.147  1.00  0.00     0.044 A 
ATOM      7  C   UNL     1       6.150   4.452 -10.796  1.00  0.00     0.165 A 
ATOM      8  F   UNL     1       6.105   5.529  -9.981  1.00  0.00    -0.203 F 
BRANCH   3   9
ATOM      9  C   UNL     1       6.293   1.069 -13.363  1.00  0.00     0.335 C 
ATOM     10  O   UNL     1       7.119   1.016 -14.251  1.00  0.00    -0.246 OA
BRANCH   9  11
ATOM     11  O   UNL     1       5.425   0.053 -13.189  1.00  0.00    -0.478 OA
ATOM     12  H   UNL     1       5.636  -0.592 -12.499  1.00  0.00     0.297 HD
ENDBRANCH   9  11
ENDBRANCH   3   9
ENDBRANCH   1   2
BRANCH   1  13
ATOM     13  C   UNL     1       6.058   1.763  -8.366  1.00  0.00     0.230 C 
BRANCH  13  14
ATOM     14  C   UNL     1       5.107   1.450  -7.209  1.00  0.00     0.046 C 
BRANCH  14  15
ATOM     15  C   UNL     1       3.704   1.187  -7.759  1.00  0.00     0.043 C 
BRANCH  15  16
ATOM     16  C   UNL     1       2.749   2.219  -7.216  1.00  0.00    -0.004 A 
ATOM     17  C   UNL     1       2.174   3.221  -7.921  1.00  0.00     0.036 A 
ATOM     18  C   UNL     1       2.296   2.307  -5.896  1.00  0.00     0.063 A 
ATOM     19  N   UNL     1       1.390   3.921  -7.075  1.00  0.00    -0.282 N 
ATOM     20  N   UNL     1       1.487   3.331  -5.809  1.00  0.00    -0.181 NA
ATOM     21  C   UNL     1       2.373   3.502  -9.388  1.00  0.00     0.066 C 
ATOM     22  C   UNL     1       2.683   1.387  -4.766  1.00  0.00     0.069 C 
ATOM     23  H   UNL     1       0.855   4.697  -7.304  1.00  0.00     0.190 HD
ENDBRANCH  15  16
ENDBRANCH  14  15
ENDBRANCH  13  14
ENDBRANCH   1  13
TORSDOF 7
ENDMDL
