MODEL 1
REMARK VINA RESULT:    -3.835      0.000      0.000
REMARK INTER + INTRA:          -4.677
REMARK INTER:                  -4.395
REMARK INTRA:                  -0.282
REMARK UNBOUND:                -0.282
REMARK SMILES O=C(O)c1ccc2nc(-c3cc(Cl)cc(Cl)c3)oc2c1
REMARK SMILES IDX 5 1 6 2 20 3 8 4 18 5 4 6 9 7 7 8 19 9 2 10 1 11 3 12 10 14
REMARK SMILES IDX 11 15 17 16 12 17 15 18 14 19 13 20 16 21
REMARK H PARENT 3 13
ROOT
ATOM      1  C   UNL     1     -16.803   9.898   1.175  1.00  0.00     0.018 A 
ATOM      2  C   UNL     1     -16.827   8.543   1.037  1.00  0.00     0.033 A 
ATOM      3  C   UNL     1     -14.587   9.984   0.195  1.00  0.00     0.065 A 
ATOM      4  N   UNL     1     -15.467   6.578   0.218  1.00  0.00    -0.209 NA
ATOM      5  O   UNL     1     -13.724   7.707  -0.431  1.00  0.00    -0.436 OA
ATOM      6  C   UNL     1     -15.687  10.635   0.755  1.00  0.00     0.063 A 
ATOM      7  C   UNL     1     -14.276   6.484  -0.321  1.00  0.00     0.227 A 
ATOM      8  C   UNL     1     -15.730   7.876   0.477  1.00  0.00     0.110 A 
ATOM      9  C   UNL     1     -14.604   8.608   0.058  1.00  0.00     0.156 A 
ENDROOT
BRANCH   6  10
ATOM     10  C   UNL     1     -15.676  12.102   0.903  1.00  0.00     0.335 C 
ATOM     11  O   UNL     1     -15.996  12.809  -0.031  1.00  0.00    -0.246 OA
BRANCH  10  12
ATOM     12  O   UNL     1     -15.309  12.658   2.075  1.00  0.00    -0.478 OA
ATOM     13  H   UNL     1     -15.903  12.529   2.827  1.00  0.00     0.297 HD
ENDBRANCH  10  12
ENDBRANCH   6  10
BRANCH   7  14
ATOM     14  C   UNL     1     -13.635   5.222  -0.743  1.00  0.00     0.040 A 
ATOM     15  C   UNL     1     -12.269   5.024  -0.533  1.00  0.00     0.034 A 
ATOM     16  C   UNL     1     -14.393   4.222  -1.356  1.00  0.00     0.034 A 
ATOM     17  C   UNL     1     -11.676   3.842  -0.929  1.00  0.00     0.043 A 
ATOM     18  C   UNL     1     -13.788   3.044  -1.748  1.00  0.00     0.043 A 
ATOM     19  C   UNL     1     -12.434   2.854  -1.536  1.00  0.00     0.041 A 
ATOM     20  Cl  UNL     1      -9.978   3.594  -0.668  1.00  0.00    -0.084 Cl
ATOM     21  Cl  UNL     1     -14.729   1.799  -2.510  1.00  0.00    -0.084 Cl
ENDBRANCH   7  14
TORSDOF 3
ENDMDL
MODEL 2
REMARK VINA RESULT:    -3.826      0.006      2.019
REMARK INTER + INTRA:          -4.667
REMARK INTER:                  -4.385
REMARK INTRA:                  -0.282
REMARK UNBOUND:                -0.282
REMARK SMILES O=C(O)c1ccc2nc(-c3cc(Cl)cc(Cl)c3)oc2c1
REMARK SMILES IDX 5 1 6 2 20 3 8 4 18 5 4 6 9 7 7 8 19 9 2 10 1 11 3 12 10 14
REMARK SMILES IDX 11 15 17 16 12 17 15 18 14 19 13 20 16 21
REMARK H PARENT 3 13
ROOT
ATOM      1  C   UNL     1     -16.803   9.901   1.170  1.00  0.00     0.018 A 
ATOM      2  C   UNL     1     -16.828   8.545   1.031  1.00  0.00     0.033 A 
ATOM      3  C   UNL     1     -14.584   9.984   0.195  1.00  0.00     0.065 A 
ATOM      4  N   UNL     1     -15.468   6.579   0.214  1.00  0.00    -0.209 NA
ATOM      5  O   UNL     1     -13.723   7.706  -0.430  1.00  0.00    -0.436 OA
ATOM      6  C   UNL     1     -15.685  10.636   0.753  1.00  0.00     0.063 A 
ATOM      7  C   UNL     1     -14.277   6.484  -0.322  1.00  0.00     0.227 A 
ATOM      8  C   UNL     1     -15.731   7.878   0.473  1.00  0.00     0.110 A 
ATOM      9  C   UNL     1     -14.603   8.608   0.057  1.00  0.00     0.156 A 
ENDROOT
BRANCH   6  10
ATOM     10  C   UNL     1     -15.672  12.103   0.902  1.00  0.00     0.335 C 
ATOM     11  O   UNL     1     -15.985  12.811  -0.034  1.00  0.00    -0.246 OA
BRANCH  10  12
ATOM     12  O   UNL     1     -15.313  12.658   2.076  1.00  0.00    -0.478 OA
ATOM     13  H   UNL     1     -15.515  12.158   2.878  1.00  0.00     0.297 HD
ENDBRANCH  10  12
ENDBRANCH   6  10
BRANCH   7  14
ATOM     14  C   UNL     1     -13.636   5.221  -0.743  1.00  0.00     0.040 A 
ATOM     15  C   UNL     1     -14.394   4.218  -1.350  1.00  0.00     0.034 A 
ATOM     16  C   UNL     1     -12.269   5.026  -0.536  1.00  0.00     0.034 A 
ATOM     17  C   UNL     1     -13.789   3.041  -1.743  1.00  0.00     0.043 A 
ATOM     18  C   UNL     1     -11.676   3.844  -0.933  1.00  0.00     0.043 A 
ATOM     19  C   UNL     1     -12.433   2.854  -1.534  1.00  0.00     0.041 A 
ATOM     20  Cl  UNL     1     -14.730   1.793  -2.498  1.00  0.00    -0.084 Cl
ATOM     21  Cl  UNL     1      -9.976   3.600  -0.676  1.00  0.00    -0.084 Cl
ENDBRANCH   7  14
TORSDOF 3
ENDMDL
MODEL 3
REMARK VINA RESULT:    -3.389      5.078      8.696
REMARK INTER + INTRA:          -4.167
REMARK INTER:                  -3.869
REMARK INTRA:                  -0.298
REMARK UNBOUND:                -0.282
REMARK SMILES O=C(O)c1ccc2nc(-c3cc(Cl)cc(Cl)c3)oc2c1
REMARK SMILES IDX 5 1 6 2 20 3 8 4 18 5 4 6 9 7 7 8 19 9 2 10 1 11 3 12 10 14
REMARK SMILES IDX 11 15 17 16 12 17 15 18 14 19 13 20 16 21
REMARK H PARENT 3 13
ROOT
ATOM      1  C   UNL     1      -7.144   1.405  -2.137  1.00  0.00     0.018 A 
ATOM      2  C   UNL     1      -8.447   1.315  -2.528  1.00  0.00     0.033 A 
ATOM      3  C   UNL     1      -7.690   3.244  -0.654  1.00  0.00     0.065 A 
ATOM      4  N   UNL     1     -10.730   2.340  -2.178  1.00  0.00    -0.209 NA
ATOM      5  O   UNL     1     -10.131   3.842  -0.722  1.00  0.00    -0.436 OA
ATOM      6  C   UNL     1      -6.750   2.366  -1.196  1.00  0.00     0.063 A 
ATOM      7  C   UNL     1     -11.156   3.321  -1.422  1.00  0.00     0.227 A 
ATOM      8  C   UNL     1      -9.401   2.189  -1.991  1.00  0.00     0.110 A 
ATOM      9  C   UNL     1      -9.012   3.159  -1.051  1.00  0.00     0.156 A 
ENDROOT
BRANCH   6  10
ATOM     10  C   UNL     1      -5.339   2.450  -0.777  1.00  0.00     0.335 C 
ATOM     11  O   UNL     1      -4.512   1.717  -1.282  1.00  0.00    -0.246 OA
BRANCH  10  12
ATOM     12  O   UNL     1      -4.967   3.338   0.165  1.00  0.00    -0.478 OA
ATOM     13  H   UNL     1      -4.603   4.178  -0.142  1.00  0.00     0.297 HD
ENDBRANCH  10  12
ENDBRANCH   6  10
BRANCH   7  14
ATOM     14  C   UNL     1     -12.557   3.787  -1.350  1.00  0.00     0.040 A 
ATOM     15  C   UNL     1     -12.875   4.942  -0.635  1.00  0.00     0.034 A 
ATOM     16  C   UNL     1     -13.567   3.072  -1.996  1.00  0.00     0.034 A 
ATOM     17  C   UNL     1     -14.186   5.373  -0.573  1.00  0.00     0.043 A 
ATOM     18  C   UNL     1     -14.873   3.512  -1.926  1.00  0.00     0.043 A 
ATOM     19  C   UNL     1     -15.183   4.659  -1.216  1.00  0.00     0.041 A 
ATOM     20  Cl  UNL     1     -14.584   6.811   0.315  1.00  0.00    -0.084 Cl
ATOM     21  Cl  UNL     1     -16.131   2.624  -2.729  1.00  0.00    -0.084 Cl
ENDBRANCH   7  14
TORSDOF 3
ENDMDL
MODEL 4
REMARK VINA RESULT:    -3.381      5.074      8.854
REMARK INTER + INTRA:          -4.158
REMARK INTER:                  -3.860
REMARK INTRA:                  -0.298
REMARK UNBOUND:                -0.282
REMARK SMILES O=C(O)c1ccc2nc(-c3cc(Cl)cc(Cl)c3)oc2c1
REMARK SMILES IDX 5 1 6 2 20 3 8 4 18 5 4 6 9 7 7 8 19 9 2 10 1 11 3 12 10 14
REMARK SMILES IDX 11 15 17 16 12 17 15 18 14 19 13 20 16 21
REMARK H PARENT 3 13
ROOT
ATOM      1  C   UNL     1      -7.156   1.404  -2.134  1.00  0.00     0.018 A 
ATOM      2  C   UNL     1      -8.459   1.314  -2.524  1.00  0.00     0.033 A 
ATOM      3  C   UNL     1      -7.701   3.244  -0.653  1.00  0.00     0.065 A 
ATOM      4  N   UNL     1     -10.741   2.340  -2.175  1.00  0.00    -0.209 NA
ATOM      5  O   UNL     1     -10.142   3.844  -0.722  1.00  0.00    -0.436 OA
ATOM      6  C   UNL     1      -6.761   2.366  -1.194  1.00  0.00     0.063 A 
ATOM      7  C   UNL     1     -11.167   3.322  -1.420  1.00  0.00     0.227 A 
ATOM      8  C   UNL     1      -9.412   2.189  -1.989  1.00  0.00     0.110 A 
ATOM      9  C   UNL     1      -9.023   3.160  -1.049  1.00  0.00     0.156 A 
ENDROOT
BRANCH   6  10
ATOM     10  C   UNL     1      -5.350   2.449  -0.776  1.00  0.00     0.335 C 
ATOM     11  O   UNL     1      -4.522   1.719  -1.283  1.00  0.00    -0.246 OA
BRANCH  10  12
ATOM     12  O   UNL     1      -4.979   3.334   0.171  1.00  0.00    -0.478 OA
ATOM     13  H   UNL     1      -5.240   3.140   1.081  1.00  0.00     0.297 HD
ENDBRANCH  10  12
ENDBRANCH   6  10
BRANCH   7  14
ATOM     14  C   UNL     1     -12.568   3.789  -1.349  1.00  0.00     0.040 A 
ATOM     15  C   UNL     1     -13.578   3.076  -1.995  1.00  0.00     0.034 A 
ATOM     16  C   UNL     1     -12.884   4.946  -0.634  1.00  0.00     0.034 A 
ATOM     17  C   UNL     1     -14.885   3.516  -1.923  1.00  0.00     0.043 A 
ATOM     18  C   UNL     1     -14.194   5.376  -0.570  1.00  0.00     0.043 A 
ATOM     19  C   UNL     1     -15.192   4.665  -1.213  1.00  0.00     0.041 A 
ATOM     20  Cl  UNL     1     -16.144   2.631  -2.726  1.00  0.00    -0.084 Cl
ATOM     21  Cl  UNL     1     -14.591   6.815   0.318  1.00  0.00    -0.084 Cl
ENDBRANCH   7  14
TORSDOF 3
ENDMDL
MODEL 5
REMARK VINA RESULT:    -3.076      4.021      8.019
REMARK INTER + INTRA:          -3.808
REMARK INTER:                  -3.518
REMARK INTRA:                  -0.290
REMARK UNBOUND:                -0.282
REMARK SMILES O=C(O)c1ccc2nc(-c3cc(Cl)cc(Cl)c3)oc2c1
REMARK SMILES IDX 5 1 6 2 20 3 8 4 18 5 4 6 9 7 7 8 19 9 2 10 1 11 3 12 10 14
REMARK SMILES IDX 11 15 17 16 12 17 15 18 14 19 13 20 16 21
REMARK H PARENT 3 13
ROOT
ATOM      1  C   UNL     1     -10.215   1.980  -0.392  1.00  0.00     0.018 A 
ATOM      2  C   UNL     1     -11.086   2.607   0.447  1.00  0.00     0.033 A 
ATOM      3  C   UNL     1     -10.735   3.562  -2.154  1.00  0.00     0.065 A 
ATOM      4  N   UNL     1     -12.713   4.535   0.587  1.00  0.00    -0.209 NA
ATOM      5  O   UNL     1     -12.438   5.270  -1.442  1.00  0.00    -0.436 OA
ATOM      6  C   UNL     1     -10.027   2.449  -1.700  1.00  0.00     0.063 A 
ATOM      7  C   UNL     1     -13.085   5.449  -0.275  1.00  0.00     0.227 A 
ATOM      8  C   UNL     1     -11.804   3.725   0.004  1.00  0.00     0.110 A 
ATOM      9  C   UNL     1     -11.624   4.199  -1.308  1.00  0.00     0.156 A 
ENDROOT
BRANCH   6  10
ATOM     10  C   UNL     1      -9.077   1.766  -2.596  1.00  0.00     0.335 C 
ATOM     11  O   UNL     1      -8.823   0.589  -2.429  1.00  0.00    -0.246 OA
BRANCH  10  12
ATOM     12  O   UNL     1      -8.488   2.446  -3.600  1.00  0.00    -0.478 OA
ATOM     13  H   UNL     1      -7.581   2.201  -3.823  1.00  0.00     0.297 HD
ENDBRANCH  10  12
ENDBRANCH   6  10
BRANCH   7  14
ATOM     14  C   UNL     1     -14.069   6.517  -0.005  1.00  0.00     0.040 A 
ATOM     15  C   UNL     1     -15.289   6.210   0.599  1.00  0.00     0.034 A 
ATOM     16  C   UNL     1     -13.782   7.838  -0.356  1.00  0.00     0.034 A 
ATOM     17  C   UNL     1     -16.204   7.214   0.849  1.00  0.00     0.043 A 
ATOM     18  C   UNL     1     -14.705   8.832  -0.101  1.00  0.00     0.043 A 
ATOM     19  C   UNL     1     -15.914   8.522   0.499  1.00  0.00     0.041 A 
ATOM     20  Cl  UNL     1     -17.722   6.835   1.601  1.00  0.00    -0.084 Cl
ATOM     21  Cl  UNL     1     -14.351  10.476  -0.535  1.00  0.00    -0.084 Cl
ENDBRANCH   7  14
TORSDOF 3
ENDMDL
MODEL 6
REMARK VINA RESULT:    -3.063      4.017      7.848
REMARK INTER + INTRA:          -3.793
REMARK INTER:                  -3.504
REMARK INTRA:                  -0.289
REMARK UNBOUND:                -0.282
REMARK SMILES O=C(O)c1ccc2nc(-c3cc(Cl)cc(Cl)c3)oc2c1
REMARK SMILES IDX 5 1 6 2 20 3 8 4 18 5 4 6 9 7 7 8 19 9 2 10 1 11 3 12 10 14
REMARK SMILES IDX 11 15 17 16 12 17 15 18 14 19 13 20 16 21
REMARK H PARENT 3 13
ROOT
ATOM      1  C   UNL     1     -10.223   1.993  -0.367  1.00  0.00     0.018 A 
ATOM      2  C   UNL     1     -11.090   2.626   0.472  1.00  0.00     0.033 A 
ATOM      3  C   UNL     1     -10.762   3.556  -2.141  1.00  0.00     0.065 A 
ATOM      4  N   UNL     1     -12.722   4.549   0.605  1.00  0.00    -0.209 NA
ATOM      5  O   UNL     1     -12.465   5.265  -1.433  1.00  0.00    -0.436 OA
ATOM      6  C   UNL     1     -10.046   2.449  -1.681  1.00  0.00     0.063 A 
ATOM      7  C   UNL     1     -13.103   5.453  -0.263  1.00  0.00     0.227 A 
ATOM      8  C   UNL     1     -11.814   3.737   0.023  1.00  0.00     0.110 A 
ATOM      9  C   UNL     1     -11.646   4.198  -1.294  1.00  0.00     0.156 A 
ENDROOT
BRANCH   6  10
ATOM     10  C   UNL     1      -9.101   1.760  -2.578  1.00  0.00     0.335 C 
ATOM     11  O   UNL     1      -8.867   0.578  -2.422  1.00  0.00    -0.246 OA
BRANCH  10  12
ATOM     12  O   UNL     1      -8.494   2.441  -3.571  1.00  0.00    -0.478 OA
ATOM     13  H   UNL     1      -9.064   2.839  -4.242  1.00  0.00     0.297 HD
ENDBRANCH  10  12
ENDBRANCH   6  10
BRANCH   7  14
ATOM     14  C   UNL     1     -14.089   6.521   0.003  1.00  0.00     0.040 A 
ATOM     15  C   UNL     1     -13.798   7.844  -0.332  1.00  0.00     0.034 A 
ATOM     16  C   UNL     1     -15.317   6.210   0.592  1.00  0.00     0.034 A 
ATOM     17  C   UNL     1     -14.724   8.837  -0.081  1.00  0.00     0.043 A 
ATOM     18  C   UNL     1     -16.234   7.212   0.838  1.00  0.00     0.043 A 
ATOM     19  C   UNL     1     -15.939   8.522   0.503  1.00  0.00     0.041 A 
ATOM     20  Cl  UNL     1     -14.364  10.483  -0.498  1.00  0.00    -0.084 Cl
ATOM     21  Cl  UNL     1     -17.761   6.827   1.570  1.00  0.00    -0.084 Cl
ENDBRANCH   7  14
TORSDOF 3
ENDMDL
MODEL 7
REMARK VINA RESULT:    -3.002      4.927      6.483
REMARK INTER + INTRA:          -3.723
REMARK INTER:                  -3.428
REMARK INTRA:                  -0.296
REMARK UNBOUND:                -0.282
REMARK SMILES O=C(O)c1ccc2nc(-c3cc(Cl)cc(Cl)c3)oc2c1
REMARK SMILES IDX 5 1 6 2 20 3 8 4 18 5 4 6 9 7 7 8 19 9 2 10 1 11 3 12 10 14
REMARK SMILES IDX 11 15 17 16 12 17 15 18 14 19 13 20 16 21
REMARK H PARENT 3 13
ROOT
ATOM      1  C   UNL     1     -14.867   5.020  -0.960  1.00  0.00     0.018 A 
ATOM      2  C   UNL     1     -13.588   5.226  -0.537  1.00  0.00     0.033 A 
ATOM      3  C   UNL     1     -14.184   3.006  -2.124  1.00  0.00     0.065 A 
ATOM      4  N   UNL     1     -11.253   4.267  -0.643  1.00  0.00    -0.209 NA
ATOM      5  O   UNL     1     -11.725   2.543  -1.883  1.00  0.00    -0.436 OA
ATOM      6  C   UNL     1     -15.182   3.910  -1.755  1.00  0.00     0.063 A 
ATOM      7  C   UNL     1     -10.754   3.207  -1.228  1.00  0.00     0.227 A 
ATOM      8  C   UNL     1     -12.577   4.328  -0.901  1.00  0.00     0.110 A 
ATOM      9  C   UNL     1     -12.884   3.214  -1.702  1.00  0.00     0.156 A 
ENDROOT
BRANCH   6  10
ATOM     10  C   UNL     1     -16.571   3.694  -2.200  1.00  0.00     0.335 C 
ATOM     11  O   UNL     1     -16.906   2.614  -2.643  1.00  0.00    -0.246 OA
BRANCH  10  12
ATOM     12  O   UNL     1     -17.469   4.696  -2.117  1.00  0.00    -0.478 OA
ATOM     13  H   UNL     1     -17.750   5.103  -2.948  1.00  0.00     0.297 HD
ENDBRANCH  10  12
ENDBRANCH   6  10
BRANCH   7  14
ATOM     14  C   UNL     1      -9.334   2.800  -1.177  1.00  0.00     0.040 A 
ATOM     15  C   UNL     1      -8.527   3.205  -0.113  1.00  0.00     0.034 A 
ATOM     16  C   UNL     1      -8.795   2.010  -2.194  1.00  0.00     0.034 A 
ATOM     17  C   UNL     1      -7.202   2.821  -0.070  1.00  0.00     0.043 A 
ATOM     18  C   UNL     1      -7.468   1.632  -2.140  1.00  0.00     0.043 A 
ATOM     19  C   UNL     1      -6.673   2.037  -1.082  1.00  0.00     0.041 A 
ATOM     20  Cl  UNL     1      -6.196   3.323   1.252  1.00  0.00    -0.084 Cl
ATOM     21  Cl  UNL     1      -6.795   0.649  -3.403  1.00  0.00    -0.084 Cl
ENDBRANCH   7  14
TORSDOF 3
ENDMDL
MODEL 8
REMARK VINA RESULT:    -2.990      3.751      5.823
REMARK INTER + INTRA:          -3.709
REMARK INTER:                  -3.412
REMARK INTRA:                  -0.297
REMARK UNBOUND:                -0.282
REMARK SMILES O=C(O)c1ccc2nc(-c3cc(Cl)cc(Cl)c3)oc2c1
REMARK SMILES IDX 5 1 6 2 20 3 8 4 18 5 4 6 9 7 7 8 19 9 2 10 1 11 3 12 10 14
REMARK SMILES IDX 11 15 17 16 12 17 15 18 14 19 13 20 16 21
REMARK H PARENT 3 13
ROOT
ATOM      1  C   UNL     1     -15.127   4.340  -1.390  1.00  0.00     0.018 A 
ATOM      2  C   UNL     1     -14.213   3.462  -1.891  1.00  0.00     0.033 A 
ATOM      3  C   UNL     1     -13.376   5.519  -0.196  1.00  0.00     0.065 A 
ATOM      4  N   UNL     1     -11.752   2.894  -1.883  1.00  0.00    -0.209 NA
ATOM      5  O   UNL     1     -11.108   4.496  -0.559  1.00  0.00    -0.436 OA
ATOM      6  C   UNL     1     -14.722   5.379  -0.540  1.00  0.00     0.063 A 
ATOM      7  C   UNL     1     -10.717   3.436  -1.291  1.00  0.00     0.227 A 
ATOM      8  C   UNL     1     -12.860   3.591  -1.554  1.00  0.00     0.110 A 
ATOM      9  C   UNL     1     -12.446   4.627  -0.698  1.00  0.00     0.156 A 
ENDROOT
BRANCH   6  10
ATOM     10  C   UNL     1     -15.718   6.326  -0.010  1.00  0.00     0.335 C 
ATOM     11  O   UNL     1     -15.356   7.301   0.618  1.00  0.00    -0.246 OA
BRANCH  10  12
ATOM     12  O   UNL     1     -17.032   6.111  -0.220  1.00  0.00    -0.478 OA
ATOM     13  H   UNL     1     -17.621   6.212   0.540  1.00  0.00     0.297 HD
ENDBRANCH  10  12
ENDBRANCH   6  10
BRANCH   7  14
ATOM     14  C   UNL     1      -9.325   2.953  -1.408  1.00  0.00     0.040 A 
ATOM     15  C   UNL     1      -8.938   2.191  -2.511  1.00  0.00     0.034 A 
ATOM     16  C   UNL     1      -8.392   3.258  -0.415  1.00  0.00     0.034 A 
ATOM     17  C   UNL     1      -7.635   1.744  -2.615  1.00  0.00     0.043 A 
ATOM     18  C   UNL     1      -7.093   2.805  -0.530  1.00  0.00     0.043 A 
ATOM     19  C   UNL     1      -6.715   2.049  -1.627  1.00  0.00     0.041 A 
ATOM     20  Cl  UNL     1      -7.151   0.796  -3.986  1.00  0.00    -0.084 Cl
ATOM     21  Cl  UNL     1      -5.931   3.183   0.704  1.00  0.00    -0.084 Cl
ENDBRANCH   7  14
TORSDOF 3
ENDMDL
MODEL 9
REMARK VINA RESULT:    -2.982      3.752      5.594
REMARK INTER + INTRA:          -3.700
REMARK INTER:                  -3.404
REMARK INTRA:                  -0.296
REMARK UNBOUND:                -0.282
REMARK SMILES O=C(O)c1ccc2nc(-c3cc(Cl)cc(Cl)c3)oc2c1
REMARK SMILES IDX 5 1 6 2 20 3 8 4 18 5 4 6 9 7 7 8 19 9 2 10 1 11 3 12 10 14
REMARK SMILES IDX 11 15 17 16 12 17 15 18 14 19 13 20 16 21
REMARK H PARENT 3 13
ROOT
ATOM      1  C   UNL     1     -15.128   4.339  -1.392  1.00  0.00     0.018 A 
ATOM      2  C   UNL     1     -14.213   3.462  -1.892  1.00  0.00     0.033 A 
ATOM      3  C   UNL     1     -13.378   5.519  -0.196  1.00  0.00     0.065 A 
ATOM      4  N   UNL     1     -11.751   2.895  -1.882  1.00  0.00    -0.209 NA
ATOM      5  O   UNL     1     -11.110   4.497  -0.557  1.00  0.00    -0.436 OA
ATOM      6  C   UNL     1     -14.724   5.378  -0.541  1.00  0.00     0.063 A 
ATOM      7  C   UNL     1     -10.717   3.438  -1.289  1.00  0.00     0.227 A 
ATOM      8  C   UNL     1     -12.860   3.591  -1.554  1.00  0.00     0.110 A 
ATOM      9  C   UNL     1     -12.448   4.627  -0.697  1.00  0.00     0.156 A 
ENDROOT
BRANCH   6  10
ATOM     10  C   UNL     1     -15.722   6.325  -0.011  1.00  0.00     0.335 C 
ATOM     11  O   UNL     1     -15.360   7.300   0.617  1.00  0.00    -0.246 OA
BRANCH  10  12
ATOM     12  O   UNL     1     -17.035   6.109  -0.222  1.00  0.00    -0.478 OA
ATOM     13  H   UNL     1     -17.290   5.766  -1.090  1.00  0.00     0.297 HD
ENDBRANCH  10  12
ENDBRANCH   6  10
BRANCH   7  14
ATOM     14  C   UNL     1      -9.325   2.956  -1.405  1.00  0.00     0.040 A 
ATOM     15  C   UNL     1      -8.392   3.262  -0.413  1.00  0.00     0.034 A 
ATOM     16  C   UNL     1      -8.937   2.194  -2.509  1.00  0.00     0.034 A 
ATOM     17  C   UNL     1      -7.093   2.808  -0.527  1.00  0.00     0.043 A 
ATOM     18  C   UNL     1      -7.635   1.746  -2.612  1.00  0.00     0.043 A 
ATOM     19  C   UNL     1      -6.715   2.052  -1.624  1.00  0.00     0.041 A 
ATOM     20  Cl  UNL     1      -5.931   3.186   0.706  1.00  0.00    -0.084 Cl
ATOM     21  Cl  UNL     1      -7.151   0.798  -3.984  1.00  0.00    -0.084 Cl
ENDBRANCH   7  14
TORSDOF 3
ENDMDL
