MODEL 1
REMARK VINA RESULT:    -4.887      0.000      0.000
REMARK INTER + INTRA:          -7.363
REMARK INTER:                  -6.744
REMARK INTRA:                  -0.619
REMARK UNBOUND:                -0.619
REMARK SMILES Cc1n[nH]c(C)c1CCCOc1cc(C(=O)O)ccc1F
REMARK SMILES IDX 11 1 12 2 14 3 18 4 13 5 19 6 20 7 21 8 15 9 16 10 17 11
REMARK SMILES IDX 10 13 9 14 8 15 7 16 5 17 2 18 4 19 3 20 6 21 1 22
REMARK H PARENT 17 12 4 23
ROOT
ATOM      1  O   UNL     1      -9.524   2.875   0.874  1.00  0.00    -0.490 OA
ENDROOT
BRANCH   1   2
ATOM      2  C   UNL     1      -8.479   2.609   0.046  1.00  0.00     0.155 A 
ATOM      3  C   UNL     1      -7.638   1.863  -2.080  1.00  0.00     0.063 A 
ATOM      4  C   UNL     1      -6.331   2.082  -1.635  1.00  0.00     0.019 A 
ATOM      5  C   UNL     1      -8.713   2.130  -1.230  1.00  0.00     0.065 A 
ATOM      6  C   UNL     1      -6.108   2.566  -0.363  1.00  0.00     0.044 A 
ATOM      7  C   UNL     1      -7.176   2.834   0.476  1.00  0.00     0.165 A 
ATOM      8  F   UNL     1      -6.951   3.308   1.722  1.00  0.00    -0.203 F 
BRANCH   3   9
ATOM      9  C   UNL     1      -7.880   1.346  -3.441  1.00  0.00     0.335 C 
ATOM     10  O   UNL     1      -8.779   0.555  -3.639  1.00  0.00    -0.246 OA
BRANCH   9  11
ATOM     11  O   UNL     1      -7.107   1.758  -4.465  1.00  0.00    -0.478 OA
ATOM     12  H   UNL     1      -7.477   1.677  -5.355  1.00  0.00     0.297 HD
ENDBRANCH   9  11
ENDBRANCH   3   9
ENDBRANCH   1   2
BRANCH   1  13
ATOM     13  C   UNL     1     -10.729   2.136   0.656  1.00  0.00     0.230 C 
BRANCH  13  14
ATOM     14  C   UNL     1     -11.921   3.095   0.660  1.00  0.00     0.046 C 
BRANCH  14  15
ATOM     15  C   UNL     1     -12.016   3.797  -0.696  1.00  0.00     0.043 C 
BRANCH  15  16
ATOM     16  C   UNL     1     -13.425   4.283  -0.913  1.00  0.00    -0.004 A 
ATOM     17  C   UNL     1     -14.402   3.623  -1.578  1.00  0.00     0.036 A 
ATOM     18  C   UNL     1     -13.957   5.494  -0.459  1.00  0.00     0.063 A 
ATOM     19  N   UNL     1     -15.510   4.392  -1.550  1.00  0.00    -0.282 N 
ATOM     20  N   UNL     1     -15.205   5.564  -0.846  1.00  0.00    -0.181 NA
ATOM     21  C   UNL     1     -14.274   2.271  -2.230  1.00  0.00     0.066 C 
ATOM     22  C   UNL     1     -13.217   6.545   0.330  1.00  0.00     0.069 C 
ATOM     23  H   UNL     1     -16.367   4.172  -1.948  1.00  0.00     0.190 HD
ENDBRANCH  15  16
ENDBRANCH  14  15
ENDBRANCH  13  14
ENDBRANCH   1  13
TORSDOF 7
ENDMDL
MODEL 2
REMARK VINA RESULT:    -4.866      2.079      3.770
REMARK INTER + INTRA:          -7.334
REMARK INTER:                  -6.733
REMARK INTRA:                  -0.601
REMARK UNBOUND:                -0.619
REMARK SMILES Cc1n[nH]c(C)c1CCCOc1cc(C(=O)O)ccc1F
REMARK SMILES IDX 11 1 12 2 14 3 18 4 13 5 19 6 20 7 21 8 15 9 16 10 17 11
REMARK SMILES IDX 10 13 9 14 8 15 7 16 5 17 2 18 4 19 3 20 6 21 1 22
REMARK H PARENT 17 12 4 23
ROOT
ATOM      1  O   UNL     1      -9.555   2.928  -3.464  1.00  0.00    -0.490 OA
ENDROOT
BRANCH   1   2
ATOM      2  C   UNL     1      -8.510   2.561  -2.676  1.00  0.00     0.155 A 
ATOM      3  C   UNL     1      -7.338   2.669  -0.579  1.00  0.00     0.063 A 
ATOM      4  C   UNL     1      -6.373   1.791  -1.077  1.00  0.00     0.019 A 
ATOM      5  C   UNL     1      -8.410   3.053  -1.387  1.00  0.00     0.065 A 
ATOM      6  C   UNL     1      -6.484   1.301  -2.361  1.00  0.00     0.044 A 
ATOM      7  C   UNL     1      -7.551   1.678  -3.160  1.00  0.00     0.165 A 
ATOM      8  F   UNL     1      -7.654   1.195  -4.417  1.00  0.00    -0.203 F 
BRANCH   3   9
ATOM      9  C   UNL     1      -7.222   3.195   0.796  1.00  0.00     0.335 C 
ATOM     10  O   UNL     1      -7.569   4.332   1.042  1.00  0.00    -0.246 OA
BRANCH   9  11
ATOM     11  O   UNL     1      -6.738   2.410   1.778  1.00  0.00    -0.478 OA
ATOM     12  H   UNL     1      -7.075   2.566   2.671  1.00  0.00     0.297 HD
ENDBRANCH   9  11
ENDBRANCH   3   9
ENDBRANCH   1   2
BRANCH   1  13
ATOM     13  C   UNL     1     -10.086   4.241  -3.268  1.00  0.00     0.230 C 
BRANCH  13  14
ATOM     14  C   UNL     1     -11.613   4.169  -3.208  1.00  0.00     0.046 C 
BRANCH  14  15
ATOM     15  C   UNL     1     -12.044   3.613  -1.850  1.00  0.00     0.043 C 
BRANCH  15  16
ATOM     16  C   UNL     1     -13.475   4.000  -1.579  1.00  0.00    -0.004 A 
ATOM     17  C   UNL     1     -13.889   5.086  -0.886  1.00  0.00     0.036 A 
ATOM     18  C   UNL     1     -14.611   3.304  -2.006  1.00  0.00     0.063 A 
ATOM     19  N   UNL     1     -15.239   5.074  -0.869  1.00  0.00    -0.282 N 
ATOM     20  N   UNL     1     -15.668   3.942  -1.575  1.00  0.00    -0.181 NA
ATOM     21  C   UNL     1     -13.002   6.123  -0.248  1.00  0.00     0.066 C 
ATOM     22  C   UNL     1     -14.615   2.030  -2.813  1.00  0.00     0.069 C 
ATOM     23  H   UNL     1     -15.810   5.731  -0.443  1.00  0.00     0.190 HD
ENDBRANCH  15  16
ENDBRANCH  14  15
ENDBRANCH  13  14
ENDBRANCH   1  13
TORSDOF 7
ENDMDL
MODEL 3
REMARK VINA RESULT:    -4.802      3.254      4.598
REMARK INTER + INTRA:          -7.246
REMARK INTER:                  -6.731
REMARK INTRA:                  -0.515
REMARK UNBOUND:                -0.619
REMARK SMILES Cc1n[nH]c(C)c1CCCOc1cc(C(=O)O)ccc1F
REMARK SMILES IDX 11 1 12 2 14 3 18 4 13 5 19 6 20 7 21 8 15 9 16 10 17 11
REMARK SMILES IDX 10 13 9 14 8 15 7 16 5 17 2 18 4 19 3 20 6 21 1 22
REMARK H PARENT 17 12 4 23
ROOT
ATOM      1  O   UNL     1     -13.320   4.432  -0.402  1.00  0.00    -0.490 OA
ENDROOT
BRANCH   1   2
ATOM      2  C   UNL     1     -12.127   3.822  -0.635  1.00  0.00     0.155 A 
ATOM      3  C   UNL     1     -10.241   3.403  -2.065  1.00  0.00     0.063 A 
ATOM      4  C   UNL     1      -9.687   2.574  -1.086  1.00  0.00     0.019 A 
ATOM      5  C   UNL     1     -11.468   4.027  -1.832  1.00  0.00     0.065 A 
ATOM      6  C   UNL     1     -10.349   2.381   0.108  1.00  0.00     0.044 A 
ATOM      7  C   UNL     1     -11.564   3.005   0.339  1.00  0.00     0.165 A 
ATOM      8  F   UNL     1     -12.208   2.811   1.511  1.00  0.00    -0.203 F 
BRANCH   3   9
ATOM      9  C   UNL     1      -9.534   3.613  -3.344  1.00  0.00     0.335 C 
ATOM     10  O   UNL     1      -8.455   3.091  -3.535  1.00  0.00    -0.246 OA
BRANCH   9  11
ATOM     11  O   UNL     1     -10.091   4.378  -4.303  1.00  0.00    -0.478 OA
ATOM     12  H   UNL     1      -9.501   4.721  -4.990  1.00  0.00     0.297 HD
ENDBRANCH   9  11
ENDBRANCH   3   9
ENDBRANCH   1   2
BRANCH   1  13
ATOM     13  C   UNL     1     -13.357   5.855  -0.533  1.00  0.00     0.230 C 
BRANCH  13  14
ATOM     14  C   UNL     1     -14.127   6.455   0.644  1.00  0.00     0.046 C 
BRANCH  14  15
ATOM     15  C   UNL     1     -15.547   6.811   0.197  1.00  0.00     0.043 C 
BRANCH  15  16
ATOM     16  C   UNL     1     -15.964   8.110   0.836  1.00  0.00    -0.004 A 
ATOM     17  C   UNL     1     -16.842   8.250   1.857  1.00  0.00     0.036 A 
ATOM     18  C   UNL     1     -15.509   9.385   0.483  1.00  0.00     0.063 A 
ATOM     19  N   UNL     1     -16.943   9.566   2.136  1.00  0.00    -0.282 N 
ATOM     20  N   UNL     1     -16.100  10.259   1.257  1.00  0.00    -0.181 NA
ATOM     21  C   UNL     1     -17.574   7.135   2.557  1.00  0.00     0.066 C 
ATOM     22  C   UNL     1     -14.518   9.699  -0.608  1.00  0.00     0.069 C 
ATOM     23  H   UNL     1     -17.501   9.963   2.822  1.00  0.00     0.190 HD
ENDBRANCH  15  16
ENDBRANCH  14  15
ENDBRANCH  13  14
ENDBRANCH   1  13
TORSDOF 7
ENDMDL
MODEL 4
REMARK VINA RESULT:    -4.782      3.255      4.676
REMARK INTER + INTRA:          -7.219
REMARK INTER:                  -6.713
REMARK INTRA:                  -0.506
REMARK UNBOUND:                -0.619
REMARK SMILES Cc1n[nH]c(C)c1CCCOc1cc(C(=O)O)ccc1F
REMARK SMILES IDX 11 1 12 2 14 3 18 4 13 5 19 6 20 7 21 8 15 9 16 10 17 11
REMARK SMILES IDX 10 13 9 14 8 15 7 16 5 17 2 18 4 19 3 20 6 21 1 22
REMARK H PARENT 17 12 4 23
ROOT
ATOM      1  O   UNL     1     -13.314   4.457  -0.441  1.00  0.00    -0.490 OA
ENDROOT
BRANCH   1   2
ATOM      2  C   UNL     1     -12.125   3.837  -0.663  1.00  0.00     0.155 A 
ATOM      3  C   UNL     1     -10.232   3.395  -2.079  1.00  0.00     0.063 A 
ATOM      4  C   UNL     1      -9.691   2.568  -1.091  1.00  0.00     0.019 A 
ATOM      5  C   UNL     1     -11.456   4.030  -1.857  1.00  0.00     0.065 A 
ATOM      6  C   UNL     1     -10.362   2.386   0.100  1.00  0.00     0.044 A 
ATOM      7  C   UNL     1     -11.574   3.021   0.319  1.00  0.00     0.165 A 
ATOM      8  F   UNL     1     -12.226   2.838   1.488  1.00  0.00    -0.203 F 
BRANCH   3   9
ATOM      9  C   UNL     1      -9.516   3.592  -3.354  1.00  0.00     0.335 C 
ATOM     10  O   UNL     1      -8.459   3.028  -3.551  1.00  0.00    -0.246 OA
BRANCH   9  11
ATOM     11  O   UNL     1     -10.039   4.393  -4.303  1.00  0.00    -0.478 OA
ATOM     12  H   UNL     1      -9.579   5.227  -4.477  1.00  0.00     0.297 HD
ENDBRANCH   9  11
ENDBRANCH   3   9
ENDBRANCH   1   2
BRANCH   1  13
ATOM     13  C   UNL     1     -13.328   5.884  -0.532  1.00  0.00     0.230 C 
BRANCH  13  14
ATOM     14  C   UNL     1     -14.117   6.460   0.645  1.00  0.00     0.046 C 
BRANCH  14  15
ATOM     15  C   UNL     1     -15.529   6.827   0.182  1.00  0.00     0.043 C 
BRANCH  15  16
ATOM     16  C   UNL     1     -15.948   8.124   0.824  1.00  0.00    -0.004 A 
ATOM     17  C   UNL     1     -15.515   9.359   0.481  1.00  0.00     0.036 A 
ATOM     18  C   UNL     1     -16.859   8.264   1.877  1.00  0.00     0.063 A 
ATOM     19  N   UNL     1     -16.125  10.249   1.292  1.00  0.00    -0.282 N 
ATOM     20  N   UNL     1     -16.961   9.537   2.163  1.00  0.00    -0.181 NA
ATOM     21  C   UNL     1     -14.529   9.683  -0.611  1.00  0.00     0.066 C 
ATOM     22  C   UNL     1     -17.588   7.142   2.570  1.00  0.00     0.069 C 
ATOM     23  H   UNL     1     -16.006  11.211   1.276  1.00  0.00     0.190 HD
ENDBRANCH  15  16
ENDBRANCH  14  15
ENDBRANCH  13  14
ENDBRANCH   1  13
TORSDOF 7
ENDMDL
MODEL 5
REMARK VINA RESULT:    -4.669      0.156      1.776
REMARK INTER + INTRA:          -7.062
REMARK INTER:                  -6.408
REMARK INTRA:                  -0.654
REMARK UNBOUND:                -0.619
REMARK SMILES Cc1n[nH]c(C)c1CCCOc1cc(C(=O)O)ccc1F
REMARK SMILES IDX 11 1 12 2 14 3 18 4 13 5 19 6 20 7 21 8 15 9 16 10 17 11
REMARK SMILES IDX 10 13 9 14 8 15 7 16 5 17 2 18 4 19 3 20 6 21 1 22
REMARK H PARENT 17 12 4 23
ROOT
ATOM      1  O   UNL     1      -9.570   2.523   1.019  1.00  0.00    -0.490 OA
ENDROOT
BRANCH   1   2
ATOM      2  C   UNL     1      -8.514   2.423   0.169  1.00  0.00     0.155 A 
ATOM      3  C   UNL     1      -7.623   1.882  -1.998  1.00  0.00     0.063 A 
ATOM      4  C   UNL     1      -6.345   2.235  -1.556  1.00  0.00     0.019 A 
ATOM      5  C   UNL     1      -8.709   1.979  -1.126  1.00  0.00     0.065 A 
ATOM      6  C   UNL     1      -6.161   2.682  -0.265  1.00  0.00     0.044 A 
ATOM      7  C   UNL     1      -7.241   2.782   0.597  1.00  0.00     0.165 A 
ATOM      8  F   UNL     1      -7.054   3.221   1.861  1.00  0.00    -0.203 F 
BRANCH   3   9
ATOM      9  C   UNL     1      -7.823   1.404  -3.380  1.00  0.00     0.335 C 
ATOM     10  O   UNL     1      -8.756   0.672  -3.641  1.00  0.00    -0.246 OA
BRANCH   9  11
ATOM     11  O   UNL     1      -6.973   1.784  -4.354  1.00  0.00    -0.478 OA
ATOM     12  H   UNL     1      -6.365   2.508  -4.149  1.00  0.00     0.297 HD
ENDBRANCH   9  11
ENDBRANCH   3   9
ENDBRANCH   1   2
BRANCH   1  13
ATOM     13  C   UNL     1     -10.835   2.059   0.540  1.00  0.00     0.230 C 
BRANCH  13  14
ATOM     14  C   UNL     1     -11.860   3.191   0.630  1.00  0.00     0.046 C 
BRANCH  14  15
ATOM     15  C   UNL     1     -12.030   3.835  -0.748  1.00  0.00     0.043 C 
BRANCH  15  16
ATOM     16  C   UNL     1     -13.458   4.282  -0.921  1.00  0.00    -0.004 A 
ATOM     17  C   UNL     1     -13.989   5.444  -0.473  1.00  0.00     0.036 A 
ATOM     18  C   UNL     1     -14.469   3.573  -1.578  1.00  0.00     0.063 A 
ATOM     19  N   UNL     1     -15.291   5.466  -0.829  1.00  0.00    -0.282 N 
ATOM     20  N   UNL     1     -15.569   4.278  -1.518  1.00  0.00    -0.181 NA
ATOM     21  C   UNL     1     -13.258   6.520   0.286  1.00  0.00     0.066 C 
ATOM     22  C   UNL     1     -14.319   2.223  -2.233  1.00  0.00     0.069 C 
ATOM     23  H   UNL     1     -15.922   6.177  -0.640  1.00  0.00     0.190 HD
ENDBRANCH  15  16
ENDBRANCH  14  15
ENDBRANCH  13  14
ENDBRANCH   1  13
TORSDOF 7
ENDMDL
MODEL 6
REMARK VINA RESULT:    -4.621      3.764      5.598
REMARK INTER + INTRA:          -6.996
REMARK INTER:                  -6.409
REMARK INTRA:                  -0.587
REMARK UNBOUND:                -0.619
REMARK SMILES Cc1n[nH]c(C)c1CCCOc1cc(C(=O)O)ccc1F
REMARK SMILES IDX 11 1 12 2 14 3 18 4 13 5 19 6 20 7 21 8 15 9 16 10 17 11
REMARK SMILES IDX 10 13 9 14 8 15 7 16 5 17 2 18 4 19 3 20 6 21 1 22
REMARK H PARENT 17 12 4 23
ROOT
ATOM      1  O   UNL     1     -13.702   5.141  -0.836  1.00  0.00    -0.490 OA
ENDROOT
BRANCH   1   2
ATOM      2  C   UNL     1     -12.612   4.331  -0.910  1.00  0.00     0.155 A 
ATOM      3  C   UNL     1     -11.098   2.769   0.115  1.00  0.00     0.063 A 
ATOM      4  C   UNL     1     -10.390   2.674  -1.085  1.00  0.00     0.019 A 
ATOM      5  C   UNL     1     -12.215   3.604   0.197  1.00  0.00     0.065 A 
ATOM      6  C   UNL     1     -10.797   3.398  -2.185  1.00  0.00     0.044 A 
ATOM      7  C   UNL     1     -11.908   4.222  -2.104  1.00  0.00     0.165 A 
ATOM      8  F   UNL     1     -12.302   4.929  -3.186  1.00  0.00    -0.203 F 
BRANCH   3   9
ATOM      9  C   UNL     1     -10.665   1.995   1.295  1.00  0.00     0.335 C 
ATOM     10  O   UNL     1      -9.654   1.326   1.244  1.00  0.00    -0.246 OA
BRANCH   9  11
ATOM     11  O   UNL     1     -11.389   2.037   2.431  1.00  0.00    -0.478 OA
ATOM     12  H   UNL     1     -11.060   1.522   3.181  1.00  0.00     0.297 HD
ENDBRANCH   9  11
ENDBRANCH   3   9
ENDBRANCH   1   2
BRANCH   1  13
ATOM     13  C   UNL     1     -13.517   6.424  -0.232  1.00  0.00     0.230 C 
BRANCH  13  14
ATOM     14  C   UNL     1     -14.542   6.612   0.887  1.00  0.00     0.046 C 
BRANCH  14  15
ATOM     15  C   UNL     1     -15.857   7.122   0.294  1.00  0.00     0.043 C 
BRANCH  15  16
ATOM     16  C   UNL     1     -16.224   8.434   0.936  1.00  0.00    -0.004 A 
ATOM     17  C   UNL     1     -17.064   8.601   1.984  1.00  0.00     0.036 A 
ATOM     18  C   UNL     1     -15.751   9.696   0.560  1.00  0.00     0.063 A 
ATOM     19  N   UNL     1     -17.126   9.921   2.256  1.00  0.00    -0.282 N 
ATOM     20  N   UNL     1     -16.296  10.588   1.345  1.00  0.00    -0.181 NA
ATOM     21  C   UNL     1     -17.799   7.508   2.715  1.00  0.00     0.066 C 
ATOM     22  C   UNL     1     -14.789   9.979  -0.566  1.00  0.00     0.069 C 
ATOM     23  H   UNL     1     -17.653  10.335   2.957  1.00  0.00     0.190 HD
ENDBRANCH  15  16
ENDBRANCH  14  15
ENDBRANCH  13  14
ENDBRANCH   1  13
TORSDOF 7
ENDMDL
MODEL 7
REMARK VINA RESULT:    -4.397      3.473      5.387
REMARK INTER + INTRA:          -6.686
REMARK INTER:                  -6.050
REMARK INTRA:                  -0.637
REMARK UNBOUND:                -0.619
REMARK SMILES Cc1n[nH]c(C)c1CCCOc1cc(C(=O)O)ccc1F
REMARK SMILES IDX 11 1 12 2 14 3 18 4 13 5 19 6 20 7 21 8 15 9 16 10 17 11
REMARK SMILES IDX 10 13 9 14 8 15 7 16 5 17 2 18 4 19 3 20 6 21 1 22
REMARK H PARENT 17 12 4 23
ROOT
ATOM      1  O   UNL     1     -13.657   4.912  -1.085  1.00  0.00    -0.490 OA
ENDROOT
BRANCH   1   2
ATOM      2  C   UNL     1     -12.494   4.208  -1.131  1.00  0.00     0.155 A 
ATOM      3  C   UNL     1     -10.872   2.784  -0.072  1.00  0.00     0.063 A 
ATOM      4  C   UNL     1     -10.121   2.769  -1.250  1.00  0.00     0.019 A 
ATOM      5  C   UNL     1     -12.064   3.510  -0.019  1.00  0.00     0.065 A 
ATOM      6  C   UNL     1     -10.561   3.464  -2.357  1.00  0.00     0.044 A 
ATOM      7  C   UNL     1     -11.746   4.179  -2.303  1.00  0.00     0.165 A 
ATOM      8  F   UNL     1     -12.172   4.857  -3.391  1.00  0.00    -0.203 F 
BRANCH   3   9
ATOM      9  C   UNL     1     -10.405   2.041   1.115  1.00  0.00     0.335 C 
ATOM     10  O   UNL     1      -9.313   1.510   1.108  1.00  0.00    -0.246 OA
BRANCH   9  11
ATOM     11  O   UNL     1     -11.187   1.957   2.209  1.00  0.00    -0.478 OA
ATOM     12  H   UNL     1     -12.144   1.981   2.067  1.00  0.00     0.297 HD
ENDBRANCH   9  11
ENDBRANCH   3   9
ENDBRANCH   1   2
BRANCH   1  13
ATOM     13  C   UNL     1     -13.803   5.854  -0.020  1.00  0.00     0.230 C 
BRANCH  13  14
ATOM     14  C   UNL     1     -13.563   7.267  -0.553  1.00  0.00     0.046 C 
BRANCH  14  15
ATOM     15  C   UNL     1     -13.962   8.289   0.514  1.00  0.00     0.043 C 
BRANCH  15  16
ATOM     16  C   UNL     1     -15.295   8.894   0.157  1.00  0.00    -0.004 A 
ATOM     17  C   UNL     1     -15.503   9.904  -0.720  1.00  0.00     0.036 A 
ATOM     18  C   UNL     1     -16.538   8.507   0.670  1.00  0.00     0.063 A 
ATOM     19  N   UNL     1     -16.829  10.151  -0.756  1.00  0.00    -0.282 N 
ATOM     20  N   UNL     1     -17.457   9.265   0.128  1.00  0.00    -0.181 NA
ATOM     21  C   UNL     1     -14.443  10.622  -1.514  1.00  0.00     0.066 C 
ATOM     22  C   UNL     1     -16.776   7.415   1.681  1.00  0.00     0.069 C 
ATOM     23  H   UNL     1     -17.269  10.824  -1.298  1.00  0.00     0.190 HD
ENDBRANCH  15  16
ENDBRANCH  14  15
ENDBRANCH  13  14
ENDBRANCH   1  13
TORSDOF 7
ENDMDL
MODEL 8
REMARK VINA RESULT:    -3.923      3.911      7.132
REMARK INTER + INTRA:          -6.033
REMARK INTER:                  -5.248
REMARK INTRA:                  -0.785
REMARK UNBOUND:                -0.619
REMARK SMILES Cc1n[nH]c(C)c1CCCOc1cc(C(=O)O)ccc1F
REMARK SMILES IDX 11 1 12 2 14 3 18 4 13 5 19 6 20 7 21 8 15 9 16 10 17 11
REMARK SMILES IDX 10 13 9 14 8 15 7 16 5 17 2 18 4 19 3 20 6 21 1 22
REMARK H PARENT 17 12 4 23
ROOT
ATOM      1  O   UNL     1     -11.388   2.767  -2.085  1.00  0.00    -0.490 OA
ENDROOT
BRANCH   1   2
ATOM      2  C   UNL     1     -12.511   3.447  -1.730  1.00  0.00     0.155 A 
ATOM      3  C   UNL     1     -13.562   5.339  -0.682  1.00  0.00     0.063 A 
ATOM      4  C   UNL     1     -14.816   4.826  -1.023  1.00  0.00     0.019 A 
ATOM      5  C   UNL     1     -12.407   4.641  -1.041  1.00  0.00     0.065 A 
ATOM      6  C   UNL     1     -14.910   3.638  -1.716  1.00  0.00     0.044 A 
ATOM      7  C   UNL     1     -13.763   2.949  -2.075  1.00  0.00     0.165 A 
ATOM      8  F   UNL     1     -13.861   1.785  -2.754  1.00  0.00    -0.203 F 
BRANCH   3   9
ATOM      9  C   UNL     1     -13.458   6.611   0.059  1.00  0.00     0.335 C 
ATOM     10  O   UNL     1     -13.153   7.631  -0.524  1.00  0.00    -0.246 OA
BRANCH   9  11
ATOM     11  O   UNL     1     -13.709   6.641   1.383  1.00  0.00    -0.478 OA
ATOM     12  H   UNL     1     -13.999   7.485   1.756  1.00  0.00     0.297 HD
ENDBRANCH   9  11
ENDBRANCH   3   9
ENDBRANCH   1   2
BRANCH   1  13
ATOM     13  C   UNL     1     -10.280   3.541  -2.548  1.00  0.00     0.230 C 
BRANCH  13  14
ATOM     14  C   UNL     1      -9.085   2.620  -2.801  1.00  0.00     0.046 C 
BRANCH  14  15
ATOM     15  C   UNL     1      -9.052   1.524  -1.734  1.00  0.00     0.043 C 
BRANCH  15  16
ATOM     16  C   UNL     1      -8.306   2.022  -0.523  1.00  0.00    -0.004 A 
ATOM     17  C   UNL     1      -8.851   2.327   0.678  1.00  0.00     0.036 A 
ATOM     18  C   UNL     1      -6.928   2.246  -0.440  1.00  0.00     0.063 A 
ATOM     19  N   UNL     1      -7.853   2.735   1.490  1.00  0.00    -0.282 N 
ATOM     20  N   UNL     1      -6.656   2.680   0.764  1.00  0.00    -0.181 NA
ATOM     21  C   UNL     1     -10.309   2.227   1.042  1.00  0.00     0.066 C 
ATOM     22  C   UNL     1      -5.929   2.036  -1.549  1.00  0.00     0.069 C 
ATOM     23  H   UNL     1      -7.948   3.018   2.413  1.00  0.00     0.190 HD
ENDBRANCH  15  16
ENDBRANCH  14  15
ENDBRANCH  13  14
ENDBRANCH   1  13
TORSDOF 7
ENDMDL
MODEL 9
REMARK VINA RESULT:    -3.805      5.514      9.121
REMARK INTER + INTRA:          -5.870
REMARK INTER:                  -5.256
REMARK INTRA:                  -0.614
REMARK UNBOUND:                -0.619
REMARK SMILES Cc1n[nH]c(C)c1CCCOc1cc(C(=O)O)ccc1F
REMARK SMILES IDX 11 1 12 2 14 3 18 4 13 5 19 6 20 7 21 8 15 9 16 10 17 11
REMARK SMILES IDX 10 13 9 14 8 15 7 16 5 17 2 18 4 19 3 20 6 21 1 22
REMARK H PARENT 17 12 4 23
ROOT
ATOM      1  O   UNL     1     -15.371   6.662   0.026  1.00  0.00    -0.490 OA
ENDROOT
BRANCH   1   2
ATOM      2  C   UNL     1     -16.008   7.753   0.528  1.00  0.00     0.155 A 
ATOM      3  C   UNL     1     -16.148  10.135   0.826  1.00  0.00     0.063 A 
ATOM      4  C   UNL     1     -17.330   9.970   1.554  1.00  0.00     0.019 A 
ATOM      5  C   UNL     1     -15.489   9.016   0.314  1.00  0.00     0.065 A 
ATOM      6  C   UNL     1     -17.843   8.707   1.758  1.00  0.00     0.044 A 
ATOM      7  C   UNL     1     -17.190   7.599   1.244  1.00  0.00     0.165 A 
ATOM      8  F   UNL     1     -17.698   6.364   1.447  1.00  0.00    -0.203 F 
BRANCH   3   9
ATOM      9  C   UNL     1     -15.596  11.486   0.606  1.00  0.00     0.335 C 
ATOM     10  O   UNL     1     -15.470  11.914  -0.523  1.00  0.00    -0.246 OA
BRANCH   9  11
ATOM     11  O   UNL     1     -15.239  12.247   1.659  1.00  0.00    -0.478 OA
ATOM     12  H   UNL     1     -15.376  13.202   1.578  1.00  0.00     0.297 HD
ENDBRANCH   9  11
ENDBRANCH   3   9
ENDBRANCH   1   2
BRANCH   1  13
ATOM     13  C   UNL     1     -14.072   6.371   0.549  1.00  0.00     0.230 C 
BRANCH  13  14
ATOM     14  C   UNL     1     -13.138   5.977  -0.597  1.00  0.00     0.046 C 
BRANCH  14  15
ATOM     15  C   UNL     1     -13.413   4.527  -1.003  1.00  0.00     0.043 C 
BRANCH  15  16
ATOM     16  C   UNL     1     -12.107   3.790  -1.147  1.00  0.00    -0.004 A 
ATOM     17  C   UNL     1     -11.508   3.037  -0.195  1.00  0.00     0.036 A 
ATOM     18  C   UNL     1     -11.303   3.756  -2.291  1.00  0.00     0.063 A 
ATOM     19  N   UNL     1     -10.362   2.550  -0.716  1.00  0.00    -0.282 N 
ATOM     20  N   UNL     1     -10.253   3.019  -2.032  1.00  0.00    -0.181 NA
ATOM     21  C   UNL     1     -12.027   2.788   1.197  1.00  0.00     0.066 C 
ATOM     22  C   UNL     1     -11.590   4.457  -3.594  1.00  0.00     0.069 C 
ATOM     23  H   UNL     1      -9.726   1.978  -0.260  1.00  0.00     0.190 HD
ENDBRANCH  15  16
ENDBRANCH  14  15
ENDBRANCH  13  14
ENDBRANCH   1  13
TORSDOF 7
ENDMDL
