MODEL 1
REMARK VINA RESULT:    -5.598      0.000      0.000
REMARK INTER + INTRA:          -8.362
REMARK INTER:                  -7.726
REMARK INTRA:                  -0.637
REMARK UNBOUND:                -0.637
REMARK SMILES Cc1n[nH]c(C)c1CCCOc1cc(C(=O)O)ccc1F
REMARK SMILES IDX 11 1 12 2 14 3 18 4 13 5 19 6 20 7 21 8 15 9 16 10 17 11
REMARK SMILES IDX 10 13 9 14 8 15 7 16 5 17 2 18 4 19 3 20 6 21 1 22
REMARK H PARENT 17 12 4 23
ROOT
ATOM      1  O   UNL     1       7.537  -5.568  -1.277  1.00  0.00    -0.490 OA
ENDROOT
BRANCH   1   2
ATOM      2  C   UNL     1       6.773  -4.444  -1.317  1.00  0.00     0.155 A 
ATOM      3  C   UNL     1       6.363  -2.173  -0.641  1.00  0.00     0.063 A 
ATOM      4  C   UNL     1       5.204  -2.154  -1.420  1.00  0.00     0.019 A 
ATOM      5  C   UNL     1       7.148  -3.327  -0.593  1.00  0.00     0.065 A 
ATOM      6  C   UNL     1       4.841  -3.270  -2.144  1.00  0.00     0.044 A 
ATOM      7  C   UNL     1       5.623  -4.412  -2.099  1.00  0.00     0.165 A 
ATOM      8  F   UNL     1       5.262  -5.503  -2.810  1.00  0.00    -0.203 F 
BRANCH   3   9
ATOM      9  C   UNL     1       6.755  -0.979   0.134  1.00  0.00     0.335 C 
ATOM     10  O   UNL     1       7.476  -1.093   1.104  1.00  0.00    -0.246 OA
BRANCH   9  11
ATOM     11  O   UNL     1       6.317   0.240  -0.240  1.00  0.00    -0.478 OA
ATOM     12  H   UNL     1       5.856   0.300  -1.088  1.00  0.00     0.297 HD
ENDBRANCH   9  11
ENDBRANCH   3   9
ENDBRANCH   1   2
BRANCH   1  13
ATOM     13  C   UNL     1       8.333  -5.852  -2.430  1.00  0.00     0.230 C 
BRANCH  13  14
ATOM     14  C   UNL     1       9.812  -5.855  -2.039  1.00  0.00     0.046 C 
BRANCH  14  15
ATOM     15  C   UNL     1      10.472  -4.565  -2.529  1.00  0.00     0.043 C 
BRANCH  15  16
ATOM     16  C   UNL     1      11.927  -4.824  -2.824  1.00  0.00    -0.004 A 
ATOM     17  C   UNL     1      12.944  -4.755  -1.934  1.00  0.00     0.036 A 
ATOM     18  C   UNL     1      12.464  -5.186  -4.064  1.00  0.00     0.063 A 
ATOM     19  N   UNL     1      14.085  -5.056  -2.589  1.00  0.00    -0.282 N 
ATOM     20  N   UNL     1      13.758  -5.318  -3.926  1.00  0.00    -0.181 NA
ATOM     21  C   UNL     1      12.824  -4.406  -0.473  1.00  0.00     0.066 C 
ATOM     22  C   UNL     1      11.687  -5.378  -5.341  1.00  0.00     0.069 C 
ATOM     23  H   UNL     1      14.974  -5.084  -2.203  1.00  0.00     0.190 HD
ENDBRANCH  15  16
ENDBRANCH  14  15
ENDBRANCH  13  14
ENDBRANCH   1  13
TORSDOF 7
ENDMDL
MODEL 2
REMARK VINA RESULT:    -5.523      2.196      3.806
REMARK INTER + INTRA:          -8.259
REMARK INTER:                  -7.568
REMARK INTRA:                  -0.690
REMARK UNBOUND:                -0.637
REMARK SMILES Cc1n[nH]c(C)c1CCCOc1cc(C(=O)O)ccc1F
REMARK SMILES IDX 11 1 12 2 14 3 18 4 13 5 19 6 20 7 21 8 15 9 16 10 17 11
REMARK SMILES IDX 10 13 9 14 8 15 7 16 5 17 2 18 4 19 3 20 6 21 1 22
REMARK H PARENT 17 12 4 23
ROOT
ATOM      1  O   UNL     1       8.548  -1.495  -2.493  1.00  0.00    -0.490 OA
ENDROOT
BRANCH   1   2
ATOM      2  C   UNL     1       7.349  -2.001  -2.100  1.00  0.00     0.155 A 
ATOM      3  C   UNL     1       5.558  -3.581  -2.376  1.00  0.00     0.063 A 
ATOM      4  C   UNL     1       4.903  -3.026  -1.274  1.00  0.00     0.019 A 
ATOM      5  C   UNL     1       6.787  -3.061  -2.786  1.00  0.00     0.065 A 
ATOM      6  C   UNL     1       5.474  -1.972  -0.592  1.00  0.00     0.044 A 
ATOM      7  C   UNL     1       6.696  -1.461  -0.997  1.00  0.00     0.165 A 
ATOM      8  F   UNL     1       7.250  -0.428  -0.325  1.00  0.00    -0.203 F 
BRANCH   3   9
ATOM      9  C   UNL     1       4.950  -4.709  -3.108  1.00  0.00     0.335 C 
ATOM     10  O   UNL     1       5.202  -4.878  -4.283  1.00  0.00    -0.246 OA
BRANCH   9  11
ATOM     11  O   UNL     1       4.119  -5.557  -2.469  1.00  0.00    -0.478 OA
ATOM     12  H   UNL     1       4.271  -6.503  -2.600  1.00  0.00     0.297 HD
ENDBRANCH   9  11
ENDBRANCH   3   9
ENDBRANCH   1   2
BRANCH   1  13
ATOM     13  C   UNL     1       9.705  -1.940  -1.781  1.00  0.00     0.230 C 
BRANCH  13  14
ATOM     14  C   UNL     1      10.667  -2.629  -2.750  1.00  0.00     0.046 C 
BRANCH  14  15
ATOM     15  C   UNL     1      10.706  -4.129  -2.449  1.00  0.00     0.043 C 
BRANCH  15  16
ATOM     16  C   UNL     1      12.091  -4.659  -2.711  1.00  0.00    -0.004 A 
ATOM     17  C   UNL     1      12.550  -5.140  -3.890  1.00  0.00     0.036 A 
ATOM     18  C   UNL     1      13.133  -4.735  -1.781  1.00  0.00     0.063 A 
ATOM     19  N   UNL     1      13.835  -5.513  -3.710  1.00  0.00    -0.282 N 
ATOM     20  N   UNL     1      14.176  -5.253  -2.377  1.00  0.00    -0.181 NA
ATOM     21  C   UNL     1      11.768  -5.240  -5.173  1.00  0.00     0.066 C 
ATOM     22  C   UNL     1      13.063  -4.306  -0.338  1.00  0.00     0.069 C 
ATOM     23  H   UNL     1      14.418  -5.894  -4.385  1.00  0.00     0.190 HD
ENDBRANCH  15  16
ENDBRANCH  14  15
ENDBRANCH  13  14
ENDBRANCH   1  13
TORSDOF 7
ENDMDL
MODEL 3
REMARK VINA RESULT:    -5.514      2.210      3.396
REMARK INTER + INTRA:          -8.246
REMARK INTER:                  -7.582
REMARK INTRA:                  -0.665
REMARK UNBOUND:                -0.637
REMARK SMILES Cc1n[nH]c(C)c1CCCOc1cc(C(=O)O)ccc1F
REMARK SMILES IDX 11 1 12 2 14 3 18 4 13 5 19 6 20 7 21 8 15 9 16 10 17 11
REMARK SMILES IDX 10 13 9 14 8 15 7 16 5 17 2 18 4 19 3 20 6 21 1 22
REMARK H PARENT 17 12 4 23
ROOT
ATOM      1  O   UNL     1       8.467  -1.359  -2.550  1.00  0.00    -0.490 OA
ENDROOT
BRANCH   1   2
ATOM      2  C   UNL     1       7.306  -1.920  -2.117  1.00  0.00     0.155 A 
ATOM      3  C   UNL     1       5.562  -3.557  -2.357  1.00  0.00     0.063 A 
ATOM      4  C   UNL     1       4.940  -3.058  -1.210  1.00  0.00     0.019 A 
ATOM      5  C   UNL     1       6.751  -2.981  -2.808  1.00  0.00     0.065 A 
ATOM      6  C   UNL     1       5.504  -2.003  -0.524  1.00  0.00     0.044 A 
ATOM      7  C   UNL     1       6.686  -1.436  -0.970  1.00  0.00     0.165 A 
ATOM      8  F   UNL     1       7.234  -0.402  -0.293  1.00  0.00    -0.203 F 
BRANCH   3   9
ATOM      9  C   UNL     1       4.961  -4.687  -3.093  1.00  0.00     0.335 C 
ATOM     10  O   UNL     1       5.237  -4.866  -4.262  1.00  0.00    -0.246 OA
BRANCH   9  11
ATOM     11  O   UNL     1       4.111  -5.523  -2.466  1.00  0.00    -0.478 OA
ATOM     12  H   UNL     1       3.987  -6.399  -2.858  1.00  0.00     0.297 HD
ENDBRANCH   9  11
ENDBRANCH   3   9
ENDBRANCH   1   2
BRANCH   1  13
ATOM     13  C   UNL     1       9.663  -1.731  -1.861  1.00  0.00     0.230 C 
BRANCH  13  14
ATOM     14  C   UNL     1      10.586  -2.488  -2.817  1.00  0.00     0.046 C 
BRANCH  14  15
ATOM     15  C   UNL     1      10.632  -3.965  -2.419  1.00  0.00     0.043 C 
BRANCH  15  16
ATOM     16  C   UNL     1      12.002  -4.522  -2.705  1.00  0.00    -0.004 A 
ATOM     17  C   UNL     1      13.012  -4.651  -1.813  1.00  0.00     0.036 A 
ATOM     18  C   UNL     1      12.454  -5.003  -3.938  1.00  0.00     0.063 A 
ATOM     19  N   UNL     1      14.067  -5.188  -2.460  1.00  0.00    -0.282 N 
ATOM     20  N   UNL     1      13.694  -5.396  -3.795  1.00  0.00    -0.181 NA
ATOM     21  C   UNL     1      12.965  -4.264  -0.358  1.00  0.00     0.066 C 
ATOM     22  C   UNL     1      11.655  -5.049  -5.216  1.00  0.00     0.069 C 
ATOM     23  H   UNL     1      14.931  -5.392  -2.071  1.00  0.00     0.190 HD
ENDBRANCH  15  16
ENDBRANCH  14  15
ENDBRANCH  13  14
ENDBRANCH   1  13
TORSDOF 7
ENDMDL
MODEL 4
REMARK VINA RESULT:    -5.486      0.097      1.771
REMARK INTER + INTRA:          -8.208
REMARK INTER:                  -7.542
REMARK INTRA:                  -0.666
REMARK UNBOUND:                -0.637
REMARK SMILES Cc1n[nH]c(C)c1CCCOc1cc(C(=O)O)ccc1F
REMARK SMILES IDX 11 1 12 2 14 3 18 4 13 5 19 6 20 7 21 8 15 9 16 10 17 11
REMARK SMILES IDX 10 13 9 14 8 15 7 16 5 17 2 18 4 19 3 20 6 21 1 22
REMARK H PARENT 17 12 4 23
ROOT
ATOM      1  O   UNL     1       7.527  -5.532  -1.277  1.00  0.00    -0.490 OA
ENDROOT
BRANCH   1   2
ATOM      2  C   UNL     1       6.758  -4.412  -1.305  1.00  0.00     0.155 A 
ATOM      3  C   UNL     1       6.347  -2.144  -0.620  1.00  0.00     0.063 A 
ATOM      4  C   UNL     1       5.177  -2.129  -1.385  1.00  0.00     0.019 A 
ATOM      5  C   UNL     1       7.137  -3.294  -0.585  1.00  0.00     0.065 A 
ATOM      6  C   UNL     1       4.810  -3.247  -2.104  1.00  0.00     0.044 A 
ATOM      7  C   UNL     1       5.598  -4.385  -2.071  1.00  0.00     0.165 A 
ATOM      8  F   UNL     1       5.233  -5.477  -2.779  1.00  0.00    -0.203 F 
BRANCH   3   9
ATOM      9  C   UNL     1       6.743  -0.949   0.151  1.00  0.00     0.335 C 
ATOM     10  O   UNL     1       7.468  -1.063   1.118  1.00  0.00    -0.246 OA
BRANCH   9  11
ATOM     11  O   UNL     1       6.304   0.269  -0.223  1.00  0.00    -0.478 OA
ATOM     12  H   UNL     1       6.934   1.001  -0.161  1.00  0.00     0.297 HD
ENDBRANCH   9  11
ENDBRANCH   3   9
ENDBRANCH   1   2
BRANCH   1  13
ATOM     13  C   UNL     1       8.357  -5.778  -2.415  1.00  0.00     0.230 C 
BRANCH  13  14
ATOM     14  C   UNL     1       9.823  -5.809  -1.979  1.00  0.00     0.046 C 
BRANCH  14  15
ATOM     15  C   UNL     1      10.528  -4.544  -2.472  1.00  0.00     0.043 C 
BRANCH  15  16
ATOM     16  C   UNL     1      11.978  -4.850  -2.745  1.00  0.00    -0.004 A 
ATOM     17  C   UNL     1      12.505  -5.211  -3.938  1.00  0.00     0.036 A 
ATOM     18  C   UNL     1      13.019  -4.805  -1.812  1.00  0.00     0.063 A 
ATOM     19  N   UNL     1      13.830  -5.394  -3.765  1.00  0.00    -0.282 N 
ATOM     20  N   UNL     1      14.128  -5.138  -2.420  1.00  0.00    -0.181 NA
ATOM     21  C   UNL     1      11.746  -5.377  -5.229  1.00  0.00     0.066 C 
ATOM     22  C   UNL     1      12.884  -4.448  -0.353  1.00  0.00     0.069 C 
ATOM     23  H   UNL     1      14.464  -5.658  -4.449  1.00  0.00     0.190 HD
ENDBRANCH  15  16
ENDBRANCH  14  15
ENDBRANCH  13  14
ENDBRANCH   1  13
TORSDOF 7
ENDMDL
MODEL 5
REMARK VINA RESULT:    -4.679      3.940      7.058
REMARK INTER + INTRA:          -7.094
REMARK INTER:                  -6.286
REMARK INTRA:                  -0.808
REMARK UNBOUND:                -0.637
REMARK SMILES Cc1n[nH]c(C)c1CCCOc1cc(C(=O)O)ccc1F
REMARK SMILES IDX 11 1 12 2 14 3 18 4 13 5 19 6 20 7 21 8 15 9 16 10 17 11
REMARK SMILES IDX 10 13 9 14 8 15 7 16 5 17 2 18 4 19 3 20 6 21 1 22
REMARK H PARENT 17 12 4 23
ROOT
ATOM      1  O   UNL     1       9.699  -3.520  -1.328  1.00  0.00    -0.490 OA
ENDROOT
BRANCH   1   2
ATOM      2  C   UNL     1      10.777  -4.041  -1.970  1.00  0.00     0.155 A 
ATOM      3  C   UNL     1      11.819  -4.852  -3.980  1.00  0.00     0.063 A 
ATOM      4  C   UNL     1      12.996  -5.097  -3.267  1.00  0.00     0.019 A 
ATOM      5  C   UNL     1      10.707  -4.322  -3.322  1.00  0.00     0.065 A 
ATOM      6  C   UNL     1      13.058  -4.808  -1.920  1.00  0.00     0.044 A 
ATOM      7  C   UNL     1      11.956  -4.277  -1.271  1.00  0.00     0.165 A 
ATOM      8  F   UNL     1      12.023  -3.996   0.049  1.00  0.00    -0.203 F 
BRANCH   3   9
ATOM      9  C   UNL     1      11.749  -5.160  -5.422  1.00  0.00     0.335 C 
ATOM     10  O   UNL     1      11.368  -6.251  -5.793  1.00  0.00    -0.246 OA
BRANCH   9  11
ATOM     11  O   UNL     1      12.103  -4.226  -6.327  1.00  0.00    -0.478 OA
ATOM     12  H   UNL     1      13.034  -4.199  -6.589  1.00  0.00     0.297 HD
ENDBRANCH   9  11
ENDBRANCH   3   9
ENDBRANCH   1   2
BRANCH   1  13
ATOM     13  C   UNL     1       8.987  -2.476  -1.997  1.00  0.00     0.230 C 
BRANCH  13  14
ATOM     14  C   UNL     1       7.752  -2.096  -1.178  1.00  0.00     0.046 C 
BRANCH  14  15
ATOM     15  C   UNL     1       7.196  -3.341  -0.484  1.00  0.00     0.043 C 
BRANCH  15  16
ATOM     16  C   UNL     1       6.226  -4.038  -1.402  1.00  0.00    -0.004 A 
ATOM     17  C   UNL     1       5.023  -3.560  -1.800  1.00  0.00     0.036 A 
ATOM     18  C   UNL     1       6.410  -5.289  -1.999  1.00  0.00     0.063 A 
ATOM     19  N   UNL     1       4.464  -4.480  -2.614  1.00  0.00    -0.282 N 
ATOM     20  N   UNL     1       5.353  -5.559  -2.720  1.00  0.00    -0.181 NA
ATOM     21  C   UNL     1       4.418  -2.239  -1.405  1.00  0.00     0.066 C 
ATOM     22  C   UNL     1       7.615  -6.180  -1.830  1.00  0.00     0.069 C 
ATOM     23  H   UNL     1       3.600  -4.408  -3.048  1.00  0.00     0.190 HD
ENDBRANCH  15  16
ENDBRANCH  14  15
ENDBRANCH  13  14
ENDBRANCH   1  13
TORSDOF 7
ENDMDL
MODEL 6
REMARK VINA RESULT:    -4.649      3.935      7.077
REMARK INTER + INTRA:          -7.052
REMARK INTER:                  -6.224
REMARK INTRA:                  -0.828
REMARK UNBOUND:                -0.637
REMARK SMILES Cc1n[nH]c(C)c1CCCOc1cc(C(=O)O)ccc1F
REMARK SMILES IDX 11 1 12 2 14 3 18 4 13 5 19 6 20 7 21 8 15 9 16 10 17 11
REMARK SMILES IDX 10 13 9 14 8 15 7 16 5 17 2 18 4 19 3 20 6 21 1 22
REMARK H PARENT 17 12 4 23
ROOT
ATOM      1  O   UNL     1       9.729  -3.564  -1.289  1.00  0.00    -0.490 OA
ENDROOT
BRANCH   1   2
ATOM      2  C   UNL     1      10.805  -4.070  -1.949  1.00  0.00     0.155 A 
ATOM      3  C   UNL     1      11.831  -4.853  -3.978  1.00  0.00     0.063 A 
ATOM      4  C   UNL     1      13.018  -5.094  -3.281  1.00  0.00     0.019 A 
ATOM      5  C   UNL     1      10.722  -4.338  -3.303  1.00  0.00     0.065 A 
ATOM      6  C   UNL     1      13.092  -4.818  -1.932  1.00  0.00     0.044 A 
ATOM      7  C   UNL     1      11.993  -4.303  -1.265  1.00  0.00     0.165 A 
ATOM      8  F   UNL     1      12.073  -4.034   0.057  1.00  0.00    -0.203 F 
BRANCH   3   9
ATOM      9  C   UNL     1      11.748  -5.147  -5.422  1.00  0.00     0.335 C 
ATOM     10  O   UNL     1      11.338  -6.225  -5.800  1.00  0.00    -0.246 OA
BRANCH   9  11
ATOM     11  O   UNL     1      12.121  -4.215  -6.321  1.00  0.00    -0.478 OA
ATOM     12  H   UNL     1      13.071  -4.068  -6.433  1.00  0.00     0.297 HD
ENDBRANCH   9  11
ENDBRANCH   3   9
ENDBRANCH   1   2
BRANCH   1  13
ATOM     13  C   UNL     1       9.024  -2.494  -1.923  1.00  0.00     0.230 C 
BRANCH  13  14
ATOM     14  C   UNL     1       7.784  -2.144  -1.099  1.00  0.00     0.046 C 
BRANCH  14  15
ATOM     15  C   UNL     1       7.209  -3.417  -0.475  1.00  0.00     0.043 C 
BRANCH  15  16
ATOM     16  C   UNL     1       6.253  -4.064  -1.443  1.00  0.00    -0.004 A 
ATOM     17  C   UNL     1       6.428  -5.257  -2.059  1.00  0.00     0.036 A 
ATOM     18  C   UNL     1       5.023  -3.542  -1.859  1.00  0.00     0.063 A 
ATOM     19  N   UNL     1       5.352  -5.478  -2.842  1.00  0.00    -0.282 N 
ATOM     20  N   UNL     1       4.486  -4.385  -2.703  1.00  0.00    -0.181 NA
ATOM     21  C   UNL     1       7.613  -6.172  -1.899  1.00  0.00     0.066 C 
ATOM     22  C   UNL     1       4.427  -2.229  -1.421  1.00  0.00     0.069 C 
ATOM     23  H   UNL     1       5.204  -6.255  -3.403  1.00  0.00     0.190 HD
ENDBRANCH  15  16
ENDBRANCH  14  15
ENDBRANCH  13  14
ENDBRANCH   1  13
TORSDOF 7
ENDMDL
MODEL 7
REMARK VINA RESULT:    -4.594      3.838      6.599
REMARK INTER + INTRA:          -6.977
REMARK INTER:                  -6.166
REMARK INTRA:                  -0.810
REMARK UNBOUND:                -0.637
REMARK SMILES Cc1n[nH]c(C)c1CCCOc1cc(C(=O)O)ccc1F
REMARK SMILES IDX 11 1 12 2 14 3 18 4 13 5 19 6 20 7 21 8 15 9 16 10 17 11
REMARK SMILES IDX 10 13 9 14 8 15 7 16 5 17 2 18 4 19 3 20 6 21 1 22
REMARK H PARENT 17 12 4 23
ROOT
ATOM      1  O   UNL     1       9.207  -4.311  -3.014  1.00  0.00    -0.490 OA
ENDROOT
BRANCH   1   2
ATOM      2  C   UNL     1      10.545  -4.524  -2.895  1.00  0.00     0.155 A 
ATOM      3  C   UNL     1      12.533  -4.614  -1.545  1.00  0.00     0.063 A 
ATOM      4  C   UNL     1      13.277  -4.974  -2.672  1.00  0.00     0.019 A 
ATOM      5  C   UNL     1      11.160  -4.389  -1.664  1.00  0.00     0.065 A 
ATOM      6  C   UNL     1      12.654  -5.113  -3.894  1.00  0.00     0.044 A 
ATOM      7  C   UNL     1      11.291  -4.894  -4.009  1.00  0.00     0.165 A 
ATOM      8  F   UNL     1      10.686  -5.031  -5.209  1.00  0.00    -0.203 F 
BRANCH   3   9
ATOM      9  C   UNL     1      13.197  -4.466  -0.236  1.00  0.00     0.335 C 
ATOM     10  O   UNL     1      14.408  -4.430  -0.169  1.00  0.00    -0.246 OA
BRANCH   9  11
ATOM     11  O   UNL     1      12.457  -4.363   0.886  1.00  0.00    -0.478 OA
ATOM     12  H   UNL     1      12.361  -5.162   1.424  1.00  0.00     0.297 HD
ENDBRANCH   9  11
ENDBRANCH   3   9
ENDBRANCH   1   2
BRANCH   1  13
ATOM     13  C   UNL     1       8.359  -4.969  -2.069  1.00  0.00     0.230 C 
BRANCH  13  14
ATOM     14  C   UNL     1       6.914  -4.514  -2.279  1.00  0.00     0.046 C 
BRANCH  14  15
ATOM     15  C   UNL     1       6.904  -3.119  -2.909  1.00  0.00     0.043 C 
BRANCH  15  16
ATOM     16  C   UNL     1       6.818  -2.078  -1.823  1.00  0.00    -0.004 A 
ATOM     17  C   UNL     1       5.764  -1.872  -0.999  1.00  0.00     0.036 A 
ATOM     18  C   UNL     1       7.815  -1.157  -1.485  1.00  0.00     0.063 A 
ATOM     19  N   UNL     1       6.081  -0.853  -0.173  1.00  0.00    -0.282 N 
ATOM     20  N   UNL     1       7.372  -0.418  -0.500  1.00  0.00    -0.181 NA
ATOM     21  C   UNL     1       4.470  -2.643  -1.003  1.00  0.00     0.066 C 
ATOM     22  C   UNL     1       9.163  -1.030  -2.148  1.00  0.00     0.069 C 
ATOM     23  H   UNL     1       5.515  -0.486   0.523  1.00  0.00     0.190 HD
ENDBRANCH  15  16
ENDBRANCH  14  15
ENDBRANCH  13  14
ENDBRANCH   1  13
TORSDOF 7
ENDMDL
MODEL 8
REMARK VINA RESULT:    -4.411      3.959      7.019
REMARK INTER + INTRA:          -6.724
REMARK INTER:                  -5.855
REMARK INTRA:                  -0.869
REMARK UNBOUND:                -0.637
REMARK SMILES Cc1n[nH]c(C)c1CCCOc1cc(C(=O)O)ccc1F
REMARK SMILES IDX 11 1 12 2 14 3 18 4 13 5 19 6 20 7 21 8 15 9 16 10 17 11
REMARK SMILES IDX 10 13 9 14 8 15 7 16 5 17 2 18 4 19 3 20 6 21 1 22
REMARK H PARENT 17 12 4 23
ROOT
ATOM      1  O   UNL     1       9.260  -4.505  -1.681  1.00  0.00    -0.490 OA
ENDROOT
BRANCH   1   2
ATOM      2  C   UNL     1      10.479  -4.663  -2.262  1.00  0.00     0.155 A 
ATOM      3  C   UNL     1      11.825  -5.093  -4.208  1.00  0.00     0.063 A 
ATOM      4  C   UNL     1      12.980  -4.973  -3.431  1.00  0.00     0.019 A 
ATOM      5  C   UNL     1      10.571  -4.936  -3.614  1.00  0.00     0.065 A 
ATOM      6  C   UNL     1      12.879  -4.694  -2.084  1.00  0.00     0.044 A 
ATOM      7  C   UNL     1      11.634  -4.534  -1.498  1.00  0.00     0.165 A 
ATOM      8  F   UNL     1      11.542  -4.261  -0.178  1.00  0.00    -0.203 F 
BRANCH   3   9
ATOM      9  C   UNL     1      11.929  -5.391  -5.650  1.00  0.00     0.335 C 
ATOM     10  O   UNL     1      12.855  -6.055  -6.067  1.00  0.00    -0.246 OA
BRANCH   9  11
ATOM     11  O   UNL     1      10.992  -4.931  -6.502  1.00  0.00    -0.478 OA
ATOM     12  H   UNL     1      10.386  -4.255  -6.165  1.00  0.00     0.297 HD
ENDBRANCH   9  11
ENDBRANCH   3   9
ENDBRANCH   1   2
BRANCH   1  13
ATOM     13  C   UNL     1       8.181  -5.275  -2.216  1.00  0.00     0.230 C 
BRANCH  13  14
ATOM     14  C   UNL     1       6.853  -4.604  -1.865  1.00  0.00     0.046 C 
BRANCH  14  15
ATOM     15  C   UNL     1       6.731  -3.283  -2.628  1.00  0.00     0.043 C 
BRANCH  15  16
ATOM     16  C   UNL     1       6.712  -2.137  -1.649  1.00  0.00    -0.004 A 
ATOM     17  C   UNL     1       5.690  -1.812  -0.824  1.00  0.00     0.036 A 
ATOM     18  C   UNL     1       7.750  -1.225  -1.429  1.00  0.00     0.063 A 
ATOM     19  N   UNL     1       6.065  -0.729  -0.112  1.00  0.00    -0.282 N 
ATOM     20  N   UNL     1       7.361  -0.377  -0.512  1.00  0.00    -0.181 NA
ATOM     21  C   UNL     1       4.370  -2.530  -0.720  1.00  0.00     0.066 C 
ATOM     22  C   UNL     1       9.082  -1.215  -2.134  1.00  0.00     0.069 C 
ATOM     23  H   UNL     1       5.532  -0.274   0.558  1.00  0.00     0.190 HD
ENDBRANCH  15  16
ENDBRANCH  14  15
ENDBRANCH  13  14
ENDBRANCH   1  13
TORSDOF 7
ENDMDL
MODEL 9
REMARK VINA RESULT:    -4.385      3.849      6.657
REMARK INTER + INTRA:          -6.689
REMARK INTER:                  -5.808
REMARK INTRA:                  -0.881
REMARK UNBOUND:                -0.637
REMARK SMILES Cc1n[nH]c(C)c1CCCOc1cc(C(=O)O)ccc1F
REMARK SMILES IDX 11 1 12 2 14 3 18 4 13 5 19 6 20 7 21 8 15 9 16 10 17 11
REMARK SMILES IDX 10 13 9 14 8 15 7 16 5 17 2 18 4 19 3 20 6 21 1 22
REMARK H PARENT 17 12 4 23
ROOT
ATOM      1  O   UNL     1       9.411  -3.205  -2.843  1.00  0.00    -0.490 OA
ENDROOT
BRANCH   1   2
ATOM      2  C   UNL     1      10.621  -3.817  -2.749  1.00  0.00     0.155 A 
ATOM      3  C   UNL     1      12.588  -4.369  -1.480  1.00  0.00     0.063 A 
ATOM      4  C   UNL     1      13.088  -5.082  -2.573  1.00  0.00     0.019 A 
ATOM      5  C   UNL     1      11.347  -3.735  -1.575  1.00  0.00     0.065 A 
ATOM      6  C   UNL     1      12.354  -5.163  -3.737  1.00  0.00     0.044 A 
ATOM      7  C   UNL     1      11.122  -4.538  -3.828  1.00  0.00     0.165 A 
ATOM      8  F   UNL     1      10.407  -4.621  -4.972  1.00  0.00    -0.203 F 
BRANCH   3   9
ATOM      9  C   UNL     1      13.371  -4.281  -0.232  1.00  0.00     0.335 C 
ATOM     10  O   UNL     1      14.577  -4.154  -0.279  1.00  0.00    -0.246 OA
BRANCH   9  11
ATOM     11  O   UNL     1      12.745  -4.335   0.960  1.00  0.00    -0.478 OA
ATOM     12  H   UNL     1      13.028  -5.027   1.574  1.00  0.00     0.297 HD
ENDBRANCH   9  11
ENDBRANCH   3   9
ENDBRANCH   1   2
BRANCH   1  13
ATOM     13  C   UNL     1       9.191  -2.069  -2.004  1.00  0.00     0.230 C 
BRANCH  13  14
ATOM     14  C   UNL     1       7.699  -1.954  -1.683  1.00  0.00     0.046 C 
BRANCH  14  15
ATOM     15  C   UNL     1       7.271  -3.140  -0.817  1.00  0.00     0.043 C 
BRANCH  15  16
ATOM     16  C   UNL     1       6.271  -3.979  -1.570  1.00  0.00    -0.004 A 
ATOM     17  C   UNL     1       5.016  -3.605  -1.912  1.00  0.00     0.036 A 
ATOM     18  C   UNL     1       6.478  -5.278  -2.046  1.00  0.00     0.063 A 
ATOM     19  N   UNL     1       4.447  -4.634  -2.575  1.00  0.00    -0.282 N 
ATOM     20  N   UNL     1       5.383  -5.674  -2.642  1.00  0.00    -0.181 NA
ATOM     21  C   UNL     1       4.370  -2.279  -1.608  1.00  0.00     0.066 C 
ATOM     22  C   UNL     1       7.741  -6.086  -1.888  1.00  0.00     0.069 C 
ATOM     23  H   UNL     1       3.548  -4.651  -2.939  1.00  0.00     0.190 HD
ENDBRANCH  15  16
ENDBRANCH  14  15
ENDBRANCH  13  14
ENDBRANCH   1  13
TORSDOF 7
ENDMDL
