MODEL 1
REMARK VINA RESULT:    -3.397      0.000      0.000
REMARK INTER + INTRA:          -6.930
REMARK INTER:                  -4.688
REMARK INTRA:                  -2.242
REMARK UNBOUND:                -2.242
REMARK SMILES Cc1n[nH]c(C)c1CCCOc1cc(C(=O)O)ccc1F
REMARK SMILES IDX 11 1 12 2 14 3 18 4 13 5 19 6 20 7 21 8 15 9 16 10 17 11
REMARK SMILES IDX 10 13 9 14 8 15 7 16 5 17 2 18 4 19 3 20 6 21 1 22
REMARK H PARENT 17 12 4 23
ROOT
ATOM      1  O   UNL     1       9.050  -9.619  15.799  1.00  0.00    -0.490 OA
ENDROOT
BRANCH   1   2
ATOM      2  C   UNL     1       9.770  -8.555  15.353  1.00  0.00     0.155 A 
ATOM      3  C   UNL     1       9.863  -6.311  14.494  1.00  0.00     0.063 A 
ATOM      4  C   UNL     1      11.258  -6.388  14.456  1.00  0.00     0.019 A 
ATOM      5  C   UNL     1       9.121  -7.404  14.946  1.00  0.00     0.065 A 
ATOM      6  C   UNL     1      11.897  -7.538  14.869  1.00  0.00     0.044 A 
ATOM      7  C   UNL     1      11.158  -8.619  15.322  1.00  0.00     0.165 A 
ATOM      8  F   UNL     1      11.790  -9.743  15.727  1.00  0.00    -0.203 F 
BRANCH   3   9
ATOM      9  C   UNL     1       9.177  -5.081  14.052  1.00  0.00     0.335 C 
ATOM     10  O   UNL     1       8.679  -5.027  12.946  1.00  0.00    -0.246 OA
BRANCH   9  11
ATOM     11  O   UNL     1       9.097  -4.020  14.879  1.00  0.00    -0.478 OA
ATOM     12  H   UNL     1       8.678  -4.165  15.739  1.00  0.00     0.297 HD
ENDBRANCH   9  11
ENDBRANCH   3   9
ENDBRANCH   1   2
BRANCH   1  13
ATOM     13  C   UNL     1       8.212 -10.279  14.848  1.00  0.00     0.230 C 
BRANCH  13  14
ATOM     14  C   UNL     1       9.025 -11.338  14.101  1.00  0.00     0.046 C 
BRANCH  14  15
ATOM     15  C   UNL     1       8.772 -11.209  12.598  1.00  0.00     0.043 C 
BRANCH  15  16
ATOM     16  C   UNL     1       9.759 -10.239  12.002  1.00  0.00    -0.004 A 
ATOM     17  C   UNL     1      11.094 -10.430  11.890  1.00  0.00     0.036 A 
ATOM     18  C   UNL     1       9.457  -8.985  11.461  1.00  0.00     0.063 A 
ATOM     19  N   UNL     1      11.619  -9.333  11.306  1.00  0.00    -0.282 N 
ATOM     20  N   UNL     1      10.572  -8.438  11.050  1.00  0.00    -0.181 NA
ATOM     21  C   UNL     1      11.858 -11.649  12.338  1.00  0.00     0.066 C 
ATOM     22  C   UNL     1       8.085  -8.366  11.378  1.00  0.00     0.069 C 
ATOM     23  H   UNL     1      12.556  -9.189  11.100  1.00  0.00     0.190 HD
ENDBRANCH  15  16
ENDBRANCH  14  15
ENDBRANCH  13  14
ENDBRANCH   1  13
TORSDOF 7
ENDMDL
MODEL 2
REMARK VINA RESULT:    -3.397      1.716      2.789
REMARK INTER + INTRA:          -6.930
REMARK INTER:                  -4.810
REMARK INTRA:                  -2.120
REMARK UNBOUND:                -2.242
REMARK SMILES Cc1n[nH]c(C)c1CCCOc1cc(C(=O)O)ccc1F
REMARK SMILES IDX 11 1 12 2 14 3 18 4 13 5 19 6 20 7 21 8 15 9 16 10 17 11
REMARK SMILES IDX 10 13 9 14 8 15 7 16 5 17 2 18 4 19 3 20 6 21 1 22
REMARK H PARENT 17 12 4 23
ROOT
ATOM      1  O   UNL     1       8.527  -9.787  14.951  1.00  0.00    -0.490 OA
ENDROOT
BRANCH   1   2
ATOM      2  C   UNL     1       8.426  -8.795  14.026  1.00  0.00     0.155 A 
ATOM      3  C   UNL     1       8.497  -6.462  13.450  1.00  0.00     0.063 A 
ATOM      4  C   UNL     1       8.223  -6.786  12.119  1.00  0.00     0.019 A 
ATOM      5  C   UNL     1       8.597  -7.477  14.404  1.00  0.00     0.065 A 
ATOM      6  C   UNL     1       8.059  -8.104  11.750  1.00  0.00     0.044 A 
ATOM      7  C   UNL     1       8.164  -9.110  12.697  1.00  0.00     0.165 A 
ATOM      8  F   UNL     1       8.003 -10.400  12.329  1.00  0.00    -0.203 F 
BRANCH   3   9
ATOM      9  C   UNL     1       8.674  -5.051  13.848  1.00  0.00     0.335 C 
ATOM     10  O   UNL     1       8.980  -4.220  13.019  1.00  0.00    -0.246 OA
BRANCH   9  11
ATOM     11  O   UNL     1       8.489  -4.686  15.132  1.00  0.00    -0.478 OA
ATOM     12  H   UNL     1       7.763  -5.112  15.610  1.00  0.00     0.297 HD
ENDBRANCH   9  11
ENDBRANCH   3   9
ENDBRANCH   1   2
BRANCH   1  13
ATOM     13  C   UNL     1       9.767  -9.892  15.655  1.00  0.00     0.230 C 
BRANCH  13  14
ATOM     14  C   UNL     1      10.588 -11.043  15.072  1.00  0.00     0.046 C 
BRANCH  14  15
ATOM     15  C   UNL     1      11.975 -10.532  14.676  1.00  0.00     0.043 C 
BRANCH  15  16
ATOM     16  C   UNL     1      11.879  -9.769  13.381  1.00  0.00    -0.004 A 
ATOM     17  C   UNL     1      11.558 -10.288  12.173  1.00  0.00     0.036 A 
ATOM     18  C   UNL     1      12.100  -8.398  13.215  1.00  0.00     0.063 A 
ATOM     19  N   UNL     1      11.582  -9.282  11.273  1.00  0.00    -0.282 N 
ATOM     20  N   UNL     1      11.929  -8.106  11.951  1.00  0.00    -0.181 NA
ATOM     21  C   UNL     1      11.232 -11.730  11.884  1.00  0.00     0.066 C 
ATOM     22  C   UNL     1      12.483  -7.426  14.302  1.00  0.00     0.069 C 
ATOM     23  H   UNL     1      11.392  -9.360  10.325  1.00  0.00     0.190 HD
ENDBRANCH  15  16
ENDBRANCH  14  15
ENDBRANCH  13  14
ENDBRANCH   1  13
TORSDOF 7
ENDMDL
MODEL 3
REMARK VINA RESULT:    -3.183      1.452      1.676
REMARK INTER + INTRA:          -6.634
REMARK INTER:                  -4.672
REMARK INTRA:                  -1.962
REMARK UNBOUND:                -2.242
REMARK SMILES Cc1n[nH]c(C)c1CCCOc1cc(C(=O)O)ccc1F
REMARK SMILES IDX 11 1 12 2 14 3 18 4 13 5 19 6 20 7 21 8 15 9 16 10 17 11
REMARK SMILES IDX 10 13 9 14 8 15 7 16 5 17 2 18 4 19 3 20 6 21 1 22
REMARK H PARENT 17 12 4 23
ROOT
ATOM      1  O   UNL     1       7.745 -10.009  14.218  1.00  0.00    -0.490 OA
ENDROOT
BRANCH   1   2
ATOM      2  C   UNL     1       8.422  -8.901  14.620  1.00  0.00     0.155 A 
ATOM      3  C   UNL     1       8.937  -6.565  14.374  1.00  0.00     0.063 A 
ATOM      4  C   UNL     1       9.808  -6.646  15.464  1.00  0.00     0.019 A 
ATOM      5  C   UNL     1       8.244  -7.703  13.955  1.00  0.00     0.065 A 
ATOM      6  C   UNL     1       9.975  -7.845  16.125  1.00  0.00     0.044 A 
ATOM      7  C   UNL     1       9.282  -8.970  15.711  1.00  0.00     0.165 A 
ATOM      8  F   UNL     1       9.450 -10.142  16.363  1.00  0.00    -0.203 F 
BRANCH   3   9
ATOM      9  C   UNL     1       8.756  -5.284  13.665  1.00  0.00     0.335 C 
ATOM     10  O   UNL     1       8.587  -5.273  12.463  1.00  0.00    -0.246 OA
BRANCH   9  11
ATOM     11  O   UNL     1       8.772  -4.125  14.353  1.00  0.00    -0.478 OA
ATOM     12  H   UNL     1       8.907  -4.184  15.309  1.00  0.00     0.297 HD
ENDBRANCH   9  11
ENDBRANCH   3   9
ENDBRANCH   1   2
BRANCH   1  13
ATOM     13  C   UNL     1       8.111 -10.571  12.955  1.00  0.00     0.230 C 
BRANCH  13  14
ATOM     14  C   UNL     1       9.172 -11.653  13.167  1.00  0.00     0.046 C 
BRANCH  14  15
ATOM     15  C   UNL     1      10.253 -11.525  12.092  1.00  0.00     0.043 C 
BRANCH  15  16
ATOM     16  C   UNL     1      11.002 -10.232  12.282  1.00  0.00    -0.004 A 
ATOM     17  C   UNL     1      11.901  -9.970  13.259  1.00  0.00     0.036 A 
ATOM     18  C   UNL     1      10.897  -9.093  11.477  1.00  0.00     0.063 A 
ATOM     19  N   UNL     1      12.344  -8.707  13.082  1.00  0.00    -0.282 N 
ATOM     20  N   UNL     1      11.696  -8.176  11.960  1.00  0.00    -0.181 NA
ATOM     21  C   UNL     1      12.331 -10.917  14.348  1.00  0.00     0.066 C 
ATOM     22  C   UNL     1      10.008  -8.944  10.269  1.00  0.00     0.069 C 
ATOM     23  H   UNL     1      12.995  -8.248  13.635  1.00  0.00     0.190 HD
ENDBRANCH  15  16
ENDBRANCH  14  15
ENDBRANCH  13  14
ENDBRANCH   1  13
TORSDOF 7
ENDMDL
MODEL 4
REMARK VINA RESULT:    -3.114      2.416      4.601
REMARK INTER + INTRA:          -6.539
REMARK INTER:                  -4.103
REMARK INTRA:                  -2.435
REMARK UNBOUND:                -2.242
REMARK SMILES Cc1n[nH]c(C)c1CCCOc1cc(C(=O)O)ccc1F
REMARK SMILES IDX 11 1 12 2 14 3 18 4 13 5 19 6 20 7 21 8 15 9 16 10 17 11
REMARK SMILES IDX 10 13 9 14 8 15 7 16 5 17 2 18 4 19 3 20 6 21 1 22
REMARK H PARENT 17 12 4 23
ROOT
ATOM      1  O   UNL     1       7.657  -9.181  14.775  1.00  0.00    -0.490 OA
ENDROOT
BRANCH   1   2
ATOM      2  C   UNL     1       8.391  -9.827  13.830  1.00  0.00     0.155 A 
ATOM      3  C   UNL     1       9.843  -9.770  11.914  1.00  0.00     0.063 A 
ATOM      4  C   UNL     1       9.892 -11.167  11.915  1.00  0.00     0.019 A 
ATOM      5  C   UNL     1       9.086  -9.103  12.880  1.00  0.00     0.065 A 
ATOM      6  C   UNL     1       9.199 -11.880  12.870  1.00  0.00     0.044 A 
ATOM      7  C   UNL     1       8.454 -11.216  13.830  1.00  0.00     0.165 A 
ATOM      8  F   UNL     1       7.777 -11.921  14.763  1.00  0.00    -0.203 F 
BRANCH   3   9
ATOM      9  C   UNL     1      10.583  -9.003  10.894  1.00  0.00     0.335 C 
ATOM     10  O   UNL     1      10.143  -8.910   9.766  1.00  0.00    -0.246 OA
BRANCH   9  11
ATOM     11  O   UNL     1      11.745  -8.401  11.215  1.00  0.00    -0.478 OA
ATOM     12  H   UNL     1      12.531  -8.962  11.265  1.00  0.00     0.297 HD
ENDBRANCH   9  11
ENDBRANCH   3   9
ENDBRANCH   1   2
BRANCH   1  13
ATOM     13  C   UNL     1       8.267  -8.995  16.055  1.00  0.00     0.230 C 
BRANCH  13  14
ATOM     14  C   UNL     1       8.980  -7.642  16.087  1.00  0.00     0.046 C 
BRANCH  14  15
ATOM     15  C   UNL     1      10.412  -7.831  16.592  1.00  0.00     0.043 C 
BRANCH  15  16
ATOM     16  C   UNL     1      11.358  -7.868  15.420  1.00  0.00    -0.004 A 
ATOM     17  C   UNL     1      11.706  -6.815  14.645  1.00  0.00     0.036 A 
ATOM     18  C   UNL     1      12.036  -8.995  14.945  1.00  0.00     0.063 A 
ATOM     19  N   UNL     1      12.569  -7.261  13.709  1.00  0.00    -0.282 N 
ATOM     20  N   UNL     1      12.757  -8.634  13.915  1.00  0.00    -0.181 NA
ATOM     21  C   UNL     1      11.219  -5.398  14.801  1.00  0.00     0.066 C 
ATOM     22  C   UNL     1      11.942 -10.388  15.514  1.00  0.00     0.069 C 
ATOM     23  H   UNL     1      12.985  -6.726  13.015  1.00  0.00     0.190 HD
ENDBRANCH  15  16
ENDBRANCH  14  15
ENDBRANCH  13  14
ENDBRANCH   1  13
TORSDOF 7
ENDMDL
MODEL 5
REMARK VINA RESULT:    -2.934      2.610      5.636
REMARK INTER + INTRA:          -6.291
REMARK INTER:                  -5.130
REMARK INTRA:                  -1.161
REMARK UNBOUND:                -2.242
REMARK SMILES Cc1n[nH]c(C)c1CCCOc1cc(C(=O)O)ccc1F
REMARK SMILES IDX 11 1 12 2 14 3 18 4 13 5 19 6 20 7 21 8 15 9 16 10 17 11
REMARK SMILES IDX 10 13 9 14 8 15 7 16 5 17 2 18 4 19 3 20 6 21 1 22
REMARK H PARENT 17 12 4 23
ROOT
ATOM      1  O   UNL     1       9.259  -7.368  12.283  1.00  0.00    -0.490 OA
ENDROOT
BRANCH   1   2
ATOM      2  C   UNL     1       9.386  -8.722  12.287  1.00  0.00     0.155 A 
ATOM      3  C   UNL     1       8.469 -10.903  12.715  1.00  0.00     0.063 A 
ATOM      4  C   UNL     1       9.662 -11.486  12.278  1.00  0.00     0.019 A 
ATOM      5  C   UNL     1       8.337  -9.513  12.717  1.00  0.00     0.065 A 
ATOM      6  C   UNL     1      10.701 -10.688  11.845  1.00  0.00     0.044 A 
ATOM      7  C   UNL     1      10.565  -9.310  11.843  1.00  0.00     0.165 A 
ATOM      8  F   UNL     1      11.586  -8.534  11.418  1.00  0.00    -0.203 F 
BRANCH   3   9
ATOM      9  C   UNL     1       7.356 -11.754  13.178  1.00  0.00     0.335 C 
ATOM     10  O   UNL     1       7.387 -12.245  14.288  1.00  0.00    -0.246 OA
BRANCH   9  11
ATOM     11  O   UNL     1       6.301 -11.981  12.371  1.00  0.00    -0.478 OA
ATOM     12  H   UNL     1       5.498 -12.329  12.784  1.00  0.00     0.297 HD
ENDBRANCH   9  11
ENDBRANCH   3   9
ENDBRANCH   1   2
BRANCH   1  13
ATOM     13  C   UNL     1       8.178  -6.816  13.039  1.00  0.00     0.230 C 
BRANCH  13  14
ATOM     14  C   UNL     1       8.567  -5.424  13.541  1.00  0.00     0.046 C 
BRANCH  14  15
ATOM     15  C   UNL     1       9.107  -5.529  14.969  1.00  0.00     0.043 C 
BRANCH  15  16
ATOM     16  C   UNL     1      10.607  -5.663  14.931  1.00  0.00    -0.004 A 
ATOM     17  C   UNL     1      11.486  -4.684  14.613  1.00  0.00     0.036 A 
ATOM     18  C   UNL     1      11.338  -6.819  15.224  1.00  0.00     0.063 A 
ATOM     19  N   UNL     1      12.729  -5.204  14.696  1.00  0.00    -0.282 N 
ATOM     20  N   UNL     1      12.609  -6.547  15.077  1.00  0.00    -0.181 NA
ATOM     21  C   UNL     1      11.139  -3.268  14.236  1.00  0.00     0.066 C 
ATOM     22  C   UNL     1      10.761  -8.152  15.627  1.00  0.00     0.069 C 
ATOM     23  H   UNL     1      13.557  -4.732  14.522  1.00  0.00     0.190 HD
ENDBRANCH  15  16
ENDBRANCH  14  15
ENDBRANCH  13  14
ENDBRANCH   1  13
TORSDOF 7
ENDMDL
MODEL 6
REMARK VINA RESULT:    -2.860      1.713      2.853
REMARK INTER + INTRA:          -6.188
REMARK INTER:                  -4.027
REMARK INTRA:                  -2.161
REMARK UNBOUND:                -2.242
REMARK SMILES Cc1n[nH]c(C)c1CCCOc1cc(C(=O)O)ccc1F
REMARK SMILES IDX 11 1 12 2 14 3 18 4 13 5 19 6 20 7 21 8 15 9 16 10 17 11
REMARK SMILES IDX 10 13 9 14 8 15 7 16 5 17 2 18 4 19 3 20 6 21 1 22
REMARK H PARENT 17 12 4 23
ROOT
ATOM      1  O   UNL     1      12.350  -8.786  14.255  1.00  0.00    -0.490 OA
ENDROOT
BRANCH   1   2
ATOM      2  C   UNL     1      11.289  -8.149  14.817  1.00  0.00     0.155 A 
ATOM      3  C   UNL     1       9.631  -6.408  14.763  1.00  0.00     0.063 A 
ATOM      4  C   UNL     1       9.115  -6.867  15.977  1.00  0.00     0.019 A 
ATOM      5  C   UNL     1      10.724  -7.057  14.185  1.00  0.00     0.065 A 
ATOM      6  C   UNL     1       9.681  -7.961  16.598  1.00  0.00     0.044 A 
ATOM      7  C   UNL     1      10.762  -8.606  16.021  1.00  0.00     0.165 A 
ATOM      8  F   UNL     1      11.312  -9.677  16.634  1.00  0.00    -0.203 F 
BRANCH   3   9
ATOM      9  C   UNL     1       9.027  -5.238  14.096  1.00  0.00     0.335 C 
ATOM     10  O   UNL     1       8.658  -5.320  12.942  1.00  0.00    -0.246 OA
BRANCH   9  11
ATOM     11  O   UNL     1       8.879  -4.081  14.770  1.00  0.00    -0.478 OA
ATOM     12  H   UNL     1       9.349  -4.000  15.612  1.00  0.00     0.297 HD
ENDBRANCH   9  11
ENDBRANCH   3   9
ENDBRANCH   1   2
BRANCH   1  13
ATOM     13  C   UNL     1      12.186  -9.265  12.918  1.00  0.00     0.230 C 
BRANCH  13  14
ATOM     14  C   UNL     1      11.878 -10.763  12.948  1.00  0.00     0.046 C 
BRANCH  14  15
ATOM     15  C   UNL     1      10.687 -11.058  12.034  1.00  0.00     0.043 C 
BRANCH  15  16
ATOM     16  C   UNL     1       9.436 -10.470  12.632  1.00  0.00    -0.004 A 
ATOM     17  C   UNL     1       8.737  -9.419  12.143  1.00  0.00     0.036 A 
ATOM     18  C   UNL     1       8.787 -10.917  13.788  1.00  0.00     0.063 A 
ATOM     19  N   UNL     1       7.687  -9.205  12.964  1.00  0.00    -0.282 N 
ATOM     20  N   UNL     1       7.743 -10.156  13.991  1.00  0.00    -0.181 NA
ATOM     21  C   UNL     1       9.071  -8.629  10.905  1.00  0.00     0.066 C 
ATOM     22  C   UNL     1       9.222 -12.070  14.655  1.00  0.00     0.069 C 
ATOM     23  H   UNL     1       7.014  -8.514  12.861  1.00  0.00     0.190 HD
ENDBRANCH  15  16
ENDBRANCH  14  15
ENDBRANCH  13  14
ENDBRANCH   1  13
TORSDOF 7
ENDMDL
MODEL 7
REMARK VINA RESULT:    -2.634      2.604      4.649
REMARK INTER + INTRA:          -5.876
REMARK INTER:                  -3.669
REMARK INTRA:                  -2.207
REMARK UNBOUND:                -2.242
REMARK SMILES Cc1n[nH]c(C)c1CCCOc1cc(C(=O)O)ccc1F
REMARK SMILES IDX 11 1 12 2 14 3 18 4 13 5 19 6 20 7 21 8 15 9 16 10 17 11
REMARK SMILES IDX 10 13 9 14 8 15 7 16 5 17 2 18 4 19 3 20 6 21 1 22
REMARK H PARENT 17 12 4 23
ROOT
ATOM      1  O   UNL     1      12.792  -9.465  14.811  1.00  0.00    -0.490 OA
ENDROOT
BRANCH   1   2
ATOM      2  C   UNL     1      12.076 -10.063  13.822  1.00  0.00     0.155 A 
ATOM      3  C   UNL     1      10.811  -9.921  11.782  1.00  0.00     0.063 A 
ATOM      4  C   UNL     1      10.623 -11.305  11.806  1.00  0.00     0.019 A 
ATOM      5  C   UNL     1      11.542  -9.303  12.798  1.00  0.00     0.065 A 
ATOM      6  C   UNL     1      11.164 -12.056  12.828  1.00  0.00     0.044 A 
ATOM      7  C   UNL     1      11.893 -11.442  13.833  1.00  0.00     0.165 A 
ATOM      8  F   UNL     1      12.420 -12.183  14.831  1.00  0.00    -0.203 F 
BRANCH   3   9
ATOM      9  C   UNL     1      10.234  -9.114  10.689  1.00  0.00     0.335 C 
ATOM     10  O   UNL     1       9.073  -8.762  10.741  1.00  0.00    -0.246 OA
BRANCH   9  11
ATOM     11  O   UNL     1      10.998  -8.762   9.636  1.00  0.00    -0.478 OA
ATOM     12  H   UNL     1      10.584  -8.211   8.957  1.00  0.00     0.297 HD
ENDBRANCH   9  11
ENDBRANCH   3   9
ENDBRANCH   1   2
BRANCH   1  13
ATOM     13  C   UNL     1      12.109  -9.202  16.039  1.00  0.00     0.230 C 
BRANCH  13  14
ATOM     14  C   UNL     1      11.290  -7.918  15.901  1.00  0.00     0.046 C 
BRANCH  14  15
ATOM     15  C   UNL     1       9.871  -8.159  16.421  1.00  0.00     0.043 C 
BRANCH  15  16
ATOM     16  C   UNL     1       8.998  -8.646  15.294  1.00  0.00    -0.004 A 
ATOM     17  C   UNL     1       8.580  -7.911  14.236  1.00  0.00     0.036 A 
ATOM     18  C   UNL     1       8.481  -9.938  15.151  1.00  0.00     0.063 A 
ATOM     19  N   UNL     1       7.820  -8.709  13.456  1.00  0.00    -0.282 N 
ATOM     20  N   UNL     1       7.769  -9.975  14.054  1.00  0.00    -0.181 NA
ATOM     21  C   UNL     1       8.904  -6.464  13.977  1.00  0.00     0.066 C 
ATOM     22  C   UNL     1       8.697 -11.086  16.104  1.00  0.00     0.069 C 
ATOM     23  H   UNL     1       7.385  -8.451  12.629  1.00  0.00     0.190 HD
ENDBRANCH  15  16
ENDBRANCH  14  15
ENDBRANCH  13  14
ENDBRANCH   1  13
TORSDOF 7
ENDMDL
MODEL 8
REMARK VINA RESULT:    -1.723      2.487      5.314
REMARK INTER + INTRA:          -4.619
REMARK INTER:                  -2.578
REMARK INTRA:                  -2.041
REMARK UNBOUND:                -2.242
REMARK SMILES Cc1n[nH]c(C)c1CCCOc1cc(C(=O)O)ccc1F
REMARK SMILES IDX 11 1 12 2 14 3 18 4 13 5 19 6 20 7 21 8 15 9 16 10 17 11
REMARK SMILES IDX 10 13 9 14 8 15 7 16 5 17 2 18 4 19 3 20 6 21 1 22
REMARK H PARENT 17 12 4 23
ROOT
ATOM      1  O   UNL     1       9.164  -7.402  12.244  1.00  0.00    -0.490 OA
ENDROOT
BRANCH   1   2
ATOM      2  C   UNL     1       9.308  -8.754  12.279  1.00  0.00     0.155 A 
ATOM      3  C   UNL     1       8.412 -10.938  12.738  1.00  0.00     0.063 A 
ATOM      4  C   UNL     1       9.620 -11.514  12.333  1.00  0.00     0.019 A 
ATOM      5  C   UNL     1       8.262  -9.550  12.708  1.00  0.00     0.065 A 
ATOM      6  C   UNL     1      10.655 -10.712  11.901  1.00  0.00     0.044 A 
ATOM      7  C   UNL     1      10.502  -9.336  11.868  1.00  0.00     0.165 A 
ATOM      8  F   UNL     1      11.521  -8.556  11.444  1.00  0.00    -0.203 F 
BRANCH   3   9
ATOM      9  C   UNL     1       7.302 -11.793  13.200  1.00  0.00     0.335 C 
ATOM     10  O   UNL     1       7.311 -12.245  14.327  1.00  0.00    -0.246 OA
BRANCH   9  11
ATOM     11  O   UNL     1       6.274 -12.067  12.373  1.00  0.00    -0.478 OA
ATOM     12  H   UNL     1       6.049 -11.395  11.714  1.00  0.00     0.297 HD
ENDBRANCH   9  11
ENDBRANCH   3   9
ENDBRANCH   1   2
BRANCH   1  13
ATOM     13  C   UNL     1       8.528  -6.789  13.368  1.00  0.00     0.230 C 
BRANCH  13  14
ATOM     14  C   UNL     1       9.588  -6.149  14.266  1.00  0.00     0.046 C 
BRANCH  14  15
ATOM     15  C   UNL     1       9.422  -6.666  15.697  1.00  0.00     0.043 C 
BRANCH  15  16
ATOM     16  C   UNL     1       9.998  -8.054  15.801  1.00  0.00    -0.004 A 
ATOM     17  C   UNL     1       9.329  -9.167  16.180  1.00  0.00     0.036 A 
ATOM     18  C   UNL     1      11.318  -8.421  15.516  1.00  0.00     0.063 A 
ATOM     19  N   UNL     1      10.196 -10.201  16.143  1.00  0.00    -0.282 N 
ATOM     20  N   UNL     1      11.439  -9.706  15.727  1.00  0.00    -0.181 NA
ATOM     21  C   UNL     1       7.877  -9.240  16.573  1.00  0.00     0.066 C 
ATOM     22  C   UNL     1      12.414  -7.494  15.057  1.00  0.00     0.069 C 
ATOM     23  H   UNL     1       9.994 -11.123  16.365  1.00  0.00     0.190 HD
ENDBRANCH  15  16
ENDBRANCH  14  15
ENDBRANCH  13  14
ENDBRANCH   1  13
TORSDOF 7
ENDMDL
MODEL 9
REMARK VINA RESULT:    -0.982      1.912      2.434
REMARK INTER + INTRA:          -3.597
REMARK INTER:                  -1.141
REMARK INTRA:                  -2.456
REMARK UNBOUND:                -2.242
REMARK SMILES Cc1n[nH]c(C)c1CCCOc1cc(C(=O)O)ccc1F
REMARK SMILES IDX 11 1 12 2 14 3 18 4 13 5 19 6 20 7 21 8 15 9 16 10 17 11
REMARK SMILES IDX 10 13 9 14 8 15 7 16 5 17 2 18 4 19 3 20 6 21 1 22
REMARK H PARENT 17 12 4 23
ROOT
ATOM      1  O   UNL     1       9.495 -10.834  16.042  1.00  0.00    -0.490 OA
ENDROOT
BRANCH   1   2
ATOM      2  C   UNL     1      10.737 -10.314  15.849  1.00  0.00     0.155 A 
ATOM      3  C   UNL     1      12.159  -8.536  15.077  1.00  0.00     0.063 A 
ATOM      4  C   UNL     1      13.282  -9.267  15.475  1.00  0.00     0.019 A 
ATOM      5  C   UNL     1      10.883  -9.068  15.268  1.00  0.00     0.065 A 
ATOM      6  C   UNL     1      13.126 -10.506  16.059  1.00  0.00     0.044 A 
ATOM      7  C   UNL     1      11.859 -11.030  16.252  1.00  0.00     0.165 A 
ATOM      8  F   UNL     1      11.713 -12.245  16.825  1.00  0.00    -0.203 F 
BRANCH   3   9
ATOM      9  C   UNL     1      12.322  -7.209  14.452  1.00  0.00     0.335 C 
ATOM     10  O   UNL     1      12.547  -6.236  15.142  1.00  0.00    -0.246 OA
BRANCH   9  11
ATOM     11  O   UNL     1      12.228  -7.079  13.114  1.00  0.00    -0.478 OA
ATOM     12  H   UNL     1      12.954  -7.441  12.585  1.00  0.00     0.297 HD
ENDBRANCH   9  11
ENDBRANCH   3   9
ENDBRANCH   1   2
BRANCH   1  13
ATOM     13  C   UNL     1       9.016 -11.752  15.056  1.00  0.00     0.230 C 
BRANCH  13  14
ATOM     14  C   UNL     1       8.268 -10.985  13.965  1.00  0.00     0.046 C 
BRANCH  14  15
ATOM     15  C   UNL     1       8.786 -11.417  12.591  1.00  0.00     0.043 C 
BRANCH  15  16
ATOM     16  C   UNL     1       9.785 -10.407  12.090  1.00  0.00    -0.004 A 
ATOM     17  C   UNL     1      11.120 -10.599  11.970  1.00  0.00     0.036 A 
ATOM     18  C   UNL     1       9.497  -9.107  11.659  1.00  0.00     0.063 A 
ATOM     19  N   UNL     1      11.658  -9.459  11.488  1.00  0.00    -0.282 N 
ATOM     20  N   UNL     1      10.619  -8.536  11.305  1.00  0.00    -0.181 NA
ATOM     21  C   UNL     1      11.870 -11.859  12.314  1.00  0.00     0.066 C 
ATOM     22  C   UNL     1       8.131  -8.471  11.622  1.00  0.00     0.069 C 
ATOM     23  H   UNL     1      12.597  -9.305  11.301  1.00  0.00     0.190 HD
ENDBRANCH  15  16
ENDBRANCH  14  15
ENDBRANCH  13  14
ENDBRANCH   1  13
TORSDOF 7
ENDMDL
