MODEL 1
REMARK VINA RESULT:    -4.676      0.000      0.000
REMARK INTER + INTRA:          -5.638
REMARK INTER:                  -5.359
REMARK INTRA:                  -0.279
REMARK UNBOUND:                -0.279
REMARK SMILES O=C(O)c1ccc2nc(-c3cc(Cl)cc(Cl)c3)oc2c1
REMARK SMILES IDX 5 1 6 2 20 3 8 4 18 5 4 6 9 7 7 8 19 9 2 10 1 11 3 12 10 14
REMARK SMILES IDX 11 15 17 16 12 17 15 18 14 19 13 20 16 21
REMARK H PARENT 3 13
ROOT
ATOM      1  C   UNL     1       1.059  -3.216  -3.146  1.00  0.00     0.018 A 
ATOM      2  C   UNL     1       0.630  -1.927  -3.256  1.00  0.00     0.033 A 
ATOM      3  C   UNL     1       1.670  -2.839  -0.830  1.00  0.00     0.065 A 
ATOM      4  N   UNL     1       0.377   0.229  -1.965  1.00  0.00    -0.209 NA
ATOM      5  O   UNL     1       1.193  -0.487  -0.080  1.00  0.00    -0.436 OA
ATOM      6  C   UNL     1       1.582  -3.688  -1.934  1.00  0.00     0.063 A 
ATOM      7  C   UNL     1       0.663   0.565  -0.731  1.00  0.00     0.227 A 
ATOM      8  C   UNL     1       0.712  -1.064  -2.156  1.00  0.00     0.110 A 
ATOM      9  C   UNL     1       1.240  -1.529  -0.939  1.00  0.00     0.156 A 
ENDROOT
BRANCH   6  10
ATOM     10  C   UNL     1       2.038  -5.086  -1.825  1.00  0.00     0.335 C 
ATOM     11  O   UNL     1       1.259  -5.954  -1.486  1.00  0.00    -0.246 OA
BRANCH  10  12
ATOM     12  O   UNL     1       3.319  -5.401  -2.100  1.00  0.00    -0.478 OA
ATOM     13  H   UNL     1       3.470  -6.154  -2.687  1.00  0.00     0.297 HD
ENDBRANCH  10  12
ENDBRANCH   6  10
BRANCH   7  14
ATOM     14  C   UNL     1       0.439   1.902  -0.144  1.00  0.00     0.040 A 
ATOM     15  C   UNL     1       1.020   3.030  -0.725  1.00  0.00     0.034 A 
ATOM     16  C   UNL     1      -0.353   2.041   0.997  1.00  0.00     0.034 A 
ATOM     17  C   UNL     1       0.806   4.277  -0.172  1.00  0.00     0.043 A 
ATOM     18  C   UNL     1      -0.560   3.293   1.541  1.00  0.00     0.043 A 
ATOM     19  C   UNL     1       0.018   4.408   0.960  1.00  0.00     0.041 A 
ATOM     20  Cl  UNL     1       1.526   5.681  -0.894  1.00  0.00    -0.084 Cl
ATOM     21  Cl  UNL     1      -1.546   3.469   2.960  1.00  0.00    -0.084 Cl
ENDBRANCH   7  14
TORSDOF 3
ENDMDL
MODEL 2
REMARK VINA RESULT:    -4.673     14.645     16.249
REMARK INTER + INTRA:          -5.635
REMARK INTER:                  -5.350
REMARK INTRA:                  -0.284
REMARK UNBOUND:                -0.279
REMARK SMILES O=C(O)c1ccc2nc(-c3cc(Cl)cc(Cl)c3)oc2c1
REMARK SMILES IDX 5 1 6 2 20 3 8 4 18 5 4 6 9 7 7 8 19 9 2 10 1 11 3 12 10 14
REMARK SMILES IDX 11 15 17 16 12 17 15 18 14 19 13 20 16 21
REMARK H PARENT 3 13
ROOT
ATOM      1  C   UNL     1      12.040   1.018  13.515  1.00  0.00     0.018 A 
ATOM      2  C   UNL     1      11.711  -0.204  13.011  1.00  0.00     0.033 A 
ATOM      3  C   UNL     1      10.240   2.048  12.258  1.00  0.00     0.065 A 
ATOM      4  N   UNL     1      10.091  -1.377  11.467  1.00  0.00    -0.209 NA
ATOM      5  O   UNL     1       8.953   0.383  10.882  1.00  0.00    -0.436 OA
ATOM      6  C   UNL     1      11.310   2.157  13.148  1.00  0.00     0.063 A 
ATOM      7  C   UNL     1       9.091  -0.949  10.737  1.00  0.00     0.227 A 
ATOM      8  C   UNL     1      10.641  -0.329  12.117  1.00  0.00     0.110 A 
ATOM      9  C   UNL     1       9.906   0.810  11.740  1.00  0.00     0.156 A 
ENDROOT
BRANCH   6  10
ATOM     10  C   UNL     1      11.672   3.473  13.705  1.00  0.00     0.335 C 
ATOM     11  O   UNL     1      11.234   3.816  14.785  1.00  0.00    -0.246 OA
BRANCH  10  12
ATOM     12  O   UNL     1      12.486   4.297  13.015  1.00  0.00    -0.478 OA
ATOM     13  H   UNL     1      12.070   4.898  12.383  1.00  0.00     0.297 HD
ENDBRANCH  10  12
ENDBRANCH   6  10
BRANCH   7  14
ATOM     14  C   UNL     1       8.241  -1.802   9.881  1.00  0.00     0.040 A 
ATOM     15  C   UNL     1       7.997  -3.129  10.236  1.00  0.00     0.034 A 
ATOM     16  C   UNL     1       7.679  -1.282   8.713  1.00  0.00     0.034 A 
ATOM     17  C   UNL     1       7.201  -3.921   9.432  1.00  0.00     0.043 A 
ATOM     18  C   UNL     1       6.885  -2.084   7.917  1.00  0.00     0.043 A 
ATOM     19  C   UNL     1       6.647  -3.400   8.275  1.00  0.00     0.041 A 
ATOM     20  Cl  UNL     1       6.895  -5.572   9.872  1.00  0.00    -0.084 Cl
ATOM     21  Cl  UNL     1       6.185  -1.440   6.464  1.00  0.00    -0.084 Cl
ENDBRANCH   7  14
TORSDOF 3
ENDMDL
MODEL 3
REMARK VINA RESULT:    -4.672     14.641     16.159
REMARK INTER + INTRA:          -5.633
REMARK INTER:                  -5.349
REMARK INTRA:                  -0.284
REMARK UNBOUND:                -0.279
REMARK SMILES O=C(O)c1ccc2nc(-c3cc(Cl)cc(Cl)c3)oc2c1
REMARK SMILES IDX 5 1 6 2 20 3 8 4 18 5 4 6 9 7 7 8 19 9 2 10 1 11 3 12 10 14
REMARK SMILES IDX 11 15 17 16 12 17 15 18 14 19 13 20 16 21
REMARK H PARENT 3 13
ROOT
ATOM      1  C   UNL     1      12.035   1.018  13.515  1.00  0.00     0.018 A 
ATOM      2  C   UNL     1      11.705  -0.205  13.011  1.00  0.00     0.033 A 
ATOM      3  C   UNL     1      10.238   2.048  12.254  1.00  0.00     0.065 A 
ATOM      4  N   UNL     1      10.086  -1.377  11.466  1.00  0.00    -0.209 NA
ATOM      5  O   UNL     1       8.951   0.383  10.878  1.00  0.00    -0.436 OA
ATOM      6  C   UNL     1      11.306   2.157  13.146  1.00  0.00     0.063 A 
ATOM      7  C   UNL     1       9.088  -0.948  10.734  1.00  0.00     0.227 A 
ATOM      8  C   UNL     1      10.636  -0.329  12.116  1.00  0.00     0.110 A 
ATOM      9  C   UNL     1       9.903   0.810  11.737  1.00  0.00     0.156 A 
ENDROOT
BRANCH   6  10
ATOM     10  C   UNL     1      11.668   3.474  13.702  1.00  0.00     0.335 C 
ATOM     11  O   UNL     1      11.220   3.824  14.775  1.00  0.00    -0.246 OA
BRANCH  10  12
ATOM     12  O   UNL     1      12.496   4.290  13.019  1.00  0.00    -0.478 OA
ATOM     13  H   UNL     1      13.256   3.881  12.585  1.00  0.00     0.297 HD
ENDBRANCH  10  12
ENDBRANCH   6  10
BRANCH   7  14
ATOM     14  C   UNL     1       8.238  -1.801   9.878  1.00  0.00     0.040 A 
ATOM     15  C   UNL     1       7.676  -1.283   8.711  1.00  0.00     0.034 A 
ATOM     16  C   UNL     1       7.994  -3.129  10.234  1.00  0.00     0.034 A 
ATOM     17  C   UNL     1       6.883  -2.086   7.914  1.00  0.00     0.043 A 
ATOM     18  C   UNL     1       7.200  -3.922   9.429  1.00  0.00     0.043 A 
ATOM     19  C   UNL     1       6.645  -3.402   8.273  1.00  0.00     0.041 A 
ATOM     20  Cl  UNL     1       6.183  -1.444   6.461  1.00  0.00    -0.084 Cl
ATOM     21  Cl  UNL     1       6.896  -5.574   9.870  1.00  0.00    -0.084 Cl
ENDBRANCH   7  14
TORSDOF 3
ENDMDL
MODEL 4
REMARK VINA RESULT:    -4.665      4.100      7.783
REMARK INTER + INTRA:          -5.626
REMARK INTER:                  -5.346
REMARK INTRA:                  -0.280
REMARK UNBOUND:                -0.279
REMARK SMILES O=C(O)c1ccc2nc(-c3cc(Cl)cc(Cl)c3)oc2c1
REMARK SMILES IDX 5 1 6 2 20 3 8 4 18 5 4 6 9 7 7 8 19 9 2 10 1 11 3 12 10 14
REMARK SMILES IDX 11 15 17 16 12 17 15 18 14 19 13 20 16 21
REMARK H PARENT 3 13
ROOT
ATOM      1  C   UNL     1       1.237   2.508   1.367  1.00  0.00     0.018 A 
ATOM      2  C   UNL     1       1.892   1.314   1.340  1.00  0.00     0.033 A 
ATOM      3  C   UNL     1      -0.129   1.829  -0.517  1.00  0.00     0.065 A 
ATOM      4  N   UNL     1       2.010  -0.891   0.113  1.00  0.00    -0.209 NA
ATOM      5  O   UNL     1       0.438  -0.480  -1.334  1.00  0.00    -0.436 OA
ATOM      6  C   UNL     1       0.219   2.781   0.443  1.00  0.00     0.063 A 
ATOM      7  C   UNL     1       1.345  -1.378  -0.905  1.00  0.00     0.227 A 
ATOM      8  C   UNL     1       1.553   0.350   0.382  1.00  0.00     0.110 A 
ATOM      9  C   UNL     1       0.536   0.618  -0.552  1.00  0.00     0.156 A 
ENDROOT
BRANCH   6  10
ATOM     10  C   UNL     1      -0.487   4.074   0.486  1.00  0.00     0.335 C 
ATOM     11  O   UNL     1      -1.569   4.158   1.031  1.00  0.00    -0.246 OA
BRANCH  10  12
ATOM     12  O   UNL     1       0.068   5.164  -0.081  1.00  0.00    -0.478 OA
ATOM     13  H   UNL     1       0.960   5.067  -0.439  1.00  0.00     0.297 HD
ENDBRANCH  10  12
ENDBRANCH   6  10
BRANCH   7  14
ATOM     14  C   UNL     1       1.559  -2.715  -1.496  1.00  0.00     0.040 A 
ATOM     15  C   UNL     1       0.492  -3.606  -1.620  1.00  0.00     0.034 A 
ATOM     16  C   UNL     1       2.831  -3.093  -1.931  1.00  0.00     0.034 A 
ATOM     17  C   UNL     1       0.699  -4.854  -2.174  1.00  0.00     0.043 A 
ATOM     18  C   UNL     1       3.026  -4.343  -2.483  1.00  0.00     0.043 A 
ATOM     19  C   UNL     1       1.963  -5.223  -2.603  1.00  0.00     0.041 A 
ATOM     20  Cl  UNL     1      -0.626  -5.964  -2.330  1.00  0.00    -0.084 Cl
ATOM     21  Cl  UNL     1       4.607  -4.815  -3.024  1.00  0.00    -0.084 Cl
ENDBRANCH   7  14
TORSDOF 3
ENDMDL
MODEL 5
REMARK VINA RESULT:    -4.660      4.099      7.589
REMARK INTER + INTRA:          -5.620
REMARK INTER:                  -5.340
REMARK INTRA:                  -0.280
REMARK UNBOUND:                -0.279
REMARK SMILES O=C(O)c1ccc2nc(-c3cc(Cl)cc(Cl)c3)oc2c1
REMARK SMILES IDX 5 1 6 2 20 3 8 4 18 5 4 6 9 7 7 8 19 9 2 10 1 11 3 12 10 14
REMARK SMILES IDX 11 15 17 16 12 17 15 18 14 19 13 20 16 21
REMARK H PARENT 3 13
ROOT
ATOM      1  C   UNL     1       1.236   2.518   1.357  1.00  0.00     0.018 A 
ATOM      2  C   UNL     1       1.893   1.324   1.330  1.00  0.00     0.033 A 
ATOM      3  C   UNL     1      -0.133   1.834  -0.524  1.00  0.00     0.065 A 
ATOM      4  N   UNL     1       2.011  -0.883   0.106  1.00  0.00    -0.209 NA
ATOM      5  O   UNL     1       0.436  -0.476  -1.337  1.00  0.00    -0.436 OA
ATOM      6  C   UNL     1       0.216   2.787   0.434  1.00  0.00     0.063 A 
ATOM      7  C   UNL     1       1.345  -1.372  -0.909  1.00  0.00     0.227 A 
ATOM      8  C   UNL     1       1.553   0.359   0.375  1.00  0.00     0.110 A 
ATOM      9  C   UNL     1       0.534   0.623  -0.557  1.00  0.00     0.156 A 
ENDROOT
BRANCH   6  10
ATOM     10  C   UNL     1      -0.491   4.080   0.476  1.00  0.00     0.335 C 
ATOM     11  O   UNL     1      -1.572   4.163   1.026  1.00  0.00    -0.246 OA
BRANCH  10  12
ATOM     12  O   UNL     1       0.060   5.169  -0.095  1.00  0.00    -0.478 OA
ATOM     13  H   UNL     1       0.600   5.736   0.471  1.00  0.00     0.297 HD
ENDBRANCH  10  12
ENDBRANCH   6  10
BRANCH   7  14
ATOM     14  C   UNL     1       1.560  -2.710  -1.498  1.00  0.00     0.040 A 
ATOM     15  C   UNL     1       2.830  -3.089  -1.934  1.00  0.00     0.034 A 
ATOM     16  C   UNL     1       0.491  -3.601  -1.621  1.00  0.00     0.034 A 
ATOM     17  C   UNL     1       3.025  -4.341  -2.482  1.00  0.00     0.043 A 
ATOM     18  C   UNL     1       0.699  -4.850  -2.171  1.00  0.00     0.043 A 
ATOM     19  C   UNL     1       1.961  -5.220  -2.602  1.00  0.00     0.041 A 
ATOM     20  Cl  UNL     1       4.604  -4.814  -3.025  1.00  0.00    -0.084 Cl
ATOM     21  Cl  UNL     1      -0.628  -5.960  -2.325  1.00  0.00    -0.084 Cl
ENDBRANCH   7  14
TORSDOF 3
ENDMDL
MODEL 6
REMARK VINA RESULT:    -4.656      0.085      2.021
REMARK INTER + INTRA:          -5.615
REMARK INTER:                  -5.336
REMARK INTRA:                  -0.279
REMARK UNBOUND:                -0.279
REMARK SMILES O=C(O)c1ccc2nc(-c3cc(Cl)cc(Cl)c3)oc2c1
REMARK SMILES IDX 5 1 6 2 20 3 8 4 18 5 4 6 9 7 7 8 19 9 2 10 1 11 3 12 10 14
REMARK SMILES IDX 11 15 17 16 12 17 15 18 14 19 13 20 16 21
REMARK H PARENT 3 13
ROOT
ATOM      1  C   UNL     1       1.067  -3.268  -3.209  1.00  0.00     0.018 A 
ATOM      2  C   UNL     1       0.638  -1.979  -3.313  1.00  0.00     0.033 A 
ATOM      3  C   UNL     1       1.677  -2.903  -0.890  1.00  0.00     0.065 A 
ATOM      4  N   UNL     1       0.385   0.171  -2.010  1.00  0.00    -0.209 NA
ATOM      5  O   UNL     1       1.200  -0.555  -0.128  1.00  0.00    -0.436 OA
ATOM      6  C   UNL     1       1.589  -3.747  -1.999  1.00  0.00     0.063 A 
ATOM      7  C   UNL     1       0.671   0.500  -0.775  1.00  0.00     0.227 A 
ATOM      8  C   UNL     1       0.720  -1.122  -2.208  1.00  0.00     0.110 A 
ATOM      9  C   UNL     1       1.247  -1.593  -0.993  1.00  0.00     0.156 A 
ENDROOT
BRANCH   6  10
ATOM     10  C   UNL     1       2.045  -5.145  -1.897  1.00  0.00     0.335 C 
ATOM     11  O   UNL     1       1.281  -6.006  -1.507  1.00  0.00    -0.246 OA
BRANCH  10  12
ATOM     12  O   UNL     1       3.309  -5.469  -2.235  1.00  0.00    -0.478 OA
ATOM     13  H   UNL     1       3.728  -6.181  -1.734  1.00  0.00     0.297 HD
ENDBRANCH  10  12
ENDBRANCH   6  10
BRANCH   7  14
ATOM     14  C   UNL     1       0.447   1.834  -0.180  1.00  0.00     0.040 A 
ATOM     15  C   UNL     1      -0.341   1.969   0.963  1.00  0.00     0.034 A 
ATOM     16  C   UNL     1       1.022   2.966  -0.762  1.00  0.00     0.034 A 
ATOM     17  C   UNL     1      -0.546   3.218   1.515  1.00  0.00     0.043 A 
ATOM     18  C   UNL     1       0.810   4.210  -0.202  1.00  0.00     0.043 A 
ATOM     19  C   UNL     1       0.028   4.336   0.933  1.00  0.00     0.041 A 
ATOM     20  Cl  UNL     1      -1.525   3.388   2.938  1.00  0.00    -0.084 Cl
ATOM     21  Cl  UNL     1       1.525   5.618  -0.923  1.00  0.00    -0.084 Cl
ENDBRANCH   7  14
TORSDOF 3
ENDMDL
MODEL 7
REMARK VINA RESULT:    -4.158     14.410     15.322
REMARK INTER + INTRA:          -5.045
REMARK INTER:                  -4.761
REMARK INTRA:                  -0.283
REMARK UNBOUND:                -0.279
REMARK SMILES O=C(O)c1ccc2nc(-c3cc(Cl)cc(Cl)c3)oc2c1
REMARK SMILES IDX 5 1 6 2 20 3 8 4 18 5 4 6 9 7 7 8 19 9 2 10 1 11 3 12 10 14
REMARK SMILES IDX 11 15 17 16 12 17 15 18 14 19 13 20 16 21
REMARK H PARENT 3 13
ROOT
ATOM      1  C   UNL     1       8.166  -9.157  12.357  1.00  0.00     0.018 A 
ATOM      2  C   UNL     1       7.964  -8.526  11.166  1.00  0.00     0.033 A 
ATOM      3  C   UNL     1       8.184  -7.025  13.511  1.00  0.00     0.065 A 
ATOM      4  N   UNL     1       7.678  -6.246  10.118  1.00  0.00    -0.209 NA
ATOM      5  O   UNL     1       7.855  -5.083  11.948  1.00  0.00    -0.436 OA
ATOM      6  C   UNL     1       8.276  -8.417  13.543  1.00  0.00     0.063 A 
ATOM      7  C   UNL     1       7.669  -5.034  10.616  1.00  0.00     0.227 A 
ATOM      8  C   UNL     1       7.870  -7.130  11.120  1.00  0.00     0.110 A 
ATOM      9  C   UNL     1       7.984  -6.380  12.304  1.00  0.00     0.156 A 
ENDROOT
BRANCH   6  10
ATOM     10  C   UNL     1       8.488  -9.111  14.826  1.00  0.00     0.335 C 
ATOM     11  O   UNL     1       9.599  -9.154  15.316  1.00  0.00    -0.246 OA
BRANCH  10  12
ATOM     12  O   UNL     1       7.451  -9.699  15.454  1.00  0.00    -0.478 OA
ATOM     13  H   UNL     1       7.634 -10.520  15.931  1.00  0.00     0.297 HD
ENDBRANCH  10  12
ENDBRANCH   6  10
BRANCH   7  14
ATOM     14  C   UNL     1       7.484  -3.797   9.830  1.00  0.00     0.040 A 
ATOM     15  C   UNL     1       6.613  -3.782   8.740  1.00  0.00     0.034 A 
ATOM     16  C   UNL     1       8.182  -2.637  10.174  1.00  0.00     0.034 A 
ATOM     17  C   UNL     1       6.443  -2.622   8.010  1.00  0.00     0.043 A 
ATOM     18  C   UNL     1       8.005  -1.484   9.437  1.00  0.00     0.043 A 
ATOM     19  C   UNL     1       7.139  -1.476   8.357  1.00  0.00     0.041 A 
ATOM     20  Cl  UNL     1       5.359  -2.601   6.655  1.00  0.00    -0.084 Cl
ATOM     21  Cl  UNL     1       8.872  -0.041   9.863  1.00  0.00    -0.084 Cl
ENDBRANCH   7  14
TORSDOF 3
ENDMDL
MODEL 8
REMARK VINA RESULT:    -4.142     14.406     15.301
REMARK INTER + INTRA:          -5.026
REMARK INTER:                  -4.743
REMARK INTRA:                  -0.283
REMARK UNBOUND:                -0.279
REMARK SMILES O=C(O)c1ccc2nc(-c3cc(Cl)cc(Cl)c3)oc2c1
REMARK SMILES IDX 5 1 6 2 20 3 8 4 18 5 4 6 9 7 7 8 19 9 2 10 1 11 3 12 10 14
REMARK SMILES IDX 11 15 17 16 12 17 15 18 14 19 13 20 16 21
REMARK H PARENT 3 13
ROOT
ATOM      1  C   UNL     1       8.164  -9.146  12.374  1.00  0.00     0.018 A 
ATOM      2  C   UNL     1       7.976  -8.518  11.179  1.00  0.00     0.033 A 
ATOM      3  C   UNL     1       8.143  -7.011  13.525  1.00  0.00     0.065 A 
ATOM      4  N   UNL     1       7.685  -6.242  10.123  1.00  0.00    -0.209 NA
ATOM      5  O   UNL     1       7.821  -5.075  11.954  1.00  0.00    -0.436 OA
ATOM      6  C   UNL     1       8.248  -8.403  13.560  1.00  0.00     0.063 A 
ATOM      7  C   UNL     1       7.656  -5.030  10.619  1.00  0.00     0.227 A 
ATOM      8  C   UNL     1       7.869  -7.123  11.130  1.00  0.00     0.110 A 
ATOM      9  C   UNL     1       7.957  -6.371  12.314  1.00  0.00     0.156 A 
ENDROOT
BRANCH   6  10
ATOM     10  C   UNL     1       8.446  -9.093  14.848  1.00  0.00     0.335 C 
ATOM     11  O   UNL     1       9.552  -9.142  15.347  1.00  0.00    -0.246 OA
BRANCH  10  12
ATOM     12  O   UNL     1       7.399  -9.670  15.471  1.00  0.00    -0.478 OA
ATOM     13  H   UNL     1       7.596 -10.217  16.244  1.00  0.00     0.297 HD
ENDBRANCH  10  12
ENDBRANCH   6  10
BRANCH   7  14
ATOM     14  C   UNL     1       7.473  -3.795   9.828  1.00  0.00     0.040 A 
ATOM     15  C   UNL     1       8.164  -2.633  10.171  1.00  0.00     0.034 A 
ATOM     16  C   UNL     1       6.604  -3.787   8.734  1.00  0.00     0.034 A 
ATOM     17  C   UNL     1       7.989  -1.483   9.427  1.00  0.00     0.043 A 
ATOM     18  C   UNL     1       6.437  -2.631   7.998  1.00  0.00     0.043 A 
ATOM     19  C   UNL     1       7.127  -1.481   8.344  1.00  0.00     0.041 A 
ATOM     20  Cl  UNL     1       8.849  -0.036   9.851  1.00  0.00    -0.084 Cl
ATOM     21  Cl  UNL     1       5.358  -2.619   6.638  1.00  0.00    -0.084 Cl
ENDBRANCH   7  14
TORSDOF 3
ENDMDL
MODEL 9
REMARK VINA RESULT:    -3.517     14.525     15.928
REMARK INTER + INTRA:          -4.310
REMARK INTER:                  -4.014
REMARK INTRA:                  -0.296
REMARK UNBOUND:                -0.279
REMARK SMILES O=C(O)c1ccc2nc(-c3cc(Cl)cc(Cl)c3)oc2c1
REMARK SMILES IDX 5 1 6 2 20 3 8 4 18 5 4 6 9 7 7 8 19 9 2 10 1 11 3 12 10 14
REMARK SMILES IDX 11 15 17 16 12 17 15 18 14 19 13 20 16 21
REMARK H PARENT 3 13
ROOT
ATOM      1  C   UNL     1       7.679  -1.613   8.734  1.00  0.00     0.018 A 
ATOM      2  C   UNL     1       8.387  -1.895   9.864  1.00  0.00     0.033 A 
ATOM      3  C   UNL     1       6.462  -3.700   8.946  1.00  0.00     0.065 A 
ATOM      4  N   UNL     1       8.676  -3.629  11.679  1.00  0.00    -0.209 NA
ATOM      5  O   UNL     1       7.179  -5.031  10.954  1.00  0.00    -0.436 OA
ATOM      6  C   UNL     1       6.709  -2.508   8.262  1.00  0.00     0.063 A 
ATOM      7  C   UNL     1       8.097  -4.781  11.907  1.00  0.00     0.227 A 
ATOM      8  C   UNL     1       8.149  -3.087  10.560  1.00  0.00     0.110 A 
ATOM      9  C   UNL     1       7.181  -3.992  10.090  1.00  0.00     0.156 A 
ENDROOT
BRANCH   6  10
ATOM     10  C   UNL     1       5.946  -2.189   7.042  1.00  0.00     0.335 C 
ATOM     11  O   UNL     1       5.082  -2.948   6.650  1.00  0.00    -0.246 OA
BRANCH  10  12
ATOM     12  O   UNL     1       6.208  -1.057   6.360  1.00  0.00    -0.478 OA
ATOM     13  H   UNL     1       6.295  -1.132   5.400  1.00  0.00     0.297 HD
ENDBRANCH  10  12
ENDBRANCH   6  10
BRANCH   7  14
ATOM     14  C   UNL     1       8.405  -5.674  13.044  1.00  0.00     0.040 A 
ATOM     15  C   UNL     1       8.262  -7.055  12.909  1.00  0.00     0.034 A 
ATOM     16  C   UNL     1       8.841  -5.138  14.257  1.00  0.00     0.034 A 
ATOM     17  C   UNL     1       8.553  -7.885  13.974  1.00  0.00     0.043 A 
ATOM     18  C   UNL     1       9.129  -5.977  15.315  1.00  0.00     0.043 A 
ATOM     19  C   UNL     1       8.985  -7.347  15.175  1.00  0.00     0.041 A 
ATOM     20  Cl  UNL     1       8.376  -9.603  13.808  1.00  0.00    -0.084 Cl
ATOM     21  Cl  UNL     1       9.671  -5.313  16.825  1.00  0.00    -0.084 Cl
ENDBRANCH   7  14
TORSDOF 3
ENDMDL
