MODEL 1
REMARK VINA RESULT:    -5.506      0.000      0.000
REMARK INTER + INTRA:          -8.250
REMARK INTER:                  -7.598
REMARK INTRA:                  -0.653
REMARK UNBOUND:                -0.653
REMARK SMILES Cc1n[nH]c(C)c1CCCOc1cc(C(=O)O)ccc1F
REMARK SMILES IDX 11 1 12 2 14 3 18 4 13 5 19 6 20 7 21 8 15 9 16 10 17 11
REMARK SMILES IDX 10 13 9 14 8 15 7 16 5 17 2 18 4 19 3 20 6 21 1 22
REMARK H PARENT 17 12 4 23
ROOT
ATOM      1  O   UNL     1      -7.954   2.536   0.334  1.00  0.00    -0.490 OA
ENDROOT
BRANCH   1   2
ATOM      2  C   UNL     1      -6.948   1.926  -0.347  1.00  0.00     0.155 A 
ATOM      3  C   UNL     1      -6.183   0.622  -2.217  1.00  0.00     0.063 A 
ATOM      4  C   UNL     1      -4.876   0.694  -1.728  1.00  0.00     0.019 A 
ATOM      5  C   UNL     1      -7.220   1.243  -1.518  1.00  0.00     0.065 A 
ATOM      6  C   UNL     1      -4.613   1.382  -0.562  1.00  0.00     0.044 A 
ATOM      7  C   UNL     1      -5.643   2.002   0.127  1.00  0.00     0.165 A 
ATOM      8  F   UNL     1      -5.379   2.674   1.269  1.00  0.00    -0.203 F 
BRANCH   3   9
ATOM      9  C   UNL     1      -6.467  -0.114  -3.465  1.00  0.00     0.335 C 
ATOM     10  O   UNL     1      -7.301  -0.996  -3.474  1.00  0.00    -0.246 OA
BRANCH   9  11
ATOM     11  O   UNL     1      -5.805   0.199  -4.596  1.00  0.00    -0.478 OA
ATOM     12  H   UNL     1      -5.119  -0.418  -4.888  1.00  0.00     0.297 HD
ENDBRANCH   9  11
ENDBRANCH   3   9
ENDBRANCH   1   2
BRANCH   1  13
ATOM     13  C   UNL     1      -8.727   1.721   1.218  1.00  0.00     0.230 C 
BRANCH  13  14
ATOM     14  C   UNL     1     -10.177   2.207   1.222  1.00  0.00     0.046 C 
BRANCH  14  15
ATOM     15  C   UNL     1     -10.520   2.801  -0.146  1.00  0.00     0.043 C 
BRANCH  15  16
ATOM     16  C   UNL     1     -11.978   3.180  -0.179  1.00  0.00    -0.004 A 
ATOM     17  C   UNL     1     -12.996   2.389  -0.590  1.00  0.00     0.036 A 
ATOM     18  C   UNL     1     -12.519   4.408   0.215  1.00  0.00     0.063 A 
ATOM     19  N   UNL     1     -14.140   3.094  -0.467  1.00  0.00    -0.282 N 
ATOM     20  N   UNL     1     -13.814   4.361   0.036  1.00  0.00    -0.181 NA
ATOM     21  C   UNL     1     -12.875   0.975  -1.094  1.00  0.00     0.066 C 
ATOM     22  C   UNL     1     -11.742   5.588   0.742  1.00  0.00     0.069 C 
ATOM     23  H   UNL     1     -15.031   2.781  -0.688  1.00  0.00     0.190 HD
ENDBRANCH  15  16
ENDBRANCH  14  15
ENDBRANCH  13  14
ENDBRANCH   1  13
TORSDOF 7
ENDMDL
MODEL 2
REMARK VINA RESULT:    -5.503      1.989      3.726
REMARK INTER + INTRA:          -8.247
REMARK INTER:                  -7.597
REMARK INTRA:                  -0.650
REMARK UNBOUND:                -0.653
REMARK SMILES Cc1n[nH]c(C)c1CCCOc1cc(C(=O)O)ccc1F
REMARK SMILES IDX 11 1 12 2 14 3 18 4 13 5 19 6 20 7 21 8 15 9 16 10 17 11
REMARK SMILES IDX 10 13 9 14 8 15 7 16 5 17 2 18 4 19 3 20 6 21 1 22
REMARK H PARENT 17 12 4 23
ROOT
ATOM      1  O   UNL     1      -8.652   1.240  -2.058  1.00  0.00    -0.490 OA
ENDROOT
BRANCH   1   2
ATOM      2  C   UNL     1      -7.352   1.217  -1.662  1.00  0.00     0.155 A 
ATOM      3  C   UNL     1      -5.634   1.837  -0.098  1.00  0.00     0.063 A 
ATOM      4  C   UNL     1      -4.691   1.150  -0.867  1.00  0.00     0.019 A 
ATOM      5  C   UNL     1      -6.970   1.867  -0.504  1.00  0.00     0.065 A 
ATOM      6  C   UNL     1      -5.082   0.500  -2.018  1.00  0.00     0.044 A 
ATOM      7  C   UNL     1      -6.409   0.526  -2.416  1.00  0.00     0.165 A 
ATOM      8  F   UNL     1      -6.786  -0.113  -3.545  1.00  0.00    -0.203 F 
BRANCH   3   9
ATOM      9  C   UNL     1      -5.218   2.534   1.135  1.00  0.00     0.335 C 
ATOM     10  O   UNL     1      -5.459   3.716   1.276  1.00  0.00    -0.246 OA
BRANCH   9  11
ATOM     11  O   UNL     1      -4.577   1.857   2.107  1.00  0.00    -0.478 OA
ATOM     12  H   UNL     1      -4.634   2.216   3.004  1.00  0.00     0.297 HD
ENDBRANCH   9  11
ENDBRANCH   3   9
ENDBRANCH   1   2
BRANCH   1  13
ATOM     13  C   UNL     1      -9.078   2.369  -2.825  1.00  0.00     0.230 C 
BRANCH  13  14
ATOM     14  C   UNL     1     -10.532   2.698  -2.483  1.00  0.00     0.046 C 
BRANCH  14  15
ATOM     15  C   UNL     1     -10.816   2.306  -1.031  1.00  0.00     0.043 C 
BRANCH  15  16
ATOM     16  C   UNL     1     -12.220   2.712  -0.666  1.00  0.00    -0.004 A 
ATOM     17  C   UNL     1     -12.589   3.887  -0.105  1.00  0.00     0.036 A 
ATOM     18  C   UNL     1     -13.374   1.944  -0.853  1.00  0.00     0.063 A 
ATOM     19  N   UNL     1     -13.927   3.860   0.064  1.00  0.00    -0.282 N 
ATOM     20  N   UNL     1     -14.397   2.628  -0.410  1.00  0.00    -0.181 NA
ATOM     21  C   UNL     1     -11.669   5.021   0.265  1.00  0.00     0.066 C 
ATOM     22  C   UNL     1     -13.428   0.561  -1.451  1.00  0.00     0.069 C 
ATOM     23  H   UNL     1     -14.469   4.568   0.446  1.00  0.00     0.190 HD
ENDBRANCH  15  16
ENDBRANCH  14  15
ENDBRANCH  13  14
ENDBRANCH   1  13
TORSDOF 7
ENDMDL
MODEL 3
REMARK VINA RESULT:    -5.501      2.018      3.293
REMARK INTER + INTRA:          -8.245
REMARK INTER:                  -7.596
REMARK INTRA:                  -0.649
REMARK UNBOUND:                -0.653
REMARK SMILES Cc1n[nH]c(C)c1CCCOc1cc(C(=O)O)ccc1F
REMARK SMILES IDX 11 1 12 2 14 3 18 4 13 5 19 6 20 7 21 8 15 9 16 10 17 11
REMARK SMILES IDX 10 13 9 14 8 15 7 16 5 17 2 18 4 19 3 20 6 21 1 22
REMARK H PARENT 17 12 4 23
ROOT
ATOM      1  O   UNL     1      -8.730   1.263  -1.989  1.00  0.00    -0.490 OA
ENDROOT
BRANCH   1   2
ATOM      2  C   UNL     1      -7.423   1.227  -1.616  1.00  0.00     0.155 A 
ATOM      3  C   UNL     1      -5.672   1.834  -0.083  1.00  0.00     0.063 A 
ATOM      4  C   UNL     1      -4.750   1.133  -0.865  1.00  0.00     0.019 A 
ATOM      5  C   UNL     1      -7.014   1.877  -0.466  1.00  0.00     0.065 A 
ATOM      6  C   UNL     1      -5.168   0.483  -2.007  1.00  0.00     0.044 A 
ATOM      7  C   UNL     1      -6.501   0.523  -2.382  1.00  0.00     0.165 A 
ATOM      8  F   UNL     1      -6.904  -0.116  -3.502  1.00  0.00    -0.203 F 
BRANCH   3   9
ATOM      9  C   UNL     1      -5.228   2.531   1.140  1.00  0.00     0.335 C 
ATOM     10  O   UNL     1      -5.464   3.712   1.286  1.00  0.00    -0.246 OA
BRANCH   9  11
ATOM     11  O   UNL     1      -4.565   1.853   2.098  1.00  0.00    -0.478 OA
ATOM     12  H   UNL     1      -4.077   2.377   2.749  1.00  0.00     0.297 HD
ENDBRANCH   9  11
ENDBRANCH   3   9
ENDBRANCH   1   2
BRANCH   1  13
ATOM     13  C   UNL     1      -9.140   2.361  -2.808  1.00  0.00     0.230 C 
BRANCH  13  14
ATOM     14  C   UNL     1     -10.589   2.727  -2.480  1.00  0.00     0.046 C 
BRANCH  14  15
ATOM     15  C   UNL     1     -10.905   2.320  -1.039  1.00  0.00     0.043 C 
BRANCH  15  16
ATOM     16  C   UNL     1     -12.350   2.619  -0.737  1.00  0.00    -0.004 A 
ATOM     17  C   UNL     1     -13.400   1.798  -0.975  1.00  0.00     0.036 A 
ATOM     18  C   UNL     1     -12.844   3.791  -0.155  1.00  0.00     0.063 A 
ATOM     19  N   UNL     1     -14.518   2.431  -0.565  1.00  0.00    -0.282 N 
ATOM     20  N   UNL     1     -14.144   3.682  -0.057  1.00  0.00    -0.181 NA
ATOM     21  C   UNL     1     -13.331   0.424  -1.589  1.00  0.00     0.066 C 
ATOM     22  C   UNL     1     -12.022   4.979   0.274  1.00  0.00     0.069 C 
ATOM     23  H   UNL     1     -15.422   2.082  -0.613  1.00  0.00     0.190 HD
ENDBRANCH  15  16
ENDBRANCH  14  15
ENDBRANCH  13  14
ENDBRANCH   1  13
TORSDOF 7
ENDMDL
MODEL 4
REMARK VINA RESULT:    -5.475      0.159      1.774
REMARK INTER + INTRA:          -8.209
REMARK INTER:                  -7.535
REMARK INTRA:                  -0.673
REMARK UNBOUND:                -0.653
REMARK SMILES Cc1n[nH]c(C)c1CCCOc1cc(C(=O)O)ccc1F
REMARK SMILES IDX 11 1 12 2 14 3 18 4 13 5 19 6 20 7 21 8 15 9 16 10 17 11
REMARK SMILES IDX 10 13 9 14 8 15 7 16 5 17 2 18 4 19 3 20 6 21 1 22
REMARK H PARENT 17 12 4 23
ROOT
ATOM      1  O   UNL     1      -8.027   2.529   0.309  1.00  0.00    -0.490 OA
ENDROOT
BRANCH   1   2
ATOM      2  C   UNL     1      -7.006   1.933  -0.363  1.00  0.00     0.155 A 
ATOM      3  C   UNL     1      -6.208   0.633  -2.222  1.00  0.00     0.063 A 
ATOM      4  C   UNL     1      -4.905   0.731  -1.726  1.00  0.00     0.019 A 
ATOM      5  C   UNL     1      -7.260   1.239  -1.532  1.00  0.00     0.065 A 
ATOM      6  C   UNL     1      -4.661   1.430  -0.563  1.00  0.00     0.044 A 
ATOM      7  C   UNL     1      -5.705   2.035   0.117  1.00  0.00     0.165 A 
ATOM      8  F   UNL     1      -5.460   2.719   1.256  1.00  0.00    -0.203 F 
BRANCH   3   9
ATOM      9  C   UNL     1      -6.472  -0.115  -3.467  1.00  0.00     0.335 C 
ATOM     10  O   UNL     1      -7.302  -1.001  -3.479  1.00  0.00    -0.246 OA
BRANCH   9  11
ATOM     11  O   UNL     1      -5.797   0.191  -4.592  1.00  0.00    -0.478 OA
ATOM     12  H   UNL     1      -6.253   0.746  -5.241  1.00  0.00     0.297 HD
ENDBRANCH   9  11
ENDBRANCH   3   9
ENDBRANCH   1   2
BRANCH   1  13
ATOM     13  C   UNL     1      -8.860   1.683   1.105  1.00  0.00     0.230 C 
BRANCH  13  14
ATOM     14  C   UNL     1     -10.261   2.290   1.198  1.00  0.00     0.046 C 
BRANCH  14  15
ATOM     15  C   UNL     1     -10.648   2.889  -0.156  1.00  0.00     0.043 C 
BRANCH  15  16
ATOM     16  C   UNL     1     -12.087   3.336  -0.116  1.00  0.00    -0.004 A 
ATOM     17  C   UNL     1     -12.533   4.546   0.294  1.00  0.00     0.036 A 
ATOM     18  C   UNL     1     -13.196   2.576  -0.502  1.00  0.00     0.063 A 
ATOM     19  N   UNL     1     -13.878   4.549   0.178  1.00  0.00    -0.282 N 
ATOM     20  N   UNL     1     -14.271   3.299  -0.320  1.00  0.00    -0.181 NA
ATOM     21  C   UNL     1     -11.682   5.685   0.791  1.00  0.00     0.066 C 
ATOM     22  C   UNL     1     -13.160   1.162  -1.025  1.00  0.00     0.069 C 
ATOM     23  H   UNL     1     -14.468   5.285   0.401  1.00  0.00     0.190 HD
ENDBRANCH  15  16
ENDBRANCH  14  15
ENDBRANCH  13  14
ENDBRANCH   1  13
TORSDOF 7
ENDMDL
MODEL 5
REMARK VINA RESULT:    -4.622      3.745      6.603
REMARK INTER + INTRA:          -7.031
REMARK INTER:                  -6.176
REMARK INTRA:                  -0.855
REMARK UNBOUND:                -0.653
REMARK SMILES Cc1n[nH]c(C)c1CCCOc1cc(C(=O)O)ccc1F
REMARK SMILES IDX 11 1 12 2 14 3 18 4 13 5 19 6 20 7 21 8 15 9 16 10 17 11
REMARK SMILES IDX 10 13 9 14 8 15 7 16 5 17 2 18 4 19 3 20 6 21 1 22
REMARK H PARENT 17 12 4 23
ROOT
ATOM      1  O   UNL     1      -9.200   3.144  -0.116  1.00  0.00    -0.490 OA
ENDROOT
BRANCH   1   2
ATOM      2  C   UNL     1     -10.555   3.102  -0.217  1.00  0.00     0.155 A 
ATOM      3  C   UNL     1     -12.573   1.907  -0.747  1.00  0.00     0.063 A 
ATOM      4  C   UNL     1     -13.326   3.033  -0.406  1.00  0.00     0.019 A 
ATOM      5  C   UNL     1     -11.181   1.948  -0.650  1.00  0.00     0.065 A 
ATOM      6  C   UNL     1     -12.694   4.178   0.031  1.00  0.00     0.044 A 
ATOM      7  C   UNL     1     -11.313   4.215   0.132  1.00  0.00     0.165 A 
ATOM      8  F   UNL     1     -10.699   5.340   0.561  1.00  0.00    -0.203 F 
BRANCH   3   9
ATOM      9  C   UNL     1     -13.247   0.680  -1.215  1.00  0.00     0.335 C 
ATOM     10  O   UNL     1     -13.369   0.469  -2.404  1.00  0.00    -0.246 OA
BRANCH   9  11
ATOM     11  O   UNL     1     -13.721  -0.210  -0.321  1.00  0.00    -0.478 OA
ATOM     12  H   UNL     1     -13.185  -0.999  -0.160  1.00  0.00     0.297 HD
ENDBRANCH   9  11
ENDBRANCH   3   9
ENDBRANCH   1   2
BRANCH   1  13
ATOM     13  C   UNL     1      -8.551   1.977   0.394  1.00  0.00     0.230 C 
BRANCH  13  14
ATOM     14  C   UNL     1      -7.036   2.140   0.265  1.00  0.00     0.046 C 
BRANCH  14  15
ATOM     15  C   UNL     1      -6.704   2.779  -1.085  1.00  0.00     0.043 C 
BRANCH  15  16
ATOM     16  C   UNL     1      -6.590   1.705  -2.136  1.00  0.00    -0.004 A 
ATOM     17  C   UNL     1      -7.427   1.524  -3.184  1.00  0.00     0.036 A 
ATOM     18  C   UNL     1      -5.596   0.723  -2.205  1.00  0.00     0.063 A 
ATOM     19  N   UNL     1      -6.982   0.461  -3.887  1.00  0.00    -0.282 N 
ATOM     20  N   UNL     1      -5.834  -0.027  -3.249  1.00  0.00    -0.181 NA
ATOM     21  C   UNL     1      -8.638   2.360  -3.508  1.00  0.00     0.066 C 
ATOM     22  C   UNL     1      -4.455   0.552  -1.235  1.00  0.00     0.069 C 
ATOM     23  H   UNL     1      -7.387   0.099  -4.690  1.00  0.00     0.190 HD
ENDBRANCH  15  16
ENDBRANCH  14  15
ENDBRANCH  13  14
ENDBRANCH   1  13
TORSDOF 7
ENDMDL
MODEL 6
REMARK VINA RESULT:    -4.605      3.763      7.089
REMARK INTER + INTRA:          -7.008
REMARK INTER:                  -6.194
REMARK INTRA:                  -0.814
REMARK UNBOUND:                -0.653
REMARK SMILES Cc1n[nH]c(C)c1CCCOc1cc(C(=O)O)ccc1F
REMARK SMILES IDX 11 1 12 2 14 3 18 4 13 5 19 6 20 7 21 8 15 9 16 10 17 11
REMARK SMILES IDX 10 13 9 14 8 15 7 16 5 17 2 18 4 19 3 20 6 21 1 22
REMARK H PARENT 17 12 4 23
ROOT
ATOM      1  O   UNL     1      -9.809   1.275  -1.310  1.00  0.00    -0.490 OA
ENDROOT
BRANCH   1   2
ATOM      2  C   UNL     1     -10.907   1.990  -0.947  1.00  0.00     0.155 A 
ATOM      3  C   UNL     1     -11.895   4.008  -0.092  1.00  0.00     0.063 A 
ATOM      4  C   UNL     1     -13.164   3.437  -0.222  1.00  0.00     0.019 A 
ATOM      5  C   UNL     1     -10.765   3.275  -0.459  1.00  0.00     0.065 A 
ATOM      6  C   UNL     1     -13.297   2.157  -0.717  1.00  0.00     0.044 A 
ATOM      7  C   UNL     1     -12.174   1.433  -1.084  1.00  0.00     0.165 A 
ATOM      8  F   UNL     1     -12.310   0.179  -1.568  1.00  0.00    -0.203 F 
BRANCH   3   9
ATOM      9  C   UNL     1     -11.750   5.378   0.436  1.00  0.00     0.335 C 
ATOM     10  O   UNL     1     -11.480   5.553   1.607  1.00  0.00    -0.246 OA
BRANCH   9  11
ATOM     11  O   UNL     1     -11.911   6.436  -0.383  1.00  0.00    -0.478 OA
ATOM     12  H   UNL     1     -11.692   6.306  -1.316  1.00  0.00     0.297 HD
ENDBRANCH   9  11
ENDBRANCH   3   9
ENDBRANCH   1   2
BRANCH   1  13
ATOM     13  C   UNL     1      -8.785   1.975  -2.021  1.00  0.00     0.230 C 
BRANCH  13  14
ATOM     14  C   UNL     1      -7.595   1.041  -2.251  1.00  0.00     0.046 C 
BRANCH  14  15
ATOM     15  C   UNL     1      -7.306   0.258  -0.968  1.00  0.00     0.043 C 
BRANCH  15  16
ATOM     16  C   UNL     1      -6.452   1.093  -0.050  1.00  0.00    -0.004 A 
ATOM     17  C   UNL     1      -5.164   1.449  -0.265  1.00  0.00     0.036 A 
ATOM     18  C   UNL     1      -6.853   1.644   1.172  1.00  0.00     0.063 A 
ATOM     19  N   UNL     1      -4.762   2.193   0.788  1.00  0.00    -0.282 N 
ATOM     20  N   UNL     1      -5.839   2.297   1.678  1.00  0.00    -0.181 NA
ATOM     21  C   UNL     1      -4.330   1.082  -1.463  1.00  0.00     0.066 C 
ATOM     22  C   UNL     1      -8.214   1.498   1.803  1.00  0.00     0.069 C 
ATOM     23  H   UNL     1      -3.883   2.585   0.906  1.00  0.00     0.190 HD
ENDBRANCH  15  16
ENDBRANCH  14  15
ENDBRANCH  13  14
ENDBRANCH   1  13
TORSDOF 7
ENDMDL
MODEL 7
REMARK VINA RESULT:    -4.591      3.778      6.619
REMARK INTER + INTRA:          -6.988
REMARK INTER:                  -6.139
REMARK INTRA:                  -0.849
REMARK UNBOUND:                -0.653
REMARK SMILES Cc1n[nH]c(C)c1CCCOc1cc(C(=O)O)ccc1F
REMARK SMILES IDX 11 1 12 2 14 3 18 4 13 5 19 6 20 7 21 8 15 9 16 10 17 11
REMARK SMILES IDX 10 13 9 14 8 15 7 16 5 17 2 18 4 19 3 20 6 21 1 22
REMARK H PARENT 17 12 4 23
ROOT
ATOM      1  O   UNL     1      -9.279   3.073  -0.105  1.00  0.00    -0.490 OA
ENDROOT
BRANCH   1   2
ATOM      2  C   UNL     1     -10.633   3.046  -0.222  1.00  0.00     0.155 A 
ATOM      3  C   UNL     1     -12.655   1.887  -0.812  1.00  0.00     0.063 A 
ATOM      4  C   UNL     1     -13.402   3.009  -0.445  1.00  0.00     0.019 A 
ATOM      5  C   UNL     1     -11.264   1.912  -0.698  1.00  0.00     0.065 A 
ATOM      6  C   UNL     1     -12.764   4.134   0.034  1.00  0.00     0.044 A 
ATOM      7  C   UNL     1     -11.384   4.155   0.151  1.00  0.00     0.165 A 
ATOM      8  F   UNL     1     -10.766   5.261   0.621  1.00  0.00    -0.203 F 
BRANCH   3   9
ATOM      9  C   UNL     1     -13.334   0.681  -1.325  1.00  0.00     0.335 C 
ATOM     10  O   UNL     1     -12.712  -0.351  -1.472  1.00  0.00    -0.246 OA
BRANCH   9  11
ATOM     11  O   UNL     1     -14.648   0.723  -1.624  1.00  0.00    -0.478 OA
ATOM     12  H   UNL     1     -14.937   0.232  -2.406  1.00  0.00     0.297 HD
ENDBRANCH   9  11
ENDBRANCH   3   9
ENDBRANCH   1   2
BRANCH   1  13
ATOM     13  C   UNL     1      -8.643   1.875   0.350  1.00  0.00     0.230 C 
BRANCH  13  14
ATOM     14  C   UNL     1      -7.125   2.051   0.291  1.00  0.00     0.046 C 
BRANCH  14  15
ATOM     15  C   UNL     1      -6.742   2.756  -1.012  1.00  0.00     0.043 C 
BRANCH  15  16
ATOM     16  C   UNL     1      -6.580   1.735  -2.107  1.00  0.00    -0.004 A 
ATOM     17  C   UNL     1      -5.597   0.809  -2.194  1.00  0.00     0.036 A 
ATOM     18  C   UNL     1      -7.422   1.573  -3.213  1.00  0.00     0.063 A 
ATOM     19  N   UNL     1      -5.806   0.090  -3.317  1.00  0.00    -0.282 N 
ATOM     20  N   UNL     1      -6.955   0.592  -3.942  1.00  0.00    -0.181 NA
ATOM     21  C   UNL     1      -4.472   0.614  -1.211  1.00  0.00     0.066 C 
ATOM     22  C   UNL     1      -8.648   2.394  -3.518  1.00  0.00     0.069 C 
ATOM     23  H   UNL     1      -5.257  -0.643  -3.635  1.00  0.00     0.190 HD
ENDBRANCH  15  16
ENDBRANCH  14  15
ENDBRANCH  13  14
ENDBRANCH   1  13
TORSDOF 7
ENDMDL
MODEL 8
REMARK VINA RESULT:    -4.565      3.758      7.116
REMARK INTER + INTRA:          -6.953
REMARK INTER:                  -6.116
REMARK INTRA:                  -0.837
REMARK UNBOUND:                -0.653
REMARK SMILES Cc1n[nH]c(C)c1CCCOc1cc(C(=O)O)ccc1F
REMARK SMILES IDX 11 1 12 2 14 3 18 4 13 5 19 6 20 7 21 8 15 9 16 10 17 11
REMARK SMILES IDX 10 13 9 14 8 15 7 16 5 17 2 18 4 19 3 20 6 21 1 22
REMARK H PARENT 17 12 4 23
ROOT
ATOM      1  O   UNL     1      -9.778   1.254  -1.278  1.00  0.00    -0.490 OA
ENDROOT
BRANCH   1   2
ATOM      2  C   UNL     1     -10.882   1.965  -0.925  1.00  0.00     0.155 A 
ATOM      3  C   UNL     1     -11.885   3.974  -0.067  1.00  0.00     0.063 A 
ATOM      4  C   UNL     1     -13.152   3.404  -0.221  1.00  0.00     0.019 A 
ATOM      5  C   UNL     1     -10.749   3.246  -0.422  1.00  0.00     0.065 A 
ATOM      6  C   UNL     1     -13.275   2.128  -0.729  1.00  0.00     0.044 A 
ATOM      7  C   UNL     1     -12.147   1.409  -1.086  1.00  0.00     0.165 A 
ATOM      8  F   UNL     1     -12.275   0.159  -1.584  1.00  0.00    -0.203 F 
BRANCH   3   9
ATOM      9  C   UNL     1     -11.749   5.340   0.477  1.00  0.00     0.335 C 
ATOM     10  O   UNL     1     -11.566   5.506   1.665  1.00  0.00    -0.246 OA
BRANCH   9  11
ATOM     11  O   UNL     1     -11.822   6.403  -0.349  1.00  0.00    -0.478 OA
ATOM     12  H   UNL     1     -11.161   6.459  -1.053  1.00  0.00     0.297 HD
ENDBRANCH   9  11
ENDBRANCH   3   9
ENDBRANCH   1   2
BRANCH   1  13
ATOM     13  C   UNL     1      -8.775   1.943  -2.028  1.00  0.00     0.230 C 
BRANCH  13  14
ATOM     14  C   UNL     1      -7.559   1.033  -2.208  1.00  0.00     0.046 C 
BRANCH  14  15
ATOM     15  C   UNL     1      -7.260   0.314  -0.890  1.00  0.00     0.043 C 
BRANCH  15  16
ATOM     16  C   UNL     1      -6.418   1.203  -0.012  1.00  0.00    -0.004 A 
ATOM     17  C   UNL     1      -6.802   1.757   1.161  1.00  0.00     0.036 A 
ATOM     18  C   UNL     1      -5.098   1.595  -0.262  1.00  0.00     0.063 A 
ATOM     19  N   UNL     1      -5.764   2.480   1.633  1.00  0.00    -0.282 N 
ATOM     20  N   UNL     1      -4.708   2.366   0.720  1.00  0.00    -0.181 NA
ATOM     21  C   UNL     1      -8.146   1.596   1.822  1.00  0.00     0.066 C 
ATOM     22  C   UNL     1      -4.273   1.207  -1.462  1.00  0.00     0.069 C 
ATOM     23  H   UNL     1      -5.752   2.989   2.459  1.00  0.00     0.190 HD
ENDBRANCH  15  16
ENDBRANCH  14  15
ENDBRANCH  13  14
ENDBRANCH   1  13
TORSDOF 7
ENDMDL
MODEL 9
REMARK VINA RESULT:    -4.321      3.812      6.653
REMARK INTER + INTRA:          -6.616
REMARK INTER:                  -5.962
REMARK INTRA:                  -0.654
REMARK UNBOUND:                -0.653
REMARK SMILES Cc1n[nH]c(C)c1CCCOc1cc(C(=O)O)ccc1F
REMARK SMILES IDX 11 1 12 2 14 3 18 4 13 5 19 6 20 7 21 8 15 9 16 10 17 11
REMARK SMILES IDX 10 13 9 14 8 15 7 16 5 17 2 18 4 19 3 20 6 21 1 22
REMARK H PARENT 17 12 4 23
ROOT
ATOM      1  O   UNL     1      -9.252   2.642  -1.204  1.00  0.00    -0.490 OA
ENDROOT
BRANCH   1   2
ATOM      2  C   UNL     1     -10.587   2.651  -0.947  1.00  0.00     0.155 A 
ATOM      3  C   UNL     1     -12.736   1.575  -1.032  1.00  0.00     0.063 A 
ATOM      4  C   UNL     1     -13.311   2.684  -0.405  1.00  0.00     0.019 A 
ATOM      5  C   UNL     1     -11.366   1.565  -1.302  1.00  0.00     0.065 A 
ATOM      6  C   UNL     1     -12.525   3.759  -0.049  1.00  0.00     0.044 A 
ATOM      7  C   UNL     1     -11.166   3.745  -0.313  1.00  0.00     0.165 A 
ATOM      8  F   UNL     1     -10.401   4.802   0.037  1.00  0.00    -0.203 F 
BRANCH   3   9
ATOM      9  C   UNL     1     -13.574   0.422  -1.413  1.00  0.00     0.335 C 
ATOM     10  O   UNL     1     -13.055  -0.631  -1.722  1.00  0.00    -0.246 OA
BRANCH   9  11
ATOM     11  O   UNL     1     -14.917   0.536  -1.412  1.00  0.00    -0.478 OA
ATOM     12  H   UNL     1     -15.428  -0.285  -1.452  1.00  0.00     0.297 HD
ENDBRANCH   9  11
ENDBRANCH   3   9
ENDBRANCH   1   2
BRANCH   1  13
ATOM     13  C   UNL     1      -8.840   2.147  -2.480  1.00  0.00     0.230 C 
BRANCH  13  14
ATOM     14  C   UNL     1      -7.441   1.539  -2.363  1.00  0.00     0.046 C 
BRANCH  14  15
ATOM     15  C   UNL     1      -7.388   0.614  -1.145  1.00  0.00     0.043 C 
BRANCH  15  16
ATOM     16  C   UNL     1      -6.488   1.214  -0.096  1.00  0.00    -0.004 A 
ATOM     17  C   UNL     1      -5.162   1.452  -0.227  1.00  0.00     0.036 A 
ATOM     18  C   UNL     1      -6.876   1.629   1.182  1.00  0.00     0.063 A 
ATOM     19  N   UNL     1      -4.725   1.992   0.930  1.00  0.00    -0.282 N 
ATOM     20  N   UNL     1      -5.819   2.090   1.800  1.00  0.00    -0.181 NA
ATOM     21  C   UNL     1      -4.324   1.165  -1.445  1.00  0.00     0.066 C 
ATOM     22  C   UNL     1      -8.269   1.549   1.752  1.00  0.00     0.069 C 
ATOM     23  H   UNL     1      -3.815   2.264   1.125  1.00  0.00     0.190 HD
ENDBRANCH  15  16
ENDBRANCH  14  15
ENDBRANCH  13  14
ENDBRANCH   1  13
TORSDOF 7
ENDMDL
