MODEL 1
REMARK VINA RESULT:    -4.173      0.000      0.000
REMARK INTER + INTRA:          -5.079
REMARK INTER:                  -4.783
REMARK INTRA:                  -0.296
REMARK UNBOUND:                -0.296
REMARK SMILES O=C(O)c1ccc2nc(-c3cc(Cl)cc(Cl)c3)oc2c1
REMARK SMILES IDX 5 1 6 2 20 3 8 4 18 5 4 6 9 7 7 8 19 9 2 10 1 11 3 12 10 14
REMARK SMILES IDX 11 15 17 16 12 17 15 18 14 19 13 20 16 21
REMARK H PARENT 3 13
ROOT
ATOM      1  C   UNL     1     -13.591   3.220  -0.294  1.00  0.00     0.018 A 
ATOM      2  C   UNL     1     -12.754   2.265  -0.786  1.00  0.00     0.033 A 
ATOM      3  C   UNL     1     -11.695   4.599   0.325  1.00  0.00     0.065 A 
ATOM      4  N   UNL     1     -10.313   1.708  -1.128  1.00  0.00    -0.209 NA
ATOM      5  O   UNL     1      -9.496   3.527  -0.257  1.00  0.00    -0.436 OA
ATOM      6  C   UNL     1     -13.075   4.398   0.265  1.00  0.00     0.063 A 
ATOM      7  C   UNL     1      -9.207   2.350  -0.844  1.00  0.00     0.227 A 
ATOM      8  C   UNL     1     -11.367   2.454  -0.733  1.00  0.00     0.110 A 
ATOM      9  C   UNL     1     -10.841   3.630  -0.169  1.00  0.00     0.156 A 
ENDROOT
BRANCH   6  10
ATOM     10  C   UNL     1     -13.991   5.426   0.789  1.00  0.00     0.335 C 
ATOM     11  O   UNL     1     -13.546   6.398   1.367  1.00  0.00    -0.246 OA
BRANCH  10  12
ATOM     12  O   UNL     1     -15.322   5.289   0.629  1.00  0.00    -0.478 OA
ATOM     13  H   UNL     1     -15.632   4.478   0.203  1.00  0.00     0.297 HD
ENDBRANCH  10  12
ENDBRANCH   6  10
BRANCH   7  14
ATOM     14  C   UNL     1      -7.844   1.854  -1.125  1.00  0.00     0.040 A 
ATOM     15  C   UNL     1      -7.626   0.961  -2.175  1.00  0.00     0.034 A 
ATOM     16  C   UNL     1      -6.769   2.278  -0.342  1.00  0.00     0.034 A 
ATOM     17  C   UNL     1      -6.349   0.502  -2.433  1.00  0.00     0.043 A 
ATOM     18  C   UNL     1      -5.497   1.813  -0.610  1.00  0.00     0.043 A 
ATOM     19  C   UNL     1      -5.287   0.926  -1.652  1.00  0.00     0.041 A 
ATOM     20  Cl  UNL     1      -6.075  -0.609  -3.738  1.00  0.00    -0.084 Cl
ATOM     21  Cl  UNL     1      -4.159   2.339   0.363  1.00  0.00    -0.084 Cl
ENDBRANCH   7  14
TORSDOF 3
ENDMDL
MODEL 2
REMARK VINA RESULT:    -4.170      0.002      2.019
REMARK INTER + INTRA:          -5.075
REMARK INTER:                  -4.779
REMARK INTRA:                  -0.296
REMARK UNBOUND:                -0.296
REMARK SMILES O=C(O)c1ccc2nc(-c3cc(Cl)cc(Cl)c3)oc2c1
REMARK SMILES IDX 5 1 6 2 20 3 8 4 18 5 4 6 9 7 7 8 19 9 2 10 1 11 3 12 10 14
REMARK SMILES IDX 11 15 17 16 12 17 15 18 14 19 13 20 16 21
REMARK H PARENT 3 13
ROOT
ATOM      1  C   UNL     1     -13.591   3.220  -0.293  1.00  0.00     0.018 A 
ATOM      2  C   UNL     1     -12.752   2.264  -0.785  1.00  0.00     0.033 A 
ATOM      3  C   UNL     1     -11.695   4.599   0.324  1.00  0.00     0.065 A 
ATOM      4  N   UNL     1     -10.312   1.709  -1.127  1.00  0.00    -0.209 NA
ATOM      5  O   UNL     1      -9.496   3.528  -0.257  1.00  0.00    -0.436 OA
ATOM      6  C   UNL     1     -13.075   4.398   0.265  1.00  0.00     0.063 A 
ATOM      7  C   UNL     1      -9.206   2.351  -0.843  1.00  0.00     0.227 A 
ATOM      8  C   UNL     1     -11.366   2.454  -0.732  1.00  0.00     0.110 A 
ATOM      9  C   UNL     1     -10.841   3.631  -0.169  1.00  0.00     0.156 A 
ENDROOT
BRANCH   6  10
ATOM     10  C   UNL     1     -13.991   5.426   0.789  1.00  0.00     0.335 C 
ATOM     11  O   UNL     1     -13.547   6.399   1.365  1.00  0.00    -0.246 OA
BRANCH  10  12
ATOM     12  O   UNL     1     -15.322   5.288   0.629  1.00  0.00    -0.478 OA
ATOM     13  H   UNL     1     -15.798   4.799   1.314  1.00  0.00     0.297 HD
ENDBRANCH  10  12
ENDBRANCH   6  10
BRANCH   7  14
ATOM     14  C   UNL     1      -7.843   1.856  -1.125  1.00  0.00     0.040 A 
ATOM     15  C   UNL     1      -6.768   2.279  -0.342  1.00  0.00     0.034 A 
ATOM     16  C   UNL     1      -7.625   0.963  -2.176  1.00  0.00     0.034 A 
ATOM     17  C   UNL     1      -5.496   1.812  -0.610  1.00  0.00     0.043 A 
ATOM     18  C   UNL     1      -6.349   0.503  -2.434  1.00  0.00     0.043 A 
ATOM     19  C   UNL     1      -5.287   0.927  -1.654  1.00  0.00     0.041 A 
ATOM     20  Cl  UNL     1      -4.157   2.337   0.362  1.00  0.00    -0.084 Cl
ATOM     21  Cl  UNL     1      -6.076  -0.608  -3.740  1.00  0.00    -0.084 Cl
ENDBRANCH   7  14
TORSDOF 3
ENDMDL
MODEL 3
REMARK VINA RESULT:    -4.143      1.786      3.150
REMARK INTER + INTRA:          -5.045
REMARK INTER:                  -4.749
REMARK INTRA:                  -0.296
REMARK UNBOUND:                -0.296
REMARK SMILES O=C(O)c1ccc2nc(-c3cc(Cl)cc(Cl)c3)oc2c1
REMARK SMILES IDX 5 1 6 2 20 3 8 4 18 5 4 6 9 7 7 8 19 9 2 10 1 11 3 12 10 14
REMARK SMILES IDX 11 15 17 16 12 17 15 18 14 19 13 20 16 21
REMARK H PARENT 3 13
ROOT
ATOM      1  C   UNL     1     -13.599   3.372  -0.282  1.00  0.00     0.018 A 
ATOM      2  C   UNL     1     -12.311   3.752  -0.053  1.00  0.00     0.033 A 
ATOM      3  C   UNL     1     -12.838   1.254  -1.186  1.00  0.00     0.065 A 
ATOM      4  N   UNL     1      -9.914   2.989  -0.283  1.00  0.00    -0.209 NA
ATOM      5  O   UNL     1     -10.332   1.047  -1.170  1.00  0.00    -0.436 OA
ATOM      6  C   UNL     1     -13.879   2.120  -0.848  1.00  0.00     0.063 A 
ATOM      7  C   UNL     1      -9.372   1.891  -0.748  1.00  0.00     0.227 A 
ATOM      8  C   UNL     1     -11.257   2.894  -0.387  1.00  0.00     0.110 A 
ATOM      9  C   UNL     1     -11.529   1.639  -0.960  1.00  0.00     0.156 A 
ENDROOT
BRANCH   6  10
ATOM     10  C   UNL     1     -15.277   1.716  -1.085  1.00  0.00     0.335 C 
ATOM     11  O   UNL     1     -16.185   2.461  -0.775  1.00  0.00    -0.246 OA
BRANCH  10  12
ATOM     12  O   UNL     1     -15.548   0.521  -1.645  1.00  0.00    -0.478 OA
ATOM     13  H   UNL     1     -16.478   0.309  -1.799  1.00  0.00     0.297 HD
ENDBRANCH  10  12
ENDBRANCH   6  10
BRANCH   7  14
ATOM     14  C   UNL     1      -7.920   1.621  -0.803  1.00  0.00     0.040 A 
ATOM     15  C   UNL     1      -7.060   2.221   0.117  1.00  0.00     0.034 A 
ATOM     16  C   UNL     1      -7.404   0.763  -1.776  1.00  0.00     0.034 A 
ATOM     17  C   UNL     1      -5.704   1.963   0.061  1.00  0.00     0.043 A 
ATOM     18  C   UNL     1      -6.047   0.512  -1.822  1.00  0.00     0.043 A 
ATOM     19  C   UNL     1      -5.199   1.111  -0.906  1.00  0.00     0.041 A 
ATOM     20  Cl  UNL     1      -4.632   2.709   1.205  1.00  0.00    -0.084 Cl
ATOM     21  Cl  UNL     1      -5.403  -0.554  -3.031  1.00  0.00    -0.084 Cl
ENDBRANCH   7  14
TORSDOF 3
ENDMDL
MODEL 4
REMARK VINA RESULT:    -4.139      1.786      2.436
REMARK INTER + INTRA:          -5.040
REMARK INTER:                  -4.744
REMARK INTRA:                  -0.296
REMARK UNBOUND:                -0.296
REMARK SMILES O=C(O)c1ccc2nc(-c3cc(Cl)cc(Cl)c3)oc2c1
REMARK SMILES IDX 5 1 6 2 20 3 8 4 18 5 4 6 9 7 7 8 19 9 2 10 1 11 3 12 10 14
REMARK SMILES IDX 11 15 17 16 12 17 15 18 14 19 13 20 16 21
REMARK H PARENT 3 13
ROOT
ATOM      1  C   UNL     1     -13.574   3.367  -0.273  1.00  0.00     0.018 A 
ATOM      2  C   UNL     1     -12.286   3.752  -0.052  1.00  0.00     0.033 A 
ATOM      3  C   UNL     1     -12.812   1.242  -1.159  1.00  0.00     0.065 A 
ATOM      4  N   UNL     1      -9.888   2.990  -0.282  1.00  0.00    -0.209 NA
ATOM      5  O   UNL     1     -10.306   1.039  -1.149  1.00  0.00    -0.436 OA
ATOM      6  C   UNL     1     -13.854   2.109  -0.826  1.00  0.00     0.063 A 
ATOM      7  C   UNL     1      -9.346   1.889  -0.738  1.00  0.00     0.227 A 
ATOM      8  C   UNL     1     -11.231   2.892  -0.381  1.00  0.00     0.110 A 
ATOM      9  C   UNL     1     -11.503   1.631  -0.941  1.00  0.00     0.156 A 
ENDROOT
BRANCH   6  10
ATOM     10  C   UNL     1     -15.252   1.701  -1.055  1.00  0.00     0.335 C 
ATOM     11  O   UNL     1     -16.159   2.459  -0.775  1.00  0.00    -0.246 OA
BRANCH  10  12
ATOM     12  O   UNL     1     -15.524   0.487  -1.574  1.00  0.00    -0.478 OA
ATOM     13  H   UNL     1     -15.732  -0.221  -0.950  1.00  0.00     0.297 HD
ENDBRANCH  10  12
ENDBRANCH   6  10
BRANCH   7  14
ATOM     14  C   UNL     1      -7.894   1.620  -0.794  1.00  0.00     0.040 A 
ATOM     15  C   UNL     1      -7.377   0.760  -1.764  1.00  0.00     0.034 A 
ATOM     16  C   UNL     1      -7.034   2.225   0.124  1.00  0.00     0.034 A 
ATOM     17  C   UNL     1      -6.020   0.514  -1.812  1.00  0.00     0.043 A 
ATOM     18  C   UNL     1      -5.678   1.970   0.066  1.00  0.00     0.043 A 
ATOM     19  C   UNL     1      -5.172   1.117  -0.899  1.00  0.00     0.041 A 
ATOM     20  Cl  UNL     1      -5.374  -0.555  -3.019  1.00  0.00    -0.084 Cl
ATOM     21  Cl  UNL     1      -4.606   2.722   1.207  1.00  0.00    -0.084 Cl
ENDBRANCH   7  14
TORSDOF 3
ENDMDL
MODEL 5
REMARK VINA RESULT:    -4.093      3.630      5.431
REMARK INTER + INTRA:          -4.987
REMARK INTER:                  -4.702
REMARK INTRA:                  -0.285
REMARK UNBOUND:                -0.296
REMARK SMILES O=C(O)c1ccc2nc(-c3cc(Cl)cc(Cl)c3)oc2c1
REMARK SMILES IDX 5 1 6 2 20 3 8 4 18 5 4 6 9 7 7 8 19 9 2 10 1 11 3 12 10 14
REMARK SMILES IDX 11 15 17 16 12 17 15 18 14 19 13 20 16 21
REMARK H PARENT 3 13
ROOT
ATOM      1  C   UNL     1     -15.347   8.863   0.992  1.00  0.00     0.018 A 
ATOM      2  C   UNL     1     -15.352   7.501   1.045  1.00  0.00     0.033 A 
ATOM      3  C   UNL     1     -13.100   8.844   0.081  1.00  0.00     0.065 A 
ATOM      4  N   UNL     1     -13.945   5.461   0.553  1.00  0.00    -0.209 NA
ATOM      5  O   UNL     1     -12.192   6.515  -0.191  1.00  0.00    -0.436 OA
ATOM      6  C   UNL     1     -14.225   9.551   0.509  1.00  0.00     0.063 A 
ATOM      7  C   UNL     1     -12.736   5.311   0.072  1.00  0.00     0.227 A 
ATOM      8  C   UNL     1     -14.230   6.780   0.619  1.00  0.00     0.110 A 
ATOM      9  C   UNL     1     -13.099   7.462   0.138  1.00  0.00     0.156 A 
ENDROOT
BRANCH   6  10
ATOM     10  C   UNL     1     -14.234  11.023   0.451  1.00  0.00     0.335 C 
ATOM     11  O   UNL     1     -14.955  11.595  -0.342  1.00  0.00    -0.246 OA
BRANCH  10  12
ATOM     12  O   UNL     1     -13.441  11.736   1.276  1.00  0.00    -0.478 OA
ATOM     13  H   UNL     1     -12.613  11.323   1.554  1.00  0.00     0.297 HD
ENDBRANCH  10  12
ENDBRANCH   6  10
BRANCH   7  14
ATOM     14  C   UNL     1     -12.067   4.012  -0.149  1.00  0.00     0.040 A 
ATOM     15  C   UNL     1     -12.815   2.892  -0.515  1.00  0.00     0.034 A 
ATOM     16  C   UNL     1     -10.684   3.900   0.008  1.00  0.00     0.034 A 
ATOM     17  C   UNL     1     -12.184   1.681  -0.721  1.00  0.00     0.043 A 
ATOM     18  C   UNL     1     -10.065   2.684  -0.201  1.00  0.00     0.043 A 
ATOM     19  C   UNL     1     -10.813   1.577  -0.563  1.00  0.00     0.041 A 
ATOM     20  Cl  UNL     1     -13.112   0.287  -1.176  1.00  0.00    -0.084 Cl
ATOM     21  Cl  UNL     1      -8.345   2.543  -0.006  1.00  0.00    -0.084 Cl
ENDBRANCH   7  14
TORSDOF 3
ENDMDL
MODEL 6
REMARK VINA RESULT:    -4.091      3.631      5.690
REMARK INTER + INTRA:          -4.985
REMARK INTER:                  -4.699
REMARK INTRA:                  -0.286
REMARK UNBOUND:                -0.296
REMARK SMILES O=C(O)c1ccc2nc(-c3cc(Cl)cc(Cl)c3)oc2c1
REMARK SMILES IDX 5 1 6 2 20 3 8 4 18 5 4 6 9 7 7 8 19 9 2 10 1 11 3 12 10 14
REMARK SMILES IDX 11 15 17 16 12 17 15 18 14 19 13 20 16 21
REMARK H PARENT 3 13
ROOT
ATOM      1  C   UNL     1     -15.357   8.863   0.994  1.00  0.00     0.018 A 
ATOM      2  C   UNL     1     -15.360   7.501   1.041  1.00  0.00     0.033 A 
ATOM      3  C   UNL     1     -13.105   8.852   0.097  1.00  0.00     0.065 A 
ATOM      4  N   UNL     1     -13.947   5.466   0.548  1.00  0.00    -0.209 NA
ATOM      5  O   UNL     1     -12.192   6.526  -0.181  1.00  0.00    -0.436 OA
ATOM      6  C   UNL     1     -14.234   9.555   0.521  1.00  0.00     0.063 A 
ATOM      7  C   UNL     1     -12.735   5.320   0.073  1.00  0.00     0.227 A 
ATOM      8  C   UNL     1     -14.235   6.784   0.618  1.00  0.00     0.110 A 
ATOM      9  C   UNL     1     -13.102   7.470   0.147  1.00  0.00     0.156 A 
ENDROOT
BRANCH   6  10
ATOM     10  C   UNL     1     -14.244  11.028   0.470  1.00  0.00     0.335 C 
ATOM     11  O   UNL     1     -15.008  11.604  -0.279  1.00  0.00    -0.246 OA
BRANCH  10  12
ATOM     12  O   UNL     1     -13.406  11.736   1.253  1.00  0.00    -0.478 OA
ATOM     13  H   UNL     1     -12.989  11.267   1.987  1.00  0.00     0.297 HD
ENDBRANCH  10  12
ENDBRANCH   6  10
BRANCH   7  14
ATOM     14  C   UNL     1     -12.063   4.023  -0.150  1.00  0.00     0.040 A 
ATOM     15  C   UNL     1     -10.680   3.916  -0.004  1.00  0.00     0.034 A 
ATOM     16  C   UNL     1     -12.811   2.900  -0.509  1.00  0.00     0.034 A 
ATOM     17  C   UNL     1     -10.058   2.700  -0.213  1.00  0.00     0.043 A 
ATOM     18  C   UNL     1     -12.179   1.690  -0.715  1.00  0.00     0.043 A 
ATOM     19  C   UNL     1     -10.806   1.590  -0.569  1.00  0.00     0.041 A 
ATOM     20  Cl  UNL     1      -8.337   2.564  -0.032  1.00  0.00    -0.084 Cl
ATOM     21  Cl  UNL     1     -13.107   0.292  -1.161  1.00  0.00    -0.084 Cl
ENDBRANCH   7  14
TORSDOF 3
ENDMDL
MODEL 7
REMARK VINA RESULT:    -3.994      3.920      7.851
REMARK INTER + INTRA:          -4.874
REMARK INTER:                  -4.576
REMARK INTRA:                  -0.298
REMARK UNBOUND:                -0.296
REMARK SMILES O=C(O)c1ccc2nc(-c3cc(Cl)cc(Cl)c3)oc2c1
REMARK SMILES IDX 5 1 6 2 20 3 8 4 18 5 4 6 9 7 7 8 19 9 2 10 1 11 3 12 10 14
REMARK SMILES IDX 11 15 17 16 12 17 15 18 14 19 13 20 16 21
REMARK H PARENT 3 13
ROOT
ATOM      1  C   UNL     1      -5.299   1.923  -0.643  1.00  0.00     0.018 A 
ATOM      2  C   UNL     1      -6.274   2.754  -0.177  1.00  0.00     0.033 A 
ATOM      3  C   UNL     1      -6.971   0.492  -1.660  1.00  0.00     0.065 A 
ATOM      4  N   UNL     1      -8.777   3.089  -0.122  1.00  0.00    -0.209 NA
ATOM      5  O   UNL     1      -9.312   1.323  -1.274  1.00  0.00    -0.436 OA
ATOM      6  C   UNL     1      -5.633   0.785  -1.390  1.00  0.00     0.063 A 
ATOM      7  C   UNL     1      -9.776   2.403  -0.619  1.00  0.00     0.227 A 
ATOM      8  C   UNL     1      -7.619   2.471  -0.441  1.00  0.00     0.110 A 
ATOM      9  C   UNL     1      -7.963   1.329  -1.186  1.00  0.00     0.156 A 
ENDROOT
BRANCH   6  10
ATOM     10  C   UNL     1      -4.569  -0.103  -1.893  1.00  0.00     0.335 C 
ATOM     11  O   UNL     1      -4.845  -1.010  -2.653  1.00  0.00    -0.246 OA
BRANCH  10  12
ATOM     12  O   UNL     1      -3.292   0.090  -1.509  1.00  0.00    -0.478 OA
ATOM     13  H   UNL     1      -2.946   0.990  -1.573  1.00  0.00     0.297 HD
ENDBRANCH  10  12
ENDBRANCH   6  10
BRANCH   7  14
ATOM     14  C   UNL     1     -11.203   2.764  -0.481  1.00  0.00     0.040 A 
ATOM     15  C   UNL     1     -11.564   4.007   0.038  1.00  0.00     0.034 A 
ATOM     16  C   UNL     1     -12.194   1.860  -0.868  1.00  0.00     0.034 A 
ATOM     17  C   UNL     1     -12.899   4.338   0.164  1.00  0.00     0.043 A 
ATOM     18  C   UNL     1     -13.525   2.202  -0.737  1.00  0.00     0.043 A 
ATOM     19  C   UNL     1     -13.877   3.437  -0.222  1.00  0.00     0.041 A 
ATOM     20  Cl  UNL     1     -13.352   5.885   0.809  1.00  0.00    -0.084 Cl
ATOM     21  Cl  UNL     1     -14.759   1.080  -1.218  1.00  0.00    -0.084 Cl
ENDBRANCH   7  14
TORSDOF 3
ENDMDL
MODEL 8
REMARK VINA RESULT:    -3.988      3.920      7.624
REMARK INTER + INTRA:          -4.866
REMARK INTER:                  -4.569
REMARK INTRA:                  -0.298
REMARK UNBOUND:                -0.296
REMARK SMILES O=C(O)c1ccc2nc(-c3cc(Cl)cc(Cl)c3)oc2c1
REMARK SMILES IDX 5 1 6 2 20 3 8 4 18 5 4 6 9 7 7 8 19 9 2 10 1 11 3 12 10 14
REMARK SMILES IDX 11 15 17 16 12 17 15 18 14 19 13 20 16 21
REMARK H PARENT 3 13
ROOT
ATOM      1  C   UNL     1      -5.300   1.919  -0.636  1.00  0.00     0.018 A 
ATOM      2  C   UNL     1      -6.275   2.749  -0.170  1.00  0.00     0.033 A 
ATOM      3  C   UNL     1      -6.970   0.492  -1.662  1.00  0.00     0.065 A 
ATOM      4  N   UNL     1      -8.779   3.084  -0.118  1.00  0.00    -0.209 NA
ATOM      5  O   UNL     1      -9.312   1.322  -1.276  1.00  0.00    -0.436 OA
ATOM      6  C   UNL     1      -5.633   0.784  -1.388  1.00  0.00     0.063 A 
ATOM      7  C   UNL     1      -9.777   2.400  -0.619  1.00  0.00     0.227 A 
ATOM      8  C   UNL     1      -7.621   2.467  -0.437  1.00  0.00     0.110 A 
ATOM      9  C   UNL     1      -7.964   1.328  -1.186  1.00  0.00     0.156 A 
ENDROOT
BRANCH   6  10
ATOM     10  C   UNL     1      -4.569  -0.103  -1.892  1.00  0.00     0.335 C 
ATOM     11  O   UNL     1      -4.843  -1.009  -2.653  1.00  0.00    -0.246 OA
BRANCH  10  12
ATOM     12  O   UNL     1      -3.291   0.092  -1.509  1.00  0.00    -0.478 OA
ATOM     13  H   UNL     1      -3.118   0.839  -0.921  1.00  0.00     0.297 HD
ENDBRANCH  10  12
ENDBRANCH   6  10
BRANCH   7  14
ATOM     14  C   UNL     1     -11.204   2.760  -0.481  1.00  0.00     0.040 A 
ATOM     15  C   UNL     1     -12.195   1.858  -0.869  1.00  0.00     0.034 A 
ATOM     16  C   UNL     1     -11.565   4.006   0.036  1.00  0.00     0.034 A 
ATOM     17  C   UNL     1     -13.526   2.200  -0.737  1.00  0.00     0.043 A 
ATOM     18  C   UNL     1     -12.900   4.336   0.163  1.00  0.00     0.043 A 
ATOM     19  C   UNL     1     -13.878   3.436  -0.223  1.00  0.00     0.041 A 
ATOM     20  Cl  UNL     1     -14.761   1.079  -1.217  1.00  0.00    -0.084 Cl
ATOM     21  Cl  UNL     1     -13.351   5.884   0.807  1.00  0.00    -0.084 Cl
ENDBRANCH   7  14
TORSDOF 3
ENDMDL
MODEL 9
REMARK VINA RESULT:    -3.802      4.008      7.156
REMARK INTER + INTRA:          -4.654
REMARK INTER:                  -4.367
REMARK INTRA:                  -0.287
REMARK UNBOUND:                -0.296
REMARK SMILES O=C(O)c1ccc2nc(-c3cc(Cl)cc(Cl)c3)oc2c1
REMARK SMILES IDX 5 1 6 2 20 3 8 4 18 5 4 6 9 7 7 8 19 9 2 10 1 11 3 12 10 14
REMARK SMILES IDX 11 15 17 16 12 17 15 18 14 19 13 20 16 21
REMARK H PARENT 3 13
ROOT
ATOM      1  C   UNL     1      -6.042   2.683  -1.231  1.00  0.00     0.018 A 
ATOM      2  C   UNL     1      -7.211   2.657  -1.930  1.00  0.00     0.033 A 
ATOM      3  C   UNL     1      -7.221   2.116   0.810  1.00  0.00     0.065 A 
ATOM      4  N   UNL     1      -9.695   2.265  -1.686  1.00  0.00    -0.209 NA
ATOM      5  O   UNL     1      -9.695   1.850   0.449  1.00  0.00    -0.436 OA
ATOM      6  C   UNL     1      -6.031   2.412   0.144  1.00  0.00     0.063 A 
ATOM      7  C   UNL     1     -10.450   1.961  -0.660  1.00  0.00     0.227 A 
ATOM      8  C   UNL     1      -8.413   2.363  -1.274  1.00  0.00     0.110 A 
ATOM      9  C   UNL     1      -8.411   2.094   0.106  1.00  0.00     0.156 A 
ENDROOT
BRANCH   6  10
ATOM     10  C   UNL     1      -4.758   2.436   0.888  1.00  0.00     0.335 C 
ATOM     11  O   UNL     1      -3.748   2.843   0.350  1.00  0.00    -0.246 OA
BRANCH  10  12
ATOM     12  O   UNL     1      -4.715   2.006   2.165  1.00  0.00    -0.478 OA
ATOM     13  H   UNL     1      -4.453   1.088   2.311  1.00  0.00     0.297 HD
ENDBRANCH  10  12
ENDBRANCH   6  10
BRANCH   7  14
ATOM     14  C   UNL     1     -11.914   1.768  -0.713  1.00  0.00     0.040 A 
ATOM     15  C   UNL     1     -12.446   0.515  -1.017  1.00  0.00     0.034 A 
ATOM     16  C   UNL     1     -12.771   2.841  -0.458  1.00  0.00     0.034 A 
ATOM     17  C   UNL     1     -13.815   0.341  -1.064  1.00  0.00     0.043 A 
ATOM     18  C   UNL     1     -14.138   2.655  -0.508  1.00  0.00     0.043 A 
ATOM     19  C   UNL     1     -14.659   1.409  -0.811  1.00  0.00     0.041 A 
ATOM     20  Cl  UNL     1     -14.479  -1.217  -1.442  1.00  0.00    -0.084 Cl
ATOM     21  Cl  UNL     1     -15.206   3.988  -0.192  1.00  0.00    -0.084 Cl
ENDBRANCH   7  14
TORSDOF 3
ENDMDL
