MODEL 1
REMARK VINA RESULT:    -5.741      0.000      0.000
REMARK INTER + INTRA:          -8.550
REMARK INTER:                  -7.922
REMARK INTRA:                  -0.627
REMARK UNBOUND:                -0.627
REMARK SMILES Cc1n[nH]c(C)c1CCCOc1cc(C(=O)O)ccc1F
REMARK SMILES IDX 11 1 12 2 14 3 18 4 13 5 19 6 20 7 21 8 15 9 16 10 17 11
REMARK SMILES IDX 10 13 9 14 8 15 7 16 5 17 2 18 4 19 3 20 6 21 1 22
REMARK H PARENT 17 12 4 23
ROOT
ATOM      1  O   UNL     1       5.169   9.065   1.405  1.00  0.00    -0.490 OA
ENDROOT
BRANCH   1   2
ATOM      2  C   UNL     1       4.037   8.318   1.311  1.00  0.00     0.155 A 
ATOM      3  C   UNL     1       2.143   7.258   2.346  1.00  0.00     0.063 A 
ATOM      4  C   UNL     1       1.723   6.797   1.096  1.00  0.00     0.019 A 
ATOM      5  C   UNL     1       3.307   8.022   2.447  1.00  0.00     0.065 A 
ATOM      6  C   UNL     1       2.454   7.102  -0.033  1.00  0.00     0.044 A 
ATOM      7  C   UNL     1       3.606   7.864   0.069  1.00  0.00     0.165 A 
ATOM      8  F   UNL     1       4.318   8.159  -1.040  1.00  0.00    -0.203 F 
BRANCH   3   9
ATOM      9  C   UNL     1       1.362   6.934   3.556  1.00  0.00     0.335 C 
ATOM     10  O   UNL     1       1.903   6.923   4.643  1.00  0.00    -0.246 OA
BRANCH   9  11
ATOM     11  O   UNL     1       0.047   6.657   3.455  1.00  0.00    -0.478 OA
ATOM     12  H   UNL     1      -0.558   7.410   3.409  1.00  0.00     0.297 HD
ENDBRANCH   9  11
ENDBRANCH   3   9
ENDBRANCH   1   2
BRANCH   1  13
ATOM     13  C   UNL     1       5.080  10.431   0.990  1.00  0.00     0.230 C 
BRANCH  13  14
ATOM     14  C   UNL     1       5.379  11.345   2.180  1.00  0.00     0.046 C 
BRANCH  14  15
ATOM     15  C   UNL     1       4.101  12.077   2.593  1.00  0.00     0.043 C 
BRANCH  15  16
ATOM     16  C   UNL     1       4.449  13.457   3.090  1.00  0.00    -0.004 A 
ATOM     17  C   UNL     1       4.853  13.774   4.342  1.00  0.00     0.036 A 
ATOM     18  C   UNL     1       4.420  14.635   2.336  1.00  0.00     0.063 A 
ATOM     19  N   UNL     1       5.064  15.106   4.381  1.00  0.00    -0.282 N 
ATOM     20  N   UNL     1       4.781  15.625   3.110  1.00  0.00    -0.181 NA
ATOM     21  C   UNL     1       5.034  12.812   5.487  1.00  0.00     0.066 C 
ATOM     22  C   UNL     1       4.027  14.746   0.885  1.00  0.00     0.069 C 
ATOM     23  H   UNL     1       5.359  15.615   5.152  1.00  0.00     0.190 HD
ENDBRANCH  15  16
ENDBRANCH  14  15
ENDBRANCH  13  14
ENDBRANCH   1  13
TORSDOF 7
ENDMDL
MODEL 2
REMARK VINA RESULT:    -5.727      2.215      3.792
REMARK INTER + INTRA:          -8.530
REMARK INTER:                  -7.910
REMARK INTRA:                  -0.621
REMARK UNBOUND:                -0.627
REMARK SMILES Cc1n[nH]c(C)c1CCCOc1cc(C(=O)O)ccc1F
REMARK SMILES IDX 11 1 12 2 14 3 18 4 13 5 19 6 20 7 21 8 15 9 16 10 17 11
REMARK SMILES IDX 10 13 9 14 8 15 7 16 5 17 2 18 4 19 3 20 6 21 1 22
REMARK H PARENT 17 12 4 23
ROOT
ATOM      1  O   UNL     1       1.114  10.122   2.471  1.00  0.00    -0.490 OA
ENDROOT
BRANCH   1   2
ATOM      2  C   UNL     1       1.589   8.972   1.924  1.00  0.00     0.155 A 
ATOM      3  C   UNL     1       2.724   7.820   0.144  1.00  0.00     0.063 A 
ATOM      4  C   UNL     1       2.561   6.612   0.828  1.00  0.00     0.019 A 
ATOM      5  C   UNL     1       2.233   9.002   0.701  1.00  0.00     0.065 A 
ATOM      6  C   UNL     1       1.924   6.592   2.050  1.00  0.00     0.044 A 
ATOM      7  C   UNL     1       1.442   7.767   2.603  1.00  0.00     0.165 A 
ATOM      8  F   UNL     1       0.818   7.741   3.801  1.00  0.00    -0.203 F 
BRANCH   3   9
ATOM      9  C   UNL     1       3.406   7.844  -1.164  1.00  0.00     0.335 C 
ATOM     10  O   UNL     1       3.154   8.721  -1.965  1.00  0.00    -0.246 OA
BRANCH   9  11
ATOM     11  O   UNL     1       4.315   6.897  -1.467  1.00  0.00    -0.478 OA
ATOM     12  H   UNL     1       4.482   6.218  -0.798  1.00  0.00     0.297 HD
ENDBRANCH   9  11
ENDBRANCH   3   9
ENDBRANCH   1   2
BRANCH   1  13
ATOM     13  C   UNL     1       1.843  10.665   3.575  1.00  0.00     0.230 C 
BRANCH  13  14
ATOM     14  C   UNL     1       2.229  12.112   3.268  1.00  0.00     0.046 C 
BRANCH  14  15
ATOM     15  C   UNL     1       3.679  12.161   2.781  1.00  0.00     0.043 C 
BRANCH  15  16
ATOM     16  C   UNL     1       4.289  13.490   3.147  1.00  0.00    -0.004 A 
ATOM     17  C   UNL     1       4.361  14.580   2.348  1.00  0.00     0.036 A 
ATOM     18  C   UNL     1       4.874  13.817   4.375  1.00  0.00     0.063 A 
ATOM     19  N   UNL     1       4.976  15.559   3.044  1.00  0.00    -0.282 N 
ATOM     20  N   UNL     1       5.292  15.054   4.312  1.00  0.00    -0.181 NA
ATOM     21  C   UNL     1       3.847  14.682   0.936  1.00  0.00     0.066 C 
ATOM     22  C   UNL     1       5.010  12.897   5.561  1.00  0.00     0.069 C 
ATOM     23  H   UNL     1       5.167  16.454   2.722  1.00  0.00     0.190 HD
ENDBRANCH  15  16
ENDBRANCH  14  15
ENDBRANCH  13  14
ENDBRANCH   1  13
TORSDOF 7
ENDMDL
MODEL 3
REMARK VINA RESULT:    -5.680      2.212      3.352
REMARK INTER + INTRA:          -8.466
REMARK INTER:                  -7.807
REMARK INTRA:                  -0.659
REMARK UNBOUND:                -0.627
REMARK SMILES Cc1n[nH]c(C)c1CCCOc1cc(C(=O)O)ccc1F
REMARK SMILES IDX 11 1 12 2 14 3 18 4 13 5 19 6 20 7 21 8 15 9 16 10 17 11
REMARK SMILES IDX 10 13 9 14 8 15 7 16 5 17 2 18 4 19 3 20 6 21 1 22
REMARK H PARENT 17 12 4 23
ROOT
ATOM      1  O   UNL     1       1.106  10.084   2.492  1.00  0.00    -0.490 OA
ENDROOT
BRANCH   1   2
ATOM      2  C   UNL     1       1.576   8.938   1.931  1.00  0.00     0.155 A 
ATOM      3  C   UNL     1       2.704   7.802   0.137  1.00  0.00     0.063 A 
ATOM      4  C   UNL     1       2.537   6.587   0.806  1.00  0.00     0.019 A 
ATOM      5  C   UNL     1       2.219   8.980   0.708  1.00  0.00     0.065 A 
ATOM      6  C   UNL     1       1.900   6.555   2.029  1.00  0.00     0.044 A 
ATOM      7  C   UNL     1       1.424   7.726   2.595  1.00  0.00     0.165 A 
ATOM      8  F   UNL     1       0.800   7.689   3.794  1.00  0.00    -0.203 F 
BRANCH   3   9
ATOM      9  C   UNL     1       3.386   7.839  -1.172  1.00  0.00     0.335 C 
ATOM     10  O   UNL     1       3.132   8.723  -1.964  1.00  0.00    -0.246 OA
BRANCH   9  11
ATOM     11  O   UNL     1       4.296   6.895  -1.484  1.00  0.00    -0.478 OA
ATOM     12  H   UNL     1       5.177   6.988  -1.094  1.00  0.00     0.297 HD
ENDBRANCH   9  11
ENDBRANCH   3   9
ENDBRANCH   1   2
BRANCH   1  13
ATOM     13  C   UNL     1       1.883  10.654   3.549  1.00  0.00     0.230 C 
BRANCH  13  14
ATOM     14  C   UNL     1       2.231  12.102   3.200  1.00  0.00     0.046 C 
BRANCH  14  15
ATOM     15  C   UNL     1       3.694  12.183   2.759  1.00  0.00     0.043 C 
BRANCH  15  16
ATOM     16  C   UNL     1       4.253  13.535   3.116  1.00  0.00    -0.004 A 
ATOM     17  C   UNL     1       4.817  13.877   4.298  1.00  0.00     0.036 A 
ATOM     18  C   UNL     1       4.288  14.659   2.283  1.00  0.00     0.063 A 
ATOM     19  N   UNL     1       5.189  15.172   4.218  1.00  0.00    -0.282 N 
ATOM     20  N   UNL     1       4.842  15.642   2.944  1.00  0.00    -0.181 NA
ATOM     21  C   UNL     1       4.998  12.973   5.490  1.00  0.00     0.066 C 
ATOM     22  C   UNL     1       3.765  14.728   0.871  1.00  0.00     0.069 C 
ATOM     23  H   UNL     1       5.620  15.686   4.918  1.00  0.00     0.190 HD
ENDBRANCH  15  16
ENDBRANCH  14  15
ENDBRANCH  13  14
ENDBRANCH   1  13
TORSDOF 7
ENDMDL
MODEL 4
REMARK VINA RESULT:    -5.672      0.146      1.771
REMARK INTER + INTRA:          -8.455
REMARK INTER:                  -7.803
REMARK INTRA:                  -0.652
REMARK UNBOUND:                -0.627
REMARK SMILES Cc1n[nH]c(C)c1CCCOc1cc(C(=O)O)ccc1F
REMARK SMILES IDX 11 1 12 2 14 3 18 4 13 5 19 6 20 7 21 8 15 9 16 10 17 11
REMARK SMILES IDX 10 13 9 14 8 15 7 16 5 17 2 18 4 19 3 20 6 21 1 22
REMARK H PARENT 17 12 4 23
ROOT
ATOM      1  O   UNL     1       5.216   9.125   1.411  1.00  0.00    -0.490 OA
ENDROOT
BRANCH   1   2
ATOM      2  C   UNL     1       4.085   8.376   1.317  1.00  0.00     0.155 A 
ATOM      3  C   UNL     1       2.199   7.304   2.354  1.00  0.00     0.063 A 
ATOM      4  C   UNL     1       1.772   6.853   1.102  1.00  0.00     0.019 A 
ATOM      5  C   UNL     1       3.363   8.069   2.455  1.00  0.00     0.065 A 
ATOM      6  C   UNL     1       2.496   7.169  -0.028  1.00  0.00     0.044 A 
ATOM      7  C   UNL     1       3.647   7.932   0.074  1.00  0.00     0.165 A 
ATOM      8  F   UNL     1       4.352   8.238  -1.037  1.00  0.00    -0.203 F 
BRANCH   3   9
ATOM      9  C   UNL     1       1.426   6.968   3.566  1.00  0.00     0.335 C 
ATOM     10  O   UNL     1       1.967   6.974   4.653  1.00  0.00    -0.246 OA
BRANCH   9  11
ATOM     11  O   UNL     1       0.118   6.660   3.466  1.00  0.00    -0.478 OA
ATOM     12  H   UNL     1      -0.219   6.456   2.582  1.00  0.00     0.297 HD
ENDBRANCH   9  11
ENDBRANCH   3   9
ENDBRANCH   1   2
BRANCH   1  13
ATOM     13  C   UNL     1       5.124  10.492   1.004  1.00  0.00     0.230 C 
BRANCH  13  14
ATOM     14  C   UNL     1       5.427  11.401   2.197  1.00  0.00     0.046 C 
BRANCH  14  15
ATOM     15  C   UNL     1       4.153  12.141   2.611  1.00  0.00     0.043 C 
BRANCH  15  16
ATOM     16  C   UNL     1       4.497  13.557   2.994  1.00  0.00    -0.004 A 
ATOM     17  C   UNL     1       4.449  14.637   2.179  1.00  0.00     0.036 A 
ATOM     18  C   UNL     1       4.915  13.990   4.257  1.00  0.00     0.063 A 
ATOM     19  N   UNL     1       4.830  15.713   2.899  1.00  0.00    -0.282 N 
ATOM     20  N   UNL     1       5.122  15.280   4.199  1.00  0.00    -0.181 NA
ATOM     21  C   UNL     1       4.042  14.636   0.728  1.00  0.00     0.066 C 
ATOM     22  C   UNL     1       5.107  13.118   5.471  1.00  0.00     0.069 C 
ATOM     23  H   UNL     1       4.891  16.624   2.573  1.00  0.00     0.190 HD
ENDBRANCH  15  16
ENDBRANCH  14  15
ENDBRANCH  13  14
ENDBRANCH   1  13
TORSDOF 7
ENDMDL
MODEL 5
REMARK VINA RESULT:    -5.263      7.232      9.721
REMARK INTER + INTRA:          -7.890
REMARK INTER:                  -6.413
REMARK INTRA:                  -1.477
REMARK UNBOUND:                -0.627
REMARK SMILES Cc1n[nH]c(C)c1CCCOc1cc(C(=O)O)ccc1F
REMARK SMILES IDX 11 1 12 2 14 3 18 4 13 5 19 6 20 7 21 8 15 9 16 10 17 11
REMARK SMILES IDX 10 13 9 14 8 15 7 16 5 17 2 18 4 19 3 20 6 21 1 22
REMARK H PARENT 17 12 4 23
ROOT
ATOM      1  O   UNL     1       8.322  13.439   8.280  1.00  0.00    -0.490 OA
ENDROOT
BRANCH   1   2
ATOM      2  C   UNL     1       7.281  13.931   7.556  1.00  0.00     0.155 A 
ATOM      3  C   UNL     1       5.899  15.777   6.876  1.00  0.00     0.063 A 
ATOM      4  C   UNL     1       5.158  14.917   6.061  1.00  0.00     0.019 A 
ATOM      5  C   UNL     1       6.965  15.275   7.625  1.00  0.00     0.065 A 
ATOM      6  C   UNL     1       5.484  13.579   5.994  1.00  0.00     0.044 A 
ATOM      7  C   UNL     1       6.545  13.084   6.734  1.00  0.00     0.165 A 
ATOM      8  F   UNL     1       6.861  11.772   6.664  1.00  0.00    -0.203 F 
BRANCH   3   9
ATOM      9  C   UNL     1       5.552  17.210   6.950  1.00  0.00     0.335 C 
ATOM     10  O   UNL     1       5.986  17.894   7.853  1.00  0.00    -0.246 OA
BRANCH   9  11
ATOM     11  O   UNL     1       4.758  17.759   6.010  1.00  0.00    -0.478 OA
ATOM     12  H   UNL     1       5.112  18.517   5.524  1.00  0.00     0.297 HD
ENDBRANCH   9  11
ENDBRANCH   3   9
ENDBRANCH   1   2
BRANCH   1  13
ATOM     13  C   UNL     1       9.565  14.138   8.186  1.00  0.00     0.230 C 
BRANCH  13  14
ATOM     14  C   UNL     1      10.191  14.254   9.576  1.00  0.00     0.046 C 
BRANCH  14  15
ATOM     15  C   UNL     1      10.690  15.684   9.795  1.00  0.00     0.043 C 
BRANCH  15  16
ATOM     16  C   UNL     1       9.512  16.601  10.002  1.00  0.00    -0.004 A 
ATOM     17  C   UNL     1       9.124  17.598   9.173  1.00  0.00     0.036 A 
ATOM     18  C   UNL     1       8.623  16.568  11.081  1.00  0.00     0.063 A 
ATOM     19  N   UNL     1       8.032  18.179   9.712  1.00  0.00    -0.282 N 
ATOM     20  N   UNL     1       7.739  17.518  10.912  1.00  0.00    -0.181 NA
ATOM     21  C   UNL     1       9.791  17.988   7.880  1.00  0.00     0.066 C 
ATOM     22  C   UNL     1       8.680  15.611  12.244  1.00  0.00     0.069 C 
ATOM     23  H   UNL     1       7.537  18.924   9.336  1.00  0.00     0.190 HD
ENDBRANCH  15  16
ENDBRANCH  14  15
ENDBRANCH  13  14
ENDBRANCH   1  13
TORSDOF 7
ENDMDL
MODEL 6
REMARK VINA RESULT:    -4.554      3.967      7.197
REMARK INTER + INTRA:          -6.912
REMARK INTER:                  -6.079
REMARK INTRA:                  -0.833
REMARK UNBOUND:                -0.627
REMARK SMILES Cc1n[nH]c(C)c1CCCOc1cc(C(=O)O)ccc1F
REMARK SMILES IDX 11 1 12 2 14 3 18 4 13 5 19 6 20 7 21 8 15 9 16 10 17 11
REMARK SMILES IDX 10 13 9 14 8 15 7 16 5 17 2 18 4 19 3 20 6 21 1 22
REMARK H PARENT 17 12 4 23
ROOT
ATOM      1  O   UNL     1       3.636  10.644   3.335  1.00  0.00    -0.490 OA
ENDROOT
BRANCH   1   2
ATOM      2  C   UNL     1       4.017  11.949   3.348  1.00  0.00     0.155 A 
ATOM      3  C   UNL     1       4.201  14.081   2.252  1.00  0.00     0.063 A 
ATOM      4  C   UNL     1       4.794  14.615   3.399  1.00  0.00     0.019 A 
ATOM      5  C   UNL     1       3.812  12.740   2.233  1.00  0.00     0.065 A 
ATOM      6  C   UNL     1       4.989  13.820   4.508  1.00  0.00     0.044 A 
ATOM      7  C   UNL     1       4.599  12.491   4.489  1.00  0.00     0.165 A 
ATOM      8  F   UNL     1       4.792  11.717   5.580  1.00  0.00    -0.203 F 
BRANCH   3   9
ATOM      9  C   UNL     1       3.990  14.930   1.063  1.00  0.00     0.335 C 
ATOM     10  O   UNL     1       3.223  14.575   0.192  1.00  0.00    -0.246 OA
BRANCH   9  11
ATOM     11  O   UNL     1       4.646  16.101   0.948  1.00  0.00    -0.478 OA
ATOM     12  H   UNL     1       5.279  16.181   0.221  1.00  0.00     0.297 HD
ENDBRANCH   9  11
ENDBRANCH   3   9
ENDBRANCH   1   2
BRANCH   1  13
ATOM     13  C   UNL     1       2.351  10.349   2.781  1.00  0.00     0.230 C 
BRANCH  13  14
ATOM     14  C   UNL     1       2.102   8.841   2.849  1.00  0.00     0.046 C 
BRANCH  14  15
ATOM     15  C   UNL     1       3.406   8.094   2.560  1.00  0.00     0.043 C 
BRANCH  15  16
ATOM     16  C   UNL     1       3.566   7.919   1.073  1.00  0.00    -0.004 A 
ATOM     17  C   UNL     1       4.483   8.538   0.292  1.00  0.00     0.036 A 
ATOM     18  C   UNL     1       2.799   7.083   0.255  1.00  0.00     0.063 A 
ATOM     19  N   UNL     1       4.297   8.113  -0.976  1.00  0.00    -0.282 N 
ATOM     20  N   UNL     1       3.232   7.204  -0.974  1.00  0.00    -0.181 NA
ATOM     21  C   UNL     1       5.523   9.523   0.756  1.00  0.00     0.066 C 
ATOM     22  C   UNL     1       1.662   6.204   0.709  1.00  0.00     0.069 C 
ATOM     23  H   UNL     1       4.810   8.390  -1.751  1.00  0.00     0.190 HD
ENDBRANCH  15  16
ENDBRANCH  14  15
ENDBRANCH  13  14
ENDBRANCH   1  13
TORSDOF 7
ENDMDL
MODEL 7
REMARK VINA RESULT:    -4.548      3.866      6.701
REMARK INTER + INTRA:          -6.903
REMARK INTER:                  -6.070
REMARK INTRA:                  -0.834
REMARK UNBOUND:                -0.627
REMARK SMILES Cc1n[nH]c(C)c1CCCOc1cc(C(=O)O)ccc1F
REMARK SMILES IDX 11 1 12 2 14 3 18 4 13 5 19 6 20 7 21 8 15 9 16 10 17 11
REMARK SMILES IDX 10 13 9 14 8 15 7 16 5 17 2 18 4 19 3 20 6 21 1 22
REMARK H PARENT 17 12 4 23
ROOT
ATOM      1  O   UNL     1       3.628  11.248   1.462  1.00  0.00    -0.490 OA
ENDROOT
BRANCH   1   2
ATOM      2  C   UNL     1       4.009  12.315   2.212  1.00  0.00     0.155 A 
ATOM      3  C   UNL     1       4.832  13.227   4.280  1.00  0.00     0.063 A 
ATOM      4  C   UNL     1       4.792  14.509   3.726  1.00  0.00     0.019 A 
ATOM      5  C   UNL     1       4.437  12.128   3.514  1.00  0.00     0.065 A 
ATOM      6  C   UNL     1       4.370  14.685   2.425  1.00  0.00     0.044 A 
ATOM      7  C   UNL     1       3.983  13.594   1.665  1.00  0.00     0.165 A 
ATOM      8  F   UNL     1       3.571  13.773   0.391  1.00  0.00    -0.203 F 
BRANCH   3   9
ATOM      9  C   UNL     1       5.284  13.035   5.672  1.00  0.00     0.335 C 
ATOM     10  O   UNL     1       6.169  12.242   5.919  1.00  0.00    -0.246 OA
BRANCH   9  11
ATOM     11  O   UNL     1       4.717  13.744   6.668  1.00  0.00    -0.478 OA
ATOM     12  H   UNL     1       5.242  13.870   7.471  1.00  0.00     0.297 HD
ENDBRANCH   9  11
ENDBRANCH   3   9
ENDBRANCH   1   2
BRANCH   1  13
ATOM     13  C   UNL     1       4.424  10.065   1.566  1.00  0.00     0.230 C 
BRANCH  13  14
ATOM     14  C   UNL     1       3.826   8.969   0.681  1.00  0.00     0.046 C 
BRANCH  14  15
ATOM     15  C   UNL     1       2.302   9.104   0.662  1.00  0.00     0.043 C 
BRANCH  15  16
ATOM     16  C   UNL     1       1.710   8.284   1.779  1.00  0.00    -0.004 A 
ATOM     17  C   UNL     1       1.670   6.933   1.839  1.00  0.00     0.036 A 
ATOM     18  C   UNL     1       1.111   8.785   2.939  1.00  0.00     0.063 A 
ATOM     19  N   UNL     1       1.060   6.591   2.994  1.00  0.00    -0.282 N 
ATOM     20  N   UNL     1       0.715   7.771   3.665  1.00  0.00    -0.181 NA
ATOM     21  C   UNL     1       2.209   5.981   0.803  1.00  0.00     0.066 C 
ATOM     22  C   UNL     1       0.939  10.241   3.288  1.00  0.00     0.069 C 
ATOM     23  H   UNL     1       0.891   5.688   3.304  1.00  0.00     0.190 HD
ENDBRANCH  15  16
ENDBRANCH  14  15
ENDBRANCH  13  14
ENDBRANCH   1  13
TORSDOF 7
ENDMDL
MODEL 8
REMARK VINA RESULT:    -4.526      4.403      7.602
REMARK INTER + INTRA:          -6.873
REMARK INTER:                  -6.246
REMARK INTRA:                  -0.627
REMARK UNBOUND:                -0.627
REMARK SMILES Cc1n[nH]c(C)c1CCCOc1cc(C(=O)O)ccc1F
REMARK SMILES IDX 11 1 12 2 14 3 18 4 13 5 19 6 20 7 21 8 15 9 16 10 17 11
REMARK SMILES IDX 10 13 9 14 8 15 7 16 5 17 2 18 4 19 3 20 6 21 1 22
REMARK H PARENT 17 12 4 23
ROOT
ATOM      1  O   UNL     1       3.879  11.072   3.479  1.00  0.00    -0.490 OA
ENDROOT
BRANCH   1   2
ATOM      2  C   UNL     1       4.277  12.348   3.727  1.00  0.00     0.155 A 
ATOM      3  C   UNL     1       4.631  14.607   2.981  1.00  0.00     0.063 A 
ATOM      4  C   UNL     1       5.085  14.953   4.257  1.00  0.00     0.019 A 
ATOM      5  C   UNL     1       4.226  13.295   2.722  1.00  0.00     0.065 A 
ATOM      6  C   UNL     1       5.126  14.002   5.255  1.00  0.00     0.044 A 
ATOM      7  C   UNL     1       4.720  12.704   4.996  1.00  0.00     0.165 A 
ATOM      8  F   UNL     1       4.762  11.777   5.979  1.00  0.00    -0.203 F 
BRANCH   3   9
ATOM      9  C   UNL     1       4.585  15.622   1.910  1.00  0.00     0.335 C 
ATOM     10  O   UNL     1       4.698  16.799   2.184  1.00  0.00    -0.246 OA
BRANCH   9  11
ATOM     11  O   UNL     1       4.424  15.240   0.628  1.00  0.00    -0.478 OA
ATOM     12  H   UNL     1       3.838  15.780   0.079  1.00  0.00     0.297 HD
ENDBRANCH   9  11
ENDBRANCH   3   9
ENDBRANCH   1   2
BRANCH   1  13
ATOM     13  C   UNL     1       2.573  10.896   2.925  1.00  0.00     0.230 C 
BRANCH  13  14
ATOM     14  C   UNL     1       2.684  10.186   1.575  1.00  0.00     0.046 C 
BRANCH  14  15
ATOM     15  C   UNL     1       3.520   8.914   1.734  1.00  0.00     0.043 C 
BRANCH  15  16
ATOM     16  C   UNL     1       2.766   7.742   1.163  1.00  0.00    -0.004 A 
ATOM     17  C   UNL     1       1.925   6.928   1.843  1.00  0.00     0.036 A 
ATOM     18  C   UNL     1       2.805   7.306  -0.166  1.00  0.00     0.063 A 
ATOM     19  N   UNL     1       1.455   6.006   0.977  1.00  0.00    -0.282 N 
ATOM     20  N   UNL     1       2.025   6.262  -0.277  1.00  0.00    -0.181 NA
ATOM     21  C   UNL     1       1.577   7.032   3.305  1.00  0.00     0.066 C 
ATOM     22  C   UNL     1       3.616   7.926  -1.276  1.00  0.00     0.069 C 
ATOM     23  H   UNL     1       0.833   5.292   1.185  1.00  0.00     0.190 HD
ENDBRANCH  15  16
ENDBRANCH  14  15
ENDBRANCH  13  14
ENDBRANCH   1  13
TORSDOF 7
ENDMDL
MODEL 9
REMARK VINA RESULT:    -4.255      8.676     10.346
REMARK INTER + INTRA:          -6.499
REMARK INTER:                  -5.352
REMARK INTRA:                  -1.147
REMARK UNBOUND:                -0.627
REMARK SMILES Cc1n[nH]c(C)c1CCCOc1cc(C(=O)O)ccc1F
REMARK SMILES IDX 11 1 12 2 14 3 18 4 13 5 19 6 20 7 21 8 15 9 16 10 17 11
REMARK SMILES IDX 10 13 9 14 8 15 7 16 5 17 2 18 4 19 3 20 6 21 1 22
REMARK H PARENT 17 12 4 23
ROOT
ATOM      1  O   UNL     1       7.273  15.091   7.043  1.00  0.00    -0.490 OA
ENDROOT
BRANCH   1   2
ATOM      2  C   UNL     1       8.105  15.018   8.116  1.00  0.00     0.155 A 
ATOM      3  C   UNL     1       8.592  15.515  10.418  1.00  0.00     0.063 A 
ATOM      4  C   UNL     1       9.814  14.847  10.299  1.00  0.00     0.019 A 
ATOM      5  C   UNL     1       7.737  15.597   9.316  1.00  0.00     0.065 A 
ATOM      6  C   UNL     1      10.169  14.268   9.100  1.00  0.00     0.044 A 
ATOM      7  C   UNL     1       9.318  14.346   8.010  1.00  0.00     0.165 A 
ATOM      8  F   UNL     1       9.671  13.776   6.837  1.00  0.00    -0.203 F 
BRANCH   3   9
ATOM      9  C   UNL     1       8.208  16.136  11.700  1.00  0.00     0.335 C 
ATOM     10  O   UNL     1       8.968  16.904  12.255  1.00  0.00    -0.246 OA
BRANCH   9  11
ATOM     11  O   UNL     1       7.011  15.856  12.253  1.00  0.00    -0.478 OA
ATOM     12  H   UNL     1       6.264  16.409  11.986  1.00  0.00     0.297 HD
ENDBRANCH   9  11
ENDBRANCH   3   9
ENDBRANCH   1   2
BRANCH   1  13
ATOM     13  C   UNL     1       6.057  15.825   7.213  1.00  0.00     0.230 C 
BRANCH  13  14
ATOM     14  C   UNL     1       5.990  16.947   6.176  1.00  0.00     0.046 C 
BRANCH  14  15
ATOM     15  C   UNL     1       6.307  18.284   6.849  1.00  0.00     0.043 C 
BRANCH  15  16
ATOM     16  C   UNL     1       7.325  19.032   6.028  1.00  0.00    -0.004 A 
ATOM     17  C   UNL     1       8.647  19.133   6.299  1.00  0.00     0.036 A 
ATOM     18  C   UNL     1       7.072  19.738   4.848  1.00  0.00     0.063 A 
ATOM     19  N   UNL     1       9.209  19.883   5.328  1.00  0.00    -0.282 N 
ATOM     20  N   UNL     1       8.199  20.255   4.431  1.00  0.00    -0.181 NA
ATOM     21  C   UNL     1       9.363  18.519   7.473  1.00  0.00     0.066 C 
ATOM     22  C   UNL     1       5.730  19.889   4.178  1.00  0.00     0.069 C 
ATOM     23  H   UNL     1      10.146  20.124   5.263  1.00  0.00     0.190 HD
ENDBRANCH  15  16
ENDBRANCH  14  15
ENDBRANCH  13  14
ENDBRANCH   1  13
TORSDOF 7
ENDMDL
