MODEL 1
REMARK VINA RESULT:    -4.537      0.000      0.000
REMARK INTER + INTRA:          -5.495
REMARK INTER:                  -5.200
REMARK INTRA:                  -0.295
REMARK UNBOUND:                -0.295
REMARK SMILES O=C(O)c1ccc2nc(-c3cc(Cl)cc(Cl)c3)oc2c1
REMARK SMILES IDX 5 1 6 2 20 3 8 4 18 5 4 6 9 7 7 8 19 9 2 10 1 11 3 12 10 14
REMARK SMILES IDX 11 15 17 16 12 17 15 18 14 19 13 20 16 21
REMARK H PARENT 3 13
ROOT
ATOM      1  C   UNL     1       4.839  14.830   3.635  1.00  0.00     0.018 A 
ATOM      2  C   UNL     1       4.418  14.095   2.568  1.00  0.00     0.033 A 
ATOM      3  C   UNL     1       4.792  12.856   5.043  1.00  0.00     0.065 A 
ATOM      4  N   UNL     1       3.758  11.760   1.865  1.00  0.00    -0.209 NA
ATOM      5  O   UNL     1       4.047  10.803   3.797  1.00  0.00    -0.436 OA
ATOM      6  C   UNL     1       5.034  14.221   4.884  1.00  0.00     0.063 A 
ATOM      7  C   UNL     1       3.687  10.624   2.512  1.00  0.00     0.227 A 
ATOM      8  C   UNL     1       4.172  12.724   2.714  1.00  0.00     0.110 A 
ATOM      9  C   UNL     1       4.360  12.107   3.964  1.00  0.00     0.156 A 
ENDROOT
BRANCH   6  10
ATOM     10  C   UNL     1       5.496  15.025   6.029  1.00  0.00     0.335 C 
ATOM     11  O   UNL     1       5.521  14.538   7.142  1.00  0.00    -0.246 OA
BRANCH  10  12
ATOM     12  O   UNL     1       5.889  16.301   5.843  1.00  0.00    -0.478 OA
ATOM     13  H   UNL     1       5.898  16.875   6.621  1.00  0.00     0.297 HD
ENDBRANCH  10  12
ENDBRANCH   6  10
BRANCH   7  14
ATOM     14  C   UNL     1       3.271   9.335   1.920  1.00  0.00     0.040 A 
ATOM     15  C   UNL     1       3.508   9.075   0.570  1.00  0.00     0.034 A 
ATOM     16  C   UNL     1       2.637   8.373   2.710  1.00  0.00     0.034 A 
ATOM     17  C   UNL     1       3.118   7.869   0.023  1.00  0.00     0.043 A 
ATOM     18  C   UNL     1       2.252   7.171   2.151  1.00  0.00     0.043 A 
ATOM     19  C   UNL     1       2.491   6.919   0.811  1.00  0.00     0.041 A 
ATOM     20  Cl  UNL     1       3.413   7.543  -1.657  1.00  0.00    -0.084 Cl
ATOM     21  Cl  UNL     1       1.465   5.974   3.131  1.00  0.00    -0.084 Cl
ENDBRANCH   7  14
TORSDOF 3
ENDMDL
MODEL 2
REMARK VINA RESULT:    -4.531      0.004      2.019
REMARK INTER + INTRA:          -5.489
REMARK INTER:                  -5.194
REMARK INTRA:                  -0.295
REMARK UNBOUND:                -0.295
REMARK SMILES O=C(O)c1ccc2nc(-c3cc(Cl)cc(Cl)c3)oc2c1
REMARK SMILES IDX 5 1 6 2 20 3 8 4 18 5 4 6 9 7 7 8 19 9 2 10 1 11 3 12 10 14
REMARK SMILES IDX 11 15 17 16 12 17 15 18 14 19 13 20 16 21
REMARK H PARENT 3 13
ROOT
ATOM      1  C   UNL     1       4.839  14.830   3.637  1.00  0.00     0.018 A 
ATOM      2  C   UNL     1       4.418  14.095   2.569  1.00  0.00     0.033 A 
ATOM      3  C   UNL     1       4.792  12.856   5.044  1.00  0.00     0.065 A 
ATOM      4  N   UNL     1       3.759  11.760   1.865  1.00  0.00    -0.209 NA
ATOM      5  O   UNL     1       4.048  10.803   3.797  1.00  0.00    -0.436 OA
ATOM      6  C   UNL     1       5.033  14.222   4.885  1.00  0.00     0.063 A 
ATOM      7  C   UNL     1       3.688  10.624   2.513  1.00  0.00     0.227 A 
ATOM      8  C   UNL     1       4.173  12.724   2.715  1.00  0.00     0.110 A 
ATOM      9  C   UNL     1       4.360  12.108   3.965  1.00  0.00     0.156 A 
ENDROOT
BRANCH   6  10
ATOM     10  C   UNL     1       5.495  15.026   6.031  1.00  0.00     0.335 C 
ATOM     11  O   UNL     1       5.522  14.537   7.143  1.00  0.00    -0.246 OA
BRANCH  10  12
ATOM     12  O   UNL     1       5.885  16.302   5.846  1.00  0.00    -0.478 OA
ATOM     13  H   UNL     1       5.379  16.987   6.303  1.00  0.00     0.297 HD
ENDBRANCH  10  12
ENDBRANCH   6  10
BRANCH   7  14
ATOM     14  C   UNL     1       3.273   9.336   1.920  1.00  0.00     0.040 A 
ATOM     15  C   UNL     1       2.641   8.373   2.707  1.00  0.00     0.034 A 
ATOM     16  C   UNL     1       3.513   9.077   0.569  1.00  0.00     0.034 A 
ATOM     17  C   UNL     1       2.254   7.171   2.147  1.00  0.00     0.043 A 
ATOM     18  C   UNL     1       3.122   7.872   0.020  1.00  0.00     0.043 A 
ATOM     19  C   UNL     1       2.495   6.921   0.807  1.00  0.00     0.041 A 
ATOM     20  Cl  UNL     1       1.467   5.972   3.125  1.00  0.00    -0.084 Cl
ATOM     21  Cl  UNL     1       3.418   7.548  -1.660  1.00  0.00    -0.084 Cl
ENDBRANCH   7  14
TORSDOF 3
ENDMDL
MODEL 3
REMARK VINA RESULT:    -4.522      1.693      2.379
REMARK INTER + INTRA:          -5.478
REMARK INTER:                  -5.182
REMARK INTRA:                  -0.296
REMARK UNBOUND:                -0.295
REMARK SMILES O=C(O)c1ccc2nc(-c3cc(Cl)cc(Cl)c3)oc2c1
REMARK SMILES IDX 5 1 6 2 20 3 8 4 18 5 4 6 9 7 7 8 19 9 2 10 1 11 3 12 10 14
REMARK SMILES IDX 11 15 17 16 12 17 15 18 14 19 13 20 16 21
REMARK H PARENT 3 13
ROOT
ATOM      1  C   UNL     1       4.952  14.647   3.840  1.00  0.00     0.018 A 
ATOM      2  C   UNL     1       4.683  13.363   4.208  1.00  0.00     0.033 A 
ATOM      3  C   UNL     1       4.165  14.192   1.592  1.00  0.00     0.065 A 
ATOM      4  N   UNL     1       3.791  11.163   3.342  1.00  0.00    -0.209 NA
ATOM      5  O   UNL     1       3.395  11.816   1.304  1.00  0.00    -0.436 OA
ATOM      6  C   UNL     1       4.695  15.078   2.531  1.00  0.00     0.063 A 
ATOM      7  C   UNL     1       3.343  10.786   2.170  1.00  0.00     0.227 A 
ATOM      8  C   UNL     1       4.151  12.463   3.276  1.00  0.00     0.110 A 
ATOM      9  C   UNL     1       3.896  12.887   1.960  1.00  0.00     0.156 A 
ENDROOT
BRANCH   6  10
ATOM     10  C   UNL     1       4.984  16.471   2.146  1.00  0.00     0.335 C 
ATOM     11  O   UNL     1       4.895  16.811   0.983  1.00  0.00    -0.246 OA
BRANCH  10  12
ATOM     12  O   UNL     1       5.348  17.369   3.084  1.00  0.00    -0.478 OA
ATOM     13  H   UNL     1       5.857  17.036   3.835  1.00  0.00     0.297 HD
ENDBRANCH  10  12
ENDBRANCH   6  10
BRANCH   7  14
ATOM     14  C   UNL     1       2.854   9.430   1.847  1.00  0.00     0.040 A 
ATOM     15  C   UNL     1       2.954   8.941   0.544  1.00  0.00     0.034 A 
ATOM     16  C   UNL     1       2.289   8.633   2.845  1.00  0.00     0.034 A 
ATOM     17  C   UNL     1       2.496   7.672   0.248  1.00  0.00     0.043 A 
ATOM     18  C   UNL     1       1.835   7.366   2.537  1.00  0.00     0.043 A 
ATOM     19  C   UNL     1       1.937   6.886   1.242  1.00  0.00     0.041 A 
ATOM     20  Cl  UNL     1       2.620   7.061  -1.372  1.00  0.00    -0.084 Cl
ATOM     21  Cl  UNL     1       1.133   6.373   3.776  1.00  0.00    -0.084 Cl
ENDBRANCH   7  14
TORSDOF 3
ENDMDL
MODEL 4
REMARK VINA RESULT:    -4.511      1.671      3.093
REMARK INTER + INTRA:          -5.466
REMARK INTER:                  -5.170
REMARK INTRA:                  -0.296
REMARK UNBOUND:                -0.295
REMARK SMILES O=C(O)c1ccc2nc(-c3cc(Cl)cc(Cl)c3)oc2c1
REMARK SMILES IDX 5 1 6 2 20 3 8 4 18 5 4 6 9 7 7 8 19 9 2 10 1 11 3 12 10 14
REMARK SMILES IDX 11 15 17 16 12 17 15 18 14 19 13 20 16 21
REMARK H PARENT 3 13
ROOT
ATOM      1  C   UNL     1       4.928  14.627   3.877  1.00  0.00     0.018 A 
ATOM      2  C   UNL     1       4.651  13.343   4.240  1.00  0.00     0.033 A 
ATOM      3  C   UNL     1       4.190  14.172   1.612  1.00  0.00     0.065 A 
ATOM      4  N   UNL     1       3.776  11.144   3.355  1.00  0.00    -0.209 NA
ATOM      5  O   UNL     1       3.425  11.796   1.310  1.00  0.00    -0.436 OA
ATOM      6  C   UNL     1       4.700  15.058   2.562  1.00  0.00     0.063 A 
ATOM      7  C   UNL     1       3.354  10.767   2.175  1.00  0.00     0.227 A 
ATOM      8  C   UNL     1       4.139  12.444   3.297  1.00  0.00     0.110 A 
ATOM      9  C   UNL     1       3.912  12.867   1.975  1.00  0.00     0.156 A 
ENDROOT
BRANCH   6  10
ATOM     10  C   UNL     1       4.998  16.451   2.183  1.00  0.00     0.335 C 
ATOM     11  O   UNL     1       4.932  16.791   1.018  1.00  0.00    -0.246 OA
BRANCH  10  12
ATOM     12  O   UNL     1       5.346  17.348   3.127  1.00  0.00    -0.478 OA
ATOM     13  H   UNL     1       6.203  17.224   3.557  1.00  0.00     0.297 HD
ENDBRANCH  10  12
ENDBRANCH   6  10
BRANCH   7  14
ATOM     14  C   UNL     1       2.871   9.410   1.842  1.00  0.00     0.040 A 
ATOM     15  C   UNL     1       2.308   8.604   2.831  1.00  0.00     0.034 A 
ATOM     16  C   UNL     1       2.977   8.931   0.534  1.00  0.00     0.034 A 
ATOM     17  C   UNL     1       1.858   7.338   2.513  1.00  0.00     0.043 A 
ATOM     18  C   UNL     1       2.523   7.663   0.229  1.00  0.00     0.043 A 
ATOM     19  C   UNL     1       1.966   6.868   1.215  1.00  0.00     0.041 A 
ATOM     20  Cl  UNL     1       1.157   6.333   3.743  1.00  0.00    -0.084 Cl
ATOM     21  Cl  UNL     1       2.654   7.065  -1.396  1.00  0.00    -0.084 Cl
ENDBRANCH   7  14
TORSDOF 3
ENDMDL
MODEL 5
REMARK VINA RESULT:    -4.370      3.747      7.437
REMARK INTER + INTRA:          -5.304
REMARK INTER:                  -5.006
REMARK INTRA:                  -0.298
REMARK UNBOUND:                -0.295
REMARK SMILES O=C(O)c1ccc2nc(-c3cc(Cl)cc(Cl)c3)oc2c1
REMARK SMILES IDX 5 1 6 2 20 3 8 4 18 5 4 6 9 7 7 8 19 9 2 10 1 11 3 12 10 14
REMARK SMILES IDX 11 15 17 16 12 17 15 18 14 19 13 20 16 21
REMARK H PARENT 3 13
ROOT
ATOM      1  C   UNL     1       2.274   7.433   0.141  1.00  0.00     0.018 A 
ATOM      2  C   UNL     1       2.605   8.741  -0.046  1.00  0.00     0.033 A 
ATOM      3  C   UNL     1       2.728   7.632   2.515  1.00  0.00     0.065 A 
ATOM      4  N   UNL     1       3.386  10.815   1.168  1.00  0.00    -0.209 NA
ATOM      5  O   UNL     1       3.484   9.942   3.159  1.00  0.00    -0.436 OA
ATOM      6  C   UNL     1       2.329   6.862   1.421  1.00  0.00     0.063 A 
ATOM      7  C   UNL     1       3.667  11.056   2.425  1.00  0.00     0.227 A 
ATOM      8  C   UNL     1       3.007   9.525   1.043  1.00  0.00     0.110 A 
ATOM      9  C   UNL     1       3.069   8.959   2.329  1.00  0.00     0.156 A 
ENDROOT
BRANCH   6  10
ATOM     10  C   UNL     1       1.963   5.447   1.612  1.00  0.00     0.335 C 
ATOM     11  O   UNL     1       1.791   4.729   0.647  1.00  0.00    -0.246 OA
BRANCH  10  12
ATOM     12  O   UNL     1       1.817   4.950   2.856  1.00  0.00    -0.478 OA
ATOM     13  H   UNL     1       0.919   4.912   3.212  1.00  0.00     0.297 HD
ENDBRANCH  10  12
ENDBRANCH   6  10
BRANCH   7  14
ATOM     14  C   UNL     1       4.118  12.358   2.957  1.00  0.00     0.040 A 
ATOM     15  C   UNL     1       4.131  13.485   2.135  1.00  0.00     0.034 A 
ATOM     16  C   UNL     1       4.535  12.465   4.286  1.00  0.00     0.034 A 
ATOM     17  C   UNL     1       4.553  14.699   2.638  1.00  0.00     0.043 A 
ATOM     18  C   UNL     1       4.955  13.685   4.778  1.00  0.00     0.043 A 
ATOM     19  C   UNL     1       4.965  14.799   3.957  1.00  0.00     0.041 A 
ATOM     20  Cl  UNL     1       4.570  16.103   1.617  1.00  0.00    -0.084 Cl
ATOM     21  Cl  UNL     1       5.473  13.820   6.429  1.00  0.00    -0.084 Cl
ENDBRANCH   7  14
TORSDOF 3
ENDMDL
MODEL 6
REMARK VINA RESULT:    -4.357      3.746      7.669
REMARK INTER + INTRA:          -5.288
REMARK INTER:                  -4.991
REMARK INTRA:                  -0.298
REMARK UNBOUND:                -0.295
REMARK SMILES O=C(O)c1ccc2nc(-c3cc(Cl)cc(Cl)c3)oc2c1
REMARK SMILES IDX 5 1 6 2 20 3 8 4 18 5 4 6 9 7 7 8 19 9 2 10 1 11 3 12 10 14
REMARK SMILES IDX 11 15 17 16 12 17 15 18 14 19 13 20 16 21
REMARK H PARENT 3 13
ROOT
ATOM      1  C   UNL     1       2.273   7.409   0.133  1.00  0.00     0.018 A 
ATOM      2  C   UNL     1       2.602   8.717  -0.057  1.00  0.00     0.033 A 
ATOM      3  C   UNL     1       2.725   7.615   2.507  1.00  0.00     0.065 A 
ATOM      4  N   UNL     1       3.379  10.795   1.152  1.00  0.00    -0.209 NA
ATOM      5  O   UNL     1       3.477   9.928   3.145  1.00  0.00    -0.436 OA
ATOM      6  C   UNL     1       2.327   6.842   1.414  1.00  0.00     0.063 A 
ATOM      7  C   UNL     1       3.658  11.040   2.408  1.00  0.00     0.227 A 
ATOM      8  C   UNL     1       3.002   9.504   1.030  1.00  0.00     0.110 A 
ATOM      9  C   UNL     1       3.064   8.942   2.317  1.00  0.00     0.156 A 
ENDROOT
BRANCH   6  10
ATOM     10  C   UNL     1       1.963   5.427   1.609  1.00  0.00     0.335 C 
ATOM     11  O   UNL     1       1.793   4.706   0.646  1.00  0.00    -0.246 OA
BRANCH  10  12
ATOM     12  O   UNL     1       1.818   4.933   2.854  1.00  0.00    -0.478 OA
ATOM     13  H   UNL     1       0.930   4.651   3.114  1.00  0.00     0.297 HD
ENDBRANCH  10  12
ENDBRANCH   6  10
BRANCH   7  14
ATOM     14  C   UNL     1       4.107  12.344   2.937  1.00  0.00     0.040 A 
ATOM     15  C   UNL     1       4.522  12.457   4.265  1.00  0.00     0.034 A 
ATOM     16  C   UNL     1       4.118  13.469   2.110  1.00  0.00     0.034 A 
ATOM     17  C   UNL     1       4.942  13.679   4.753  1.00  0.00     0.043 A 
ATOM     18  C   UNL     1       4.539  14.685   2.610  1.00  0.00     0.043 A 
ATOM     19  C   UNL     1       4.950  14.791   3.928  1.00  0.00     0.041 A 
ATOM     20  Cl  UNL     1       5.459  13.822   6.403  1.00  0.00    -0.084 Cl
ATOM     21  Cl  UNL     1       4.553  16.086   1.583  1.00  0.00    -0.084 Cl
ENDBRANCH   7  14
TORSDOF 3
ENDMDL
MODEL 7
REMARK VINA RESULT:    -4.193      3.723      5.914
REMARK INTER + INTRA:          -5.101
REMARK INTER:                  -4.806
REMARK INTRA:                  -0.296
REMARK UNBOUND:                -0.295
REMARK SMILES O=C(O)c1ccc2nc(-c3cc(Cl)cc(Cl)c3)oc2c1
REMARK SMILES IDX 5 1 6 2 20 3 8 4 18 5 4 6 9 7 7 8 19 9 2 10 1 11 3 12 10 14
REMARK SMILES IDX 11 15 17 16 12 17 15 18 14 19 13 20 16 21
REMARK H PARENT 3 13
ROOT
ATOM      1  C   UNL     1       8.488  14.538   9.333  1.00  0.00     0.018 A 
ATOM      2  C   UNL     1       8.155  13.571   8.433  1.00  0.00     0.033 A 
ATOM      3  C   UNL     1       6.958  16.090   8.270  1.00  0.00     0.065 A 
ATOM      4  N   UNL     1       6.698  13.108   6.421  1.00  0.00    -0.209 NA
ATOM      5  O   UNL     1       5.773  15.074   6.299  1.00  0.00    -0.436 OA
ATOM      6  C   UNL     1       7.894  15.806   9.266  1.00  0.00     0.063 A 
ATOM      7  C   UNL     1       5.843  13.844   5.756  1.00  0.00     0.227 A 
ATOM      8  C   UNL     1       7.217  13.842   7.429  1.00  0.00     0.110 A 
ATOM      9  C   UNL     1       6.620  15.113   7.352  1.00  0.00     0.156 A 
ENDROOT
BRANCH   6  10
ATOM     10  C   UNL     1       8.258  16.842  10.249  1.00  0.00     0.335 C 
ATOM     11  O   UNL     1       9.081  16.600  11.110  1.00  0.00    -0.246 OA
BRANCH  10  12
ATOM     12  O   UNL     1       7.678  18.057  10.195  1.00  0.00    -0.478 OA
ATOM     13  H   UNL     1       8.099  18.768  10.697  1.00  0.00     0.297 HD
ENDBRANCH  10  12
ENDBRANCH   6  10
BRANCH   7  14
ATOM     14  C   UNL     1       5.069  13.391   4.581  1.00  0.00     0.040 A 
ATOM     15  C   UNL     1       4.709  12.048   4.455  1.00  0.00     0.034 A 
ATOM     16  C   UNL     1       4.696  14.304   3.593  1.00  0.00     0.034 A 
ATOM     17  C   UNL     1       3.985  11.631   3.355  1.00  0.00     0.043 A 
ATOM     18  C   UNL     1       3.973  13.875   2.498  1.00  0.00     0.043 A 
ATOM     19  C   UNL     1       3.619  12.542   2.379  1.00  0.00     0.041 A 
ATOM     20  Cl  UNL     1       3.535   9.962   3.196  1.00  0.00    -0.084 Cl
ATOM     21  Cl  UNL     1       3.508  15.009   1.268  1.00  0.00    -0.084 Cl
ENDBRANCH   7  14
TORSDOF 3
ENDMDL
MODEL 8
REMARK VINA RESULT:    -4.193      3.715      5.697
REMARK INTER + INTRA:          -5.101
REMARK INTER:                  -4.805
REMARK INTRA:                  -0.295
REMARK UNBOUND:                -0.295
REMARK SMILES O=C(O)c1ccc2nc(-c3cc(Cl)cc(Cl)c3)oc2c1
REMARK SMILES IDX 5 1 6 2 20 3 8 4 18 5 4 6 9 7 7 8 19 9 2 10 1 11 3 12 10 14
REMARK SMILES IDX 11 15 17 16 12 17 15 18 14 19 13 20 16 21
REMARK H PARENT 3 13
ROOT
ATOM      1  C   UNL     1       8.480  14.541   9.330  1.00  0.00     0.018 A 
ATOM      2  C   UNL     1       8.146  13.571   8.432  1.00  0.00     0.033 A 
ATOM      3  C   UNL     1       6.949  16.089   8.263  1.00  0.00     0.065 A 
ATOM      4  N   UNL     1       6.689  13.102   6.423  1.00  0.00    -0.209 NA
ATOM      5  O   UNL     1       5.765  15.067   6.294  1.00  0.00    -0.436 OA
ATOM      6  C   UNL     1       7.886  15.808   9.259  1.00  0.00     0.063 A 
ATOM      7  C   UNL     1       5.834  13.836   5.755  1.00  0.00     0.227 A 
ATOM      8  C   UNL     1       7.208  13.839   7.428  1.00  0.00     0.110 A 
ATOM      9  C   UNL     1       6.612  15.110   7.347  1.00  0.00     0.156 A 
ENDROOT
BRANCH   6  10
ATOM     10  C   UNL     1       8.250  16.847  10.239  1.00  0.00     0.335 C 
ATOM     11  O   UNL     1       9.092  16.617  11.084  1.00  0.00    -0.246 OA
BRANCH  10  12
ATOM     12  O   UNL     1       7.648  18.053  10.200  1.00  0.00    -0.478 OA
ATOM     13  H   UNL     1       7.874  18.680  10.900  1.00  0.00     0.297 HD
ENDBRANCH  10  12
ENDBRANCH   6  10
BRANCH   7  14
ATOM     14  C   UNL     1       5.061  13.379   4.582  1.00  0.00     0.040 A 
ATOM     15  C   UNL     1       4.684  14.288   3.592  1.00  0.00     0.034 A 
ATOM     16  C   UNL     1       4.702  12.034   4.460  1.00  0.00     0.034 A 
ATOM     17  C   UNL     1       3.963  13.854   2.498  1.00  0.00     0.043 A 
ATOM     18  C   UNL     1       3.980  11.613   3.361  1.00  0.00     0.043 A 
ATOM     19  C   UNL     1       3.610  12.520   2.383  1.00  0.00     0.041 A 
ATOM     20  Cl  UNL     1       3.494  14.983   1.265  1.00  0.00    -0.084 Cl
ATOM     21  Cl  UNL     1       3.534   9.942   3.207  1.00  0.00    -0.084 Cl
ENDBRANCH   7  14
TORSDOF 3
ENDMDL
MODEL 9
REMARK VINA RESULT:    -3.981      3.969      7.488
REMARK INTER + INTRA:          -4.858
REMARK INTER:                  -4.572
REMARK INTRA:                  -0.286
REMARK UNBOUND:                -0.295
REMARK SMILES O=C(O)c1ccc2nc(-c3cc(Cl)cc(Cl)c3)oc2c1
REMARK SMILES IDX 5 1 6 2 20 3 8 4 18 5 4 6 9 7 7 8 19 9 2 10 1 11 3 12 10 14
REMARK SMILES IDX 11 15 17 16 12 17 15 18 14 19 13 20 16 21
REMARK H PARENT 3 13
ROOT
ATOM      1  C   UNL     1       1.745   8.485   0.596  1.00  0.00     0.018 A 
ATOM      2  C   UNL     1       1.594   9.356   1.634  1.00  0.00     0.033 A 
ATOM      3  C   UNL     1       4.088   9.082   0.404  1.00  0.00     0.065 A 
ATOM      4  N   UNL     1       2.842  11.030   3.056  1.00  0.00    -0.209 NA
ATOM      5  O   UNL     1       4.779  10.815   2.089  1.00  0.00    -0.436 OA
ATOM      6  C   UNL     1       2.991   8.335  -0.029  1.00  0.00     0.063 A 
ATOM      7  C   UNL     1       4.085  11.443   3.057  1.00  0.00     0.227 A 
ATOM      8  C   UNL     1       2.686  10.111   2.079  1.00  0.00     0.110 A 
ATOM      9  C   UNL     1       3.938   9.971   1.453  1.00  0.00     0.156 A 
ENDROOT
BRANCH   6  10
ATOM     10  C   UNL     1       3.144   7.386  -1.146  1.00  0.00     0.335 C 
ATOM     11  O   UNL     1       2.160   6.909  -1.677  1.00  0.00    -0.246 OA
BRANCH  10  12
ATOM     12  O   UNL     1       4.374   7.045  -1.579  1.00  0.00    -0.478 OA
ATOM     13  H   UNL     1       4.456   6.209  -2.057  1.00  0.00     0.297 HD
ENDBRANCH  10  12
ENDBRANCH   6  10
BRANCH   7  14
ATOM     14  C   UNL     1       4.642  12.450   3.984  1.00  0.00     0.040 A 
ATOM     15  C   UNL     1       4.644  13.800   3.633  1.00  0.00     0.034 A 
ATOM     16  C   UNL     1       5.169  12.053   5.215  1.00  0.00     0.034 A 
ATOM     17  C   UNL     1       5.165  14.737   4.504  1.00  0.00     0.043 A 
ATOM     18  C   UNL     1       5.687  12.999   6.077  1.00  0.00     0.043 A 
ATOM     19  C   UNL     1       5.687  14.337   5.723  1.00  0.00     0.041 A 
ATOM     20  Cl  UNL     1       5.169  16.417   4.070  1.00  0.00    -0.084 Cl
ATOM     21  Cl  UNL     1       6.343  12.507   7.608  1.00  0.00    -0.084 Cl
ENDBRANCH   7  14
TORSDOF 3
ENDMDL
