MODEL 1
REMARK VINA RESULT:    -5.812      0.000      0.000
REMARK INTER + INTRA:          -8.612
REMARK INTER:                  -8.020
REMARK INTRA:                  -0.592
REMARK UNBOUND:                -0.592
REMARK SMILES Cc1n[nH]c(C)c1CCCOc1cc(C(=O)O)ccc1F
REMARK SMILES IDX 11 1 12 2 14 3 18 4 13 5 19 6 20 7 21 8 15 9 16 10 17 11
REMARK SMILES IDX 10 13 9 14 8 15 7 16 5 17 2 18 4 19 3 20 6 21 1 22
REMARK H PARENT 17 12 4 23
ROOT
ATOM      1  O   UNL     1      -1.134   5.318   8.907  1.00  0.00    -0.490 OA
ENDROOT
BRANCH   1   2
ATOM      2  C   UNL     1      -1.681   4.565   7.916  1.00  0.00     0.155 A 
ATOM      3  C   UNL     1      -2.753   2.542   7.181  1.00  0.00     0.063 A 
ATOM      4  C   UNL     1      -2.803   3.046   5.878  1.00  0.00     0.019 A 
ATOM      5  C   UNL     1      -2.187   3.310   8.200  1.00  0.00     0.065 A 
ATOM      6  C   UNL     1      -2.301   4.301   5.605  1.00  0.00     0.044 A 
ATOM      7  C   UNL     1      -1.745   5.063   6.619  1.00  0.00     0.165 A 
ATOM      8  F   UNL     1      -1.254   6.292   6.346  1.00  0.00    -0.203 F 
BRANCH   3   9
ATOM      9  C   UNL     1      -3.290   1.199   7.476  1.00  0.00     0.335 C 
ATOM     10  O   UNL     1      -2.904   0.592   8.454  1.00  0.00    -0.246 OA
BRANCH   9  11
ATOM     11  O   UNL     1      -4.214   0.650   6.664  1.00  0.00    -0.478 OA
ATOM     12  H   UNL     1      -4.045  -0.250   6.351  1.00  0.00     0.297 HD
ENDBRANCH   9  11
ENDBRANCH   3   9
ENDBRANCH   1   2
BRANCH   1  13
ATOM     13  C   UNL     1      -1.878   6.460   9.339  1.00  0.00     0.230 C 
BRANCH  13  14
ATOM     14  C   UNL     1      -2.274   6.286  10.806  1.00  0.00     0.046 C 
BRANCH  14  15
ATOM     15  C   UNL     1      -3.749   5.886  10.892  1.00  0.00     0.043 C 
BRANCH  15  16
ATOM     16  C   UNL     1      -4.324   6.363  12.200  1.00  0.00    -0.004 A 
ATOM     17  C   UNL     1      -4.247   5.716  13.386  1.00  0.00     0.036 A 
ATOM     18  C   UNL     1      -5.026   7.555  12.405  1.00  0.00     0.063 A 
ATOM     19  N   UNL     1      -4.883   6.469  14.308  1.00  0.00    -0.282 N 
ATOM     20  N   UNL     1      -5.368   7.617  13.666  1.00  0.00    -0.181 NA
ATOM     21  C   UNL     1      -3.571   4.393  13.634  1.00  0.00     0.066 C 
ATOM     22  C   UNL     1      -5.344   8.586  11.352  1.00  0.00     0.069 C 
ATOM     23  H   UNL     1      -4.988   6.254  15.247  1.00  0.00     0.190 HD
ENDBRANCH  15  16
ENDBRANCH  14  15
ENDBRANCH  13  14
ENDBRANCH   1  13
TORSDOF 7
ENDMDL
MODEL 2
REMARK VINA RESULT:    -5.797      2.262      3.881
REMARK INTER + INTRA:          -8.591
REMARK INTER:                  -8.029
REMARK INTRA:                  -0.563
REMARK UNBOUND:                -0.592
REMARK SMILES Cc1n[nH]c(C)c1CCCOc1cc(C(=O)O)ccc1F
REMARK SMILES IDX 11 1 12 2 14 3 18 4 13 5 19 6 20 7 21 8 15 9 16 10 17 11
REMARK SMILES IDX 10 13 9 14 8 15 7 16 5 17 2 18 4 19 3 20 6 21 1 22
REMARK H PARENT 17 12 4 23
ROOT
ATOM      1  O   UNL     1      -5.342   3.686   8.282  1.00  0.00    -0.490 OA
ENDROOT
BRANCH   1   2
ATOM      2  C   UNL     1      -4.227   3.654   7.505  1.00  0.00     0.155 A 
ATOM      3  C   UNL     1      -2.521   4.795   6.253  1.00  0.00     0.063 A 
ATOM      4  C   UNL     1      -1.942   3.565   5.927  1.00  0.00     0.019 A 
ATOM      5  C   UNL     1      -3.669   4.832   7.046  1.00  0.00     0.065 A 
ATOM      6  C   UNL     1      -2.502   2.395   6.394  1.00  0.00     0.044 A 
ATOM      7  C   UNL     1      -3.639   2.435   7.185  1.00  0.00     0.165 A 
ATOM      8  F   UNL     1      -4.183   1.284   7.640  1.00  0.00    -0.203 F 
BRANCH   3   9
ATOM      9  C   UNL     1      -1.924   6.050   5.755  1.00  0.00     0.335 C 
ATOM     10  O   UNL     1      -2.595   7.059   5.690  1.00  0.00    -0.246 OA
BRANCH   9  11
ATOM     11  O   UNL     1      -0.630   6.076   5.377  1.00  0.00    -0.478 OA
ATOM     12  H   UNL     1      -0.202   6.943   5.336  1.00  0.00     0.297 HD
ENDBRANCH   9  11
ENDBRANCH   3   9
ENDBRANCH   1   2
BRANCH   1  13
ATOM     13  C   UNL     1      -5.189   3.308   9.652  1.00  0.00     0.230 C 
BRANCH  13  14
ATOM     14  C   UNL     1      -5.502   4.507  10.549  1.00  0.00     0.046 C 
BRANCH  14  15
ATOM     15  C   UNL     1      -4.194   5.134  11.037  1.00  0.00     0.043 C 
BRANCH  15  16
ATOM     16  C   UNL     1      -4.431   5.839  12.347  1.00  0.00    -0.004 A 
ATOM     17  C   UNL     1      -4.911   7.095  12.500  1.00  0.00     0.036 A 
ATOM     18  C   UNL     1      -4.201   5.308  13.621  1.00  0.00     0.063 A 
ATOM     19  N   UNL     1      -4.975   7.353  13.823  1.00  0.00    -0.282 N 
ATOM     20  N   UNL     1      -4.520   6.217  14.506  1.00  0.00    -0.181 NA
ATOM     21  C   UNL     1      -5.303   8.037  11.392  1.00  0.00     0.066 C 
ATOM     22  C   UNL     1      -3.666   3.931  13.921  1.00  0.00     0.069 C 
ATOM     23  H   UNL     1      -5.282   8.178  14.230  1.00  0.00     0.190 HD
ENDBRANCH  15  16
ENDBRANCH  14  15
ENDBRANCH  13  14
ENDBRANCH   1  13
TORSDOF 7
ENDMDL
MODEL 3
REMARK VINA RESULT:    -5.686      0.124      1.773
REMARK INTER + INTRA:          -8.438
REMARK INTER:                  -7.808
REMARK INTRA:                  -0.630
REMARK UNBOUND:                -0.592
REMARK SMILES Cc1n[nH]c(C)c1CCCOc1cc(C(=O)O)ccc1F
REMARK SMILES IDX 11 1 12 2 14 3 18 4 13 5 19 6 20 7 21 8 15 9 16 10 17 11
REMARK SMILES IDX 10 13 9 14 8 15 7 16 5 17 2 18 4 19 3 20 6 21 1 22
REMARK H PARENT 17 12 4 23
ROOT
ATOM      1  O   UNL     1      -1.119   5.329   8.885  1.00  0.00    -0.490 OA
ENDROOT
BRANCH   1   2
ATOM      2  C   UNL     1      -1.668   4.574   7.897  1.00  0.00     0.155 A 
ATOM      3  C   UNL     1      -2.746   2.551   7.169  1.00  0.00     0.063 A 
ATOM      4  C   UNL     1      -2.796   3.051   5.866  1.00  0.00     0.019 A 
ATOM      5  C   UNL     1      -2.178   3.322   8.186  1.00  0.00     0.065 A 
ATOM      6  C   UNL     1      -2.291   4.304   5.588  1.00  0.00     0.044 A 
ATOM      7  C   UNL     1      -1.732   5.068   6.598  1.00  0.00     0.165 A 
ATOM      8  F   UNL     1      -1.239   6.295   6.320  1.00  0.00    -0.203 F 
BRANCH   3   9
ATOM      9  C   UNL     1      -3.286   1.211   7.470  1.00  0.00     0.335 C 
ATOM     10  O   UNL     1      -2.892   0.601   8.443  1.00  0.00    -0.246 OA
BRANCH   9  11
ATOM     11  O   UNL     1      -4.222   0.666   6.668  1.00  0.00    -0.478 OA
ATOM     12  H   UNL     1      -4.815   1.277   6.208  1.00  0.00     0.297 HD
ENDBRANCH   9  11
ENDBRANCH   3   9
ENDBRANCH   1   2
BRANCH   1  13
ATOM     13  C   UNL     1      -1.879   6.449   9.344  1.00  0.00     0.230 C 
BRANCH  13  14
ATOM     14  C   UNL     1      -2.234   6.252  10.819  1.00  0.00     0.046 C 
BRANCH  14  15
ATOM     15  C   UNL     1      -3.707   5.856  10.941  1.00  0.00     0.043 C 
BRANCH  15  16
ATOM     16  C   UNL     1      -4.239   6.301  12.278  1.00  0.00    -0.004 A 
ATOM     17  C   UNL     1      -4.901   7.455  12.528  1.00  0.00     0.036 A 
ATOM     18  C   UNL     1      -4.143   5.592  13.480  1.00  0.00     0.063 A 
ATOM     19  N   UNL     1      -5.206   7.478  13.843  1.00  0.00    -0.282 N 
ATOM     20  N   UNL     1      -4.716   6.300  14.420  1.00  0.00    -0.181 NA
ATOM     21  C   UNL     1      -5.236   8.522  11.519  1.00  0.00     0.066 C 
ATOM     22  C   UNL     1      -3.482   4.250  13.664  1.00  0.00     0.069 C 
ATOM     23  H   UNL     1      -5.680   8.186  14.306  1.00  0.00     0.190 HD
ENDBRANCH  15  16
ENDBRANCH  14  15
ENDBRANCH  13  14
ENDBRANCH   1  13
TORSDOF 7
ENDMDL
MODEL 4
REMARK VINA RESULT:    -5.666      2.248      3.413
REMARK INTER + INTRA:          -8.411
REMARK INTER:                  -7.749
REMARK INTRA:                  -0.661
REMARK UNBOUND:                -0.592
REMARK SMILES Cc1n[nH]c(C)c1CCCOc1cc(C(=O)O)ccc1F
REMARK SMILES IDX 11 1 12 2 14 3 18 4 13 5 19 6 20 7 21 8 15 9 16 10 17 11
REMARK SMILES IDX 10 13 9 14 8 15 7 16 5 17 2 18 4 19 3 20 6 21 1 22
REMARK H PARENT 17 12 4 23
ROOT
ATOM      1  O   UNL     1      -5.240   3.637   8.451  1.00  0.00    -0.490 OA
ENDROOT
BRANCH   1   2
ATOM      2  C   UNL     1      -4.177   3.616   7.603  1.00  0.00     0.155 A 
ATOM      3  C   UNL     1      -2.540   4.778   6.279  1.00  0.00     0.063 A 
ATOM      4  C   UNL     1      -2.001   3.553   5.878  1.00  0.00     0.019 A 
ATOM      5  C   UNL     1      -3.634   4.803   7.147  1.00  0.00     0.065 A 
ATOM      6  C   UNL     1      -2.546   2.375   6.343  1.00  0.00     0.044 A 
ATOM      7  C   UNL     1      -3.628   2.402   7.207  1.00  0.00     0.165 A 
ATOM      8  F   UNL     1      -4.157   1.244   7.659  1.00  0.00    -0.203 F 
BRANCH   3   9
ATOM      9  C   UNL     1      -1.959   6.041   5.784  1.00  0.00     0.335 C 
ATOM     10  O   UNL     1      -2.631   7.052   5.761  1.00  0.00    -0.246 OA
BRANCH   9  11
ATOM     11  O   UNL     1      -0.679   6.074   5.362  1.00  0.00    -0.478 OA
ATOM     12  H   UNL     1      -0.094   6.719   5.784  1.00  0.00     0.297 HD
ENDBRANCH   9  11
ENDBRANCH   3   9
ENDBRANCH   1   2
BRANCH   1  13
ATOM     13  C   UNL     1      -4.956   3.521   9.848  1.00  0.00     0.230 C 
BRANCH  13  14
ATOM     14  C   UNL     1      -5.271   4.847  10.543  1.00  0.00     0.046 C 
BRANCH  14  15
ATOM     15  C   UNL     1      -4.007   5.380  11.220  1.00  0.00     0.043 C 
BRANCH  15  16
ATOM     16  C   UNL     1      -4.343   5.856  12.610  1.00  0.00    -0.004 A 
ATOM     17  C   UNL     1      -4.165   5.158  13.756  1.00  0.00     0.036 A 
ATOM     18  C   UNL     1      -4.889   7.100  12.945  1.00  0.00     0.063 A 
ATOM     19  N   UNL     1      -4.589   5.930  14.778  1.00  0.00    -0.282 N 
ATOM     20  N   UNL     1      -5.043   7.143  14.243  1.00  0.00    -0.181 NA
ATOM     21  C   UNL     1      -3.594   3.769  13.869  1.00  0.00     0.066 C 
ATOM     22  C   UNL     1      -5.249   8.197  11.975  1.00  0.00     0.069 C 
ATOM     23  H   UNL     1      -4.582   5.688  15.717  1.00  0.00     0.190 HD
ENDBRANCH  15  16
ENDBRANCH  14  15
ENDBRANCH  13  14
ENDBRANCH   1  13
TORSDOF 7
ENDMDL
MODEL 5
REMARK VINA RESULT:    -4.806      3.810      6.572
REMARK INTER + INTRA:          -7.223
REMARK INTER:                  -6.399
REMARK INTRA:                  -0.825
REMARK UNBOUND:                -0.592
REMARK SMILES Cc1n[nH]c(C)c1CCCOc1cc(C(=O)O)ccc1F
REMARK SMILES IDX 11 1 12 2 14 3 18 4 13 5 19 6 20 7 21 8 15 9 16 10 17 11
REMARK SMILES IDX 10 13 9 14 8 15 7 16 5 17 2 18 4 19 3 20 6 21 1 22
REMARK H PARENT 17 12 4 23
ROOT
ATOM      1  O   UNL     1      -3.779   6.062   9.475  1.00  0.00    -0.490 OA
ENDROOT
BRANCH   1   2
ATOM      2  C   UNL     1      -4.061   6.154  10.801  1.00  0.00     0.155 A 
ATOM      3  C   UNL     1      -3.918   5.268  13.032  1.00  0.00     0.063 A 
ATOM      4  C   UNL     1      -4.640   6.364  13.510  1.00  0.00     0.019 A 
ATOM      5  C   UNL     1      -3.630   5.168  11.669  1.00  0.00     0.065 A 
ATOM      6  C   UNL     1      -5.061   7.346  12.638  1.00  0.00     0.044 A 
ATOM      7  C   UNL     1      -4.770   7.247  11.287  1.00  0.00     0.165 A 
ATOM      8  F   UNL     1      -5.186   8.212  10.437  1.00  0.00    -0.203 F 
BRANCH   3   9
ATOM      9  C   UNL     1      -3.465   4.216  13.964  1.00  0.00     0.335 C 
ATOM     10  O   UNL     1      -4.163   3.244  14.167  1.00  0.00    -0.246 OA
BRANCH   9  11
ATOM     11  O   UNL     1      -2.274   4.332  14.583  1.00  0.00    -0.478 OA
ATOM     12  H   UNL     1      -2.237   4.076  15.515  1.00  0.00     0.297 HD
ENDBRANCH   9  11
ENDBRANCH   3   9
ENDBRANCH   1   2
BRANCH   1  13
ATOM     13  C   UNL     1      -2.483   5.573   9.119  1.00  0.00     0.230 C 
BRANCH  13  14
ATOM     14  C   UNL     1      -2.395   5.422   7.600  1.00  0.00     0.046 C 
BRANCH  14  15
ATOM     15  C   UNL     1      -3.731   4.905   7.060  1.00  0.00     0.043 C 
BRANCH  15  16
ATOM     16  C   UNL     1      -3.749   3.400   7.119  1.00  0.00    -0.004 A 
ATOM     17  C   UNL     1      -2.984   2.565   6.378  1.00  0.00     0.036 A 
ATOM     18  C   UNL     1      -4.555   2.618   7.954  1.00  0.00     0.063 A 
ATOM     19  N   UNL     1      -3.300   1.300   6.727  1.00  0.00    -0.282 N 
ATOM     20  N   UNL     1      -4.291   1.360   7.715  1.00  0.00    -0.181 NA
ATOM     21  C   UNL     1      -1.964   2.974   5.349  1.00  0.00     0.066 C 
ATOM     22  C   UNL     1      -5.562   3.137   8.949  1.00  0.00     0.069 C 
ATOM     23  H   UNL     1      -2.910   0.492   6.359  1.00  0.00     0.190 HD
ENDBRANCH  15  16
ENDBRANCH  14  15
ENDBRANCH  13  14
ENDBRANCH   1  13
TORSDOF 7
ENDMDL
MODEL 6
REMARK VINA RESULT:    -4.762      3.913      7.014
REMARK INTER + INTRA:          -7.163
REMARK INTER:                  -6.354
REMARK INTRA:                  -0.808
REMARK UNBOUND:                -0.592
REMARK SMILES Cc1n[nH]c(C)c1CCCOc1cc(C(=O)O)ccc1F
REMARK SMILES IDX 11 1 12 2 14 3 18 4 13 5 19 6 20 7 21 8 15 9 16 10 17 11
REMARK SMILES IDX 10 13 9 14 8 15 7 16 5 17 2 18 4 19 3 20 6 21 1 22
REMARK H PARENT 17 12 4 23
ROOT
ATOM      1  O   UNL     1      -3.461   4.094  10.456  1.00  0.00    -0.490 OA
ENDROOT
BRANCH   1   2
ATOM      2  C   UNL     1      -3.896   5.008  11.363  1.00  0.00     0.155 A 
ATOM      3  C   UNL     1      -4.932   7.118  11.869  1.00  0.00     0.063 A 
ATOM      4  C   UNL     1      -4.786   6.858  13.235  1.00  0.00     0.019 A 
ATOM      5  C   UNL     1      -4.483   6.184  10.934  1.00  0.00     0.065 A 
ATOM      6  C   UNL     1      -4.205   5.680  13.654  1.00  0.00     0.044 A 
ATOM      7  C   UNL     1      -3.764   4.753  12.724  1.00  0.00     0.165 A 
ATOM      8  F   UNL     1      -3.196   3.600  13.141  1.00  0.00    -0.203 F 
BRANCH   3   9
ATOM      9  C   UNL     1      -5.554   8.378  11.418  1.00  0.00     0.335 C 
ATOM     10  O   UNL     1      -4.861   9.343  11.170  1.00  0.00    -0.246 OA
BRANCH   9  11
ATOM     11  O   UNL     1      -6.892   8.455  11.274  1.00  0.00    -0.478 OA
ATOM     12  H   UNL     1      -7.266   9.330  11.097  1.00  0.00     0.297 HD
ENDBRANCH   9  11
ENDBRANCH   3   9
ENDBRANCH   1   2
BRANCH   1  13
ATOM     13  C   UNL     1      -4.250   3.927   9.275  1.00  0.00     0.230 C 
BRANCH  13  14
ATOM     14  C   UNL     1      -3.557   2.939   8.335  1.00  0.00     0.046 C 
BRANCH  14  15
ATOM     15  C   UNL     1      -2.064   3.267   8.261  1.00  0.00     0.043 C 
BRANCH  15  16
ATOM     16  C   UNL     1      -1.842   4.385   7.276  1.00  0.00    -0.004 A 
ATOM     17  C   UNL     1      -2.007   4.309   5.935  1.00  0.00     0.036 A 
ATOM     18  C   UNL     1      -1.435   5.687   7.587  1.00  0.00     0.063 A 
ATOM     19  N   UNL     1      -1.709   5.518   5.415  1.00  0.00    -0.282 N 
ATOM     20  N   UNL     1      -1.348   6.365   6.471  1.00  0.00    -0.181 NA
ATOM     21  C   UNL     1      -2.445   3.093   5.162  1.00  0.00     0.066 C 
ATOM     22  C   UNL     1      -1.136   6.214   8.967  1.00  0.00     0.069 C 
ATOM     23  H   UNL     1      -1.738   5.758   4.476  1.00  0.00     0.190 HD
ENDBRANCH  15  16
ENDBRANCH  14  15
ENDBRANCH  13  14
ENDBRANCH   1  13
TORSDOF 7
ENDMDL
MODEL 7
REMARK VINA RESULT:    -4.726      3.947      7.082
REMARK INTER + INTRA:          -7.114
REMARK INTER:                  -6.250
REMARK INTRA:                  -0.864
REMARK UNBOUND:                -0.592
REMARK SMILES Cc1n[nH]c(C)c1CCCOc1cc(C(=O)O)ccc1F
REMARK SMILES IDX 11 1 12 2 14 3 18 4 13 5 19 6 20 7 21 8 15 9 16 10 17 11
REMARK SMILES IDX 10 13 9 14 8 15 7 16 5 17 2 18 4 19 3 20 6 21 1 22
REMARK H PARENT 17 12 4 23
ROOT
ATOM      1  O   UNL     1      -3.507   4.202  10.490  1.00  0.00    -0.490 OA
ENDROOT
BRANCH   1   2
ATOM      2  C   UNL     1      -3.939   5.082  11.432  1.00  0.00     0.155 A 
ATOM      3  C   UNL     1      -4.984   7.166  12.020  1.00  0.00     0.063 A 
ATOM      4  C   UNL     1      -4.825   6.860  13.374  1.00  0.00     0.019 A 
ATOM      5  C   UNL     1      -4.537   6.268  11.049  1.00  0.00     0.065 A 
ATOM      6  C   UNL     1      -4.233   5.671  13.747  1.00  0.00     0.044 A 
ATOM      7  C   UNL     1      -3.795   4.780  12.782  1.00  0.00     0.165 A 
ATOM      8  F   UNL     1      -3.216   3.617  13.154  1.00  0.00    -0.203 F 
BRANCH   3   9
ATOM      9  C   UNL     1      -5.617   8.438  11.618  1.00  0.00     0.335 C 
ATOM     10  O   UNL     1      -6.049   9.195  12.462  1.00  0.00    -0.246 OA
BRANCH   9  11
ATOM     11  O   UNL     1      -5.710   8.760  10.313  1.00  0.00    -0.478 OA
ATOM     12  H   UNL     1      -4.901   9.064   9.877  1.00  0.00     0.297 HD
ENDBRANCH   9  11
ENDBRANCH   3   9
ENDBRANCH   1   2
BRANCH   1  13
ATOM     13  C   UNL     1      -4.357   3.995   9.359  1.00  0.00     0.230 C 
BRANCH  13  14
ATOM     14  C   UNL     1      -3.669   3.049   8.372  1.00  0.00     0.046 C 
BRANCH  14  15
ATOM     15  C   UNL     1      -2.167   3.341   8.348  1.00  0.00     0.043 C 
BRANCH  15  16
ATOM     16  C   UNL     1      -1.880   4.417   7.334  1.00  0.00    -0.004 A 
ATOM     17  C   UNL     1      -1.459   5.674   7.604  1.00  0.00     0.036 A 
ATOM     18  C   UNL     1      -1.995   4.291   5.945  1.00  0.00     0.063 A 
ATOM     19  N   UNL     1      -1.319   6.323   6.429  1.00  0.00    -0.282 N 
ATOM     20  N   UNL     1      -1.666   5.435   5.402  1.00  0.00    -0.181 NA
ATOM     21  C   UNL     1      -1.194   6.247   8.972  1.00  0.00     0.066 C 
ATOM     22  C   UNL     1      -2.434   3.054   5.203  1.00  0.00     0.069 C 
ATOM     23  H   UNL     1      -1.031   7.242   6.315  1.00  0.00     0.190 HD
ENDBRANCH  15  16
ENDBRANCH  14  15
ENDBRANCH  13  14
ENDBRANCH   1  13
TORSDOF 7
ENDMDL
MODEL 8
REMARK VINA RESULT:    -4.666      3.254      4.518
REMARK INTER + INTRA:          -7.031
REMARK INTER:                  -6.432
REMARK INTRA:                  -0.599
REMARK UNBOUND:                -0.592
REMARK SMILES Cc1n[nH]c(C)c1CCCOc1cc(C(=O)O)ccc1F
REMARK SMILES IDX 11 1 12 2 14 3 18 4 13 5 19 6 20 7 21 8 15 9 16 10 17 11
REMARK SMILES IDX 10 13 9 14 8 15 7 16 5 17 2 18 4 19 3 20 6 21 1 22
REMARK H PARENT 17 12 4 23
ROOT
ATOM      1  O   UNL     1      -4.429   6.720  11.887  1.00  0.00    -0.490 OA
ENDROOT
BRANCH   1   2
ATOM      2  C   UNL     1      -3.955   5.954  10.869  1.00  0.00     0.155 A 
ATOM      3  C   UNL     1      -4.252   4.169   9.286  1.00  0.00     0.063 A 
ATOM      4  C   UNL     1      -2.971   4.407   8.782  1.00  0.00     0.019 A 
ATOM      5  C   UNL     1      -4.741   4.950  10.335  1.00  0.00     0.065 A 
ATOM      6  C   UNL     1      -2.196   5.414   9.318  1.00  0.00     0.044 A 
ATOM      7  C   UNL     1      -2.684   6.191  10.355  1.00  0.00     0.165 A 
ATOM      8  F   UNL     1      -1.920   7.176  10.875  1.00  0.00    -0.203 F 
BRANCH   3   9
ATOM      9  C   UNL     1      -5.085   3.092   8.714  1.00  0.00     0.335 C 
ATOM     10  O   UNL     1      -4.599   2.296   7.937  1.00  0.00    -0.246 OA
BRANCH   9  11
ATOM     11  O   UNL     1      -6.383   2.989   9.061  1.00  0.00    -0.478 OA
ATOM     12  H   UNL     1      -7.014   2.812   8.350  1.00  0.00     0.297 HD
ENDBRANCH   9  11
ENDBRANCH   3   9
ENDBRANCH   1   2
BRANCH   1  13
ATOM     13  C   UNL     1      -5.472   7.645  11.571  1.00  0.00     0.230 C 
BRANCH  13  14
ATOM     14  C   UNL     1      -5.156   9.003  12.200  1.00  0.00     0.046 C 
BRANCH  14  15
ATOM     15  C   UNL     1      -5.835   9.103  13.568  1.00  0.00     0.043 C 
BRANCH  15  16
ATOM     16  C   UNL     1      -6.522  10.438  13.693  1.00  0.00    -0.004 A 
ATOM     17  C   UNL     1      -6.059  11.511  14.376  1.00  0.00     0.036 A 
ATOM     18  C   UNL     1      -7.748  10.790  13.118  1.00  0.00     0.063 A 
ATOM     19  N   UNL     1      -6.963  12.504  14.244  1.00  0.00    -0.282 N 
ATOM     20  N   UNL     1      -8.017  12.025  13.453  1.00  0.00    -0.181 NA
ATOM     21  C   UNL     1      -4.766  11.583  15.145  1.00  0.00     0.066 C 
ATOM     22  C   UNL     1      -8.616   9.895  12.270  1.00  0.00     0.069 C 
ATOM     23  H   UNL     1      -6.896  13.391  14.628  1.00  0.00     0.190 HD
ENDBRANCH  15  16
ENDBRANCH  14  15
ENDBRANCH  13  14
ENDBRANCH   1  13
TORSDOF 7
ENDMDL
MODEL 9
REMARK VINA RESULT:    -4.417      3.519      5.069
REMARK INTER + INTRA:          -6.688
REMARK INTER:                  -6.191
REMARK INTRA:                  -0.497
REMARK UNBOUND:                -0.592
REMARK SMILES Cc1n[nH]c(C)c1CCCOc1cc(C(=O)O)ccc1F
REMARK SMILES IDX 11 1 12 2 14 3 18 4 13 5 19 6 20 7 21 8 15 9 16 10 17 11
REMARK SMILES IDX 10 13 9 14 8 15 7 16 5 17 2 18 4 19 3 20 6 21 1 22
REMARK H PARENT 17 12 4 23
ROOT
ATOM      1  O   UNL     1      -4.800   4.852  12.020  1.00  0.00    -0.490 OA
ENDROOT
BRANCH   1   2
ATOM      2  C   UNL     1      -4.500   4.627  10.712  1.00  0.00     0.155 A 
ATOM      3  C   UNL     1      -3.043   4.925   8.823  1.00  0.00     0.063 A 
ATOM      4  C   UNL     1      -3.902   4.147   8.043  1.00  0.00     0.019 A 
ATOM      5  C   UNL     1      -3.350   5.163  10.165  1.00  0.00     0.065 A 
ATOM      6  C   UNL     1      -5.045   3.612   8.600  1.00  0.00     0.044 A 
ATOM      7  C   UNL     1      -5.344   3.845   9.932  1.00  0.00     0.165 A 
ATOM      8  F   UNL     1      -6.465   3.318  10.471  1.00  0.00    -0.203 F 
BRANCH   3   9
ATOM      9  C   UNL     1      -1.819   5.499   8.230  1.00  0.00     0.335 C 
ATOM     10  O   UNL     1      -0.774   5.469   8.846  1.00  0.00    -0.246 OA
BRANCH   9  11
ATOM     11  O   UNL     1      -1.861   6.051   7.001  1.00  0.00    -0.478 OA
ATOM     12  H   UNL     1      -1.209   5.741   6.358  1.00  0.00     0.297 HD
ENDBRANCH   9  11
ENDBRANCH   3   9
ENDBRANCH   1   2
BRANCH   1  13
ATOM     13  C   UNL     1      -3.716   4.802  12.951  1.00  0.00     0.230 C 
BRANCH  13  14
ATOM     14  C   UNL     1      -4.186   4.133  14.244  1.00  0.00     0.046 C 
BRANCH  14  15
ATOM     15  C   UNL     1      -4.314   5.187  15.346  1.00  0.00     0.043 C 
BRANCH  15  16
ATOM     16  C   UNL     1      -4.054   4.548  16.685  1.00  0.00    -0.004 A 
ATOM     17  C   UNL     1      -4.990   4.224  17.608  1.00  0.00     0.036 A 
ATOM     18  C   UNL     1      -2.804   4.178  17.193  1.00  0.00     0.063 A 
ATOM     19  N   UNL     1      -4.353   3.675  18.664  1.00  0.00    -0.282 N 
ATOM     20  N   UNL     1      -2.981   3.661  18.381  1.00  0.00    -0.181 NA
ATOM     21  C   UNL     1      -6.475   4.438  17.479  1.00  0.00     0.066 C 
ATOM     22  C   UNL     1      -1.480   4.356  16.495  1.00  0.00     0.069 C 
ATOM     23  H   UNL     1      -4.772   3.349  19.476  1.00  0.00     0.190 HD
ENDBRANCH  15  16
ENDBRANCH  14  15
ENDBRANCH  13  14
ENDBRANCH   1  13
TORSDOF 7
ENDMDL
