MODEL 1
REMARK VINA RESULT:    -4.389      0.000      0.000
REMARK INTER + INTRA:          -5.314
REMARK INTER:                  -5.031
REMARK INTRA:                  -0.283
REMARK UNBOUND:                -0.283
REMARK SMILES O=C(O)c1ccc2nc(-c3cc(Cl)cc(Cl)c3)oc2c1
REMARK SMILES IDX 5 1 6 2 20 3 8 4 18 5 4 6 9 7 7 8 19 9 2 10 1 11 3 12 10 14
REMARK SMILES IDX 11 15 17 16 12 17 15 18 14 19 13 20 16 21
REMARK H PARENT 3 13
ROOT
ATOM      1  C   UNL     1       0.032  16.095  -6.082  1.00  0.00     0.018 A 
ATOM      2  C   UNL     1       1.098  15.273  -6.296  1.00  0.00     0.033 A 
ATOM      3  C   UNL     1      -0.753  14.651  -4.299  1.00  0.00     0.065 A 
ATOM      4  N   UNL     1       2.190  13.141  -5.496  1.00  0.00    -0.209 NA
ATOM      5  O   UNL     1       0.742  12.660  -3.945  1.00  0.00    -0.436 OA
ATOM      6  C   UNL     1      -0.904  15.797  -5.082  1.00  0.00     0.063 A 
ATOM      7  C   UNL     1       1.876  12.278  -4.561  1.00  0.00     0.227 A 
ATOM      8  C   UNL     1       1.262  14.121  -5.518  1.00  0.00     0.110 A 
ATOM      9  C   UNL     1       0.325  13.812  -4.516  1.00  0.00     0.156 A 
ENDROOT
BRANCH   6  10
ATOM     10  C   UNL     1      -2.050  16.696  -4.855  1.00  0.00     0.335 C 
ATOM     11  O   UNL     1      -2.109  17.360  -3.840  1.00  0.00    -0.246 OA
BRANCH  10  12
ATOM     12  O   UNL     1      -3.033  16.781  -5.773  1.00  0.00    -0.478 OA
ATOM     13  H   UNL     1      -2.819  17.225  -6.605  1.00  0.00     0.297 HD
ENDBRANCH  10  12
ENDBRANCH   6  10
BRANCH   7  14
ATOM     14  C   UNL     1       2.653  11.065  -4.232  1.00  0.00     0.040 A 
ATOM     15  C   UNL     1       2.000   9.852  -4.016  1.00  0.00     0.034 A 
ATOM     16  C   UNL     1       4.045  11.130  -4.136  1.00  0.00     0.034 A 
ATOM     17  C   UNL     1       2.732   8.721  -3.710  1.00  0.00     0.043 A 
ATOM     18  C   UNL     1       4.766   9.993  -3.829  1.00  0.00     0.043 A 
ATOM     19  C   UNL     1       4.112   8.792  -3.616  1.00  0.00     0.041 A 
ATOM     20  Cl  UNL     1       1.921   7.210  -3.441  1.00  0.00    -0.084 Cl
ATOM     21  Cl  UNL     1       6.496  10.071  -3.709  1.00  0.00    -0.084 Cl
ENDBRANCH   7  14
TORSDOF 3
ENDMDL
MODEL 2
REMARK VINA RESULT:    -4.387      0.002      2.019
REMARK INTER + INTRA:          -5.311
REMARK INTER:                  -5.028
REMARK INTRA:                  -0.283
REMARK UNBOUND:                -0.283
REMARK SMILES O=C(O)c1ccc2nc(-c3cc(Cl)cc(Cl)c3)oc2c1
REMARK SMILES IDX 5 1 6 2 20 3 8 4 18 5 4 6 9 7 7 8 19 9 2 10 1 11 3 12 10 14
REMARK SMILES IDX 11 15 17 16 12 17 15 18 14 19 13 20 16 21
REMARK H PARENT 3 13
ROOT
ATOM      1  C   UNL     1       0.032  16.095  -6.082  1.00  0.00     0.018 A 
ATOM      2  C   UNL     1       1.098  15.273  -6.297  1.00  0.00     0.033 A 
ATOM      3  C   UNL     1      -0.752  14.652  -4.298  1.00  0.00     0.065 A 
ATOM      4  N   UNL     1       2.190  13.141  -5.496  1.00  0.00    -0.209 NA
ATOM      5  O   UNL     1       0.742  12.661  -3.945  1.00  0.00    -0.436 OA
ATOM      6  C   UNL     1      -0.904  15.797  -5.082  1.00  0.00     0.063 A 
ATOM      7  C   UNL     1       1.877  12.279  -4.561  1.00  0.00     0.227 A 
ATOM      8  C   UNL     1       1.262  14.121  -5.518  1.00  0.00     0.110 A 
ATOM      9  C   UNL     1       0.325  13.813  -4.516  1.00  0.00     0.156 A 
ENDROOT
BRANCH   6  10
ATOM     10  C   UNL     1      -2.049  16.697  -4.855  1.00  0.00     0.335 C 
ATOM     11  O   UNL     1      -2.106  17.363  -3.841  1.00  0.00    -0.246 OA
BRANCH  10  12
ATOM     12  O   UNL     1      -3.034  16.779  -5.772  1.00  0.00    -0.478 OA
ATOM     13  H   UNL     1      -3.349  17.664  -5.999  1.00  0.00     0.297 HD
ENDBRANCH  10  12
ENDBRANCH   6  10
BRANCH   7  14
ATOM     14  C   UNL     1       2.653  11.066  -4.232  1.00  0.00     0.040 A 
ATOM     15  C   UNL     1       4.044  11.128  -4.136  1.00  0.00     0.034 A 
ATOM     16  C   UNL     1       1.998   9.852  -4.016  1.00  0.00     0.034 A 
ATOM     17  C   UNL     1       4.764   9.991  -3.828  1.00  0.00     0.043 A 
ATOM     18  C   UNL     1       2.729   8.722  -3.708  1.00  0.00     0.043 A 
ATOM     19  C   UNL     1       4.109   8.790  -3.615  1.00  0.00     0.041 A 
ATOM     20  Cl  UNL     1       6.494  10.067  -3.707  1.00  0.00    -0.084 Cl
ATOM     21  Cl  UNL     1       1.916   7.211  -3.439  1.00  0.00    -0.084 Cl
ENDBRANCH   7  14
TORSDOF 3
ENDMDL
MODEL 3
REMARK VINA RESULT:    -3.975      5.245      8.825
REMARK INTER + INTRA:          -4.839
REMARK INTER:                  -4.541
REMARK INTRA:                  -0.298
REMARK UNBOUND:                -0.283
REMARK SMILES O=C(O)c1ccc2nc(-c3cc(Cl)cc(Cl)c3)oc2c1
REMARK SMILES IDX 5 1 6 2 20 3 8 4 18 5 4 6 9 7 7 8 19 9 2 10 1 11 3 12 10 14
REMARK SMILES IDX 11 15 17 16 12 17 15 18 14 19 13 20 16 21
REMARK H PARENT 3 13
ROOT
ATOM      1  C   UNL     1       1.026   4.403  -2.658  1.00  0.00     0.018 A 
ATOM      2  C   UNL     1       0.783   5.606  -3.250  1.00  0.00     0.033 A 
ATOM      3  C   UNL     1       3.252   5.135  -2.032  1.00  0.00     0.065 A 
ATOM      4  N   UNL     1       1.821   7.857  -3.740  1.00  0.00    -0.209 NA
ATOM      5  O   UNL     1       3.743   7.480  -2.793  1.00  0.00    -0.436 OA
ATOM      6  C   UNL     1       2.260   4.152  -2.041  1.00  0.00     0.063 A 
ATOM      7  C   UNL     1       2.993   8.373  -3.466  1.00  0.00     0.227 A 
ATOM      8  C   UNL     1       1.769   6.600  -3.248  1.00  0.00     0.110 A 
ATOM      9  C   UNL     1       3.010   6.355  -2.635  1.00  0.00     0.156 A 
ENDROOT
BRANCH   6  10
ATOM     10  C   UNL     1       2.509   2.849  -1.398  1.00  0.00     0.335 C 
ATOM     11  O   UNL     1       1.666   1.977  -1.447  1.00  0.00    -0.246 OA
BRANCH  10  12
ATOM     12  O   UNL     1       3.673   2.626  -0.755  1.00  0.00    -0.478 OA
ATOM     13  H   UNL     1       4.359   3.301  -0.843  1.00  0.00     0.297 HD
ENDBRANCH  10  12
ENDBRANCH   6  10
BRANCH   7  14
ATOM     14  C   UNL     1       3.428   9.734  -3.843  1.00  0.00     0.040 A 
ATOM     15  C   UNL     1       2.498  10.662  -4.312  1.00  0.00     0.034 A 
ATOM     16  C   UNL     1       4.772  10.095  -3.730  1.00  0.00     0.034 A 
ATOM     17  C   UNL     1       2.911  11.933  -4.661  1.00  0.00     0.043 A 
ATOM     18  C   UNL     1       5.173  11.369  -4.082  1.00  0.00     0.043 A 
ATOM     19  C   UNL     1       4.245  12.285  -4.547  1.00  0.00     0.041 A 
ATOM     20  Cl  UNL     1       1.756  13.090  -5.245  1.00  0.00    -0.084 Cl
ATOM     21  Cl  UNL     1       6.844  11.821  -3.943  1.00  0.00    -0.084 Cl
ENDBRANCH   7  14
TORSDOF 3
ENDMDL
MODEL 4
REMARK VINA RESULT:    -3.970      5.040      6.454
REMARK INTER + INTRA:          -4.833
REMARK INTER:                  -4.537
REMARK INTRA:                  -0.296
REMARK UNBOUND:                -0.283
REMARK SMILES O=C(O)c1ccc2nc(-c3cc(Cl)cc(Cl)c3)oc2c1
REMARK SMILES IDX 5 1 6 2 20 3 8 4 18 5 4 6 9 7 7 8 19 9 2 10 1 11 3 12 10 14
REMARK SMILES IDX 11 15 17 16 12 17 15 18 14 19 13 20 16 21
REMARK H PARENT 3 13
ROOT
ATOM      1  C   UNL     1       3.990  12.164  -4.530  1.00  0.00     0.018 A 
ATOM      2  C   UNL     1       2.975  11.258  -4.452  1.00  0.00     0.033 A 
ATOM      3  C   UNL     1       5.558  10.517  -3.688  1.00  0.00     0.065 A 
ATOM      4  N   UNL     1       2.449   8.874  -3.804  1.00  0.00    -0.209 NA
ATOM      5  O   UNL     1       4.463   8.306  -3.206  1.00  0.00    -0.436 OA
ATOM      6  C   UNL     1       5.292  11.806  -4.152  1.00  0.00     0.063 A 
ATOM      7  C   UNL     1       3.188   7.896  -3.340  1.00  0.00     0.227 A 
ATOM      8  C   UNL     1       3.228   9.961  -3.988  1.00  0.00     0.110 A 
ATOM      9  C   UNL     1       4.530   9.596  -3.603  1.00  0.00     0.156 A 
ENDROOT
BRANCH   6  10
ATOM     10  C   UNL     1       6.383  12.793  -4.247  1.00  0.00     0.335 C 
ATOM     11  O   UNL     1       7.464  12.552  -3.750  1.00  0.00    -0.246 OA
BRANCH  10  12
ATOM     12  O   UNL     1       6.180  13.964  -4.884  1.00  0.00    -0.478 OA
ATOM     13  H   UNL     1       6.946  14.543  -4.993  1.00  0.00     0.297 HD
ENDBRANCH  10  12
ENDBRANCH   6  10
BRANCH   7  14
ATOM     14  C   UNL     1       2.692   6.543  -3.013  1.00  0.00     0.040 A 
ATOM     15  C   UNL     1       1.589   6.018  -3.686  1.00  0.00     0.034 A 
ATOM     16  C   UNL     1       3.327   5.784  -2.027  1.00  0.00     0.034 A 
ATOM     17  C   UNL     1       1.132   4.752  -3.376  1.00  0.00     0.043 A 
ATOM     18  C   UNL     1       2.861   4.520  -1.726  1.00  0.00     0.043 A 
ATOM     19  C   UNL     1       1.765   4.005  -2.398  1.00  0.00     0.041 A 
ATOM     20  Cl  UNL     1      -0.241   4.097  -4.213  1.00  0.00    -0.084 Cl
ATOM     21  Cl  UNL     1       3.649   3.575  -0.501  1.00  0.00    -0.084 Cl
ENDBRANCH   7  14
TORSDOF 3
ENDMDL
MODEL 5
REMARK VINA RESULT:    -3.964      5.040      6.620
REMARK INTER + INTRA:          -4.827
REMARK INTER:                  -4.531
REMARK INTRA:                  -0.296
REMARK UNBOUND:                -0.283
REMARK SMILES O=C(O)c1ccc2nc(-c3cc(Cl)cc(Cl)c3)oc2c1
REMARK SMILES IDX 5 1 6 2 20 3 8 4 18 5 4 6 9 7 7 8 19 9 2 10 1 11 3 12 10 14
REMARK SMILES IDX 11 15 17 16 12 17 15 18 14 19 13 20 16 21
REMARK H PARENT 3 13
ROOT
ATOM      1  C   UNL     1       3.985  12.158  -4.531  1.00  0.00     0.018 A 
ATOM      2  C   UNL     1       2.971  11.251  -4.451  1.00  0.00     0.033 A 
ATOM      3  C   UNL     1       5.555  10.514  -3.688  1.00  0.00     0.065 A 
ATOM      4  N   UNL     1       2.449   8.866  -3.800  1.00  0.00    -0.209 NA
ATOM      5  O   UNL     1       4.463   8.302  -3.203  1.00  0.00    -0.436 OA
ATOM      6  C   UNL     1       5.287  11.802  -4.154  1.00  0.00     0.063 A 
ATOM      7  C   UNL     1       3.188   7.890  -3.336  1.00  0.00     0.227 A 
ATOM      8  C   UNL     1       3.226   9.955  -3.986  1.00  0.00     0.110 A 
ATOM      9  C   UNL     1       4.528   9.592  -3.601  1.00  0.00     0.156 A 
ENDROOT
BRANCH   6  10
ATOM     10  C   UNL     1       6.377  12.790  -4.250  1.00  0.00     0.335 C 
ATOM     11  O   UNL     1       7.459  12.552  -3.752  1.00  0.00    -0.246 OA
BRANCH  10  12
ATOM     12  O   UNL     1       6.173  13.959  -4.890  1.00  0.00    -0.478 OA
ATOM     13  H   UNL     1       6.782  14.179  -5.607  1.00  0.00     0.297 HD
ENDBRANCH  10  12
ENDBRANCH   6  10
BRANCH   7  14
ATOM     14  C   UNL     1       2.695   6.537  -3.006  1.00  0.00     0.040 A 
ATOM     15  C   UNL     1       3.332   5.778  -2.023  1.00  0.00     0.034 A 
ATOM     16  C   UNL     1       1.590   6.011  -3.679  1.00  0.00     0.034 A 
ATOM     17  C   UNL     1       2.865   4.515  -1.719  1.00  0.00     0.043 A 
ATOM     18  C   UNL     1       1.133   4.746  -3.366  1.00  0.00     0.043 A 
ATOM     19  C   UNL     1       1.769   3.999  -2.390  1.00  0.00     0.041 A 
ATOM     20  Cl  UNL     1       3.655   3.570  -0.496  1.00  0.00    -0.084 Cl
ATOM     21  Cl  UNL     1      -0.241   4.091  -4.201  1.00  0.00    -0.084 Cl
ENDBRANCH   7  14
TORSDOF 3
ENDMDL
MODEL 6
REMARK VINA RESULT:    -3.961      5.260      8.988
REMARK INTER + INTRA:          -4.823
REMARK INTER:                  -4.525
REMARK INTRA:                  -0.298
REMARK UNBOUND:                -0.283
REMARK SMILES O=C(O)c1ccc2nc(-c3cc(Cl)cc(Cl)c3)oc2c1
REMARK SMILES IDX 5 1 6 2 20 3 8 4 18 5 4 6 9 7 7 8 19 9 2 10 1 11 3 12 10 14
REMARK SMILES IDX 11 15 17 16 12 17 15 18 14 19 13 20 16 21
REMARK H PARENT 3 13
ROOT
ATOM      1  C   UNL     1       0.997   4.443  -2.512  1.00  0.00     0.018 A 
ATOM      2  C   UNL     1       0.739   5.661  -3.066  1.00  0.00     0.033 A 
ATOM      3  C   UNL     1       3.284   5.108  -2.057  1.00  0.00     0.065 A 
ATOM      4  N   UNL     1       1.793   7.893  -3.606  1.00  0.00    -0.209 NA
ATOM      5  O   UNL     1       3.774   7.452  -2.822  1.00  0.00    -0.436 OA
ATOM      6  C   UNL     1       2.269   4.152  -2.000  1.00  0.00     0.063 A 
ATOM      7  C   UNL     1       2.997   8.374  -3.421  1.00  0.00     0.227 A 
ATOM      8  C   UNL     1       1.748   6.630  -3.129  1.00  0.00     0.110 A 
ATOM      9  C   UNL     1       3.027   6.344  -2.622  1.00  0.00     0.156 A 
ENDROOT
BRANCH   6  10
ATOM     10  C   UNL     1       2.534   2.833  -1.398  1.00  0.00     0.335 C 
ATOM     11  O   UNL     1       1.700   1.952  -1.472  1.00  0.00    -0.246 OA
BRANCH  10  12
ATOM     12  O   UNL     1       3.702   2.603  -0.764  1.00  0.00    -0.478 OA
ATOM     13  H   UNL     1       4.454   2.341  -1.311  1.00  0.00     0.297 HD
ENDBRANCH  10  12
ENDBRANCH   6  10
BRANCH   7  14
ATOM     14  C   UNL     1       3.436   9.730  -3.812  1.00  0.00     0.040 A 
ATOM     15  C   UNL     1       4.779  10.091  -3.699  1.00  0.00     0.034 A 
ATOM     16  C   UNL     1       2.508  10.655  -4.294  1.00  0.00     0.034 A 
ATOM     17  C   UNL     1       5.184  11.359  -4.067  1.00  0.00     0.043 A 
ATOM     18  C   UNL     1       2.925  11.920  -4.659  1.00  0.00     0.043 A 
ATOM     19  C   UNL     1       4.258  12.272  -4.545  1.00  0.00     0.041 A 
ATOM     20  Cl  UNL     1       6.854  11.811  -3.929  1.00  0.00    -0.084 Cl
ATOM     21  Cl  UNL     1       1.772  13.071  -5.260  1.00  0.00    -0.084 Cl
ENDBRANCH   7  14
TORSDOF 3
ENDMDL
MODEL 7
REMARK VINA RESULT:    -3.934      3.496      5.251
REMARK INTER + INTRA:          -4.792
REMARK INTER:                  -4.496
REMARK INTRA:                  -0.296
REMARK UNBOUND:                -0.283
REMARK SMILES O=C(O)c1ccc2nc(-c3cc(Cl)cc(Cl)c3)oc2c1
REMARK SMILES IDX 5 1 6 2 20 3 8 4 18 5 4 6 9 7 7 8 19 9 2 10 1 11 3 12 10 14
REMARK SMILES IDX 11 15 17 16 12 17 15 18 14 19 13 20 16 21
REMARK H PARENT 3 13
ROOT
ATOM      1  C   UNL     1       4.113  12.105  -4.555  1.00  0.00     0.018 A 
ATOM      2  C   UNL     1       4.579  10.957  -3.987  1.00  0.00     0.033 A 
ATOM      3  C   UNL     1       1.865  11.197  -4.604  1.00  0.00     0.065 A 
ATOM      4  N   UNL     1       3.859   8.675  -3.175  1.00  0.00    -0.209 NA
ATOM      5  O   UNL     1       1.748   8.868  -3.663  1.00  0.00    -0.436 OA
ATOM      6  C   UNL     1       2.753  12.241  -4.869  1.00  0.00     0.063 A 
ATOM      7  C   UNL     1       2.699   8.068  -3.145  1.00  0.00     0.227 A 
ATOM      8  C   UNL     1       3.699   9.902  -3.717  1.00  0.00     0.110 A 
ATOM      9  C   UNL     1       2.334  10.028  -4.032  1.00  0.00     0.156 A 
ENDROOT
BRANCH   6  10
ATOM     10  C   UNL     1       2.260  13.489  -5.477  1.00  0.00     0.335 C 
ATOM     11  O   UNL     1       1.103  13.573  -5.838  1.00  0.00    -0.246 OA
BRANCH  10  12
ATOM     12  O   UNL     1       3.092  14.538  -5.634  1.00  0.00    -0.478 OA
ATOM     13  H   UNL     1       3.999  14.341  -5.905  1.00  0.00     0.297 HD
ENDBRANCH  10  12
ENDBRANCH   6  10
BRANCH   7  14
ATOM     14  C   UNL     1       2.469   6.706  -2.622  1.00  0.00     0.040 A 
ATOM     15  C   UNL     1       1.429   5.926  -3.128  1.00  0.00     0.034 A 
ATOM     16  C   UNL     1       3.292   6.194  -1.617  1.00  0.00     0.034 A 
ATOM     17  C   UNL     1       1.220   4.653  -2.636  1.00  0.00     0.043 A 
ATOM     18  C   UNL     1       3.074   4.920  -1.132  1.00  0.00     0.043 A 
ATOM     19  C   UNL     1       2.040   4.151  -1.639  1.00  0.00     0.041 A 
ATOM     20  Cl  UNL     1      -0.073   3.681  -3.265  1.00  0.00    -0.084 Cl
ATOM     21  Cl  UNL     1       4.096   4.281   0.117  1.00  0.00    -0.084 Cl
ENDBRANCH   7  14
TORSDOF 3
ENDMDL
MODEL 8
REMARK VINA RESULT:    -3.917      3.824      7.631
REMARK INTER + INTRA:          -4.772
REMARK INTER:                  -4.482
REMARK INTRA:                  -0.290
REMARK UNBOUND:                -0.283
REMARK SMILES O=C(O)c1ccc2nc(-c3cc(Cl)cc(Cl)c3)oc2c1
REMARK SMILES IDX 5 1 6 2 20 3 8 4 18 5 4 6 9 7 7 8 19 9 2 10 1 11 3 12 10 14
REMARK SMILES IDX 11 15 17 16 12 17 15 18 14 19 13 20 16 21
REMARK H PARENT 3 13
ROOT
ATOM      1  C   UNL     1       4.492   9.185  -3.447  1.00  0.00     0.018 A 
ATOM      2  C   UNL     1       4.590  10.493  -3.816  1.00  0.00     0.033 A 
ATOM      3  C   UNL     1       2.122   9.193  -3.959  1.00  0.00     0.065 A 
ATOM      4  N   UNL     1       3.244  12.447  -4.685  1.00  0.00    -0.209 NA
ATOM      5  O   UNL     1       1.325  11.428  -4.789  1.00  0.00    -0.436 OA
ATOM      6  C   UNL     1       3.261   8.518  -3.515  1.00  0.00     0.063 A 
ATOM      7  C   UNL     1       1.980  12.586  -4.995  1.00  0.00     0.227 A 
ATOM      8  C   UNL     1       3.455  11.182  -4.263  1.00  0.00     0.110 A 
ATOM      9  C   UNL     1       2.216  10.522  -4.330  1.00  0.00     0.156 A 
ENDROOT
BRANCH   6  10
ATOM     10  C   UNL     1       3.169   7.102  -3.120  1.00  0.00     0.335 C 
ATOM     11  O   UNL     1       2.090   6.542  -3.113  1.00  0.00    -0.246 OA
BRANCH  10  12
ATOM     12  O   UNL     1       4.280   6.427  -2.763  1.00  0.00    -0.478 OA
ATOM     13  H   UNL     1       4.155   5.594  -2.289  1.00  0.00     0.297 HD
ENDBRANCH  10  12
ENDBRANCH   6  10
BRANCH   7  14
ATOM     14  C   UNL     1       1.363  13.832  -5.498  1.00  0.00     0.040 A 
ATOM     15  C   UNL     1       1.843  14.431  -6.663  1.00  0.00     0.034 A 
ATOM     16  C   UNL     1       0.298  14.414  -4.807  1.00  0.00     0.034 A 
ATOM     17  C   UNL     1       1.262  15.595  -7.127  1.00  0.00     0.043 A 
ATOM     18  C   UNL     1      -0.275  15.577  -5.282  1.00  0.00     0.043 A 
ATOM     19  C   UNL     1       0.206  16.167  -6.438  1.00  0.00     0.041 A 
ATOM     20  Cl  UNL     1       1.856  16.342  -8.577  1.00  0.00    -0.084 Cl
ATOM     21  Cl  UNL     1      -1.600  16.302  -4.425  1.00  0.00    -0.084 Cl
ENDBRANCH   7  14
TORSDOF 3
ENDMDL
MODEL 9
REMARK VINA RESULT:    -3.911      3.821      7.471
REMARK INTER + INTRA:          -4.766
REMARK INTER:                  -4.475
REMARK INTRA:                  -0.291
REMARK UNBOUND:                -0.283
REMARK SMILES O=C(O)c1ccc2nc(-c3cc(Cl)cc(Cl)c3)oc2c1
REMARK SMILES IDX 5 1 6 2 20 3 8 4 18 5 4 6 9 7 7 8 19 9 2 10 1 11 3 12 10 14
REMARK SMILES IDX 11 15 17 16 12 17 15 18 14 19 13 20 16 21
REMARK H PARENT 3 13
ROOT
ATOM      1  C   UNL     1       4.497   9.196  -3.456  1.00  0.00     0.018 A 
ATOM      2  C   UNL     1       4.594  10.502  -3.831  1.00  0.00     0.033 A 
ATOM      3  C   UNL     1       2.121   9.207  -3.943  1.00  0.00     0.065 A 
ATOM      4  N   UNL     1       3.244  12.455  -4.695  1.00  0.00    -0.209 NA
ATOM      5  O   UNL     1       1.321  11.441  -4.774  1.00  0.00    -0.436 OA
ATOM      6  C   UNL     1       3.263   8.532  -3.509  1.00  0.00     0.063 A 
ATOM      7  C   UNL     1       1.977  12.597  -4.993  1.00  0.00     0.227 A 
ATOM      8  C   UNL     1       3.457  11.192  -4.270  1.00  0.00     0.110 A 
ATOM      9  C   UNL     1       2.215  10.534  -4.321  1.00  0.00     0.156 A 
ENDROOT
BRANCH   6  10
ATOM     10  C   UNL     1       3.172   7.117  -3.106  1.00  0.00     0.335 C 
ATOM     11  O   UNL     1       2.089   6.569  -3.056  1.00  0.00    -0.246 OA
BRANCH  10  12
ATOM     12  O   UNL     1       4.289   6.432  -2.791  1.00  0.00    -0.478 OA
ATOM     13  H   UNL     1       4.466   6.287  -1.852  1.00  0.00     0.297 HD
ENDBRANCH  10  12
ENDBRANCH   6  10
BRANCH   7  14
ATOM     14  C   UNL     1       1.358  13.842  -5.494  1.00  0.00     0.040 A 
ATOM     15  C   UNL     1       0.285  14.416  -4.811  1.00  0.00     0.034 A 
ATOM     16  C   UNL     1       1.844  14.447  -6.654  1.00  0.00     0.034 A 
ATOM     17  C   UNL     1      -0.288  15.580  -5.284  1.00  0.00     0.043 A 
ATOM     18  C   UNL     1       1.263  15.611  -7.117  1.00  0.00     0.043 A 
ATOM     19  C   UNL     1       0.199  16.176  -6.435  1.00  0.00     0.041 A 
ATOM     20  Cl  UNL     1      -1.622  16.296  -4.435  1.00  0.00    -0.084 Cl
ATOM     21  Cl  UNL     1       1.866  16.366  -8.559  1.00  0.00    -0.084 Cl
ENDBRANCH   7  14
TORSDOF 3
ENDMDL
