MODEL 1
REMARK VINA RESULT:    -5.513      0.000      0.000
REMARK INTER + INTRA:          -8.199
REMARK INTER:                  -7.608
REMARK INTRA:                  -0.590
REMARK UNBOUND:                -0.590
REMARK SMILES Cc1n[nH]c(C)c1CCCOc1cc(C(=O)O)ccc1F
REMARK SMILES IDX 11 1 12 2 14 3 18 4 13 5 19 6 20 7 21 8 15 9 16 10 17 11
REMARK SMILES IDX 10 13 9 14 8 15 7 16 5 17 2 18 4 19 3 20 6 21 1 22
REMARK H PARENT 17 12 4 23
ROOT
ATOM      1  O   UNL     1       2.157   7.536  -0.729  1.00  0.00    -0.490 OA
ENDROOT
BRANCH   1   2
ATOM      2  C   UNL     1       2.075   6.304  -1.298  1.00  0.00     0.155 A 
ATOM      3  C   UNL     1       1.151   4.827  -2.955  1.00  0.00     0.063 A 
ATOM      4  C   UNL     1       1.931   3.782  -2.452  1.00  0.00     0.019 A 
ATOM      5  C   UNL     1       1.228   6.092  -2.370  1.00  0.00     0.065 A 
ATOM      6  C   UNL     1       2.777   4.004  -1.386  1.00  0.00     0.044 A 
ATOM      7  C   UNL     1       2.856   5.261  -0.811  1.00  0.00     0.165 A 
ATOM      8  F   UNL     1       3.687   5.472   0.233  1.00  0.00    -0.203 F 
BRANCH   3   9
ATOM      9  C   UNL     1       0.244   4.592  -4.096  1.00  0.00     0.335 C 
ATOM     10  O   UNL     1      -0.672   5.359  -4.311  1.00  0.00    -0.246 OA
BRANCH   9  11
ATOM     11  O   UNL     1       0.438   3.530  -4.902  1.00  0.00    -0.478 OA
ATOM     12  H   UNL     1       0.385   2.654  -4.495  1.00  0.00     0.297 HD
ENDBRANCH   9  11
ENDBRANCH   3   9
ENDBRANCH   1   2
BRANCH   1  13
ATOM     13  C   UNL     1       3.367   8.268  -0.938  1.00  0.00     0.230 C 
BRANCH  13  14
ATOM     14  C   UNL     1       3.066   9.528  -1.752  1.00  0.00     0.046 C 
BRANCH  14  15
ATOM     15  C   UNL     1       3.442   9.291  -3.216  1.00  0.00     0.043 C 
BRANCH  15  16
ATOM     16  C   UNL     1       3.801  10.604  -3.862  1.00  0.00    -0.004 A 
ATOM     17  C   UNL     1       2.935  11.481  -4.421  1.00  0.00     0.036 A 
ATOM     18  C   UNL     1       5.090  11.136  -3.984  1.00  0.00     0.063 A 
ATOM     19  N   UNL     1       3.650  12.527  -4.886  1.00  0.00    -0.282 N 
ATOM     20  N   UNL     1       5.001  12.285  -4.604  1.00  0.00    -0.181 NA
ATOM     21  C   UNL     1       1.440  11.318  -4.508  1.00  0.00     0.066 C 
ATOM     22  C   UNL     1       6.362  10.491  -3.497  1.00  0.00     0.069 C 
ATOM     23  H   UNL     1       3.292  13.307  -5.337  1.00  0.00     0.190 HD
ENDBRANCH  15  16
ENDBRANCH  14  15
ENDBRANCH  13  14
ENDBRANCH   1  13
TORSDOF 7
ENDMDL
MODEL 2
REMARK VINA RESULT:    -5.462      2.131      3.760
REMARK INTER + INTRA:          -8.128
REMARK INTER:                  -7.486
REMARK INTRA:                  -0.641
REMARK UNBOUND:                -0.590
REMARK SMILES Cc1n[nH]c(C)c1CCCOc1cc(C(=O)O)ccc1F
REMARK SMILES IDX 11 1 12 2 14 3 18 4 13 5 19 6 20 7 21 8 15 9 16 10 17 11
REMARK SMILES IDX 10 13 9 14 8 15 7 16 5 17 2 18 4 19 3 20 6 21 1 22
REMARK H PARENT 17 12 4 23
ROOT
ATOM      1  O   UNL     1       1.800   6.941  -4.069  1.00  0.00    -0.490 OA
ENDROOT
BRANCH   1   2
ATOM      2  C   UNL     1       1.892   5.871  -3.234  1.00  0.00     0.155 A 
ATOM      3  C   UNL     1       2.883   4.787  -1.331  1.00  0.00     0.063 A 
ATOM      4  C   UNL     1       2.056   3.680  -1.536  1.00  0.00     0.019 A 
ATOM      5  C   UNL     1       2.796   5.886  -2.189  1.00  0.00     0.065 A 
ATOM      6  C   UNL     1       1.154   3.677  -2.578  1.00  0.00     0.044 A 
ATOM      7  C   UNL     1       1.065   4.769  -3.424  1.00  0.00     0.165 A 
ATOM      8  F   UNL     1       0.178   4.760  -4.444  1.00  0.00    -0.203 F 
BRANCH   3   9
ATOM      9  C   UNL     1       3.850   4.794  -0.216  1.00  0.00     0.335 C 
ATOM     10  O   UNL     1       5.027   5.000  -0.433  1.00  0.00    -0.246 OA
BRANCH   9  11
ATOM     11  O   UNL     1       3.426   4.577   1.045  1.00  0.00    -0.478 OA
ATOM     12  H   UNL     1       2.968   3.742   1.216  1.00  0.00     0.297 HD
ENDBRANCH   9  11
ENDBRANCH   3   9
ENDBRANCH   1   2
BRANCH   1  13
ATOM     13  C   UNL     1       2.752   7.017  -5.133  1.00  0.00     0.230 C 
BRANCH  13  14
ATOM     14  C   UNL     1       3.123   8.480  -5.381  1.00  0.00     0.046 C 
BRANCH  14  15
ATOM     15  C   UNL     1       3.053   9.254  -4.063  1.00  0.00     0.043 C 
BRANCH  15  16
ATOM     16  C   UNL     1       3.449  10.689  -4.300  1.00  0.00    -0.004 A 
ATOM     17  C   UNL     1       4.697  11.200  -4.184  1.00  0.00     0.036 A 
ATOM     18  C   UNL     1       2.594  11.726  -4.685  1.00  0.00     0.063 A 
ATOM     19  N   UNL     1       4.632  12.515  -4.479  1.00  0.00    -0.282 N 
ATOM     20  N   UNL     1       3.300  12.823  -4.786  1.00  0.00    -0.181 NA
ATOM     21  C   UNL     1       5.937  10.437  -3.795  1.00  0.00     0.066 C 
ATOM     22  C   UNL     1       1.111  11.604  -4.930  1.00  0.00     0.069 C 
ATOM     23  H   UNL     1       5.375  13.138  -4.477  1.00  0.00     0.190 HD
ENDBRANCH  15  16
ENDBRANCH  14  15
ENDBRANCH  13  14
ENDBRANCH   1  13
TORSDOF 7
ENDMDL
MODEL 3
REMARK VINA RESULT:    -5.109      0.825      1.957
REMARK INTER + INTRA:          -7.640
REMARK INTER:                  -6.972
REMARK INTRA:                  -0.668
REMARK UNBOUND:                -0.590
REMARK SMILES Cc1n[nH]c(C)c1CCCOc1cc(C(=O)O)ccc1F
REMARK SMILES IDX 11 1 12 2 14 3 18 4 13 5 19 6 20 7 21 8 15 9 16 10 17 11
REMARK SMILES IDX 10 13 9 14 8 15 7 16 5 17 2 18 4 19 3 20 6 21 1 22
REMARK H PARENT 17 12 4 23
ROOT
ATOM      1  O   UNL     1       3.638   7.257  -2.033  1.00  0.00    -0.490 OA
ENDROOT
BRANCH   1   2
ATOM      2  C   UNL     1       2.997   6.058  -2.068  1.00  0.00     0.155 A 
ATOM      3  C   UNL     1       1.322   4.614  -3.011  1.00  0.00     0.063 A 
ATOM      4  C   UNL     1       1.707   3.599  -2.131  1.00  0.00     0.019 A 
ATOM      5  C   UNL     1       1.974   5.848  -2.975  1.00  0.00     0.065 A 
ATOM      6  C   UNL     1       2.731   3.817  -1.234  1.00  0.00     0.044 A 
ATOM      7  C   UNL     1       3.381   5.040  -1.203  1.00  0.00     0.165 A 
ATOM      8  F   UNL     1       4.384   5.247  -0.322  1.00  0.00    -0.203 F 
BRANCH   3   9
ATOM      9  C   UNL     1       0.225   4.384  -3.972  1.00  0.00     0.335 C 
ATOM     10  O   UNL     1      -0.720   3.690  -3.661  1.00  0.00    -0.246 OA
BRANCH   9  11
ATOM     11  O   UNL     1       0.271   4.951  -5.194  1.00  0.00    -0.478 OA
ATOM     12  H   UNL     1      -0.449   5.553  -5.427  1.00  0.00     0.297 HD
ENDBRANCH   9  11
ENDBRANCH   3   9
ENDBRANCH   1   2
BRANCH   1  13
ATOM     13  C   UNL     1       3.066   8.274  -1.208  1.00  0.00     0.230 C 
BRANCH  13  14
ATOM     14  C   UNL     1       3.321   9.645  -1.838  1.00  0.00     0.046 C 
BRANCH  14  15
ATOM     15  C   UNL     1       3.665   9.469  -3.319  1.00  0.00     0.043 C 
BRANCH  15  16
ATOM     16  C   UNL     1       4.102  10.791  -3.894  1.00  0.00    -0.004 A 
ATOM     17  C   UNL     1       5.372  11.255  -3.949  1.00  0.00     0.036 A 
ATOM     18  C   UNL     1       3.267  11.753  -4.472  1.00  0.00     0.063 A 
ATOM     19  N   UNL     1       5.340  12.471  -4.535  1.00  0.00    -0.282 N 
ATOM     20  N   UNL     1       4.007  12.763  -4.850  1.00  0.00    -0.181 NA
ATOM     21  C   UNL     1       6.600  10.543  -3.446  1.00  0.00     0.066 C 
ATOM     22  C   UNL     1       1.770  11.649  -4.623  1.00  0.00     0.069 C 
ATOM     23  H   UNL     1       6.106  13.041  -4.706  1.00  0.00     0.190 HD
ENDBRANCH  15  16
ENDBRANCH  14  15
ENDBRANCH  13  14
ENDBRANCH   1  13
TORSDOF 7
ENDMDL
MODEL 4
REMARK VINA RESULT:    -4.605      3.131      4.370
REMARK INTER + INTRA:          -6.944
REMARK INTER:                  -6.401
REMARK INTRA:                  -0.543
REMARK UNBOUND:                -0.590
REMARK SMILES Cc1n[nH]c(C)c1CCCOc1cc(C(=O)O)ccc1F
REMARK SMILES IDX 11 1 12 2 14 3 18 4 13 5 19 6 20 7 21 8 15 9 16 10 17 11
REMARK SMILES IDX 10 13 9 14 8 15 7 16 5 17 2 18 4 19 3 20 6 21 1 22
REMARK H PARENT 17 12 4 23
ROOT
ATOM      1  O   UNL     1       4.168  10.316  -3.314  1.00  0.00    -0.490 OA
ENDROOT
BRANCH   1   2
ATOM      2  C   UNL     1       3.553   9.128  -3.071  1.00  0.00     0.155 A 
ATOM      3  C   UNL     1       2.660   7.039  -3.860  1.00  0.00     0.063 A 
ATOM      4  C   UNL     1       2.305   6.701  -2.552  1.00  0.00     0.019 A 
ATOM      5  C   UNL     1       3.288   8.261  -4.114  1.00  0.00     0.065 A 
ATOM      6  C   UNL     1       2.579   7.570  -1.517  1.00  0.00     0.044 A 
ATOM      7  C   UNL     1       3.205   8.779  -1.770  1.00  0.00     0.165 A 
ATOM      8  F   UNL     1       3.471   9.626  -0.752  1.00  0.00    -0.203 F 
BRANCH   3   9
ATOM      9  C   UNL     1       2.369   6.111  -4.970  1.00  0.00     0.335 C 
ATOM     10  O   UNL     1       1.667   5.139  -4.781  1.00  0.00    -0.246 OA
BRANCH   9  11
ATOM     11  O   UNL     1       2.877   6.347  -6.196  1.00  0.00    -0.478 OA
ATOM     12  H   UNL     1       2.943   5.592  -6.797  1.00  0.00     0.297 HD
ENDBRANCH   9  11
ENDBRANCH   3   9
ENDBRANCH   1   2
BRANCH   1  13
ATOM     13  C   UNL     1       5.403  10.272  -4.032  1.00  0.00     0.230 C 
BRANCH  13  14
ATOM     14  C   UNL     1       6.388  11.266  -3.413  1.00  0.00     0.046 C 
BRANCH  14  15
ATOM     15  C   UNL     1       6.474  12.514  -4.295  1.00  0.00     0.043 C 
BRANCH  15  16
ATOM     16  C   UNL     1       7.903  12.987  -4.359  1.00  0.00    -0.004 A 
ATOM     17  C   UNL     1       8.425  14.039  -3.687  1.00  0.00     0.036 A 
ATOM     18  C   UNL     1       8.927  12.412  -5.119  1.00  0.00     0.063 A 
ATOM     19  N   UNL     1       9.730  14.131  -4.015  1.00  0.00    -0.282 N 
ATOM     20  N   UNL     1      10.021  13.100  -4.919  1.00  0.00    -0.181 NA
ATOM     21  C   UNL     1       7.681  14.946  -2.741  1.00  0.00     0.066 C 
ATOM     22  C   UNL     1       8.790  11.212  -6.022  1.00  0.00     0.069 C 
ATOM     23  H   UNL     1      10.357  14.793  -3.684  1.00  0.00     0.190 HD
ENDBRANCH  15  16
ENDBRANCH  14  15
ENDBRANCH  13  14
ENDBRANCH   1  13
TORSDOF 7
ENDMDL
MODEL 5
REMARK VINA RESULT:    -4.591      3.793      6.533
REMARK INTER + INTRA:          -6.926
REMARK INTER:                  -6.101
REMARK INTRA:                  -0.825
REMARK UNBOUND:                -0.590
REMARK SMILES Cc1n[nH]c(C)c1CCCOc1cc(C(=O)O)ccc1F
REMARK SMILES IDX 11 1 12 2 14 3 18 4 13 5 19 6 20 7 21 8 15 9 16 10 17 11
REMARK SMILES IDX 10 13 9 14 8 15 7 16 5 17 2 18 4 19 3 20 6 21 1 22
REMARK H PARENT 17 12 4 23
ROOT
ATOM      1  O   UNL     1       4.001   8.088  -2.868  1.00  0.00    -0.490 OA
ENDROOT
BRANCH   1   2
ATOM      2  C   UNL     1       3.888   9.327  -3.418  1.00  0.00     0.155 A 
ATOM      3  C   UNL     1       2.529  11.100  -4.308  1.00  0.00     0.063 A 
ATOM      4  C   UNL     1       3.678  11.863  -4.532  1.00  0.00     0.019 A 
ATOM      5  C   UNL     1       2.642   9.826  -3.748  1.00  0.00     0.065 A 
ATOM      6  C   UNL     1       4.917  11.359  -4.194  1.00  0.00     0.044 A 
ATOM      7  C   UNL     1       5.025  10.097  -3.634  1.00  0.00     0.165 A 
ATOM      8  F   UNL     1       6.242   9.609  -3.306  1.00  0.00    -0.203 F 
BRANCH   3   9
ATOM      9  C   UNL     1       1.202  11.636  -4.668  1.00  0.00     0.335 C 
ATOM     10  O   UNL     1       0.721  11.389  -5.755  1.00  0.00    -0.246 OA
BRANCH   9  11
ATOM     11  O   UNL     1       0.521  12.395  -3.787  1.00  0.00    -0.478 OA
ATOM     12  H   UNL     1       0.789  12.339  -2.859  1.00  0.00     0.297 HD
ENDBRANCH   9  11
ENDBRANCH   3   9
ENDBRANCH   1   2
BRANCH   1  13
ATOM     13  C   UNL     1       3.051   7.738  -1.858  1.00  0.00     0.230 C 
BRANCH  13  14
ATOM     14  C   UNL     1       3.229   6.267  -1.480  1.00  0.00     0.046 C 
BRANCH  14  15
ATOM     15  C   UNL     1       3.612   5.463  -2.725  1.00  0.00     0.043 C 
BRANCH  15  16
ATOM     16  C   UNL     1       2.363   4.994  -3.425  1.00  0.00    -0.004 A 
ATOM     17  C   UNL     1       1.469   4.099  -2.944  1.00  0.00     0.036 A 
ATOM     18  C   UNL     1       1.918   5.412  -4.684  1.00  0.00     0.063 A 
ATOM     19  N   UNL     1       0.497   3.951  -3.868  1.00  0.00    -0.282 N 
ATOM     20  N   UNL     1       0.804   4.782  -4.954  1.00  0.00    -0.181 NA
ATOM     21  C   UNL     1       1.545   3.395  -1.614  1.00  0.00     0.066 C 
ATOM     22  C   UNL     1       2.611   6.406  -5.580  1.00  0.00     0.069 C 
ATOM     23  H   UNL     1      -0.276   3.370  -3.795  1.00  0.00     0.190 HD
ENDBRANCH  15  16
ENDBRANCH  14  15
ENDBRANCH  13  14
ENDBRANCH   1  13
TORSDOF 7
ENDMDL
MODEL 6
REMARK VINA RESULT:    -4.560      3.525      5.149
REMARK INTER + INTRA:          -6.882
REMARK INTER:                  -6.396
REMARK INTRA:                  -0.486
REMARK UNBOUND:                -0.590
REMARK SMILES Cc1n[nH]c(C)c1CCCOc1cc(C(=O)O)ccc1F
REMARK SMILES IDX 11 1 12 2 14 3 18 4 13 5 19 6 20 7 21 8 15 9 16 10 17 11
REMARK SMILES IDX 10 13 9 14 8 15 7 16 5 17 2 18 4 19 3 20 6 21 1 22
REMARK H PARENT 17 12 4 23
ROOT
ATOM      1  O   UNL     1       2.847   9.922  -4.784  1.00  0.00    -0.490 OA
ENDROOT
BRANCH   1   2
ATOM      2  C   UNL     1       2.856   8.702  -4.184  1.00  0.00     0.155 A 
ATOM      3  C   UNL     1       2.865   7.355  -2.193  1.00  0.00     0.063 A 
ATOM      4  C   UNL     1       2.862   6.199  -2.979  1.00  0.00     0.019 A 
ATOM      5  C   UNL     1       2.862   8.610  -2.805  1.00  0.00     0.065 A 
ATOM      6  C   UNL     1       2.850   6.302  -4.354  1.00  0.00     0.044 A 
ATOM      7  C   UNL     1       2.841   7.547  -4.959  1.00  0.00     0.165 A 
ATOM      8  F   UNL     1       2.829   7.641  -6.307  1.00  0.00    -0.203 F 
BRANCH   3   9
ATOM      9  C   UNL     1       2.878   7.249  -0.721  1.00  0.00     0.335 C 
ATOM     10  O   UNL     1       3.147   6.191  -0.190  1.00  0.00    -0.246 OA
BRANCH   9  11
ATOM     11  O   UNL     1       2.598   8.329   0.034  1.00  0.00    -0.478 OA
ATOM     12  H   UNL     1       2.063   9.024  -0.374  1.00  0.00     0.297 HD
ENDBRANCH   9  11
ENDBRANCH   3   9
ENDBRANCH   1   2
BRANCH   1  13
ATOM     13  C   UNL     1       2.036  10.935  -4.183  1.00  0.00     0.230 C 
BRANCH  13  14
ATOM     14  C   UNL     1       1.418  11.808  -5.276  1.00  0.00     0.046 C 
BRANCH  14  15
ATOM     15  C   UNL     1       2.069  13.192  -5.253  1.00  0.00     0.043 C 
BRANCH  15  16
ATOM     16  C   UNL     1       1.050  14.234  -5.639  1.00  0.00    -0.004 A 
ATOM     17  C   UNL     1       0.981  14.877  -6.827  1.00  0.00     0.036 A 
ATOM     18  C   UNL     1       0.005  14.701  -4.835  1.00  0.00     0.063 A 
ATOM     19  N   UNL     1      -0.067  15.727  -6.774  1.00  0.00    -0.282 N 
ATOM     20  N   UNL     1      -0.660  15.601  -5.511  1.00  0.00    -0.181 NA
ATOM     21  C   UNL     1       1.906  14.681  -7.999  1.00  0.00     0.066 C 
ATOM     22  C   UNL     1      -0.294  14.254  -3.426  1.00  0.00     0.069 C 
ATOM     23  H   UNL     1      -0.357  16.320  -7.484  1.00  0.00     0.190 HD
ENDBRANCH  15  16
ENDBRANCH  14  15
ENDBRANCH  13  14
ENDBRANCH   1  13
TORSDOF 7
ENDMDL
MODEL 7
REMARK VINA RESULT:    -4.465      3.486      4.790
REMARK INTER + INTRA:          -6.752
REMARK INTER:                  -6.199
REMARK INTRA:                  -0.552
REMARK UNBOUND:                -0.590
REMARK SMILES Cc1n[nH]c(C)c1CCCOc1cc(C(=O)O)ccc1F
REMARK SMILES IDX 11 1 12 2 14 3 18 4 13 5 19 6 20 7 21 8 15 9 16 10 17 11
REMARK SMILES IDX 10 13 9 14 8 15 7 16 5 17 2 18 4 19 3 20 6 21 1 22
REMARK H PARENT 17 12 4 23
ROOT
ATOM      1  O   UNL     1       2.910  10.722  -4.250  1.00  0.00    -0.490 OA
ENDROOT
BRANCH   1   2
ATOM      2  C   UNL     1       2.931   9.447  -3.776  1.00  0.00     0.155 A 
ATOM      3  C   UNL     1       2.732   7.079  -4.143  1.00  0.00     0.063 A 
ATOM      4  C   UNL     1       2.988   6.852  -2.788  1.00  0.00     0.019 A 
ATOM      5  C   UNL     1       2.705   8.387  -4.633  1.00  0.00     0.065 A 
ATOM      6  C   UNL     1       3.218   7.916  -1.942  1.00  0.00     0.044 A 
ATOM      7  C   UNL     1       3.195   9.211  -2.431  1.00  0.00     0.165 A 
ATOM      8  F   UNL     1       3.422  10.250  -1.597  1.00  0.00    -0.203 F 
BRANCH   3   9
ATOM      9  C   UNL     1       2.486   5.943  -5.052  1.00  0.00     0.335 C 
ATOM     10  O   UNL     1       1.761   5.033  -4.705  1.00  0.00    -0.246 OA
BRANCH   9  11
ATOM     11  O   UNL     1       3.061   5.918  -6.270  1.00  0.00    -0.478 OA
ATOM     12  H   UNL     1       2.821   5.186  -6.855  1.00  0.00     0.297 HD
ENDBRANCH   9  11
ENDBRANCH   3   9
ENDBRANCH   1   2
BRANCH   1  13
ATOM     13  C   UNL     1       1.657  11.409  -4.207  1.00  0.00     0.230 C 
BRANCH  13  14
ATOM     14  C   UNL     1       1.450  12.171  -5.517  1.00  0.00     0.046 C 
BRANCH  14  15
ATOM     15  C   UNL     1       2.023  13.584  -5.382  1.00  0.00     0.043 C 
BRANCH  15  16
ATOM     16  C   UNL     1       0.996  14.589  -5.834  1.00  0.00    -0.004 A 
ATOM     17  C   UNL     1      -0.029  15.069  -5.092  1.00  0.00     0.036 A 
ATOM     18  C   UNL     1       0.936  15.196  -7.093  1.00  0.00     0.063 A 
ATOM     19  N   UNL     1      -0.716  15.944  -5.857  1.00  0.00    -0.282 N 
ATOM     20  N   UNL     1      -0.093  16.003  -7.110  1.00  0.00    -0.181 NA
ATOM     21  C   UNL     1      -0.346  14.695  -3.668  1.00  0.00     0.066 C 
ATOM     22  C   UNL     1       1.887  14.952  -8.237  1.00  0.00     0.069 C 
ATOM     23  H   UNL     1      -1.503  16.443  -5.587  1.00  0.00     0.190 HD
ENDBRANCH  15  16
ENDBRANCH  14  15
ENDBRANCH  13  14
ENDBRANCH   1  13
TORSDOF 7
ENDMDL
MODEL 8
REMARK VINA RESULT:    -4.359      4.941      7.895
REMARK INTER + INTRA:          -6.605
REMARK INTER:                  -5.899
REMARK INTRA:                  -0.706
REMARK UNBOUND:                -0.590
REMARK SMILES Cc1n[nH]c(C)c1CCCOc1cc(C(=O)O)ccc1F
REMARK SMILES IDX 11 1 12 2 14 3 18 4 13 5 19 6 20 7 21 8 15 9 16 10 17 11
REMARK SMILES IDX 10 13 9 14 8 15 7 16 5 17 2 18 4 19 3 20 6 21 1 22
REMARK H PARENT 17 12 4 23
ROOT
ATOM      1  O   UNL     1       2.151  10.884  -4.734  1.00  0.00    -0.490 OA
ENDROOT
BRANCH   1   2
ATOM      2  C   UNL     1       1.681  12.147  -4.920  1.00  0.00     0.155 A 
ATOM      3  C   UNL     1       1.934  14.353  -5.843  1.00  0.00     0.063 A 
ATOM      4  C   UNL     1       0.700  14.718  -5.298  1.00  0.00     0.019 A 
ATOM      5  C   UNL     1       2.421  13.059  -5.649  1.00  0.00     0.065 A 
ATOM      6  C   UNL     1      -0.034  13.799  -4.577  1.00  0.00     0.044 A 
ATOM      7  C   UNL     1       0.450  12.515  -4.391  1.00  0.00     0.165 A 
ATOM      8  F   UNL     1      -0.274  11.619  -3.683  1.00  0.00    -0.203 F 
BRANCH   3   9
ATOM      9  C   UNL     1       2.721  15.333  -6.616  1.00  0.00     0.335 C 
ATOM     10  O   UNL     1       2.384  16.499  -6.641  1.00  0.00    -0.246 OA
BRANCH   9  11
ATOM     11  O   UNL     1       3.819  14.935  -7.288  1.00  0.00    -0.478 OA
ATOM     12  H   UNL     1       3.965  15.325  -8.161  1.00  0.00     0.297 HD
ENDBRANCH   9  11
ENDBRANCH   3   9
ENDBRANCH   1   2
BRANCH   1  13
ATOM     13  C   UNL     1       3.389  10.750  -4.031  1.00  0.00     0.230 C 
BRANCH  13  14
ATOM     14  C   UNL     1       3.672   9.268  -3.778  1.00  0.00     0.046 C 
BRANCH  14  15
ATOM     15  C   UNL     1       2.355   8.534  -3.518  1.00  0.00     0.043 C 
BRANCH  15  16
ATOM     16  C   UNL     1       2.644   7.129  -3.058  1.00  0.00    -0.004 A 
ATOM     17  C   UNL     1       2.811   6.048  -3.855  1.00  0.00     0.036 A 
ATOM     18  C   UNL     1       2.793   6.711  -1.731  1.00  0.00     0.063 A 
ATOM     19  N   UNL     1       3.051   4.984  -3.061  1.00  0.00    -0.282 N 
ATOM     20  N   UNL     1       3.031   5.425  -1.732  1.00  0.00    -0.181 NA
ATOM     21  C   UNL     1       2.742   6.036  -5.360  1.00  0.00     0.066 C 
ATOM     22  C   UNL     1       2.687   7.590  -0.511  1.00  0.00     0.069 C 
ATOM     23  H   UNL     1       3.209   4.074  -3.358  1.00  0.00     0.190 HD
ENDBRANCH  15  16
ENDBRANCH  14  15
ENDBRANCH  13  14
ENDBRANCH   1  13
TORSDOF 7
ENDMDL
MODEL 9
REMARK VINA RESULT:    -4.348      4.968      7.938
REMARK INTER + INTRA:          -6.591
REMARK INTER:                  -5.898
REMARK INTRA:                  -0.693
REMARK UNBOUND:                -0.590
REMARK SMILES Cc1n[nH]c(C)c1CCCOc1cc(C(=O)O)ccc1F
REMARK SMILES IDX 11 1 12 2 14 3 18 4 13 5 19 6 20 7 21 8 15 9 16 10 17 11
REMARK SMILES IDX 10 13 9 14 8 15 7 16 5 17 2 18 4 19 3 20 6 21 1 22
REMARK H PARENT 17 12 4 23
ROOT
ATOM      1  O   UNL     1       2.055  10.963  -4.682  1.00  0.00    -0.490 OA
ENDROOT
BRANCH   1   2
ATOM      2  C   UNL     1       1.619  12.232  -4.904  1.00  0.00     0.155 A 
ATOM      3  C   UNL     1       1.894  14.383  -5.943  1.00  0.00     0.063 A 
ATOM      4  C   UNL     1       0.704  14.816  -5.352  1.00  0.00     0.019 A 
ATOM      5  C   UNL     1       2.348  13.082  -5.714  1.00  0.00     0.065 A 
ATOM      6  C   UNL     1      -0.020  13.959  -4.551  1.00  0.00     0.044 A 
ATOM      7  C   UNL     1       0.430  12.668  -4.329  1.00  0.00     0.165 A 
ATOM      8  F   UNL     1      -0.284  11.833  -3.542  1.00  0.00    -0.203 F 
BRANCH   3   9
ATOM      9  C   UNL     1       2.671  15.298  -6.802  1.00  0.00     0.335 C 
ATOM     10  O   UNL     1       2.211  16.377  -7.113  1.00  0.00    -0.246 OA
BRANCH   9  11
ATOM     11  O   UNL     1       3.895  14.937  -7.235  1.00  0.00    -0.478 OA
ATOM     12  H   UNL     1       4.529  14.642  -6.566  1.00  0.00     0.297 HD
ENDBRANCH   9  11
ENDBRANCH   3   9
ENDBRANCH   1   2
BRANCH   1  13
ATOM     13  C   UNL     1       3.344  10.817  -4.081  1.00  0.00     0.230 C 
BRANCH  13  14
ATOM     14  C   UNL     1       3.639   9.332  -3.863  1.00  0.00     0.046 C 
BRANCH  14  15
ATOM     15  C   UNL     1       2.341   8.601  -3.511  1.00  0.00     0.043 C 
BRANCH  15  16
ATOM     16  C   UNL     1       2.662   7.210  -3.029  1.00  0.00    -0.004 A 
ATOM     17  C   UNL     1       2.831   6.833  -1.740  1.00  0.00     0.036 A 
ATOM     18  C   UNL     1       2.832   6.078  -3.834  1.00  0.00     0.063 A 
ATOM     19  N   UNL     1       3.104   5.511  -1.730  1.00  0.00    -0.282 N 
ATOM     20  N   UNL     1       3.104   5.061  -3.057  1.00  0.00    -0.181 NA
ATOM     21  C   UNL     1       2.730   7.728  -0.533  1.00  0.00     0.066 C 
ATOM     22  C   UNL     1       2.732   6.040  -5.338  1.00  0.00     0.069 C 
ATOM     23  H   UNL     1       3.272   4.969  -0.944  1.00  0.00     0.190 HD
ENDBRANCH  15  16
ENDBRANCH  14  15
ENDBRANCH  13  14
ENDBRANCH   1  13
TORSDOF 7
ENDMDL
