MODEL 1
REMARK VINA RESULT:    -4.553      0.000      0.000
REMARK INTER + INTRA:          -5.505
REMARK INTER:                  -5.219
REMARK INTRA:                  -0.286
REMARK UNBOUND:                -0.286
REMARK SMILES O=C(O)c1ccc2nc(-c3cc(Cl)cc(Cl)c3)oc2c1
REMARK SMILES IDX 5 1 6 2 20 3 8 4 18 5 4 6 9 7 7 8 19 9 2 10 1 11 3 12 10 14
REMARK SMILES IDX 11 15 17 16 12 17 15 18 14 19 13 20 16 21
REMARK H PARENT 3 13
ROOT
ATOM      1  C   UNL     1      -4.796   4.230   5.121  1.00  0.00     0.018 A 
ATOM      2  C   UNL     1      -5.571   5.348   5.210  1.00  0.00     0.033 A 
ATOM      3  C   UNL     1      -6.760   2.823   5.342  1.00  0.00     0.065 A 
ATOM      4  N   UNL     1      -7.958   6.128   5.483  1.00  0.00    -0.209 NA
ATOM      5  O   UNL     1      -8.876   4.158   5.590  1.00  0.00    -0.436 OA
ATOM      6  C   UNL     1      -5.379   2.956   5.184  1.00  0.00     0.063 A 
ATOM      7  C   UNL     1      -9.093   5.487   5.614  1.00  0.00     0.227 A 
ATOM      8  C   UNL     1      -6.957   5.229   5.369  1.00  0.00     0.110 A 
ATOM      9  C   UNL     1      -7.548   3.955   5.437  1.00  0.00     0.156 A 
ENDROOT
BRANCH   6  10
ATOM     10  C   UNL     1      -4.532   1.754   5.081  1.00  0.00     0.335 C 
ATOM     11  O   UNL     1      -3.325   1.851   5.184  1.00  0.00    -0.246 OA
BRANCH  10  12
ATOM     12  O   UNL     1      -5.096   0.548   4.872  1.00  0.00    -0.478 OA
ATOM     13  H   UNL     1      -5.988   0.414   5.217  1.00  0.00     0.297 HD
ENDBRANCH  10  12
ENDBRANCH   6  10
BRANCH   7  14
ATOM     14  C   UNL     1     -10.415   6.128   5.765  1.00  0.00     0.040 A 
ATOM     15  C   UNL     1     -10.929   6.383   7.037  1.00  0.00     0.034 A 
ATOM     16  C   UNL     1     -11.156   6.481   4.635  1.00  0.00     0.034 A 
ATOM     17  C   UNL     1     -12.165   6.983   7.172  1.00  0.00     0.043 A 
ATOM     18  C   UNL     1     -12.391   7.080   4.783  1.00  0.00     0.043 A 
ATOM     19  C   UNL     1     -12.895   7.330   6.048  1.00  0.00     0.041 A 
ATOM     20  Cl  UNL     1     -12.807   7.302   8.753  1.00  0.00    -0.084 Cl
ATOM     21  Cl  UNL     1     -13.314   7.520   3.379  1.00  0.00    -0.084 Cl
ENDBRANCH   7  14
TORSDOF 3
ENDMDL
MODEL 2
REMARK VINA RESULT:    -4.545      0.057      2.020
REMARK INTER + INTRA:          -5.496
REMARK INTER:                  -5.209
REMARK INTRA:                  -0.286
REMARK UNBOUND:                -0.286
REMARK SMILES O=C(O)c1ccc2nc(-c3cc(Cl)cc(Cl)c3)oc2c1
REMARK SMILES IDX 5 1 6 2 20 3 8 4 18 5 4 6 9 7 7 8 19 9 2 10 1 11 3 12 10 14
REMARK SMILES IDX 11 15 17 16 12 17 15 18 14 19 13 20 16 21
REMARK H PARENT 3 13
ROOT
ATOM      1  C   UNL     1      -4.839   4.187   5.156  1.00  0.00     0.018 A 
ATOM      2  C   UNL     1      -5.605   5.311   5.242  1.00  0.00     0.033 A 
ATOM      3  C   UNL     1      -6.815   2.795   5.353  1.00  0.00     0.065 A 
ATOM      4  N   UNL     1      -7.989   6.108   5.496  1.00  0.00    -0.209 NA
ATOM      5  O   UNL     1      -8.923   4.145   5.587  1.00  0.00    -0.436 OA
ATOM      6  C   UNL     1      -5.432   2.918   5.208  1.00  0.00     0.063 A 
ATOM      7  C   UNL     1      -9.130   5.475   5.613  1.00  0.00     0.227 A 
ATOM      8  C   UNL     1      -6.994   5.202   5.387  1.00  0.00     0.110 A 
ATOM      9  C   UNL     1      -7.595   3.932   5.445  1.00  0.00     0.156 A 
ENDROOT
BRANCH   6  10
ATOM     10  C   UNL     1      -4.593   1.710   5.108  1.00  0.00     0.335 C 
ATOM     11  O   UNL     1      -3.387   1.795   5.233  1.00  0.00    -0.246 OA
BRANCH  10  12
ATOM     12  O   UNL     1      -5.162   0.510   4.877  1.00  0.00    -0.478 OA
ATOM     13  H   UNL     1      -6.119   0.498   4.737  1.00  0.00     0.297 HD
ENDBRANCH  10  12
ENDBRANCH   6  10
BRANCH   7  14
ATOM     14  C   UNL     1     -10.449   6.126   5.755  1.00  0.00     0.040 A 
ATOM     15  C   UNL     1     -11.189   6.464   4.622  1.00  0.00     0.034 A 
ATOM     16  C   UNL     1     -10.959   6.405   7.025  1.00  0.00     0.034 A 
ATOM     17  C   UNL     1     -12.421   7.071   4.761  1.00  0.00     0.043 A 
ATOM     18  C   UNL     1     -12.192   7.012   7.151  1.00  0.00     0.043 A 
ATOM     19  C   UNL     1     -12.922   7.346   6.023  1.00  0.00     0.041 A 
ATOM     20  Cl  UNL     1     -13.344   7.493   3.353  1.00  0.00    -0.084 Cl
ATOM     21  Cl  UNL     1     -12.829   7.360   8.729  1.00  0.00    -0.084 Cl
ENDBRANCH   7  14
TORSDOF 3
ENDMDL
MODEL 3
REMARK VINA RESULT:    -4.462      3.961      7.679
REMARK INTER + INTRA:          -5.400
REMARK INTER:                  -5.106
REMARK INTRA:                  -0.295
REMARK UNBOUND:                -0.286
REMARK SMILES O=C(O)c1ccc2nc(-c3cc(Cl)cc(Cl)c3)oc2c1
REMARK SMILES IDX 5 1 6 2 20 3 8 4 18 5 4 6 9 7 7 8 19 9 2 10 1 11 3 12 10 14
REMARK SMILES IDX 11 15 17 16 12 17 15 18 14 19 13 20 16 21
REMARK H PARENT 3 13
ROOT
ATOM      1  C   UNL     1     -11.590   6.662   7.796  1.00  0.00     0.018 A 
ATOM      2  C   UNL     1     -10.434   5.950   7.908  1.00  0.00     0.033 A 
ATOM      3  C   UNL     1     -11.260   6.868   5.403  1.00  0.00     0.065 A 
ATOM      4  N   UNL     1      -8.502   5.022   6.570  1.00  0.00    -0.209 NA
ATOM      5  O   UNL     1      -9.150   5.746   4.623  1.00  0.00    -0.436 OA
ATOM      6  C   UNL     1     -12.019   7.127   6.545  1.00  0.00     0.063 A 
ATOM      7  C   UNL     1      -8.204   5.063   5.295  1.00  0.00     0.227 A 
ATOM      8  C   UNL     1      -9.663   5.683   6.770  1.00  0.00     0.110 A 
ATOM      9  C   UNL     1     -10.083   6.151   5.513  1.00  0.00     0.156 A 
ENDROOT
BRANCH   6  10
ATOM     10  C   UNL     1     -13.275   7.891   6.436  1.00  0.00     0.335 C 
ATOM     11  O   UNL     1     -13.492   8.564   5.448  1.00  0.00    -0.246 OA
BRANCH  10  12
ATOM     12  O   UNL     1     -14.183   7.843   7.431  1.00  0.00    -0.478 OA
ATOM     13  H   UNL     1     -15.075   7.554   7.198  1.00  0.00     0.297 HD
ENDBRANCH  10  12
ENDBRANCH   6  10
BRANCH   7  14
ATOM     14  C   UNL     1      -7.005   4.450   4.685  1.00  0.00     0.040 A 
ATOM     15  C   UNL     1      -6.464   4.983   3.515  1.00  0.00     0.034 A 
ATOM     16  C   UNL     1      -6.411   3.334   5.278  1.00  0.00     0.034 A 
ATOM     17  C   UNL     1      -5.343   4.406   2.951  1.00  0.00     0.043 A 
ATOM     18  C   UNL     1      -5.291   2.766   4.705  1.00  0.00     0.043 A 
ATOM     19  C   UNL     1      -4.758   3.300   3.544  1.00  0.00     0.041 A 
ATOM     20  Cl  UNL     1      -4.667   5.068   1.496  1.00  0.00    -0.084 Cl
ATOM     21  Cl  UNL     1      -4.550   1.378   5.440  1.00  0.00    -0.084 Cl
ENDBRANCH   7  14
TORSDOF 3
ENDMDL
MODEL 4
REMARK VINA RESULT:    -4.455      3.961      7.476
REMARK INTER + INTRA:          -5.392
REMARK INTER:                  -5.097
REMARK INTRA:                  -0.295
REMARK UNBOUND:                -0.286
REMARK SMILES O=C(O)c1ccc2nc(-c3cc(Cl)cc(Cl)c3)oc2c1
REMARK SMILES IDX 5 1 6 2 20 3 8 4 18 5 4 6 9 7 7 8 19 9 2 10 1 11 3 12 10 14
REMARK SMILES IDX 11 15 17 16 12 17 15 18 14 19 13 20 16 21
REMARK H PARENT 3 13
ROOT
ATOM      1  C   UNL     1     -11.589   6.664   7.793  1.00  0.00     0.018 A 
ATOM      2  C   UNL     1     -10.432   5.953   7.906  1.00  0.00     0.033 A 
ATOM      3  C   UNL     1     -11.259   6.866   5.399  1.00  0.00     0.065 A 
ATOM      4  N   UNL     1      -8.500   5.024   6.569  1.00  0.00    -0.209 NA
ATOM      5  O   UNL     1      -9.149   5.742   4.621  1.00  0.00    -0.436 OA
ATOM      6  C   UNL     1     -12.018   7.127   6.541  1.00  0.00     0.063 A 
ATOM      7  C   UNL     1      -8.202   5.062   5.294  1.00  0.00     0.227 A 
ATOM      8  C   UNL     1      -9.661   5.684   6.768  1.00  0.00     0.110 A 
ATOM      9  C   UNL     1     -10.082   6.149   5.510  1.00  0.00     0.156 A 
ENDROOT
BRANCH   6  10
ATOM     10  C   UNL     1     -13.275   7.889   6.430  1.00  0.00     0.335 C 
ATOM     11  O   UNL     1     -13.491   8.563   5.443  1.00  0.00    -0.246 OA
BRANCH  10  12
ATOM     12  O   UNL     1     -14.183   7.841   7.425  1.00  0.00    -0.478 OA
ATOM     13  H   UNL     1     -14.538   6.972   7.653  1.00  0.00     0.297 HD
ENDBRANCH  10  12
ENDBRANCH   6  10
BRANCH   7  14
ATOM     14  C   UNL     1      -7.004   4.448   4.685  1.00  0.00     0.040 A 
ATOM     15  C   UNL     1      -6.410   3.332   5.277  1.00  0.00     0.034 A 
ATOM     16  C   UNL     1      -6.460   4.983   3.515  1.00  0.00     0.034 A 
ATOM     17  C   UNL     1      -5.291   2.763   4.702  1.00  0.00     0.043 A 
ATOM     18  C   UNL     1      -5.341   4.405   2.951  1.00  0.00     0.043 A 
ATOM     19  C   UNL     1      -4.757   3.299   3.542  1.00  0.00     0.041 A 
ATOM     20  Cl  UNL     1      -4.551   1.375   5.436  1.00  0.00    -0.084 Cl
ATOM     21  Cl  UNL     1      -4.664   5.069   1.496  1.00  0.00    -0.084 Cl
ENDBRANCH   7  14
TORSDOF 3
ENDMDL
MODEL 5
REMARK VINA RESULT:    -4.430      4.015      7.367
REMARK INTER + INTRA:          -5.364
REMARK INTER:                  -5.068
REMARK INTRA:                  -0.296
REMARK UNBOUND:                -0.286
REMARK SMILES O=C(O)c1ccc2nc(-c3cc(Cl)cc(Cl)c3)oc2c1
REMARK SMILES IDX 5 1 6 2 20 3 8 4 18 5 4 6 9 7 7 8 19 9 2 10 1 11 3 12 10 14
REMARK SMILES IDX 11 15 17 16 12 17 15 18 14 19 13 20 16 21
REMARK H PARENT 3 13
ROOT
ATOM      1  C   UNL     1     -11.663   6.658   7.661  1.00  0.00     0.018 A 
ATOM      2  C   UNL     1     -11.045   6.600   6.448  1.00  0.00     0.033 A 
ATOM      3  C   UNL     1      -9.778   5.542   8.701  1.00  0.00     0.065 A 
ATOM      4  N   UNL     1      -8.940   5.811   5.295  1.00  0.00    -0.209 NA
ATOM      5  O   UNL     1      -7.962   4.985   7.053  1.00  0.00    -0.436 OA
ATOM      6  C   UNL     1     -11.038   6.132   8.801  1.00  0.00     0.063 A 
ATOM      7  C   UNL     1      -7.864   5.203   5.728  1.00  0.00     0.227 A 
ATOM      8  C   UNL     1      -9.780   6.011   6.333  1.00  0.00     0.110 A 
ATOM      9  C   UNL     1      -9.149   5.477   7.471  1.00  0.00     0.156 A 
ENDROOT
BRANCH   6  10
ATOM     10  C   UNL     1     -11.714   6.206  10.109  1.00  0.00     0.335 C 
ATOM     11  O   UNL     1     -11.247   5.622  11.067  1.00  0.00    -0.246 OA
BRANCH  10  12
ATOM     12  O   UNL     1     -12.850   6.918  10.243  1.00  0.00    -0.478 OA
ATOM     13  H   UNL     1     -13.004   7.344  11.096  1.00  0.00     0.297 HD
ENDBRANCH  10  12
ENDBRANCH   6  10
BRANCH   7  14
ATOM     14  C   UNL     1      -6.714   4.814   4.887  1.00  0.00     0.040 A 
ATOM     15  C   UNL     1      -6.408   5.542   3.737  1.00  0.00     0.034 A 
ATOM     16  C   UNL     1      -5.929   3.713   5.239  1.00  0.00     0.034 A 
ATOM     17  C   UNL     1      -5.331   5.174   2.956  1.00  0.00     0.043 A 
ATOM     18  C   UNL     1      -4.855   3.355   4.449  1.00  0.00     0.043 A 
ATOM     19  C   UNL     1      -4.556   4.082   3.310  1.00  0.00     0.041 A 
ATOM     20  Cl  UNL     1      -4.947   6.080   1.525  1.00  0.00    -0.084 Cl
ATOM     21  Cl  UNL     1      -3.878   1.987   4.885  1.00  0.00    -0.084 Cl
ENDBRANCH   7  14
TORSDOF 3
ENDMDL
MODEL 6
REMARK VINA RESULT:    -4.429      4.015      7.179
REMARK INTER + INTRA:          -5.362
REMARK INTER:                  -5.066
REMARK INTRA:                  -0.296
REMARK UNBOUND:                -0.286
REMARK SMILES O=C(O)c1ccc2nc(-c3cc(Cl)cc(Cl)c3)oc2c1
REMARK SMILES IDX 5 1 6 2 20 3 8 4 18 5 4 6 9 7 7 8 19 9 2 10 1 11 3 12 10 14
REMARK SMILES IDX 11 15 17 16 12 17 15 18 14 19 13 20 16 21
REMARK H PARENT 3 13
ROOT
ATOM      1  C   UNL     1     -11.664   6.654   7.669  1.00  0.00     0.018 A 
ATOM      2  C   UNL     1     -11.048   6.597   6.455  1.00  0.00     0.033 A 
ATOM      3  C   UNL     1      -9.776   5.541   8.707  1.00  0.00     0.065 A 
ATOM      4  N   UNL     1      -8.943   5.810   5.300  1.00  0.00    -0.209 NA
ATOM      5  O   UNL     1      -7.962   4.985   7.058  1.00  0.00    -0.436 OA
ATOM      6  C   UNL     1     -11.038   6.130   8.809  1.00  0.00     0.063 A 
ATOM      7  C   UNL     1      -7.866   5.203   5.733  1.00  0.00     0.227 A 
ATOM      8  C   UNL     1      -9.782   6.009   6.339  1.00  0.00     0.110 A 
ATOM      9  C   UNL     1      -9.149   5.476   7.477  1.00  0.00     0.156 A 
ENDROOT
BRANCH   6  10
ATOM     10  C   UNL     1     -11.712   6.202  10.118  1.00  0.00     0.335 C 
ATOM     11  O   UNL     1     -11.246   5.617  11.074  1.00  0.00    -0.246 OA
BRANCH  10  12
ATOM     12  O   UNL     1     -12.847   6.917  10.253  1.00  0.00    -0.478 OA
ATOM     13  H   UNL     1     -12.997   7.346  11.106  1.00  0.00     0.297 HD
ENDBRANCH  10  12
ENDBRANCH   6  10
BRANCH   7  14
ATOM     14  C   UNL     1      -6.716   4.815   4.890  1.00  0.00     0.040 A 
ATOM     15  C   UNL     1      -5.929   3.717   5.240  1.00  0.00     0.034 A 
ATOM     16  C   UNL     1      -6.412   5.546   3.740  1.00  0.00     0.034 A 
ATOM     17  C   UNL     1      -4.857   3.359   4.448  1.00  0.00     0.043 A 
ATOM     18  C   UNL     1      -5.337   5.178   2.956  1.00  0.00     0.043 A 
ATOM     19  C   UNL     1      -4.560   4.088   3.309  1.00  0.00     0.041 A 
ATOM     20  Cl  UNL     1      -3.877   1.993   4.881  1.00  0.00    -0.084 Cl
ATOM     21  Cl  UNL     1      -4.957   6.086   1.526  1.00  0.00    -0.084 Cl
ENDBRANCH   7  14
TORSDOF 3
ENDMDL
MODEL 7
REMARK VINA RESULT:    -4.357      2.075      3.057
REMARK INTER + INTRA:          -5.279
REMARK INTER:                  -4.982
REMARK INTRA:                  -0.297
REMARK UNBOUND:                -0.286
REMARK SMILES O=C(O)c1ccc2nc(-c3cc(Cl)cc(Cl)c3)oc2c1
REMARK SMILES IDX 5 1 6 2 20 3 8 4 18 5 4 6 9 7 7 8 19 9 2 10 1 11 3 12 10 14
REMARK SMILES IDX 11 15 17 16 12 17 15 18 14 19 13 20 16 21
REMARK H PARENT 3 13
ROOT
ATOM      1  C   UNL     1      -4.533   3.378   4.401  1.00  0.00     0.018 A 
ATOM      2  C   UNL     1      -5.305   3.552   5.510  1.00  0.00     0.033 A 
ATOM      3  C   UNL     1      -6.129   4.622   3.065  1.00  0.00     0.065 A 
ATOM      4  N   UNL     1      -7.461   4.592   6.321  1.00  0.00    -0.209 NA
ATOM      5  O   UNL     1      -8.098   5.417   4.412  1.00  0.00    -0.436 OA
ATOM      6  C   UNL     1      -4.932   3.910   3.167  1.00  0.00     0.063 A 
ATOM      7  C   UNL     1      -8.399   5.276   5.716  1.00  0.00     0.227 A 
ATOM      8  C   UNL     1      -6.508   4.263   5.422  1.00  0.00     0.110 A 
ATOM      9  C   UNL     1      -6.918   4.796   4.187  1.00  0.00     0.156 A 
ENDROOT
BRANCH   6  10
ATOM     10  C   UNL     1      -4.086   3.720   1.976  1.00  0.00     0.335 C 
ATOM     11  O   UNL     1      -3.171   2.921   2.002  1.00  0.00    -0.246 OA
BRANCH  10  12
ATOM     12  O   UNL     1      -4.325   4.434   0.858  1.00  0.00    -0.478 OA
ATOM     13  H   UNL     1      -4.196   5.390   0.911  1.00  0.00     0.297 HD
ENDBRANCH  10  12
ENDBRANCH   6  10
BRANCH   7  14
ATOM     14  C   UNL     1      -9.611   5.813   6.370  1.00  0.00     0.040 A 
ATOM     15  C   UNL     1     -10.605   6.428   5.607  1.00  0.00     0.034 A 
ATOM     16  C   UNL     1      -9.766   5.706   7.753  1.00  0.00     0.034 A 
ATOM     17  C   UNL     1     -11.735   6.926   6.224  1.00  0.00     0.043 A 
ATOM     18  C   UNL     1     -10.901   6.209   8.358  1.00  0.00     0.043 A 
ATOM     19  C   UNL     1     -11.883   6.818   7.596  1.00  0.00     0.041 A 
ATOM     20  Cl  UNL     1     -12.973   7.691   5.278  1.00  0.00    -0.084 Cl
ATOM     21  Cl  UNL     1     -11.095   6.078  10.079  1.00  0.00    -0.084 Cl
ENDBRANCH   7  14
TORSDOF 3
ENDMDL
MODEL 8
REMARK VINA RESULT:    -4.321      2.111      2.415
REMARK INTER + INTRA:          -5.239
REMARK INTER:                  -4.941
REMARK INTRA:                  -0.298
REMARK UNBOUND:                -0.286
REMARK SMILES O=C(O)c1ccc2nc(-c3cc(Cl)cc(Cl)c3)oc2c1
REMARK SMILES IDX 5 1 6 2 20 3 8 4 18 5 4 6 9 7 7 8 19 9 2 10 1 11 3 12 10 14
REMARK SMILES IDX 11 15 17 16 12 17 15 18 14 19 13 20 16 21
REMARK H PARENT 3 13
ROOT
ATOM      1  C   UNL     1      -4.525   3.381   4.391  1.00  0.00     0.018 A 
ATOM      2  C   UNL     1      -5.280   3.540   5.515  1.00  0.00     0.033 A 
ATOM      3  C   UNL     1      -6.134   4.656   3.101  1.00  0.00     0.065 A 
ATOM      4  N   UNL     1      -7.417   4.578   6.376  1.00  0.00    -0.209 NA
ATOM      5  O   UNL     1      -8.077   5.439   4.491  1.00  0.00    -0.436 OA
ATOM      6  C   UNL     1      -4.940   3.937   3.173  1.00  0.00     0.063 A 
ATOM      7  C   UNL     1      -8.360   5.277   5.797  1.00  0.00     0.227 A 
ATOM      8  C   UNL     1      -6.480   4.260   5.457  1.00  0.00     0.110 A 
ATOM      9  C   UNL     1      -6.905   4.816   4.237  1.00  0.00     0.156 A 
ENDROOT
BRANCH   6  10
ATOM     10  C   UNL     1      -4.112   3.763   1.966  1.00  0.00     0.335 C 
ATOM     11  O   UNL     1      -3.199   2.961   1.966  1.00  0.00    -0.246 OA
BRANCH  10  12
ATOM     12  O   UNL     1      -4.367   4.493   0.862  1.00  0.00    -0.478 OA
ATOM     13  H   UNL     1      -4.003   5.388   0.834  1.00  0.00     0.297 HD
ENDBRANCH  10  12
ENDBRANCH   6  10
BRANCH   7  14
ATOM     14  C   UNL     1      -9.559   5.809   6.478  1.00  0.00     0.040 A 
ATOM     15  C   UNL     1      -9.691   5.689   7.861  1.00  0.00     0.034 A 
ATOM     16  C   UNL     1     -10.565   6.434   5.738  1.00  0.00     0.034 A 
ATOM     17  C   UNL     1     -10.813   6.189   8.492  1.00  0.00     0.043 A 
ATOM     18  C   UNL     1     -11.683   6.930   6.379  1.00  0.00     0.043 A 
ATOM     19  C   UNL     1     -11.807   6.807   7.753  1.00  0.00     0.041 A 
ATOM     20  Cl  UNL     1     -10.979   6.041  10.213  1.00  0.00    -0.084 Cl
ATOM     21  Cl  UNL     1     -12.935   7.707   5.461  1.00  0.00    -0.084 Cl
ENDBRANCH   7  14
TORSDOF 3
ENDMDL
MODEL 9
REMARK VINA RESULT:    -4.054      5.228      7.776
REMARK INTER + INTRA:          -4.933
REMARK INTER:                  -4.647
REMARK INTRA:                  -0.285
REMARK UNBOUND:                -0.286
REMARK SMILES O=C(O)c1ccc2nc(-c3cc(Cl)cc(Cl)c3)oc2c1
REMARK SMILES IDX 5 1 6 2 20 3 8 4 18 5 4 6 9 7 7 8 19 9 2 10 1 11 3 12 10 14
REMARK SMILES IDX 11 15 17 16 12 17 15 18 14 19 13 20 16 21
REMARK H PARENT 3 13
ROOT
ATOM      1  C   UNL     1     -10.263   6.798  13.406  1.00  0.00     0.018 A 
ATOM      2  C   UNL     1      -9.408   6.823  12.345  1.00  0.00     0.033 A 
ATOM      3  C   UNL     1     -12.092   6.158  11.947  1.00  0.00     0.065 A 
ATOM      4  N   UNL     1      -9.285   6.461   9.848  1.00  0.00    -0.209 NA
ATOM      5  O   UNL     1     -11.378   5.949   9.545  1.00  0.00    -0.436 OA
ATOM      6  C   UNL     1     -11.613   6.464  13.222  1.00  0.00     0.063 A 
ATOM      7  C   UNL     1     -10.181   6.122   8.954  1.00  0.00     0.227 A 
ATOM      8  C   UNL     1      -9.876   6.518  11.061  1.00  0.00     0.110 A 
ATOM      9  C   UNL     1     -11.229   6.187  10.867  1.00  0.00     0.156 A 
ENDROOT
BRANCH   6  10
ATOM     10  C   UNL     1     -12.527   6.434  14.378  1.00  0.00     0.335 C 
ATOM     11  O   UNL     1     -12.285   5.713  15.325  1.00  0.00    -0.246 OA
BRANCH  10  12
ATOM     12  O   UNL     1     -13.632   7.205  14.384  1.00  0.00    -0.478 OA
ATOM     13  H   UNL     1     -14.094   7.305  15.227  1.00  0.00     0.297 HD
ENDBRANCH  10  12
ENDBRANCH   6  10
BRANCH   7  14
ATOM     14  C   UNL     1      -9.916   5.956   7.510  1.00  0.00     0.040 A 
ATOM     15  C   UNL     1      -8.767   5.292   7.080  1.00  0.00     0.034 A 
ATOM     16  C   UNL     1     -10.815   6.465   6.570  1.00  0.00     0.034 A 
ATOM     17  C   UNL     1      -8.526   5.140   5.729  1.00  0.00     0.043 A 
ATOM     18  C   UNL     1     -10.563   6.306   5.222  1.00  0.00     0.043 A 
ATOM     19  C   UNL     1      -9.421   5.646   4.802  1.00  0.00     0.041 A 
ATOM     20  Cl  UNL     1      -7.097   4.314   5.191  1.00  0.00    -0.084 Cl
ATOM     21  Cl  UNL     1     -11.680   6.937   4.052  1.00  0.00    -0.084 Cl
ENDBRANCH   7  14
TORSDOF 3
ENDMDL
