MODEL 1
REMARK VINA RESULT:    -5.757      0.000      0.000
REMARK INTER + INTRA:          -8.531
REMARK INTER:                  -7.944
REMARK INTRA:                  -0.587
REMARK UNBOUND:                -0.587
REMARK SMILES Cc1n[nH]c(C)c1CCCOc1cc(C(=O)O)ccc1F
REMARK SMILES IDX 11 1 12 2 14 3 18 4 13 5 19 6 20 7 21 8 15 9 16 10 17 11
REMARK SMILES IDX 10 13 9 14 8 15 7 16 5 17 2 18 4 19 3 20 6 21 1 22
REMARK H PARENT 17 12 4 23
ROOT
ATOM      1  O   UNL     1      -8.095   2.819   4.455  1.00  0.00    -0.490 OA
ENDROOT
BRANCH   1   2
ATOM      2  C   UNL     1      -6.854   3.229   4.081  1.00  0.00     0.155 A 
ATOM      3  C   UNL     1      -5.430   4.769   2.906  1.00  0.00     0.063 A 
ATOM      4  C   UNL     1      -4.308   4.055   3.337  1.00  0.00     0.019 A 
ATOM      5  C   UNL     1      -6.706   4.348   3.284  1.00  0.00     0.065 A 
ATOM      6  C   UNL     1      -4.465   2.943   4.137  1.00  0.00     0.044 A 
ATOM      7  C   UNL     1      -5.732   2.531   4.515  1.00  0.00     0.165 A 
ATOM      8  F   UNL     1      -5.878   1.440   5.299  1.00  0.00    -0.203 F 
BRANCH   3   9
ATOM      9  C   UNL     1      -5.266   5.960   2.050  1.00  0.00     0.335 C 
ATOM     10  O   UNL     1      -6.169   6.312   1.319  1.00  0.00    -0.246 OA
BRANCH   9  11
ATOM     11  O   UNL     1      -4.115   6.661   2.084  1.00  0.00    -0.478 OA
ATOM     12  H   UNL     1      -3.712   6.886   1.234  1.00  0.00     0.297 HD
ENDBRANCH   9  11
ENDBRANCH   3   9
ENDBRANCH   1   2
BRANCH   1  13
ATOM     13  C   UNL     1      -8.445   2.982   5.832  1.00  0.00     0.230 C 
BRANCH  13  14
ATOM     14  C   UNL     1      -9.695   3.857   5.939  1.00  0.00     0.046 C 
BRANCH  14  15
ATOM     15  C   UNL     1      -9.286   5.294   6.270  1.00  0.00     0.043 C 
BRANCH  15  16
ATOM     16  C   UNL     1     -10.422   5.991   6.973  1.00  0.00    -0.004 A 
ATOM     17  C   UNL     1     -11.421   6.684   6.378  1.00  0.00     0.036 A 
ATOM     18  C   UNL     1     -10.634   6.032   8.355  1.00  0.00     0.063 A 
ATOM     19  N   UNL     1     -12.232   7.152   7.349  1.00  0.00    -0.282 N 
ATOM     20  N   UNL     1     -11.715   6.733   8.582  1.00  0.00    -0.181 NA
ATOM     21  C   UNL     1     -11.596   6.894   4.896  1.00  0.00     0.066 C 
ATOM     22  C   UNL     1      -9.760   5.390   9.402  1.00  0.00     0.069 C 
ATOM     23  H   UNL     1     -13.032   7.684   7.218  1.00  0.00     0.190 HD
ENDBRANCH  15  16
ENDBRANCH  14  15
ENDBRANCH  13  14
ENDBRANCH   1  13
TORSDOF 7
ENDMDL
MODEL 2
REMARK VINA RESULT:    -5.733      2.232      3.828
REMARK INTER + INTRA:          -8.499
REMARK INTER:                  -7.849
REMARK INTRA:                  -0.649
REMARK UNBOUND:                -0.587
REMARK SMILES Cc1n[nH]c(C)c1CCCOc1cc(C(=O)O)ccc1F
REMARK SMILES IDX 11 1 12 2 14 3 18 4 13 5 19 6 20 7 21 8 15 9 16 10 17 11
REMARK SMILES IDX 10 13 9 14 8 15 7 16 5 17 2 18 4 19 3 20 6 21 1 22
REMARK H PARENT 17 12 4 23
ROOT
ATOM      1  O   UNL     1      -5.989   6.579   5.269  1.00  0.00    -0.490 OA
ENDROOT
BRANCH   1   2
ATOM      2  C   UNL     1      -5.551   5.462   4.630  1.00  0.00     0.155 A 
ATOM      3  C   UNL     1      -5.044   3.112   4.644  1.00  0.00     0.063 A 
ATOM      4  C   UNL     1      -4.664   3.189   3.301  1.00  0.00     0.019 A 
ATOM      5  C   UNL     1      -5.490   4.258   5.306  1.00  0.00     0.065 A 
ATOM      6  C   UNL     1      -4.735   4.394   2.634  1.00  0.00     0.044 A 
ATOM      7  C   UNL     1      -5.181   5.528   3.291  1.00  0.00     0.165 A 
ATOM      8  F   UNL     1      -5.249   6.706   2.631  1.00  0.00    -0.203 F 
BRANCH   3   9
ATOM      9  C   UNL     1      -4.970   1.824   5.362  1.00  0.00     0.335 C 
ATOM     10  O   UNL     1      -4.834   1.808   6.568  1.00  0.00    -0.246 OA
BRANCH   9  11
ATOM     11  O   UNL     1      -5.060   0.666   4.678  1.00  0.00    -0.478 OA
ATOM     12  H   UNL     1      -5.945   0.384   4.407  1.00  0.00     0.297 HD
ENDBRANCH   9  11
ENDBRANCH   3   9
ENDBRANCH   1   2
BRANCH   1  13
ATOM     13  C   UNL     1      -7.311   7.027   4.960  1.00  0.00     0.230 C 
BRANCH  13  14
ATOM     14  C   UNL     1      -8.152   7.052   6.238  1.00  0.00     0.046 C 
BRANCH  14  15
ATOM     15  C   UNL     1      -9.119   5.866   6.235  1.00  0.00     0.043 C 
BRANCH  15  16
ATOM     16  C   UNL     1     -10.364   6.230   7.001  1.00  0.00    -0.004 A 
ATOM     17  C   UNL     1     -10.559   6.063   8.330  1.00  0.00     0.036 A 
ATOM     18  C   UNL     1     -11.521   6.807   6.466  1.00  0.00     0.063 A 
ATOM     19  N   UNL     1     -11.798   6.512   8.624  1.00  0.00    -0.282 N 
ATOM     20  N   UNL     1     -12.383   6.970   7.436  1.00  0.00    -0.181 NA
ATOM     21  C   UNL     1      -9.571   5.481   9.306  1.00  0.00     0.066 C 
ATOM     22  C   UNL     1     -11.741   7.167   5.019  1.00  0.00     0.069 C 
ATOM     23  H   UNL     1     -12.210   6.516   9.502  1.00  0.00     0.190 HD
ENDBRANCH  15  16
ENDBRANCH  14  15
ENDBRANCH  13  14
ENDBRANCH   1  13
TORSDOF 7
ENDMDL
MODEL 3
REMARK VINA RESULT:    -5.685      0.360      1.795
REMARK INTER + INTRA:          -8.433
REMARK INTER:                  -7.789
REMARK INTRA:                  -0.644
REMARK UNBOUND:                -0.587
REMARK SMILES Cc1n[nH]c(C)c1CCCOc1cc(C(=O)O)ccc1F
REMARK SMILES IDX 11 1 12 2 14 3 18 4 13 5 19 6 20 7 21 8 15 9 16 10 17 11
REMARK SMILES IDX 10 13 9 14 8 15 7 16 5 17 2 18 4 19 3 20 6 21 1 22
REMARK H PARENT 17 12 4 23
ROOT
ATOM      1  O   UNL     1      -8.085   2.987   4.594  1.00  0.00    -0.490 OA
ENDROOT
BRANCH   1   2
ATOM      2  C   UNL     1      -6.846   3.331   4.154  1.00  0.00     0.155 A 
ATOM      3  C   UNL     1      -5.406   4.796   2.904  1.00  0.00     0.063 A 
ATOM      4  C   UNL     1      -4.303   4.022   3.273  1.00  0.00     0.019 A 
ATOM      5  C   UNL     1      -6.682   4.443   3.350  1.00  0.00     0.065 A 
ATOM      6  C   UNL     1      -4.476   2.917   4.080  1.00  0.00     0.044 A 
ATOM      7  C   UNL     1      -5.741   2.572   4.525  1.00  0.00     0.165 A 
ATOM      8  F   UNL     1      -5.904   1.488   5.316  1.00  0.00    -0.203 F 
BRANCH   3   9
ATOM      9  C   UNL     1      -5.225   5.980   2.041  1.00  0.00     0.335 C 
ATOM     10  O   UNL     1      -6.110   6.321   1.283  1.00  0.00    -0.246 OA
BRANCH   9  11
ATOM     11  O   UNL     1      -4.078   6.686   2.098  1.00  0.00    -0.478 OA
ATOM     12  H   UNL     1      -3.265   6.222   1.855  1.00  0.00     0.297 HD
ENDBRANCH   9  11
ENDBRANCH   3   9
ENDBRANCH   1   2
BRANCH   1  13
ATOM     13  C   UNL     1      -8.414   3.333   5.942  1.00  0.00     0.230 C 
BRANCH  13  14
ATOM     14  C   UNL     1      -9.665   4.212   5.951  1.00  0.00     0.046 C 
BRANCH  14  15
ATOM     15  C   UNL     1      -9.316   5.590   6.518  1.00  0.00     0.043 C 
BRANCH  15  16
ATOM     16  C   UNL     1     -10.443   6.076   7.391  1.00  0.00    -0.004 A 
ATOM     17  C   UNL     1     -10.523   5.943   8.736  1.00  0.00     0.036 A 
ATOM     18  C   UNL     1     -11.590   6.749   6.957  1.00  0.00     0.063 A 
ATOM     19  N   UNL     1     -11.682   6.507   9.137  1.00  0.00    -0.282 N 
ATOM     20  N   UNL     1     -12.336   7.002   8.001  1.00  0.00    -0.181 NA
ATOM     21  C   UNL     1      -9.501   5.285   9.625  1.00  0.00     0.066 C 
ATOM     22  C   UNL     1     -11.915   7.110   5.530  1.00  0.00     0.069 C 
ATOM     23  H   UNL     1     -12.005   6.559  10.050  1.00  0.00     0.190 HD
ENDBRANCH  15  16
ENDBRANCH  14  15
ENDBRANCH  13  14
ENDBRANCH   1  13
TORSDOF 7
ENDMDL
MODEL 4
REMARK VINA RESULT:    -5.647      2.245      3.381
REMARK INTER + INTRA:          -8.380
REMARK INTER:                  -7.813
REMARK INTRA:                  -0.567
REMARK UNBOUND:                -0.587
REMARK SMILES Cc1n[nH]c(C)c1CCCOc1cc(C(=O)O)ccc1F
REMARK SMILES IDX 11 1 12 2 14 3 18 4 13 5 19 6 20 7 21 8 15 9 16 10 17 11
REMARK SMILES IDX 10 13 9 14 8 15 7 16 5 17 2 18 4 19 3 20 6 21 1 22
REMARK H PARENT 17 12 4 23
ROOT
ATOM      1  O   UNL     1      -6.039   6.575   5.289  1.00  0.00    -0.490 OA
ENDROOT
BRANCH   1   2
ATOM      2  C   UNL     1      -5.584   5.471   4.639  1.00  0.00     0.155 A 
ATOM      3  C   UNL     1      -5.053   3.125   4.629  1.00  0.00     0.063 A 
ATOM      4  C   UNL     1      -4.661   3.224   3.292  1.00  0.00     0.019 A 
ATOM      5  C   UNL     1      -5.516   4.259   5.301  1.00  0.00     0.065 A 
ATOM      6  C   UNL     1      -4.738   4.436   2.638  1.00  0.00     0.044 A 
ATOM      7  C   UNL     1      -5.202   5.557   3.305  1.00  0.00     0.165 A 
ATOM      8  F   UNL     1      -5.275   6.742   2.659  1.00  0.00    -0.203 F 
BRANCH   3   9
ATOM      9  C   UNL     1      -4.973   1.830   5.332  1.00  0.00     0.335 C 
ATOM     10  O   UNL     1      -4.799   1.799   6.533  1.00  0.00    -0.246 OA
BRANCH   9  11
ATOM     11  O   UNL     1      -5.098   0.680   4.640  1.00  0.00    -0.478 OA
ATOM     12  H   UNL     1      -5.424  -0.091   5.125  1.00  0.00     0.297 HD
ENDBRANCH   9  11
ENDBRANCH   3   9
ENDBRANCH   1   2
BRANCH   1  13
ATOM     13  C   UNL     1      -7.404   6.940   5.069  1.00  0.00     0.230 C 
BRANCH  13  14
ATOM     14  C   UNL     1      -8.212   6.679   6.341  1.00  0.00     0.046 C 
BRANCH  14  15
ATOM     15  C   UNL     1      -9.384   5.749   6.019  1.00  0.00     0.043 C 
BRANCH  15  16
ATOM     16  C   UNL     1     -10.650   6.312   6.610  1.00  0.00    -0.004 A 
ATOM     17  C   UNL     1     -11.646   6.920   5.925  1.00  0.00     0.036 A 
ATOM     18  C   UNL     1     -11.007   6.292   7.962  1.00  0.00     0.063 A 
ATOM     19  N   UNL     1     -12.597   7.279   6.814  1.00  0.00    -0.282 N 
ATOM     20  N   UNL     1     -12.170   6.878   8.087  1.00  0.00    -0.181 NA
ATOM     21  C   UNL     1     -11.687   7.155   4.438  1.00  0.00     0.066 C 
ATOM     22  C   UNL     1     -10.187   5.708   9.085  1.00  0.00     0.069 C 
ATOM     23  H   UNL     1     -13.427   7.735   6.608  1.00  0.00     0.190 HD
ENDBRANCH  15  16
ENDBRANCH  14  15
ENDBRANCH  13  14
ENDBRANCH   1  13
TORSDOF 7
ENDMDL
MODEL 5
REMARK VINA RESULT:    -4.705      3.960      7.089
REMARK INTER + INTRA:          -7.080
REMARK INTER:                  -6.250
REMARK INTRA:                  -0.830
REMARK UNBOUND:                -0.587
REMARK SMILES Cc1n[nH]c(C)c1CCCOc1cc(C(=O)O)ccc1F
REMARK SMILES IDX 11 1 12 2 14 3 18 4 13 5 19 6 20 7 21 8 15 9 16 10 17 11
REMARK SMILES IDX 10 13 9 14 8 15 7 16 5 17 2 18 4 19 3 20 6 21 1 22
REMARK H PARENT 17 12 4 23
ROOT
ATOM      1  O   UNL     1      -8.464   5.753   4.845  1.00  0.00    -0.490 OA
ENDROOT
BRANCH   1   2
ATOM      2  C   UNL     1      -9.372   5.978   5.832  1.00  0.00     0.155 A 
ATOM      3  C   UNL     1      -9.971   5.963   8.160  1.00  0.00     0.063 A 
ATOM      4  C   UNL     1     -11.238   6.455   7.834  1.00  0.00     0.019 A 
ATOM      5  C   UNL     1      -9.038   5.725   7.149  1.00  0.00     0.065 A 
ATOM      6  C   UNL     1     -11.560   6.709   6.517  1.00  0.00     0.044 A 
ATOM      7  C   UNL     1     -10.631   6.478   5.516  1.00  0.00     0.165 A 
ATOM      8  F   UNL     1     -10.952   6.730   4.228  1.00  0.00    -0.203 F 
BRANCH   3   9
ATOM      9  C   UNL     1      -9.623   5.690   9.568  1.00  0.00     0.335 C 
ATOM     10  O   UNL     1     -10.385   6.013  10.456  1.00  0.00    -0.246 OA
BRANCH   9  11
ATOM     11  O   UNL     1      -8.462   5.074   9.868  1.00  0.00    -0.478 OA
ATOM     12  H   UNL     1      -7.750   5.627  10.219  1.00  0.00     0.297 HD
ENDBRANCH   9  11
ENDBRANCH   3   9
ENDBRANCH   1   2
BRANCH   1  13
ATOM     13  C   UNL     1      -7.098   6.055   5.139  1.00  0.00     0.230 C 
BRANCH  13  14
ATOM     14  C   UNL     1      -6.226   5.693   3.936  1.00  0.00     0.046 C 
BRANCH  14  15
ATOM     15  C   UNL     1      -6.752   4.409   3.292  1.00  0.00     0.043 C 
BRANCH  15  16
ATOM     16  C   UNL     1      -6.143   3.215   3.980  1.00  0.00    -0.004 A 
ATOM     17  C   UNL     1      -4.846   2.834   3.915  1.00  0.00     0.036 A 
ATOM     18  C   UNL     1      -6.817   2.307   4.804  1.00  0.00     0.063 A 
ATOM     19  N   UNL     1      -4.706   1.722   4.666  1.00  0.00    -0.282 N 
ATOM     20  N   UNL     1      -5.958   1.408   5.210  1.00  0.00    -0.181 NA
ATOM     21  C   UNL     1      -3.755   3.528   3.143  1.00  0.00     0.066 C 
ATOM     22  C   UNL     1      -8.283   2.351   5.154  1.00  0.00     0.069 C 
ATOM     23  H   UNL     1      -3.884   1.226   4.804  1.00  0.00     0.190 HD
ENDBRANCH  15  16
ENDBRANCH  14  15
ENDBRANCH  13  14
ENDBRANCH   1  13
TORSDOF 7
ENDMDL
MODEL 6
REMARK VINA RESULT:    -4.677      3.840      6.608
REMARK INTER + INTRA:          -7.041
REMARK INTER:                  -6.292
REMARK INTRA:                  -0.749
REMARK UNBOUND:                -0.587
REMARK SMILES Cc1n[nH]c(C)c1CCCOc1cc(C(=O)O)ccc1F
REMARK SMILES IDX 11 1 12 2 14 3 18 4 13 5 19 6 20 7 21 8 15 9 16 10 17 11
REMARK SMILES IDX 10 13 9 14 8 15 7 16 5 17 2 18 4 19 3 20 6 21 1 22
REMARK H PARENT 17 12 4 23
ROOT
ATOM      1  O   UNL     1      -7.933   4.801   6.244  1.00  0.00    -0.490 OA
ENDROOT
BRANCH   1   2
ATOM      2  C   UNL     1      -9.099   5.428   6.555  1.00  0.00     0.155 A 
ATOM      3  C   UNL     1     -11.093   6.586   5.875  1.00  0.00     0.063 A 
ATOM      4  C   UNL     1     -11.481   6.696   7.213  1.00  0.00     0.019 A 
ATOM      5  C   UNL     1      -9.894   5.947   5.551  1.00  0.00     0.065 A 
ATOM      6  C   UNL     1     -10.684   6.171   8.207  1.00  0.00     0.044 A 
ATOM      7  C   UNL     1      -9.497   5.533   7.883  1.00  0.00     0.165 A 
ATOM      8  F   UNL     1      -8.720   5.020   8.863  1.00  0.00    -0.203 F 
BRANCH   3   9
ATOM      9  C   UNL     1     -11.945   7.147   4.808  1.00  0.00     0.335 C 
ATOM     10  O   UNL     1     -11.720   6.878   3.646  1.00  0.00    -0.246 OA
BRANCH   9  11
ATOM     11  O   UNL     1     -12.977   7.954   5.124  1.00  0.00    -0.478 OA
ATOM     12  H   UNL     1     -13.761   7.535   5.507  1.00  0.00     0.297 HD
ENDBRANCH   9  11
ENDBRANCH   3   9
ENDBRANCH   1   2
BRANCH   1  13
ATOM     13  C   UNL     1      -7.993   3.777   5.248  1.00  0.00     0.230 C 
BRANCH  13  14
ATOM     14  C   UNL     1      -6.594   3.204   5.022  1.00  0.00     0.046 C 
BRANCH  14  15
ATOM     15  C   UNL     1      -5.546   4.270   5.348  1.00  0.00     0.043 C 
BRANCH  15  16
ATOM     16  C   UNL     1      -5.258   5.086   4.115  1.00  0.00    -0.004 A 
ATOM     17  C   UNL     1      -4.646   4.643   2.992  1.00  0.00     0.036 A 
ATOM     18  C   UNL     1      -5.580   6.435   3.926  1.00  0.00     0.063 A 
ATOM     19  N   UNL     1      -4.578   5.676   2.126  1.00  0.00    -0.282 N 
ATOM     20  N   UNL     1      -5.167   6.791   2.737  1.00  0.00    -0.181 NA
ATOM     21  C   UNL     1      -4.134   3.247   2.752  1.00  0.00     0.066 C 
ATOM     22  C   UNL     1      -6.272   7.326   4.925  1.00  0.00     0.069 C 
ATOM     23  H   UNL     1      -4.189   5.651   1.238  1.00  0.00     0.190 HD
ENDBRANCH  15  16
ENDBRANCH  14  15
ENDBRANCH  13  14
ENDBRANCH   1  13
TORSDOF 7
ENDMDL
MODEL 7
REMARK VINA RESULT:    -4.472      4.706      8.200
REMARK INTER + INTRA:          -6.757
REMARK INTER:                  -6.050
REMARK INTRA:                  -0.708
REMARK UNBOUND:                -0.587
REMARK SMILES Cc1n[nH]c(C)c1CCCOc1cc(C(=O)O)ccc1F
REMARK SMILES IDX 11 1 12 2 14 3 18 4 13 5 19 6 20 7 21 8 15 9 16 10 17 11
REMARK SMILES IDX 10 13 9 14 8 15 7 16 5 17 2 18 4 19 3 20 6 21 1 22
REMARK H PARENT 17 12 4 23
ROOT
ATOM      1  O   UNL     1      -9.842   5.340   8.359  1.00  0.00    -0.490 OA
ENDROOT
BRANCH   1   2
ATOM      2  C   UNL     1     -10.315   5.745   9.568  1.00  0.00     0.155 A 
ATOM      3  C   UNL     1     -12.158   6.151  11.059  1.00  0.00     0.063 A 
ATOM      4  C   UNL     1     -11.262   6.566  12.047  1.00  0.00     0.019 A 
ATOM      5  C   UNL     1     -11.676   5.740   9.814  1.00  0.00     0.065 A 
ATOM      6  C   UNL     1      -9.906   6.563  11.794  1.00  0.00     0.044 A 
ATOM      7  C   UNL     1      -9.430   6.149  10.561  1.00  0.00     0.165 A 
ATOM      8  F   UNL     1      -8.100   6.148  10.319  1.00  0.00    -0.203 F 
BRANCH   3   9
ATOM      9  C   UNL     1     -13.609   6.154  11.326  1.00  0.00     0.335 C 
ATOM     10  O   UNL     1     -14.020   6.383  12.446  1.00  0.00    -0.246 OA
BRANCH   9  11
ATOM     11  O   UNL     1     -14.479   5.908  10.327  1.00  0.00    -0.478 OA
ATOM     12  H   UNL     1     -15.354   6.315  10.395  1.00  0.00     0.297 HD
ENDBRANCH   9  11
ENDBRANCH   3   9
ENDBRANCH   1   2
BRANCH   1  13
ATOM     13  C   UNL     1     -10.117   6.185   7.239  1.00  0.00     0.230 C 
BRANCH  13  14
ATOM     14  C   UNL     1      -9.428   5.621   5.995  1.00  0.00     0.046 C 
BRANCH  14  15
ATOM     15  C   UNL     1      -8.064   5.045   6.384  1.00  0.00     0.043 C 
BRANCH  15  16
ATOM     16  C   UNL     1      -7.269   4.750   5.139  1.00  0.00    -0.004 A 
ATOM     17  C   UNL     1      -7.274   3.586   4.449  1.00  0.00     0.036 A 
ATOM     18  C   UNL     1      -6.400   5.632   4.489  1.00  0.00     0.063 A 
ATOM     19  N   UNL     1      -6.433   3.724   3.403  1.00  0.00    -0.282 N 
ATOM     20  N   UNL     1      -5.893   5.016   3.452  1.00  0.00    -0.181 NA
ATOM     21  C   UNL     1      -8.075   2.356   4.788  1.00  0.00     0.066 C 
ATOM     22  C   UNL     1      -6.091   7.044   4.916  1.00  0.00     0.069 C 
ATOM     23  H   UNL     1      -6.236   3.049   2.735  1.00  0.00     0.190 HD
ENDBRANCH  15  16
ENDBRANCH  14  15
ENDBRANCH  13  14
ENDBRANCH   1  13
TORSDOF 7
ENDMDL
MODEL 8
REMARK VINA RESULT:    -4.440      3.974      7.016
REMARK INTER + INTRA:          -6.714
REMARK INTER:                  -5.926
REMARK INTRA:                  -0.789
REMARK UNBOUND:                -0.587
REMARK SMILES Cc1n[nH]c(C)c1CCCOc1cc(C(=O)O)ccc1F
REMARK SMILES IDX 11 1 12 2 14 3 18 4 13 5 19 6 20 7 21 8 15 9 16 10 17 11
REMARK SMILES IDX 10 13 9 14 8 15 7 16 5 17 2 18 4 19 3 20 6 21 1 22
REMARK H PARENT 17 12 4 23
ROOT
ATOM      1  O   UNL     1      -8.605   4.782   5.191  1.00  0.00    -0.490 OA
ENDROOT
BRANCH   1   2
ATOM      2  C   UNL     1      -9.400   5.335   6.145  1.00  0.00     0.155 A 
ATOM      3  C   UNL     1      -9.892   5.770   8.458  1.00  0.00     0.063 A 
ATOM      4  C   UNL     1     -11.033   6.482   8.077  1.00  0.00     0.019 A 
ATOM      5  C   UNL     1      -9.076   5.196   7.481  1.00  0.00     0.065 A 
ATOM      6  C   UNL     1     -11.345   6.621   6.741  1.00  0.00     0.044 A 
ATOM      7  C   UNL     1     -10.531   6.055   5.774  1.00  0.00     0.165 A 
ATOM      8  F   UNL     1     -10.842   6.194   4.467  1.00  0.00    -0.203 F 
BRANCH   3   9
ATOM      9  C   UNL     1      -9.555   5.620   9.887  1.00  0.00     0.335 C 
ATOM     10  O   UNL     1     -10.139   6.280  10.722  1.00  0.00    -0.246 OA
BRANCH   9  11
ATOM     11  O   UNL     1      -8.604   4.745  10.266  1.00  0.00    -0.478 OA
ATOM     12  H   UNL     1      -8.674   3.843   9.923  1.00  0.00     0.297 HD
ENDBRANCH   9  11
ENDBRANCH   3   9
ENDBRANCH   1   2
BRANCH   1  13
ATOM     13  C   UNL     1      -8.217   3.418   5.380  1.00  0.00     0.230 C 
BRANCH  13  14
ATOM     14  C   UNL     1      -6.894   3.160   4.658  1.00  0.00     0.046 C 
BRANCH  14  15
ATOM     15  C   UNL     1      -5.834   4.139   5.169  1.00  0.00     0.043 C 
BRANCH  15  16
ATOM     16  C   UNL     1      -5.398   5.041   4.045  1.00  0.00    -0.004 A 
ATOM     17  C   UNL     1      -4.699   4.666   2.948  1.00  0.00     0.036 A 
ATOM     18  C   UNL     1      -5.650   6.414   3.945  1.00  0.00     0.063 A 
ATOM     19  N   UNL     1      -4.509   5.764   2.186  1.00  0.00    -0.282 N 
ATOM     20  N   UNL     1      -5.112   6.849   2.835  1.00  0.00    -0.181 NA
ATOM     21  C   UNL     1      -4.219   3.273   2.635  1.00  0.00     0.066 C 
ATOM     22  C   UNL     1      -6.401   7.249   4.950  1.00  0.00     0.069 C 
ATOM     23  H   UNL     1      -4.039   5.795   1.339  1.00  0.00     0.190 HD
ENDBRANCH  15  16
ENDBRANCH  14  15
ENDBRANCH  13  14
ENDBRANCH   1  13
TORSDOF 7
ENDMDL
MODEL 9
REMARK VINA RESULT:    -4.400      4.120      6.961
REMARK INTER + INTRA:          -6.659
REMARK INTER:                  -6.177
REMARK INTRA:                  -0.482
REMARK UNBOUND:                -0.587
REMARK SMILES Cc1n[nH]c(C)c1CCCOc1cc(C(=O)O)ccc1F
REMARK SMILES IDX 11 1 12 2 14 3 18 4 13 5 19 6 20 7 21 8 15 9 16 10 17 11
REMARK SMILES IDX 10 13 9 14 8 15 7 16 5 17 2 18 4 19 3 20 6 21 1 22
REMARK H PARENT 17 12 4 23
ROOT
ATOM      1  O   UNL     1      -8.448   4.542   6.489  1.00  0.00    -0.490 OA
ENDROOT
BRANCH   1   2
ATOM      2  C   UNL     1      -9.527   5.293   6.837  1.00  0.00     0.155 A 
ATOM      3  C   UNL     1     -11.432   6.623   6.218  1.00  0.00     0.063 A 
ATOM      4  C   UNL     1     -11.733   6.814   7.570  1.00  0.00     0.019 A 
ATOM      5  C   UNL     1     -10.322   5.857   5.857  1.00  0.00     0.065 A 
ATOM      6  C   UNL     1     -10.937   6.242   8.540  1.00  0.00     0.044 A 
ATOM      7  C   UNL     1      -9.840   5.479   8.179  1.00  0.00     0.165 A 
ATOM      8  F   UNL     1      -9.064   4.921   9.135  1.00  0.00    -0.203 F 
BRANCH   3   9
ATOM      9  C   UNL     1     -12.281   7.234   5.177  1.00  0.00     0.335 C 
ATOM     10  O   UNL     1     -12.651   8.385   5.292  1.00  0.00    -0.246 OA
BRANCH   9  11
ATOM     11  O   UNL     1     -12.641   6.516   4.095  1.00  0.00    -0.478 OA
ATOM     12  H   UNL     1     -12.864   7.010   3.294  1.00  0.00     0.297 HD
ENDBRANCH   9  11
ENDBRANCH   3   9
ENDBRANCH   1   2
BRANCH   1  13
ATOM     13  C   UNL     1      -8.689   3.412   5.647  1.00  0.00     0.230 C 
BRANCH  13  14
ATOM     14  C   UNL     1      -7.778   3.488   4.420  1.00  0.00     0.046 C 
BRANCH  14  15
ATOM     15  C   UNL     1      -6.626   4.455   4.699  1.00  0.00     0.043 C 
BRANCH  15  16
ATOM     16  C   UNL     1      -5.399   4.007   3.948  1.00  0.00    -0.004 A 
ATOM     17  C   UNL     1      -4.845   4.631   2.883  1.00  0.00     0.036 A 
ATOM     18  C   UNL     1      -4.627   2.876   4.233  1.00  0.00     0.063 A 
ATOM     19  N   UNL     1      -3.765   3.916   2.503  1.00  0.00    -0.282 N 
ATOM     20  N   UNL     1      -3.652   2.816   3.363  1.00  0.00    -0.181 NA
ATOM     21  C   UNL     1      -5.345   5.897   2.237  1.00  0.00     0.066 C 
ATOM     22  C   UNL     1      -4.883   1.888   5.343  1.00  0.00     0.069 C 
ATOM     23  H   UNL     1      -3.173   4.126   1.764  1.00  0.00     0.190 HD
ENDBRANCH  15  16
ENDBRANCH  14  15
ENDBRANCH  13  14
ENDBRANCH   1  13
TORSDOF 7
ENDMDL
