MODEL 1
REMARK VINA RESULT:    -5.904      0.000      0.000
REMARK INTER + INTRA:          -8.840
REMARK INTER:                  -8.148
REMARK INTRA:                  -0.693
REMARK UNBOUND:                -0.693
REMARK SMILES Cc1n[nH]c(C)c1CCCOc1cc(C(=O)O)ccc1F
REMARK SMILES IDX 11 1 12 2 14 3 18 4 13 5 19 6 20 7 21 8 15 9 16 10 17 11
REMARK SMILES IDX 10 13 9 14 8 15 7 16 5 17 2 18 4 19 3 20 6 21 1 22
REMARK H PARENT 17 12 4 23
ROOT
ATOM      1  O   UNL     1      -1.633  -7.828   0.726  1.00  0.00    -0.490 OA
ENDROOT
BRANCH   1   2
ATOM      2  C   UNL     1      -1.526  -6.472   0.713  1.00  0.00     0.155 A 
ATOM      3  C   UNL     1      -2.471  -4.299   1.121  1.00  0.00     0.063 A 
ATOM      4  C   UNL     1      -1.282  -3.705   0.690  1.00  0.00     0.019 A 
ATOM      5  C   UNL     1      -2.587  -5.691   1.131  1.00  0.00     0.065 A 
ATOM      6  C   UNL     1      -0.227  -4.493   0.281  1.00  0.00     0.044 A 
ATOM      7  C   UNL     1      -0.342  -5.873   0.296  1.00  0.00     0.165 A 
ATOM      8  F   UNL     1       0.696  -6.639  -0.106  1.00  0.00    -0.203 F 
BRANCH   3   9
ATOM      9  C   UNL     1      -3.603  -3.459   1.560  1.00  0.00     0.335 C 
ATOM     10  O   UNL     1      -4.683  -3.563   1.016  1.00  0.00    -0.246 OA
BRANCH   9  11
ATOM     11  O   UNL     1      -3.438  -2.581   2.568  1.00  0.00    -0.478 OA
ATOM     12  H   UNL     1      -4.097  -1.877   2.651  1.00  0.00     0.297 HD
ENDBRANCH   9  11
ENDBRANCH   3   9
ENDBRANCH   1   2
BRANCH   1  13
ATOM     13  C   UNL     1      -2.379  -8.429  -0.335  1.00  0.00     0.230 C 
BRANCH  13  14
ATOM     14  C   UNL     1      -2.851  -9.818   0.097  1.00  0.00     0.046 C 
BRANCH  14  15
ATOM     15  C   UNL     1      -3.490  -9.730   1.485  1.00  0.00     0.043 C 
BRANCH  15  16
ATOM     16  C   UNL     1      -4.409 -10.906   1.690  1.00  0.00    -0.004 A 
ATOM     17  C   UNL     1      -5.739 -10.931   1.440  1.00  0.00     0.036 A 
ATOM     18  C   UNL     1      -4.038 -12.168   2.167  1.00  0.00     0.063 A 
ATOM     19  N   UNL     1      -6.194 -12.162   1.754  1.00  0.00    -0.282 N 
ATOM     20  N   UNL     1      -5.108 -12.919   2.213  1.00  0.00    -0.181 NA
ATOM     21  C   UNL     1      -6.564  -9.789   0.907  1.00  0.00     0.066 C 
ATOM     22  C   UNL     1      -2.647 -12.585   2.571  1.00  0.00     0.069 C 
ATOM     23  H   UNL     1      -7.111 -12.469   1.677  1.00  0.00     0.190 HD
ENDBRANCH  15  16
ENDBRANCH  14  15
ENDBRANCH  13  14
ENDBRANCH   1  13
TORSDOF 7
ENDMDL
MODEL 2
REMARK VINA RESULT:    -5.862      2.005      3.636
REMARK INTER + INTRA:          -8.782
REMARK INTER:                  -8.115
REMARK INTRA:                  -0.667
REMARK UNBOUND:                -0.693
REMARK SMILES Cc1n[nH]c(C)c1CCCOc1cc(C(=O)O)ccc1F
REMARK SMILES IDX 11 1 12 2 14 3 18 4 13 5 19 6 20 7 21 8 15 9 16 10 17 11
REMARK SMILES IDX 10 13 9 14 8 15 7 16 5 17 2 18 4 19 3 20 6 21 1 22
REMARK H PARENT 17 12 4 23
ROOT
ATOM      1  O   UNL     1      -3.675  -6.662   1.504  1.00  0.00    -0.490 OA
ENDROOT
BRANCH   1   2
ATOM      2  C   UNL     1      -2.692  -5.810   1.109  1.00  0.00     0.155 A 
ATOM      3  C   UNL     1      -0.495  -5.432   0.208  1.00  0.00     0.063 A 
ATOM      4  C   UNL     1      -0.700  -4.053   0.297  1.00  0.00     0.019 A 
ATOM      5  C   UNL     1      -1.501  -6.310   0.618  1.00  0.00     0.065 A 
ATOM      6  C   UNL     1      -1.894  -3.564   0.782  1.00  0.00     0.044 A 
ATOM      7  C   UNL     1      -2.892  -4.436   1.184  1.00  0.00     0.165 A 
ATOM      8  F   UNL     1      -4.060  -3.951   1.659  1.00  0.00    -0.203 F 
BRANCH   3   9
ATOM      9  C   UNL     1       0.782  -5.959  -0.312  1.00  0.00     0.335 C 
ATOM     10  O   UNL     1       1.438  -6.732   0.357  1.00  0.00    -0.246 OA
BRANCH   9  11
ATOM     11  O   UNL     1       1.217  -5.588  -1.532  1.00  0.00    -0.478 OA
ATOM     12  H   UNL     1       1.704  -4.754  -1.589  1.00  0.00     0.297 HD
ENDBRANCH   9  11
ENDBRANCH   3   9
ENDBRANCH   1   2
BRANCH   1  13
ATOM     13  C   UNL     1      -3.623  -7.131   2.854  1.00  0.00     0.230 C 
BRANCH  13  14
ATOM     14  C   UNL     1      -4.256  -8.521   2.935  1.00  0.00     0.046 C 
BRANCH  14  15
ATOM     15  C   UNL     1      -3.975  -9.286   1.640  1.00  0.00     0.043 C 
BRANCH  15  16
ATOM     16  C   UNL     1      -4.431 -10.714   1.790  1.00  0.00    -0.004 A 
ATOM     17  C   UNL     1      -3.667 -11.756   2.192  1.00  0.00     0.036 A 
ATOM     18  C   UNL     1      -5.721 -11.197   1.544  1.00  0.00     0.063 A 
ATOM     19  N   UNL     1      -4.443 -12.859   2.194  1.00  0.00    -0.282 N 
ATOM     20  N   UNL     1      -5.728 -12.483   1.779  1.00  0.00    -0.181 NA
ATOM     21  C   UNL     1      -2.210 -11.694   2.570  1.00  0.00     0.066 C 
ATOM     22  C   UNL     1      -6.897 -10.377   1.077  1.00  0.00     0.069 C 
ATOM     23  H   UNL     1      -4.162 -13.755   2.438  1.00  0.00     0.190 HD
ENDBRANCH  15  16
ENDBRANCH  14  15
ENDBRANCH  13  14
ENDBRANCH   1  13
TORSDOF 7
ENDMDL
MODEL 3
REMARK VINA RESULT:    -5.787      0.071      1.769
REMARK INTER + INTRA:          -8.679
REMARK INTER:                  -8.004
REMARK INTRA:                  -0.675
REMARK UNBOUND:                -0.693
REMARK SMILES Cc1n[nH]c(C)c1CCCOc1cc(C(=O)O)ccc1F
REMARK SMILES IDX 11 1 12 2 14 3 18 4 13 5 19 6 20 7 21 8 15 9 16 10 17 11
REMARK SMILES IDX 10 13 9 14 8 15 7 16 5 17 2 18 4 19 3 20 6 21 1 22
REMARK H PARENT 17 12 4 23
ROOT
ATOM      1  O   UNL     1      -1.645  -7.808   0.716  1.00  0.00    -0.490 OA
ENDROOT
BRANCH   1   2
ATOM      2  C   UNL     1      -1.549  -6.452   0.702  1.00  0.00     0.155 A 
ATOM      3  C   UNL     1      -2.506  -4.287   1.122  1.00  0.00     0.063 A 
ATOM      4  C   UNL     1      -1.327  -3.683   0.676  1.00  0.00     0.019 A 
ATOM      5  C   UNL     1      -2.611  -5.679   1.133  1.00  0.00     0.065 A 
ATOM      6  C   UNL     1      -0.271  -4.463   0.254  1.00  0.00     0.044 A 
ATOM      7  C   UNL     1      -0.375  -5.844   0.270  1.00  0.00     0.165 A 
ATOM      8  F   UNL     1       0.664  -6.602  -0.144  1.00  0.00    -0.203 F 
BRANCH   3   9
ATOM      9  C   UNL     1      -3.639  -3.455   1.574  1.00  0.00     0.335 C 
ATOM     10  O   UNL     1      -4.725  -3.567   1.043  1.00  0.00    -0.246 OA
BRANCH   9  11
ATOM     11  O   UNL     1      -3.469  -2.577   2.582  1.00  0.00    -0.478 OA
ATOM     12  H   UNL     1      -3.561  -1.638   2.366  1.00  0.00     0.297 HD
ENDBRANCH   9  11
ENDBRANCH   3   9
ENDBRANCH   1   2
BRANCH   1  13
ATOM     13  C   UNL     1      -2.429  -8.413  -0.316  1.00  0.00     0.230 C 
BRANCH  13  14
ATOM     14  C   UNL     1      -2.862  -9.812   0.128  1.00  0.00     0.046 C 
BRANCH  14  15
ATOM     15  C   UNL     1      -3.567  -9.722   1.483  1.00  0.00     0.043 C 
BRANCH  15  16
ATOM     16  C   UNL     1      -4.440 -10.934   1.678  1.00  0.00    -0.004 A 
ATOM     17  C   UNL     1      -4.043 -12.130   2.170  1.00  0.00     0.036 A 
ATOM     18  C   UNL     1      -5.806 -11.020   1.387  1.00  0.00     0.063 A 
ATOM     19  N   UNL     1      -5.118 -12.946   2.185  1.00  0.00    -0.282 N 
ATOM     20  N   UNL     1      -6.212 -12.227   1.684  1.00  0.00    -0.181 NA
ATOM     21  C   UNL     1      -2.651 -12.487   2.622  1.00  0.00     0.066 C 
ATOM     22  C   UNL     1      -6.659  -9.915   0.819  1.00  0.00     0.069 C 
ATOM     23  H   UNL     1      -5.131 -13.867   2.487  1.00  0.00     0.190 HD
ENDBRANCH  15  16
ENDBRANCH  14  15
ENDBRANCH  13  14
ENDBRANCH   1  13
TORSDOF 7
ENDMDL
MODEL 4
REMARK VINA RESULT:    -4.889      4.143      7.265
REMARK INTER + INTRA:          -7.440
REMARK INTER:                  -6.911
REMARK INTRA:                  -0.529
REMARK UNBOUND:                -0.693
REMARK SMILES Cc1n[nH]c(C)c1CCCOc1cc(C(=O)O)ccc1F
REMARK SMILES IDX 11 1 12 2 14 3 18 4 13 5 19 6 20 7 21 8 15 9 16 10 17 11
REMARK SMILES IDX 10 13 9 14 8 15 7 16 5 17 2 18 4 19 3 20 6 21 1 22
REMARK H PARENT 17 12 4 23
ROOT
ATOM      1  O   UNL     1      -2.420  -9.000   1.692  1.00  0.00    -0.490 OA
ENDROOT
BRANCH   1   2
ATOM      2  C   UNL     1      -3.207 -10.101   1.827  1.00  0.00     0.155 A 
ATOM      3  C   UNL     1      -5.357 -11.164   1.654  1.00  0.00     0.063 A 
ATOM      4  C   UNL     1      -4.795 -12.364   2.099  1.00  0.00     0.019 A 
ATOM      5  C   UNL     1      -4.553 -10.031   1.519  1.00  0.00     0.065 A 
ATOM      6  C   UNL     1      -3.450 -12.426   2.398  1.00  0.00     0.044 A 
ATOM      7  C   UNL     1      -2.654 -11.302   2.259  1.00  0.00     0.165 A 
ATOM      8  F   UNL     1      -1.337 -11.369   2.553  1.00  0.00    -0.203 F 
BRANCH   3   9
ATOM      9  C   UNL     1      -6.796 -11.095   1.332  1.00  0.00     0.335 C 
ATOM     10  O   UNL     1      -7.405 -10.058   1.496  1.00  0.00    -0.246 OA
BRANCH   9  11
ATOM     11  O   UNL     1      -7.431 -12.181   0.851  1.00  0.00    -0.478 OA
ATOM     12  H   UNL     1      -6.945 -12.731   0.221  1.00  0.00     0.297 HD
ENDBRANCH   9  11
ENDBRANCH   3   9
ENDBRANCH   1   2
BRANCH   1  13
ATOM     13  C   UNL     1      -2.527  -8.273   0.466  1.00  0.00     0.230 C 
BRANCH  13  14
ATOM     14  C   UNL     1      -3.143  -6.900   0.740  1.00  0.00     0.046 C 
BRANCH  14  15
ATOM     15  C   UNL     1      -2.251  -6.127   1.715  1.00  0.00     0.043 C 
BRANCH  15  16
ATOM     16  C   UNL     1      -1.754  -4.869   1.051  1.00  0.00    -0.004 A 
ATOM     17  C   UNL     1      -2.381  -3.669   1.047  1.00  0.00     0.036 A 
ATOM     18  C   UNL     1      -0.559  -4.732   0.337  1.00  0.00     0.063 A 
ATOM     19  N   UNL     1      -1.613  -2.806   0.349  1.00  0.00    -0.282 N 
ATOM     20  N   UNL     1      -0.477  -3.498  -0.091  1.00  0.00    -0.181 NA
ATOM     21  C   UNL     1      -3.699  -3.354   1.704  1.00  0.00     0.066 C 
ATOM     22  C   UNL     1       0.453  -5.822   0.091  1.00  0.00     0.069 C 
ATOM     23  H   UNL     1      -1.813  -1.873   0.180  1.00  0.00     0.190 HD
ENDBRANCH  15  16
ENDBRANCH  14  15
ENDBRANCH  13  14
ENDBRANCH   1  13
TORSDOF 7
ENDMDL
MODEL 5
REMARK VINA RESULT:    -4.883      3.746      6.716
REMARK INTER + INTRA:          -7.431
REMARK INTER:                  -6.605
REMARK INTRA:                  -0.826
REMARK UNBOUND:                -0.693
REMARK SMILES Cc1n[nH]c(C)c1CCCOc1cc(C(=O)O)ccc1F
REMARK SMILES IDX 11 1 12 2 14 3 18 4 13 5 19 6 20 7 21 8 15 9 16 10 17 11
REMARK SMILES IDX 10 13 9 14 8 15 7 16 5 17 2 18 4 19 3 20 6 21 1 22
REMARK H PARENT 17 12 4 23
ROOT
ATOM      1  O   UNL     1      -2.151  -8.574   1.357  1.00  0.00    -0.490 OA
ENDROOT
BRANCH   1   2
ATOM      2  C   UNL     1      -3.099  -9.538   1.501  1.00  0.00     0.155 A 
ATOM      3  C   UNL     1      -5.363 -10.298   1.222  1.00  0.00     0.063 A 
ATOM      4  C   UNL     1      -5.018 -11.524   1.796  1.00  0.00     0.019 A 
ATOM      5  C   UNL     1      -4.393  -9.304   1.077  1.00  0.00     0.065 A 
ATOM      6  C   UNL     1      -3.723 -11.751   2.211  1.00  0.00     0.044 A 
ATOM      7  C   UNL     1      -2.762 -10.765   2.062  1.00  0.00     0.165 A 
ATOM      8  F   UNL     1      -1.494 -10.994   2.470  1.00  0.00    -0.203 F 
BRANCH   3   9
ATOM      9  C   UNL     1      -6.748 -10.052   0.776  1.00  0.00     0.335 C 
ATOM     10  O   UNL     1      -7.490  -9.364   1.448  1.00  0.00    -0.246 OA
BRANCH   9  11
ATOM     11  O   UNL     1      -7.188 -10.586  -0.380  1.00  0.00    -0.478 OA
ATOM     12  H   UNL     1      -7.324 -11.544  -0.398  1.00  0.00     0.297 HD
ENDBRANCH   9  11
ENDBRANCH   3   9
ENDBRANCH   1   2
BRANCH   1  13
ATOM     13  C   UNL     1      -2.169  -7.823   0.140  1.00  0.00     0.230 C 
BRANCH  13  14
ATOM     14  C   UNL     1      -1.078  -6.752   0.186  1.00  0.00     0.046 C 
BRANCH  14  15
ATOM     15  C   UNL     1      -0.986  -6.178   1.602  1.00  0.00     0.043 C 
BRANCH  15  16
ATOM     16  C   UNL     1      -1.968  -5.045   1.751  1.00  0.00    -0.004 A 
ATOM     17  C   UNL     1      -1.892  -3.840   1.139  1.00  0.00     0.036 A 
ATOM     18  C   UNL     1      -3.123  -5.055   2.540  1.00  0.00     0.063 A 
ATOM     19  N   UNL     1      -2.957  -3.111   1.533  1.00  0.00    -0.282 N 
ATOM     20  N   UNL     1      -3.713  -3.894   2.416  1.00  0.00    -0.181 NA
ATOM     21  C   UNL     1      -0.812  -3.394   0.189  1.00  0.00     0.066 C 
ATOM     22  C   UNL     1      -3.599  -6.201   3.397  1.00  0.00     0.069 C 
ATOM     23  H   UNL     1      -3.163  -2.205   1.255  1.00  0.00     0.190 HD
ENDBRANCH  15  16
ENDBRANCH  14  15
ENDBRANCH  13  14
ENDBRANCH   1  13
TORSDOF 7
ENDMDL
MODEL 6
REMARK VINA RESULT:    -4.866      3.854      7.222
REMARK INTER + INTRA:          -7.408
REMARK INTER:                  -6.563
REMARK INTRA:                  -0.844
REMARK UNBOUND:                -0.693
REMARK SMILES Cc1n[nH]c(C)c1CCCOc1cc(C(=O)O)ccc1F
REMARK SMILES IDX 11 1 12 2 14 3 18 4 13 5 19 6 20 7 21 8 15 9 16 10 17 11
REMARK SMILES IDX 10 13 9 14 8 15 7 16 5 17 2 18 4 19 3 20 6 21 1 22
REMARK H PARENT 17 12 4 23
ROOT
ATOM      1  O   UNL     1      -4.023  -7.780   1.164  1.00  0.00    -0.490 OA
ENDROOT
BRANCH   1   2
ATOM      2  C   UNL     1      -4.197  -9.104   1.417  1.00  0.00     0.155 A 
ATOM      3  C   UNL     1      -3.332 -11.216   2.174  1.00  0.00     0.063 A 
ATOM      4  C   UNL     1      -4.576 -11.807   1.936  1.00  0.00     0.019 A 
ATOM      5  C   UNL     1      -3.148  -9.857   1.911  1.00  0.00     0.065 A 
ATOM      6  C   UNL     1      -5.618 -11.046   1.449  1.00  0.00     0.044 A 
ATOM      7  C   UNL     1      -5.435  -9.697   1.193  1.00  0.00     0.165 A 
ATOM      8  F   UNL     1      -6.460  -8.958   0.716  1.00  0.00    -0.203 F 
BRANCH   3   9
ATOM      9  C   UNL     1      -2.215 -12.028   2.696  1.00  0.00     0.335 C 
ATOM     10  O   UNL     1      -2.359 -13.221   2.868  1.00  0.00    -0.246 OA
BRANCH   9  11
ATOM     11  O   UNL     1      -1.033 -11.444   2.976  1.00  0.00    -0.478 OA
ATOM     12  H   UNL     1      -0.289 -12.031   3.175  1.00  0.00     0.297 HD
ENDBRANCH   9  11
ENDBRANCH   3   9
ENDBRANCH   1   2
BRANCH   1  13
ATOM     13  C   UNL     1      -3.266  -7.031   2.118  1.00  0.00     0.230 C 
BRANCH  13  14
ATOM     14  C   UNL     1      -3.119  -5.588   1.632  1.00  0.00     0.046 C 
BRANCH  14  15
ATOM     15  C   UNL     1      -2.958  -5.576   0.110  1.00  0.00     0.043 C 
BRANCH  15  16
ATOM     16  C   UNL     1      -1.499  -5.702  -0.243  1.00  0.00    -0.004 A 
ATOM     17  C   UNL     1      -0.543  -4.770  -0.022  1.00  0.00     0.036 A 
ATOM     18  C   UNL     1      -0.891  -6.806  -0.851  1.00  0.00     0.063 A 
ATOM     19  N   UNL     1       0.627  -5.264  -0.480  1.00  0.00    -0.282 N 
ATOM     20  N   UNL     1       0.381  -6.542  -1.000  1.00  0.00    -0.181 NA
ATOM     21  C   UNL     1      -0.748  -3.423   0.620  1.00  0.00     0.066 C 
ATOM     22  C   UNL     1      -1.586  -8.076  -1.273  1.00  0.00     0.069 C 
ATOM     23  H   UNL     1       1.485  -4.814  -0.455  1.00  0.00     0.190 HD
ENDBRANCH  15  16
ENDBRANCH  14  15
ENDBRANCH  13  14
ENDBRANCH   1  13
TORSDOF 7
ENDMDL
MODEL 7
REMARK VINA RESULT:    -4.830      3.864      7.304
REMARK INTER + INTRA:          -7.358
REMARK INTER:                  -6.487
REMARK INTRA:                  -0.871
REMARK UNBOUND:                -0.693
REMARK SMILES Cc1n[nH]c(C)c1CCCOc1cc(C(=O)O)ccc1F
REMARK SMILES IDX 11 1 12 2 14 3 18 4 13 5 19 6 20 7 21 8 15 9 16 10 17 11
REMARK SMILES IDX 10 13 9 14 8 15 7 16 5 17 2 18 4 19 3 20 6 21 1 22
REMARK H PARENT 17 12 4 23
ROOT
ATOM      1  O   UNL     1      -4.037  -7.769   1.173  1.00  0.00    -0.490 OA
ENDROOT
BRANCH   1   2
ATOM      2  C   UNL     1      -4.173  -9.097   1.433  1.00  0.00     0.155 A 
ATOM      3  C   UNL     1      -3.239 -11.185   2.174  1.00  0.00     0.063 A 
ATOM      4  C   UNL     1      -4.474 -11.806   1.967  1.00  0.00     0.019 A 
ATOM      5  C   UNL     1      -3.095  -9.823   1.904  1.00  0.00     0.065 A 
ATOM      6  C   UNL     1      -5.545 -11.072   1.503  1.00  0.00     0.044 A 
ATOM      7  C   UNL     1      -5.401  -9.720   1.240  1.00  0.00     0.165 A 
ATOM      8  F   UNL     1      -6.454  -9.007   0.786  1.00  0.00    -0.203 F 
BRANCH   3   9
ATOM      9  C   UNL     1      -2.091 -11.968   2.671  1.00  0.00     0.335 C 
ATOM     10  O   UNL     1      -1.072 -11.402   3.010  1.00  0.00    -0.246 OA
BRANCH   9  11
ATOM     11  O   UNL     1      -2.176 -13.310   2.753  1.00  0.00    -0.478 OA
ATOM     12  H   UNL     1      -3.039 -13.682   2.982  1.00  0.00     0.297 HD
ENDBRANCH   9  11
ENDBRANCH   3   9
ENDBRANCH   1   2
BRANCH   1  13
ATOM     13  C   UNL     1      -3.336  -6.987   2.144  1.00  0.00     0.230 C 
BRANCH  13  14
ATOM     14  C   UNL     1      -3.144  -5.566   1.610  1.00  0.00     0.046 C 
BRANCH  14  15
ATOM     15  C   UNL     1      -2.946  -5.614   0.093  1.00  0.00     0.043 C 
BRANCH  15  16
ATOM     16  C   UNL     1      -1.477  -5.730  -0.220  1.00  0.00    -0.004 A 
ATOM     17  C   UNL     1      -0.865  -6.795  -0.789  1.00  0.00     0.036 A 
ATOM     18  C   UNL     1      -0.504  -4.753   0.021  1.00  0.00     0.063 A 
ATOM     19  N   UNL     1       0.448  -6.505  -0.898  1.00  0.00    -0.282 N 
ATOM     20  N   UNL     1       0.651  -5.219  -0.379  1.00  0.00    -0.181 NA
ATOM     21  C   UNL     1      -1.532  -8.074  -1.222  1.00  0.00     0.066 C 
ATOM     22  C   UNL     1      -0.744  -3.402   0.644  1.00  0.00     0.069 C 
ATOM     23  H   UNL     1       1.131  -7.084  -1.269  1.00  0.00     0.190 HD
ENDBRANCH  15  16
ENDBRANCH  14  15
ENDBRANCH  13  14
ENDBRANCH   1  13
TORSDOF 7
ENDMDL
MODEL 8
REMARK VINA RESULT:    -4.759      4.248      7.817
REMARK INTER + INTRA:          -7.261
REMARK INTER:                  -6.713
REMARK INTRA:                  -0.548
REMARK UNBOUND:                -0.693
REMARK SMILES Cc1n[nH]c(C)c1CCCOc1cc(C(=O)O)ccc1F
REMARK SMILES IDX 11 1 12 2 14 3 18 4 13 5 19 6 20 7 21 8 15 9 16 10 17 11
REMARK SMILES IDX 10 13 9 14 8 15 7 16 5 17 2 18 4 19 3 20 6 21 1 22
REMARK H PARENT 17 12 4 23
ROOT
ATOM      1  O   UNL     1      -4.286  -8.206   1.134  1.00  0.00    -0.490 OA
ENDROOT
BRANCH   1   2
ATOM      2  C   UNL     1      -4.609  -9.504   1.380  1.00  0.00     0.155 A 
ATOM      3  C   UNL     1      -3.981 -11.712   2.096  1.00  0.00     0.063 A 
ATOM      4  C   UNL     1      -5.291 -12.149   1.885  1.00  0.00     0.019 A 
ATOM      5  C   UNL     1      -3.644 -10.381   1.840  1.00  0.00     0.065 A 
ATOM      6  C   UNL     1      -6.248 -11.265   1.432  1.00  0.00     0.044 A 
ATOM      7  C   UNL     1      -5.913  -9.945   1.183  1.00  0.00     0.165 A 
ATOM      8  F   UNL     1      -6.855  -9.084   0.739  1.00  0.00    -0.203 F 
BRANCH   3   9
ATOM      9  C   UNL     1      -2.954 -12.655   2.581  1.00  0.00     0.335 C 
ATOM     10  O   UNL     1      -3.212 -13.837   2.677  1.00  0.00    -0.246 OA
BRANCH   9  11
ATOM     11  O   UNL     1      -1.728 -12.204   2.912  1.00  0.00    -0.478 OA
ATOM     12  H   UNL     1      -1.619 -11.844   3.804  1.00  0.00     0.297 HD
ENDBRANCH   9  11
ENDBRANCH   3   9
ENDBRANCH   1   2
BRANCH   1  13
ATOM     13  C   UNL     1      -3.549  -7.518   2.148  1.00  0.00     0.230 C 
BRANCH  13  14
ATOM     14  C   UNL     1      -2.140  -7.214   1.635  1.00  0.00     0.046 C 
BRANCH  14  15
ATOM     15  C   UNL     1      -2.233  -6.457   0.308  1.00  0.00     0.043 C 
BRANCH  15  16
ATOM     16  C   UNL     1      -1.473  -5.160   0.415  1.00  0.00    -0.004 A 
ATOM     17  C   UNL     1      -0.168  -4.975   0.110  1.00  0.00     0.036 A 
ATOM     18  C   UNL     1      -1.994  -3.933   0.840  1.00  0.00     0.063 A 
ATOM     19  N   UNL     1       0.128  -3.678   0.341  1.00  0.00    -0.282 N 
ATOM     20  N   UNL     1      -1.034  -3.046   0.802  1.00  0.00    -0.181 NA
ATOM     21  C   UNL     1       0.784  -6.027  -0.396  1.00  0.00     0.066 C 
ATOM     22  C   UNL     1      -3.414  -3.680   1.277  1.00  0.00     0.069 C 
ATOM     23  H   UNL     1       0.993  -3.259   0.211  1.00  0.00     0.190 HD
ENDBRANCH  15  16
ENDBRANCH  14  15
ENDBRANCH  13  14
ENDBRANCH   1  13
TORSDOF 7
ENDMDL
MODEL 9
REMARK VINA RESULT:    -4.664      4.177      7.284
REMARK INTER + INTRA:          -7.129
REMARK INTER:                  -6.614
REMARK INTRA:                  -0.515
REMARK UNBOUND:                -0.693
REMARK SMILES Cc1n[nH]c(C)c1CCCOc1cc(C(=O)O)ccc1F
REMARK SMILES IDX 11 1 12 2 14 3 18 4 13 5 19 6 20 7 21 8 15 9 16 10 17 11
REMARK SMILES IDX 10 13 9 14 8 15 7 16 5 17 2 18 4 19 3 20 6 21 1 22
REMARK H PARENT 17 12 4 23
ROOT
ATOM      1  O   UNL     1      -2.494  -9.037   0.737  1.00  0.00    -0.490 OA
ENDROOT
BRANCH   1   2
ATOM      2  C   UNL     1      -3.467  -9.913   1.101  1.00  0.00     0.155 A 
ATOM      3  C   UNL     1      -5.784 -10.556   1.156  1.00  0.00     0.063 A 
ATOM      4  C   UNL     1      -5.440 -11.722   1.845  1.00  0.00     0.019 A 
ATOM      5  C   UNL     1      -4.787  -9.651   0.785  1.00  0.00     0.065 A 
ATOM      6  C   UNL     1      -4.120 -11.978   2.151  1.00  0.00     0.044 A 
ATOM      7  C   UNL     1      -3.133 -11.081   1.777  1.00  0.00     0.165 A 
ATOM      8  F   UNL     1      -1.841 -11.338   2.080  1.00  0.00    -0.203 F 
BRANCH   3   9
ATOM      9  C   UNL     1      -7.196 -10.279   0.827  1.00  0.00     0.335 C 
ATOM     10  O   UNL     1      -7.522  -9.181   0.424  1.00  0.00    -0.246 OA
BRANCH   9  11
ATOM     11  O   UNL     1      -8.122 -11.247   0.968  1.00  0.00    -0.478 OA
ATOM     12  H   UNL     1      -8.983 -11.095   0.553  1.00  0.00     0.297 HD
ENDBRANCH   9  11
ENDBRANCH   3   9
ENDBRANCH   1   2
BRANCH   1  13
ATOM     13  C   UNL     1      -2.086  -8.077   1.715  1.00  0.00     0.230 C 
BRANCH  13  14
ATOM     14  C   UNL     1      -2.920  -6.804   1.557  1.00  0.00     0.046 C 
BRANCH  14  15
ATOM     15  C   UNL     1      -2.652  -6.187   0.182  1.00  0.00     0.043 C 
BRANCH  15  16
ATOM     16  C   UNL     1      -1.706  -5.024   0.328  1.00  0.00    -0.004 A 
ATOM     17  C   UNL     1      -0.385  -5.030   0.032  1.00  0.00     0.036 A 
ATOM     18  C   UNL     1      -2.037  -3.745   0.787  1.00  0.00     0.063 A 
ATOM     19  N   UNL     1       0.103  -3.801   0.300  1.00  0.00    -0.282 N 
ATOM     20  N   UNL     1      -0.953  -3.013   0.777  1.00  0.00    -0.181 NA
ATOM     21  C   UNL     1       0.400  -6.200  -0.502  1.00  0.00     0.066 C 
ATOM     22  C   UNL     1      -3.405  -3.291   1.228  1.00  0.00     0.069 C 
ATOM     23  H   UNL     1       1.022  -3.514   0.185  1.00  0.00     0.190 HD
ENDBRANCH  15  16
ENDBRANCH  14  15
ENDBRANCH  13  14
ENDBRANCH   1  13
TORSDOF 7
ENDMDL
