MODEL 1
REMARK VINA RESULT:    -4.995      0.000      0.000
REMARK INTER + INTRA:          -6.011
REMARK INTER:                  -5.725
REMARK INTRA:                  -0.286
REMARK UNBOUND:                -0.286
REMARK SMILES O=C(O)c1ccc2nc(-c3cc(Cl)cc(Cl)c3)oc2c1
REMARK SMILES IDX 5 1 6 2 20 3 8 4 18 5 4 6 9 7 7 8 19 9 2 10 1 11 3 12 10 14
REMARK SMILES IDX 11 15 17 16 12 17 15 18 14 19 13 20 16 21
REMARK H PARENT 3 13
ROOT
ATOM      1  C   UNL     1      -0.795  -5.438   1.569  1.00  0.00     0.018 A 
ATOM      2  C   UNL     1      -1.901  -5.966   2.164  1.00  0.00     0.033 A 
ATOM      3  C   UNL     1      -0.884  -7.137  -0.159  1.00  0.00     0.065 A 
ATOM      4  N   UNL     1      -3.602  -7.823   1.966  1.00  0.00    -0.209 NA
ATOM      5  O   UNL     1      -2.801  -8.732   0.159  1.00  0.00    -0.436 OA
ATOM      6  C   UNL     1      -0.274  -6.013   0.401  1.00  0.00     0.063 A 
ATOM      7  C   UNL     1      -3.762  -8.793   1.099  1.00  0.00     0.227 A 
ATOM      8  C   UNL     1      -2.522  -7.094   1.613  1.00  0.00     0.110 A 
ATOM      9  C   UNL     1      -2.003  -7.679   0.445  1.00  0.00     0.156 A 
ENDROOT
BRANCH   6  10
ATOM     10  C   UNL     1       0.919  -5.429  -0.237  1.00  0.00     0.335 C 
ATOM     11  O   UNL     1       1.635  -4.674   0.390  1.00  0.00    -0.246 OA
BRANCH  10  12
ATOM     12  O   UNL     1       1.216  -5.732  -1.517  1.00  0.00    -0.478 OA
ATOM     13  H   UNL     1       1.861  -6.436  -1.663  1.00  0.00     0.297 HD
ENDBRANCH  10  12
ENDBRANCH   6  10
BRANCH   7  14
ATOM     14  C   UNL     1      -4.838  -9.804   1.149  1.00  0.00     0.040 A 
ATOM     15  C   UNL     1      -6.101  -9.510   0.633  1.00  0.00     0.034 A 
ATOM     16  C   UNL     1      -4.596 -11.058   1.714  1.00  0.00     0.034 A 
ATOM     17  C   UNL     1      -7.102 -10.460   0.681  1.00  0.00     0.043 A 
ATOM     18  C   UNL     1      -5.605 -11.999   1.756  1.00  0.00     0.043 A 
ATOM     19  C   UNL     1      -6.855 -11.701   1.242  1.00  0.00     0.041 A 
ATOM     20  Cl  UNL     1      -8.673 -10.096   0.039  1.00  0.00    -0.084 Cl
ATOM     21  Cl  UNL     1      -5.306 -13.559   2.458  1.00  0.00    -0.084 Cl
ENDBRANCH   7  14
TORSDOF 3
ENDMDL
MODEL 2
REMARK VINA RESULT:    -4.858      3.980      7.390
REMARK INTER + INTRA:          -5.854
REMARK INTER:                  -5.559
REMARK INTRA:                  -0.295
REMARK UNBOUND:                -0.286
REMARK SMILES O=C(O)c1ccc2nc(-c3cc(Cl)cc(Cl)c3)oc2c1
REMARK SMILES IDX 5 1 6 2 20 3 8 4 18 5 4 6 9 7 7 8 19 9 2 10 1 11 3 12 10 14
REMARK SMILES IDX 11 15 17 16 12 17 15 18 14 19 13 20 16 21
REMARK H PARENT 3 13
ROOT
ATOM      1  C   UNL     1      -5.046 -11.934   1.857  1.00  0.00     0.018 A 
ATOM      2  C   UNL     1      -5.263 -10.628   1.537  1.00  0.00     0.033 A 
ATOM      3  C   UNL     1      -2.686 -11.485   2.193  1.00  0.00     0.065 A 
ATOM      4  N   UNL     1      -4.102  -8.400   1.268  1.00  0.00    -0.209 NA
ATOM      5  O   UNL     1      -2.097  -9.077   1.775  1.00  0.00    -0.436 OA
ATOM      6  C   UNL     1      -3.759 -12.379   2.190  1.00  0.00     0.063 A 
ATOM      7  C   UNL     1      -2.855  -8.025   1.413  1.00  0.00     0.227 A 
ATOM      8  C   UNL     1      -4.196  -9.720   1.535  1.00  0.00     0.110 A 
ATOM      9  C   UNL     1      -2.902 -10.160   1.863  1.00  0.00     0.156 A 
ENDROOT
BRANCH   6  10
ATOM     10  C   UNL     1      -3.537 -13.794   2.541  1.00  0.00     0.335 C 
ATOM     11  O   UNL     1      -2.418 -14.263   2.492  1.00  0.00    -0.246 OA
BRANCH  10  12
ATOM     12  O   UNL     1      -4.576 -14.567   2.915  1.00  0.00    -0.478 OA
ATOM     13  H   UNL     1      -4.466 -15.091   3.719  1.00  0.00     0.297 HD
ENDBRANCH  10  12
ENDBRANCH   6  10
BRANCH   7  14
ATOM     14  C   UNL     1      -2.355  -6.650   1.208  1.00  0.00     0.040 A 
ATOM     15  C   UNL     1      -1.039  -6.436   0.797  1.00  0.00     0.034 A 
ATOM     16  C   UNL     1      -3.199  -5.558   1.425  1.00  0.00     0.034 A 
ATOM     17  C   UNL     1      -0.578  -5.148   0.606  1.00  0.00     0.043 A 
ATOM     18  C   UNL     1      -2.727  -4.276   1.231  1.00  0.00     0.043 A 
ATOM     19  C   UNL     1      -1.420  -4.070   0.823  1.00  0.00     0.041 A 
ATOM     20  Cl  UNL     1       1.058  -4.880   0.094  1.00  0.00    -0.084 Cl
ATOM     21  Cl  UNL     1      -3.774  -2.917   1.500  1.00  0.00    -0.084 Cl
ENDBRANCH   7  14
TORSDOF 3
ENDMDL
MODEL 3
REMARK VINA RESULT:    -4.856      3.978      7.199
REMARK INTER + INTRA:          -5.852
REMARK INTER:                  -5.557
REMARK INTRA:                  -0.295
REMARK UNBOUND:                -0.286
REMARK SMILES O=C(O)c1ccc2nc(-c3cc(Cl)cc(Cl)c3)oc2c1
REMARK SMILES IDX 5 1 6 2 20 3 8 4 18 5 4 6 9 7 7 8 19 9 2 10 1 11 3 12 10 14
REMARK SMILES IDX 11 15 17 16 12 17 15 18 14 19 13 20 16 21
REMARK H PARENT 3 13
ROOT
ATOM      1  C   UNL     1      -5.060 -11.929   1.863  1.00  0.00     0.018 A 
ATOM      2  C   UNL     1      -5.279 -10.622   1.544  1.00  0.00     0.033 A 
ATOM      3  C   UNL     1      -2.701 -11.477   2.194  1.00  0.00     0.065 A 
ATOM      4  N   UNL     1      -4.122  -8.393   1.276  1.00  0.00    -0.209 NA
ATOM      5  O   UNL     1      -2.116  -9.068   1.778  1.00  0.00    -0.436 OA
ATOM      6  C   UNL     1      -3.772 -12.373   2.193  1.00  0.00     0.063 A 
ATOM      7  C   UNL     1      -2.876  -8.016   1.418  1.00  0.00     0.227 A 
ATOM      8  C   UNL     1      -4.214  -9.714   1.541  1.00  0.00     0.110 A 
ATOM      9  C   UNL     1      -2.918 -10.152   1.867  1.00  0.00     0.156 A 
ENDROOT
BRANCH   6  10
ATOM     10  C   UNL     1      -3.548 -13.787   2.542  1.00  0.00     0.335 C 
ATOM     11  O   UNL     1      -2.427 -14.253   2.497  1.00  0.00    -0.246 OA
BRANCH  10  12
ATOM     12  O   UNL     1      -4.586 -14.564   2.910  1.00  0.00    -0.478 OA
ATOM     13  H   UNL     1      -4.380 -15.457   3.215  1.00  0.00     0.297 HD
ENDBRANCH  10  12
ENDBRANCH   6  10
BRANCH   7  14
ATOM     14  C   UNL     1      -2.378  -6.640   1.213  1.00  0.00     0.040 A 
ATOM     15  C   UNL     1      -3.222  -5.550   1.429  1.00  0.00     0.034 A 
ATOM     16  C   UNL     1      -1.061  -6.426   0.802  1.00  0.00     0.034 A 
ATOM     17  C   UNL     1      -2.750  -4.267   1.237  1.00  0.00     0.043 A 
ATOM     18  C   UNL     1      -0.601  -5.138   0.613  1.00  0.00     0.043 A 
ATOM     19  C   UNL     1      -1.443  -4.061   0.829  1.00  0.00     0.041 A 
ATOM     20  Cl  UNL     1      -3.798  -2.909   1.505  1.00  0.00    -0.084 Cl
ATOM     21  Cl  UNL     1       1.037  -4.869   0.101  1.00  0.00    -0.084 Cl
ENDBRANCH   7  14
TORSDOF 3
ENDMDL
MODEL 4
REMARK VINA RESULT:    -4.825      3.958      7.715
REMARK INTER + INTRA:          -5.816
REMARK INTER:                  -5.532
REMARK INTRA:                  -0.284
REMARK UNBOUND:                -0.286
REMARK SMILES O=C(O)c1ccc2nc(-c3cc(Cl)cc(Cl)c3)oc2c1
REMARK SMILES IDX 5 1 6 2 20 3 8 4 18 5 4 6 9 7 7 8 19 9 2 10 1 11 3 12 10 14
REMARK SMILES IDX 11 15 17 16 12 17 15 18 14 19 13 20 16 21
REMARK H PARENT 3 13
ROOT
ATOM      1  C   UNL     1      -5.269 -11.921   1.910  1.00  0.00     0.018 A 
ATOM      2  C   UNL     1      -4.056 -11.301   1.910  1.00  0.00     0.033 A 
ATOM      3  C   UNL     1      -6.327  -9.902   1.083  1.00  0.00     0.065 A 
ATOM      4  N   UNL     1      -2.915  -9.107   1.392  1.00  0.00    -0.209 NA
ATOM      5  O   UNL     1      -4.690  -8.023   0.754  1.00  0.00    -0.436 OA
ATOM      6  C   UNL     1      -6.418 -11.233   1.496  1.00  0.00     0.063 A 
ATOM      7  C   UNL     1      -3.359  -7.957   0.949  1.00  0.00     0.227 A 
ATOM      8  C   UNL     1      -3.951  -9.967   1.498  1.00  0.00     0.110 A 
ATOM      9  C   UNL     1      -5.099  -9.268   1.086  1.00  0.00     0.156 A 
ENDROOT
BRANCH   6  10
ATOM     10  C   UNL     1      -7.724 -11.916   1.495  1.00  0.00     0.335 C 
ATOM     11  O   UNL     1      -8.477 -11.789   2.440  1.00  0.00    -0.246 OA
BRANCH  10  12
ATOM     12  O   UNL     1      -8.084 -12.682   0.446  1.00  0.00    -0.478 OA
ATOM     13  H   UNL     1      -8.904 -12.448  -0.008  1.00  0.00     0.297 HD
ENDBRANCH  10  12
ENDBRANCH   6  10
BRANCH   7  14
ATOM     14  C   UNL     1      -2.524  -6.764   0.703  1.00  0.00     0.040 A 
ATOM     15  C   UNL     1      -1.195  -6.909   0.301  1.00  0.00     0.034 A 
ATOM     16  C   UNL     1      -3.061  -5.486   0.872  1.00  0.00     0.034 A 
ATOM     17  C   UNL     1      -0.420  -5.790   0.072  1.00  0.00     0.043 A 
ATOM     18  C   UNL     1      -2.275  -4.375   0.639  1.00  0.00     0.043 A 
ATOM     19  C   UNL     1      -0.958  -4.525   0.241  1.00  0.00     0.041 A 
ATOM     20  Cl  UNL     1       1.233  -5.968  -0.428  1.00  0.00    -0.084 Cl
ATOM     21  Cl  UNL     1      -2.941  -2.784   0.849  1.00  0.00    -0.084 Cl
ENDBRANCH   7  14
TORSDOF 3
ENDMDL
MODEL 5
REMARK VINA RESULT:    -4.822      3.958      7.513
REMARK INTER + INTRA:          -5.812
REMARK INTER:                  -5.528
REMARK INTRA:                  -0.284
REMARK UNBOUND:                -0.286
REMARK SMILES O=C(O)c1ccc2nc(-c3cc(Cl)cc(Cl)c3)oc2c1
REMARK SMILES IDX 5 1 6 2 20 3 8 4 18 5 4 6 9 7 7 8 19 9 2 10 1 11 3 12 10 14
REMARK SMILES IDX 11 15 17 16 12 17 15 18 14 19 13 20 16 21
REMARK H PARENT 3 13
ROOT
ATOM      1  C   UNL     1      -5.269 -11.916   1.911  1.00  0.00     0.018 A 
ATOM      2  C   UNL     1      -4.055 -11.296   1.910  1.00  0.00     0.033 A 
ATOM      3  C   UNL     1      -6.327  -9.898   1.081  1.00  0.00     0.065 A 
ATOM      4  N   UNL     1      -2.914  -9.103   1.391  1.00  0.00    -0.209 NA
ATOM      5  O   UNL     1      -4.689  -8.019   0.752  1.00  0.00    -0.436 OA
ATOM      6  C   UNL     1      -6.417 -11.228   1.496  1.00  0.00     0.063 A 
ATOM      7  C   UNL     1      -3.359  -7.953   0.948  1.00  0.00     0.227 A 
ATOM      8  C   UNL     1      -3.950  -9.962   1.498  1.00  0.00     0.110 A 
ATOM      9  C   UNL     1      -5.098  -9.264   1.084  1.00  0.00     0.156 A 
ENDROOT
BRANCH   6  10
ATOM     10  C   UNL     1      -7.724 -11.911   1.494  1.00  0.00     0.335 C 
ATOM     11  O   UNL     1      -8.474 -11.788   2.442  1.00  0.00    -0.246 OA
BRANCH  10  12
ATOM     12  O   UNL     1      -8.085 -12.673   0.443  1.00  0.00    -0.478 OA
ATOM     13  H   UNL     1      -7.376 -13.108  -0.049  1.00  0.00     0.297 HD
ENDBRANCH  10  12
ENDBRANCH   6  10
BRANCH   7  14
ATOM     14  C   UNL     1      -2.523  -6.760   0.701  1.00  0.00     0.040 A 
ATOM     15  C   UNL     1      -3.058  -5.482   0.866  1.00  0.00     0.034 A 
ATOM     16  C   UNL     1      -1.193  -6.907   0.300  1.00  0.00     0.034 A 
ATOM     17  C   UNL     1      -2.272  -4.371   0.635  1.00  0.00     0.043 A 
ATOM     18  C   UNL     1      -0.417  -5.789   0.072  1.00  0.00     0.043 A 
ATOM     19  C   UNL     1      -0.954  -4.524   0.237  1.00  0.00     0.041 A 
ATOM     20  Cl  UNL     1      -2.936  -2.781   0.840  1.00  0.00    -0.084 Cl
ATOM     21  Cl  UNL     1       1.237  -5.970  -0.427  1.00  0.00    -0.084 Cl
ENDBRANCH   7  14
TORSDOF 3
ENDMDL
MODEL 6
REMARK VINA RESULT:    -4.811      1.928      2.233
REMARK INTER + INTRA:          -5.800
REMARK INTER:                  -5.502
REMARK INTRA:                  -0.297
REMARK UNBOUND:                -0.286
REMARK SMILES O=C(O)c1ccc2nc(-c3cc(Cl)cc(Cl)c3)oc2c1
REMARK SMILES IDX 5 1 6 2 20 3 8 4 18 5 4 6 9 7 7 8 19 9 2 10 1 11 3 12 10 14
REMARK SMILES IDX 11 15 17 16 12 17 15 18 14 19 13 20 16 21
REMARK H PARENT 3 13
ROOT
ATOM      1  C   UNL     1      -0.456  -5.063   0.886  1.00  0.00     0.018 A 
ATOM      2  C   UNL     1      -0.473  -6.393   1.184  1.00  0.00     0.033 A 
ATOM      3  C   UNL     1      -2.864  -5.073   0.599  1.00  0.00     0.065 A 
ATOM      4  N   UNL     1      -2.012  -8.380   1.443  1.00  0.00    -0.209 NA
ATOM      5  O   UNL     1      -3.869  -7.345   0.982  1.00  0.00    -0.436 OA
ATOM      6  C   UNL     1      -1.649  -4.387   0.593  1.00  0.00     0.063 A 
ATOM      7  C   UNL     1      -3.308  -8.522   1.317  1.00  0.00     0.227 A 
ATOM      8  C   UNL     1      -1.685  -7.094   1.194  1.00  0.00     0.110 A 
ATOM      9  C   UNL     1      -2.885  -6.423   0.895  1.00  0.00     0.156 A 
ENDROOT
BRANCH   6  10
ATOM     10  C   UNL     1      -1.619  -2.947   0.278  1.00  0.00     0.335 C 
ATOM     11  O   UNL     1      -0.559  -2.396   0.054  1.00  0.00    -0.246 OA
BRANCH  10  12
ATOM     12  O   UNL     1      -2.766  -2.241   0.240  1.00  0.00    -0.478 OA
ATOM     13  H   UNL     1      -2.862  -1.596  -0.473  1.00  0.00     0.297 HD
ENDBRANCH  10  12
ENDBRANCH   6  10
BRANCH   7  14
ATOM     14  C   UNL     1      -4.043  -9.789   1.512  1.00  0.00     0.040 A 
ATOM     15  C   UNL     1      -5.413  -9.851   1.250  1.00  0.00     0.034 A 
ATOM     16  C   UNL     1      -3.371 -10.928   1.960  1.00  0.00     0.034 A 
ATOM     17  C   UNL     1      -6.094 -11.038   1.434  1.00  0.00     0.043 A 
ATOM     18  C   UNL     1      -4.064 -12.108   2.139  1.00  0.00     0.043 A 
ATOM     19  C   UNL     1      -5.422 -12.164   1.878  1.00  0.00     0.041 A 
ATOM     20  Cl  UNL     1      -7.798 -11.119   1.109  1.00  0.00    -0.084 Cl
ATOM     21  Cl  UNL     1      -3.229 -13.526   2.696  1.00  0.00    -0.084 Cl
ENDBRANCH   7  14
TORSDOF 3
ENDMDL
MODEL 7
REMARK VINA RESULT:    -4.796      1.958      2.992
REMARK INTER + INTRA:          -5.783
REMARK INTER:                  -5.485
REMARK INTRA:                  -0.297
REMARK UNBOUND:                -0.286
REMARK SMILES O=C(O)c1ccc2nc(-c3cc(Cl)cc(Cl)c3)oc2c1
REMARK SMILES IDX 5 1 6 2 20 3 8 4 18 5 4 6 9 7 7 8 19 9 2 10 1 11 3 12 10 14
REMARK SMILES IDX 11 15 17 16 12 17 15 18 14 19 13 20 16 21
REMARK H PARENT 3 13
ROOT
ATOM      1  C   UNL     1      -0.490  -4.998   0.896  1.00  0.00     0.018 A 
ATOM      2  C   UNL     1      -0.497  -6.325   1.207  1.00  0.00     0.033 A 
ATOM      3  C   UNL     1      -2.893  -5.037   0.575  1.00  0.00     0.065 A 
ATOM      4  N   UNL     1      -2.018  -8.325   1.466  1.00  0.00    -0.209 NA
ATOM      5  O   UNL     1      -3.879  -7.316   0.968  1.00  0.00    -0.436 OA
ATOM      6  C   UNL     1      -1.685  -4.337   0.579  1.00  0.00     0.063 A 
ATOM      7  C   UNL     1      -3.310  -8.483   1.323  1.00  0.00     0.227 A 
ATOM      8  C   UNL     1      -1.701  -7.038   1.208  1.00  0.00     0.110 A 
ATOM      9  C   UNL     1      -2.904  -6.384   0.886  1.00  0.00     0.156 A 
ENDROOT
BRANCH   6  10
ATOM     10  C   UNL     1      -1.666  -2.900   0.250  1.00  0.00     0.335 C 
ATOM     11  O   UNL     1      -0.612  -2.345   0.015  1.00  0.00    -0.246 OA
BRANCH  10  12
ATOM     12  O   UNL     1      -2.819  -2.202   0.211  1.00  0.00    -0.478 OA
ATOM     13  H   UNL     1      -3.636  -2.709   0.114  1.00  0.00     0.297 HD
ENDBRANCH  10  12
ENDBRANCH   6  10
BRANCH   7  14
ATOM     14  C   UNL     1      -4.035  -9.755   1.521  1.00  0.00     0.040 A 
ATOM     15  C   UNL     1      -3.354 -10.887   1.970  1.00  0.00     0.034 A 
ATOM     16  C   UNL     1      -5.405  -9.829   1.259  1.00  0.00     0.034 A 
ATOM     17  C   UNL     1      -4.038 -12.073   2.154  1.00  0.00     0.043 A 
ATOM     18  C   UNL     1      -6.077 -11.020   1.447  1.00  0.00     0.043 A 
ATOM     19  C   UNL     1      -5.396 -12.140   1.892  1.00  0.00     0.041 A 
ATOM     20  Cl  UNL     1      -3.194 -13.483   2.714  1.00  0.00    -0.084 Cl
ATOM     21  Cl  UNL     1      -7.780 -11.114   1.121  1.00  0.00    -0.084 Cl
ENDBRANCH   7  14
TORSDOF 3
ENDMDL
MODEL 8
REMARK VINA RESULT:    -4.780      1.644      2.710
REMARK INTER + INTRA:          -5.765
REMARK INTER:                  -5.467
REMARK INTRA:                  -0.298
REMARK UNBOUND:                -0.286
REMARK SMILES O=C(O)c1ccc2nc(-c3cc(Cl)cc(Cl)c3)oc2c1
REMARK SMILES IDX 5 1 6 2 20 3 8 4 18 5 4 6 9 7 7 8 19 9 2 10 1 11 3 12 10 14
REMARK SMILES IDX 11 15 17 16 12 17 15 18 14 19 13 20 16 21
REMARK H PARENT 3 13
ROOT
ATOM      1  C   UNL     1      -2.342  -4.356   0.372  1.00  0.00     0.018 A 
ATOM      2  C   UNL     1      -3.391  -5.220   0.468  1.00  0.00     0.033 A 
ATOM      3  C   UNL     1      -0.799  -6.126   0.978  1.00  0.00     0.065 A 
ATOM      4  N   UNL     1      -3.985  -7.618   0.996  1.00  0.00    -0.209 NA
ATOM      5  O   UNL     1      -1.963  -8.315   1.396  1.00  0.00    -0.436 OA
ATOM      6  C   UNL     1      -1.035  -4.797   0.623  1.00  0.00     0.063 A 
ATOM      7  C   UNL     1      -3.263  -8.658   1.334  1.00  0.00     0.227 A 
ATOM      8  C   UNL     1      -3.169  -6.556   0.824  1.00  0.00     0.110 A 
ATOM      9  C   UNL     1      -1.862  -7.005   1.082  1.00  0.00     0.156 A 
ENDROOT
BRANCH   6  10
ATOM     10  C   UNL     1       0.094  -3.855   0.509  1.00  0.00     0.335 C 
ATOM     11  O   UNL     1      -0.117  -2.661   0.438  1.00  0.00    -0.246 OA
BRANCH  10  12
ATOM     12  O   UNL     1       1.359  -4.319   0.483  1.00  0.00    -0.478 OA
ATOM     13  H   UNL     1       1.528  -5.159   0.930  1.00  0.00     0.297 HD
ENDBRANCH  10  12
ENDBRANCH   6  10
BRANCH   7  14
ATOM     14  C   UNL     1      -3.799 -10.007   1.609  1.00  0.00     0.040 A 
ATOM     15  C   UNL     1      -2.948 -11.025   2.040  1.00  0.00     0.034 A 
ATOM     16  C   UNL     1      -5.160 -10.269   1.436  1.00  0.00     0.034 A 
ATOM     17  C   UNL     1      -3.455 -12.284   2.296  1.00  0.00     0.043 A 
ATOM     18  C   UNL     1      -5.655 -11.531   1.696  1.00  0.00     0.043 A 
ATOM     19  C   UNL     1      -4.805 -12.537   2.123  1.00  0.00     0.041 A 
ATOM     20  Cl  UNL     1      -2.398 -13.552   2.834  1.00  0.00    -0.084 Cl
ATOM     21  Cl  UNL     1      -7.347 -11.859   1.482  1.00  0.00    -0.084 Cl
ENDBRANCH   7  14
TORSDOF 3
ENDMDL
MODEL 9
REMARK VINA RESULT:    -4.577      5.521      8.071
REMARK INTER + INTRA:          -5.532
REMARK INTER:                  -5.249
REMARK INTRA:                  -0.283
REMARK UNBOUND:                -0.286
REMARK SMILES O=C(O)c1ccc2nc(-c3cc(Cl)cc(Cl)c3)oc2c1
REMARK SMILES IDX 5 1 6 2 20 3 8 4 18 5 4 6 9 7 7 8 19 9 2 10 1 11 3 12 10 14
REMARK SMILES IDX 11 15 17 16 12 17 15 18 14 19 13 20 16 21
REMARK H PARENT 3 13
ROOT
ATOM      1  C   UNL     1      -1.987 -16.522   4.348  1.00  0.00     0.018 A 
ATOM      2  C   UNL     1      -2.691 -15.901   3.359  1.00  0.00     0.033 A 
ATOM      3  C   UNL     1      -1.310 -14.374   5.246  1.00  0.00     0.065 A 
ATOM      4  N   UNL     1      -3.311 -13.627   2.451  1.00  0.00    -0.209 NA
ATOM      5  O   UNL     1      -2.229 -12.444   3.922  1.00  0.00    -0.436 OA
ATOM      6  C   UNL     1      -1.291 -15.768   5.303  1.00  0.00     0.063 A 
ATOM      7  C   UNL     1      -3.017 -12.408   2.831  1.00  0.00     0.227 A 
ATOM      8  C   UNL     1      -2.719 -14.503   3.291  1.00  0.00     0.110 A 
ATOM      9  C   UNL     1      -2.019 -13.740   4.242  1.00  0.00     0.156 A 
ENDROOT
BRANCH   6  10
ATOM     10  C   UNL     1      -0.538 -16.450   6.371  1.00  0.00     0.335 C 
ATOM     11  O   UNL     1      -0.978 -16.475   7.503  1.00  0.00    -0.246 OA
BRANCH  10  12
ATOM     12  O   UNL     1       0.639 -17.045   6.093  1.00  0.00    -0.478 OA
ATOM     13  H   UNL     1       1.437 -16.619   6.431  1.00  0.00     0.297 HD
ENDBRANCH  10  12
ENDBRANCH   6  10
BRANCH   7  14
ATOM     14  C   UNL     1      -3.482 -11.177   2.160  1.00  0.00     0.040 A 
ATOM     15  C   UNL     1      -2.611 -10.100   1.988  1.00  0.00     0.034 A 
ATOM     16  C   UNL     1      -4.796 -11.085   1.696  1.00  0.00     0.034 A 
ATOM     17  C   UNL     1      -3.051  -8.952   1.360  1.00  0.00     0.043 A 
ATOM     18  C   UNL     1      -5.224  -9.932   1.069  1.00  0.00     0.043 A 
ATOM     19  C   UNL     1      -4.355  -8.868   0.902  1.00  0.00     0.041 A 
ATOM     20  Cl  UNL     1      -1.969  -7.613   1.144  1.00  0.00    -0.084 Cl
ATOM     21  Cl  UNL     1      -6.858  -9.816   0.492  1.00  0.00    -0.084 Cl
ENDBRANCH   7  14
TORSDOF 3
ENDMDL
