MODEL 1
REMARK VINA RESULT:    -4.981      0.000      0.000
REMARK INTER + INTRA:          -6.004
REMARK INTER:                  -5.709
REMARK INTRA:                  -0.295
REMARK UNBOUND:                -0.295
REMARK SMILES O=C(O)c1ccc2nc(-c3cc(Cl)cc(Cl)c3)oc2c1
REMARK SMILES IDX 5 1 6 2 20 3 8 4 18 5 4 6 9 7 7 8 19 9 2 10 1 11 3 12 10 14
REMARK SMILES IDX 11 15 17 16 12 17 15 18 14 19 13 20 16 21
REMARK H PARENT 3 13
ROOT
ATOM      1  C   UNL     1      -1.039   0.391  -2.786  1.00  0.00     0.018 A 
ATOM      2  C   UNL     1       0.098   0.498  -2.041  1.00  0.00     0.033 A 
ATOM      3  C   UNL     1      -2.337  -0.049  -0.786  1.00  0.00     0.065 A 
ATOM      4  N   UNL     1       0.973   0.378   0.325  1.00  0.00    -0.209 NA
ATOM      5  O   UNL     1      -0.926  -0.053   1.295  1.00  0.00    -0.436 OA
ATOM      6  C   UNL     1      -2.268   0.119  -2.170  1.00  0.00     0.063 A 
ATOM      7  C   UNL     1       0.392   0.150   1.477  1.00  0.00     0.227 A 
ATOM      8  C   UNL     1       0.043   0.332  -0.652  1.00  0.00     0.110 A 
ATOM      9  C   UNL     1      -1.186   0.054  -0.027  1.00  0.00     0.156 A 
ENDROOT
BRANCH   6  10
ATOM     10  C   UNL     1      -3.491   0.011  -2.986  1.00  0.00     0.335 C 
ATOM     11  O   UNL     1      -4.557   0.380  -2.534  1.00  0.00    -0.246 OA
BRANCH  10  12
ATOM     12  O   UNL     1      -3.428  -0.497  -4.232  1.00  0.00    -0.478 OA
ATOM     13  H   UNL     1      -2.628  -0.313  -4.742  1.00  0.00     0.297 HD
ENDBRANCH  10  12
ENDBRANCH   6  10
BRANCH   7  14
ATOM     14  C   UNL     1       1.083   0.119   2.783  1.00  0.00     0.040 A 
ATOM     15  C   UNL     1       0.355  -0.081   3.956  1.00  0.00     0.034 A 
ATOM     16  C   UNL     1       2.468   0.290   2.847  1.00  0.00     0.034 A 
ATOM     17  C   UNL     1       1.007  -0.111   5.173  1.00  0.00     0.043 A 
ATOM     18  C   UNL     1       3.108   0.258   4.069  1.00  0.00     0.043 A 
ATOM     19  C   UNL     1       2.380   0.060   5.230  1.00  0.00     0.041 A 
ATOM     20  Cl  UNL     1       0.104  -0.360   6.635  1.00  0.00    -0.084 Cl
ATOM     21  Cl  UNL     1       4.829   0.471   4.151  1.00  0.00    -0.084 Cl
ENDBRANCH   7  14
TORSDOF 3
ENDMDL
MODEL 2
REMARK VINA RESULT:    -4.981      0.011      2.019
REMARK INTER + INTRA:          -6.003
REMARK INTER:                  -5.709
REMARK INTRA:                  -0.295
REMARK UNBOUND:                -0.295
REMARK SMILES O=C(O)c1ccc2nc(-c3cc(Cl)cc(Cl)c3)oc2c1
REMARK SMILES IDX 5 1 6 2 20 3 8 4 18 5 4 6 9 7 7 8 19 9 2 10 1 11 3 12 10 14
REMARK SMILES IDX 11 15 17 16 12 17 15 18 14 19 13 20 16 21
REMARK H PARENT 3 13
ROOT
ATOM      1  C   UNL     1      -1.030   0.388  -2.793  1.00  0.00     0.018 A 
ATOM      2  C   UNL     1       0.106   0.494  -2.046  1.00  0.00     0.033 A 
ATOM      3  C   UNL     1      -2.332  -0.046  -0.794  1.00  0.00     0.065 A 
ATOM      4  N   UNL     1       0.978   0.374   0.322  1.00  0.00    -0.209 NA
ATOM      5  O   UNL     1      -0.924  -0.051   1.289  1.00  0.00    -0.436 OA
ATOM      6  C   UNL     1      -2.261   0.120  -2.178  1.00  0.00     0.063 A 
ATOM      7  C   UNL     1       0.395   0.148   1.473  1.00  0.00     0.227 A 
ATOM      8  C   UNL     1       0.048   0.329  -0.657  1.00  0.00     0.110 A 
ATOM      9  C   UNL     1      -1.182   0.055  -0.033  1.00  0.00     0.156 A 
ENDROOT
BRANCH   6  10
ATOM     10  C   UNL     1      -3.483   0.014  -2.995  1.00  0.00     0.335 C 
ATOM     11  O   UNL     1      -4.551   0.370  -2.538  1.00  0.00    -0.246 OA
BRANCH  10  12
ATOM     12  O   UNL     1      -3.416  -0.477  -4.248  1.00  0.00    -0.478 OA
ATOM     13  H   UNL     1      -2.843  -1.242  -4.390  1.00  0.00     0.297 HD
ENDBRANCH  10  12
ENDBRANCH   6  10
BRANCH   7  14
ATOM     14  C   UNL     1       1.084   0.117   2.780  1.00  0.00     0.040 A 
ATOM     15  C   UNL     1       2.467   0.284   2.847  1.00  0.00     0.034 A 
ATOM     16  C   UNL     1       0.352  -0.081   3.952  1.00  0.00     0.034 A 
ATOM     17  C   UNL     1       3.105   0.254   4.071  1.00  0.00     0.043 A 
ATOM     18  C   UNL     1       1.001  -0.109   5.171  1.00  0.00     0.043 A 
ATOM     19  C   UNL     1       2.374   0.057   5.231  1.00  0.00     0.041 A 
ATOM     20  Cl  UNL     1       4.826   0.463   4.157  1.00  0.00    -0.084 Cl
ATOM     21  Cl  UNL     1       0.093  -0.355   6.630  1.00  0.00    -0.084 Cl
ENDBRANCH   7  14
TORSDOF 3
ENDMDL
MODEL 3
REMARK VINA RESULT:    -4.536     14.671     15.956
REMARK INTER + INTRA:          -5.494
REMARK INTER:                  -5.213
REMARK INTRA:                  -0.281
REMARK UNBOUND:                -0.295
REMARK SMILES O=C(O)c1ccc2nc(-c3cc(Cl)cc(Cl)c3)oc2c1
REMARK SMILES IDX 5 1 6 2 20 3 8 4 18 5 4 6 9 7 7 8 19 9 2 10 1 11 3 12 10 14
REMARK SMILES IDX 11 15 17 16 12 17 15 18 14 19 13 20 16 21
REMARK H PARENT 3 13
ROOT
ATOM      1  C   UNL     1       1.918 -17.492   4.028  1.00  0.00     0.018 A 
ATOM      2  C   UNL     1       1.031 -17.006   3.116  1.00  0.00     0.033 A 
ATOM      3  C   UNL     1       2.007 -15.333   5.128  1.00  0.00     0.065 A 
ATOM      4  N   UNL     1      -0.233 -14.923   2.447  1.00  0.00    -0.209 NA
ATOM      5  O   UNL     1       0.536 -13.625   4.015  1.00  0.00    -0.436 OA
ATOM      6  C   UNL     1       2.416 -16.665   5.045  1.00  0.00     0.063 A 
ATOM      7  C   UNL     1      -0.274 -13.711   2.943  1.00  0.00     0.227 A 
ATOM      8  C   UNL     1       0.612 -15.671   3.187  1.00  0.00     0.110 A 
ATOM      9  C   UNL     1       1.110 -14.834   4.201  1.00  0.00     0.156 A 
ENDROOT
BRANCH   6  10
ATOM     10  C   UNL     1       3.371 -17.204   6.030  1.00  0.00     0.335 C 
ATOM     11  O   UNL     1       2.964 -17.707   7.058  1.00  0.00    -0.246 OA
BRANCH  10  12
ATOM     12  O   UNL     1       4.695 -17.138   5.791  1.00  0.00    -0.478 OA
ATOM     13  H   UNL     1       4.986 -17.287   4.881  1.00  0.00     0.297 HD
ENDBRANCH  10  12
ENDBRANCH   6  10
BRANCH   7  14
ATOM     14  C   UNL     1      -1.090 -12.603   2.405  1.00  0.00     0.040 A 
ATOM     15  C   UNL     1      -2.425 -12.818   2.059  1.00  0.00     0.034 A 
ATOM     16  C   UNL     1      -0.527 -11.336   2.239  1.00  0.00     0.034 A 
ATOM     17  C   UNL     1      -3.182 -11.778   1.557  1.00  0.00     0.043 A 
ATOM     18  C   UNL     1      -1.294 -10.304   1.736  1.00  0.00     0.043 A 
ATOM     19  C   UNL     1      -2.617 -10.524   1.395  1.00  0.00     0.041 A 
ATOM     20  Cl  UNL     1      -4.842 -12.043   1.127  1.00  0.00    -0.084 Cl
ATOM     21  Cl  UNL     1      -0.596  -8.727   1.529  1.00  0.00    -0.084 Cl
ENDBRANCH   7  14
TORSDOF 3
ENDMDL
MODEL 4
REMARK VINA RESULT:    -4.530     14.671     16.052
REMARK INTER + INTRA:          -5.487
REMARK INTER:                  -5.206
REMARK INTRA:                  -0.281
REMARK UNBOUND:                -0.295
REMARK SMILES O=C(O)c1ccc2nc(-c3cc(Cl)cc(Cl)c3)oc2c1
REMARK SMILES IDX 5 1 6 2 20 3 8 4 18 5 4 6 9 7 7 8 19 9 2 10 1 11 3 12 10 14
REMARK SMILES IDX 11 15 17 16 12 17 15 18 14 19 13 20 16 21
REMARK H PARENT 3 13
ROOT
ATOM      1  C   UNL     1       1.919 -17.491   4.028  1.00  0.00     0.018 A 
ATOM      2  C   UNL     1       1.032 -17.005   3.115  1.00  0.00     0.033 A 
ATOM      3  C   UNL     1       2.006 -15.332   5.128  1.00  0.00     0.065 A 
ATOM      4  N   UNL     1      -0.232 -14.923   2.446  1.00  0.00    -0.209 NA
ATOM      5  O   UNL     1       0.536 -13.625   4.014  1.00  0.00    -0.436 OA
ATOM      6  C   UNL     1       2.415 -16.664   5.046  1.00  0.00     0.063 A 
ATOM      7  C   UNL     1      -0.274 -13.711   2.942  1.00  0.00     0.227 A 
ATOM      8  C   UNL     1       0.613 -15.671   3.187  1.00  0.00     0.110 A 
ATOM      9  C   UNL     1       1.110 -14.834   4.201  1.00  0.00     0.156 A 
ENDROOT
BRANCH   6  10
ATOM     10  C   UNL     1       3.370 -17.203   6.031  1.00  0.00     0.335 C 
ATOM     11  O   UNL     1       2.963 -17.686   7.069  1.00  0.00    -0.246 OA
BRANCH  10  12
ATOM     12  O   UNL     1       4.694 -17.160   5.782  1.00  0.00    -0.478 OA
ATOM     13  H   UNL     1       5.187 -16.417   6.155  1.00  0.00     0.297 HD
ENDBRANCH  10  12
ENDBRANCH   6  10
BRANCH   7  14
ATOM     14  C   UNL     1      -1.089 -12.603   2.403  1.00  0.00     0.040 A 
ATOM     15  C   UNL     1      -0.527 -11.337   2.234  1.00  0.00     0.034 A 
ATOM     16  C   UNL     1      -2.426 -12.819   2.061  1.00  0.00     0.034 A 
ATOM     17  C   UNL     1      -1.294 -10.306   1.729  1.00  0.00     0.043 A 
ATOM     18  C   UNL     1      -3.182 -11.780   1.557  1.00  0.00     0.043 A 
ATOM     19  C   UNL     1      -2.619 -10.526   1.392  1.00  0.00     0.041 A 
ATOM     20  Cl  UNL     1      -0.597  -8.730   1.517  1.00  0.00    -0.084 Cl
ATOM     21  Cl  UNL     1      -4.845 -12.046   1.131  1.00  0.00    -0.084 Cl
ENDBRANCH   7  14
TORSDOF 3
ENDMDL
MODEL 5
REMARK VINA RESULT:    -3.987     11.063     11.797
REMARK INTER + INTRA:          -4.865
REMARK INTER:                  -4.569
REMARK INTRA:                  -0.296
REMARK UNBOUND:                -0.295
REMARK SMILES O=C(O)c1ccc2nc(-c3cc(Cl)cc(Cl)c3)oc2c1
REMARK SMILES IDX 5 1 6 2 20 3 8 4 18 5 4 6 9 7 7 8 19 9 2 10 1 11 3 12 10 14
REMARK SMILES IDX 11 15 17 16 12 17 15 18 14 19 13 20 16 21
REMARK H PARENT 3 13
ROOT
ATOM      1  C   UNL     1      -2.317 -13.824   2.142  1.00  0.00     0.018 A 
ATOM      2  C   UNL     1      -2.922 -12.620   1.935  1.00  0.00     0.033 A 
ATOM      3  C   UNL     1      -0.177 -12.723   2.440  1.00  0.00     0.065 A 
ATOM      4  N   UNL     1      -2.477 -10.137   1.810  1.00  0.00    -0.209 NA
ATOM      5  O   UNL     1      -0.338 -10.225   2.200  1.00  0.00    -0.436 OA
ATOM      6  C   UNL     1      -0.940 -13.891   2.399  1.00  0.00     0.063 A 
ATOM      7  C   UNL     1      -1.388  -9.421   1.946  1.00  0.00     0.227 A 
ATOM      8  C   UNL     1      -2.168 -11.441   1.973  1.00  0.00     0.110 A 
ATOM      9  C   UNL     1      -0.786 -11.500   2.225  1.00  0.00     0.156 A 
ENDROOT
BRANCH   6  10
ATOM     10  C   UNL     1      -0.297 -15.197   2.628  1.00  0.00     0.335 C 
ATOM     11  O   UNL     1       0.905 -15.264   2.784  1.00  0.00    -0.246 OA
BRANCH  10  12
ATOM     12  O   UNL     1      -1.044 -16.319   2.663  1.00  0.00    -0.478 OA
ATOM     13  H   UNL     1      -1.917 -16.253   3.073  1.00  0.00     0.297 HD
ENDBRANCH  10  12
ENDBRANCH   6  10
BRANCH   7  14
ATOM     14  C   UNL     1      -1.322  -7.949   1.837  1.00  0.00     0.040 A 
ATOM     15  C   UNL     1      -2.443  -7.173   2.135  1.00  0.00     0.034 A 
ATOM     16  C   UNL     1      -0.138  -7.329   1.434  1.00  0.00     0.034 A 
ATOM     17  C   UNL     1      -2.375  -5.798   2.032  1.00  0.00     0.043 A 
ATOM     18  C   UNL     1      -0.082  -5.953   1.334  1.00  0.00     0.043 A 
ATOM     19  C   UNL     1      -1.198  -5.189   1.631  1.00  0.00     0.041 A 
ATOM     20  Cl  UNL     1      -3.768  -4.831   2.402  1.00  0.00    -0.084 Cl
ATOM     21  Cl  UNL     1       1.390  -5.180   0.833  1.00  0.00    -0.084 Cl
ENDBRANCH   7  14
TORSDOF 3
ENDMDL
MODEL 6
REMARK VINA RESULT:    -3.985     11.059     11.528
REMARK INTER + INTRA:          -4.863
REMARK INTER:                  -4.578
REMARK INTRA:                  -0.284
REMARK UNBOUND:                -0.295
REMARK SMILES O=C(O)c1ccc2nc(-c3cc(Cl)cc(Cl)c3)oc2c1
REMARK SMILES IDX 5 1 6 2 20 3 8 4 18 5 4 6 9 7 7 8 19 9 2 10 1 11 3 12 10 14
REMARK SMILES IDX 11 15 17 16 12 17 15 18 14 19 13 20 16 21
REMARK H PARENT 3 13
ROOT
ATOM      1  C   UNL     1      -2.726 -13.901   2.118  1.00  0.00     0.018 A 
ATOM      2  C   UNL     1      -1.721 -12.981   2.155  1.00  0.00     0.033 A 
ATOM      3  C   UNL     1      -4.312 -12.179   1.487  1.00  0.00     0.065 A 
ATOM      4  N   UNL     1      -1.223 -10.527   1.816  1.00  0.00    -0.209 NA
ATOM      5  O   UNL     1      -3.245  -9.910   1.301  1.00  0.00    -0.436 OA
ATOM      6  C   UNL     1      -4.031 -13.514   1.782  1.00  0.00     0.063 A 
ATOM      7  C   UNL     1      -1.974  -9.507   1.483  1.00  0.00     0.227 A 
ATOM      8  C   UNL     1      -1.989 -11.639   1.861  1.00  0.00     0.110 A 
ATOM      9  C   UNL     1      -3.296 -11.241   1.528  1.00  0.00     0.156 A 
ENDROOT
BRANCH   6  10
ATOM     10  C   UNL     1      -5.108 -14.519   1.739  1.00  0.00     0.335 C 
ATOM     11  O   UNL     1      -5.828 -14.680   2.704  1.00  0.00    -0.246 OA
BRANCH  10  12
ATOM     12  O   UNL     1      -5.294 -15.262   0.629  1.00  0.00    -0.478 OA
ATOM     13  H   UNL     1      -5.423 -16.211   0.753  1.00  0.00     0.297 HD
ENDBRANCH  10  12
ENDBRANCH   6  10
BRANCH   7  14
ATOM     14  C   UNL     1      -1.494  -8.117   1.331  1.00  0.00     0.040 A 
ATOM     15  C   UNL     1      -2.349  -7.047   1.599  1.00  0.00     0.034 A 
ATOM     16  C   UNL     1      -0.183  -7.870   0.918  1.00  0.00     0.034 A 
ATOM     17  C   UNL     1      -1.895  -5.751   1.456  1.00  0.00     0.043 A 
ATOM     18  C   UNL     1       0.259  -6.570   0.779  1.00  0.00     0.043 A 
ATOM     19  C   UNL     1      -0.594  -5.513   1.046  1.00  0.00     0.041 A 
ATOM     20  Cl  UNL     1      -2.956  -4.419   1.789  1.00  0.00    -0.084 Cl
ATOM     21  Cl  UNL     1       1.889  -6.260   0.266  1.00  0.00    -0.084 Cl
ENDBRANCH   7  14
TORSDOF 3
ENDMDL
MODEL 7
REMARK VINA RESULT:    -3.967     11.072     11.712
REMARK INTER + INTRA:          -4.841
REMARK INTER:                  -4.557
REMARK INTRA:                  -0.284
REMARK UNBOUND:                -0.295
REMARK SMILES O=C(O)c1ccc2nc(-c3cc(Cl)cc(Cl)c3)oc2c1
REMARK SMILES IDX 5 1 6 2 20 3 8 4 18 5 4 6 9 7 7 8 19 9 2 10 1 11 3 12 10 14
REMARK SMILES IDX 11 15 17 16 12 17 15 18 14 19 13 20 16 21
REMARK H PARENT 3 13
ROOT
ATOM      1  C   UNL     1      -2.685 -13.916   2.124  1.00  0.00     0.018 A 
ATOM      2  C   UNL     1      -1.683 -12.993   2.157  1.00  0.00     0.033 A 
ATOM      3  C   UNL     1      -4.279 -12.199   1.498  1.00  0.00     0.065 A 
ATOM      4  N   UNL     1      -1.194 -10.538   1.814  1.00  0.00    -0.209 NA
ATOM      5  O   UNL     1      -3.220  -9.927   1.307  1.00  0.00    -0.436 OA
ATOM      6  C   UNL     1      -3.993 -13.533   1.793  1.00  0.00     0.063 A 
ATOM      7  C   UNL     1      -1.949  -9.519   1.484  1.00  0.00     0.227 A 
ATOM      8  C   UNL     1      -1.957 -11.651   1.863  1.00  0.00     0.110 A 
ATOM      9  C   UNL     1      -3.266 -11.258   1.535  1.00  0.00     0.156 A 
ENDROOT
BRANCH   6  10
ATOM     10  C   UNL     1      -5.067 -14.542   1.755  1.00  0.00     0.335 C 
ATOM     11  O   UNL     1      -5.196 -15.254   0.780  1.00  0.00    -0.246 OA
BRANCH  10  12
ATOM     12  O   UNL     1      -5.906 -14.673   2.801  1.00  0.00    -0.478 OA
ATOM     13  H   UNL     1      -6.265 -15.554   2.969  1.00  0.00     0.297 HD
ENDBRANCH  10  12
ENDBRANCH   6  10
BRANCH   7  14
ATOM     14  C   UNL     1      -1.474  -8.129   1.329  1.00  0.00     0.040 A 
ATOM     15  C   UNL     1      -0.167  -7.876   0.911  1.00  0.00     0.034 A 
ATOM     16  C   UNL     1      -2.333  -7.061   1.601  1.00  0.00     0.034 A 
ATOM     17  C   UNL     1       0.270  -6.574   0.767  1.00  0.00     0.043 A 
ATOM     18  C   UNL     1      -1.884  -5.764   1.454  1.00  0.00     0.043 A 
ATOM     19  C   UNL     1      -0.586  -5.520   1.039  1.00  0.00     0.041 A 
ATOM     20  Cl  UNL     1       1.895  -6.258   0.247  1.00  0.00    -0.084 Cl
ATOM     21  Cl  UNL     1      -2.950  -4.436   1.792  1.00  0.00    -0.084 Cl
ENDBRANCH   7  14
TORSDOF 3
ENDMDL
MODEL 8
REMARK VINA RESULT:    -3.962     11.035     11.908
REMARK INTER + INTRA:          -4.836
REMARK INTER:                  -4.540
REMARK INTRA:                  -0.296
REMARK UNBOUND:                -0.295
REMARK SMILES O=C(O)c1ccc2nc(-c3cc(Cl)cc(Cl)c3)oc2c1
REMARK SMILES IDX 5 1 6 2 20 3 8 4 18 5 4 6 9 7 7 8 19 9 2 10 1 11 3 12 10 14
REMARK SMILES IDX 11 15 17 16 12 17 15 18 14 19 13 20 16 21
REMARK H PARENT 3 13
ROOT
ATOM      1  C   UNL     1      -2.514 -13.755   2.048  1.00  0.00     0.018 A 
ATOM      2  C   UNL     1      -3.078 -12.531   1.848  1.00  0.00     0.033 A 
ATOM      3  C   UNL     1      -0.338 -12.728   2.353  1.00  0.00     0.065 A 
ATOM      4  N   UNL     1      -2.550 -10.063   1.738  1.00  0.00    -0.209 NA
ATOM      5  O   UNL     1      -0.415 -10.226   2.128  1.00  0.00    -0.436 OA
ATOM      6  C   UNL     1      -1.140 -13.870   2.304  1.00  0.00     0.063 A 
ATOM      7  C   UNL     1      -1.437  -9.385   1.879  1.00  0.00     0.227 A 
ATOM      8  C   UNL     1      -2.285 -11.378   1.893  1.00  0.00     0.110 A 
ATOM      9  C   UNL     1      -0.906 -11.485   2.145  1.00  0.00     0.156 A 
ENDROOT
BRANCH   6  10
ATOM     10  C   UNL     1      -0.542 -15.199   2.526  1.00  0.00     0.335 C 
ATOM     11  O   UNL     1       0.629 -15.294   2.835  1.00  0.00    -0.246 OA
BRANCH  10  12
ATOM     12  O   UNL     1      -1.293 -16.309   2.384  1.00  0.00    -0.478 OA
ATOM     13  H   UNL     1      -1.505 -16.583   1.481  1.00  0.00     0.297 HD
ENDBRANCH  10  12
ENDBRANCH   6  10
BRANCH   7  14
ATOM     14  C   UNL     1      -1.322  -7.916   1.779  1.00  0.00     0.040 A 
ATOM     15  C   UNL     1      -0.109  -7.330   1.416  1.00  0.00     0.034 A 
ATOM     16  C   UNL     1      -2.428  -7.107   2.047  1.00  0.00     0.034 A 
ATOM     17  C   UNL     1      -0.008  -5.956   1.323  1.00  0.00     0.043 A 
ATOM     18  C   UNL     1      -2.315  -5.734   1.951  1.00  0.00     0.043 A 
ATOM     19  C   UNL     1      -1.108  -5.160   1.591  1.00  0.00     0.041 A 
ATOM     20  Cl  UNL     1       1.501  -5.226   0.871  1.00  0.00    -0.084 Cl
ATOM     21  Cl  UNL     1      -3.689  -4.726   2.284  1.00  0.00    -0.084 Cl
ENDBRANCH   7  14
TORSDOF 3
ENDMDL
