MODEL 1
REMARK VINA RESULT:    -5.707      0.000      0.000
REMARK INTER + INTRA:          -8.380
REMARK INTER:                  -7.875
REMARK INTRA:                  -0.504
REMARK UNBOUND:                -0.504
REMARK SMILES Cc1n[nH]c(C)c1CCCOc1cc(C(=O)O)ccc1F
REMARK SMILES IDX 11 1 12 2 14 3 18 4 13 5 19 6 20 7 21 8 15 9 16 10 17 11
REMARK SMILES IDX 10 13 9 14 8 15 7 16 5 17 2 18 4 19 3 20 6 21 1 22
REMARK H PARENT 17 12 4 23
ROOT
ATOM      1  O   UNL     1      -1.085  -8.430  -0.629  1.00  0.00    -0.490 OA
ENDROOT
BRANCH   1   2
ATOM      2  C   UNL     1      -1.084  -7.332   0.173  1.00  0.00     0.155 A 
ATOM      3  C   UNL     1      -2.223  -5.850   1.685  1.00  0.00     0.063 A 
ATOM      4  C   UNL     1      -1.057  -5.090   1.813  1.00  0.00     0.019 A 
ATOM      5  C   UNL     1      -2.229  -6.976   0.859  1.00  0.00     0.065 A 
ATOM      6  C   UNL     1       0.083  -5.457   1.129  1.00  0.00     0.044 A 
ATOM      7  C   UNL     1       0.075  -6.577   0.314  1.00  0.00     0.165 A 
ATOM      8  F   UNL     1       1.196  -6.931  -0.353  1.00  0.00    -0.203 F 
BRANCH   3   9
ATOM      9  C   UNL     1      -3.445  -5.461   2.416  1.00  0.00     0.335 C 
ATOM     10  O   UNL     1      -4.532  -5.832   2.024  1.00  0.00    -0.246 OA
BRANCH   9  11
ATOM     11  O   UNL     1      -3.352  -4.698   3.523  1.00  0.00    -0.478 OA
ATOM     12  H   UNL     1      -4.043  -4.808   4.192  1.00  0.00     0.297 HD
ENDBRANCH   9  11
ENDBRANCH   3   9
ENDBRANCH   1   2
BRANCH   1  13
ATOM     13  C   UNL     1      -0.233  -9.513  -0.247  1.00  0.00     0.230 C 
BRANCH  13  14
ATOM     14  C   UNL     1      -1.081 -10.756   0.025  1.00  0.00     0.046 C 
BRANCH  14  15
ATOM     15  C   UNL     1      -1.376 -10.855   1.523  1.00  0.00     0.043 C 
BRANCH  15  16
ATOM     16  C   UNL     1      -1.739 -12.274   1.873  1.00  0.00    -0.004 A 
ATOM     17  C   UNL     1      -2.973 -12.825   1.788  1.00  0.00     0.036 A 
ATOM     18  C   UNL     1      -0.860 -13.259   2.336  1.00  0.00     0.063 A 
ATOM     19  N   UNL     1      -2.878 -14.110   2.190  1.00  0.00    -0.282 N 
ATOM     20  N   UNL     1      -1.543 -14.357   2.533  1.00  0.00    -0.181 NA
ATOM     21  C   UNL     1      -4.226 -12.128   1.327  1.00  0.00     0.066 C 
ATOM     22  C   UNL     1       0.617 -13.081   2.579  1.00  0.00     0.069 C 
ATOM     23  H   UNL     1      -3.606 -14.749   2.234  1.00  0.00     0.190 HD
ENDBRANCH  15  16
ENDBRANCH  14  15
ENDBRANCH  13  14
ENDBRANCH   1  13
TORSDOF 7
ENDMDL
MODEL 2
REMARK VINA RESULT:    -5.656      2.300      3.488
REMARK INTER + INTRA:          -8.310
REMARK INTER:                  -7.734
REMARK INTRA:                  -0.576
REMARK UNBOUND:                -0.504
REMARK SMILES Cc1n[nH]c(C)c1CCCOc1cc(C(=O)O)ccc1F
REMARK SMILES IDX 11 1 12 2 14 3 18 4 13 5 19 6 20 7 21 8 15 9 16 10 17 11
REMARK SMILES IDX 10 13 9 14 8 15 7 16 5 17 2 18 4 19 3 20 6 21 1 22
REMARK H PARENT 17 12 4 23
ROOT
ATOM      1  O   UNL     1      -1.748  -7.898   3.878  1.00  0.00    -0.490 OA
ENDROOT
BRANCH   1   2
ATOM      2  C   UNL     1      -1.403  -7.027   2.893  1.00  0.00     0.155 A 
ATOM      3  C   UNL     1       0.137  -6.298   1.195  1.00  0.00     0.063 A 
ATOM      4  C   UNL     1      -0.722  -5.243   0.875  1.00  0.00     0.019 A 
ATOM      5  C   UNL     1      -0.212  -7.192   2.211  1.00  0.00     0.065 A 
ATOM      6  C   UNL     1      -1.911  -5.091   1.557  1.00  0.00     0.044 A 
ATOM      7  C   UNL     1      -2.256  -5.981   2.560  1.00  0.00     0.165 A 
ATOM      8  F   UNL     1      -3.423  -5.826   3.225  1.00  0.00    -0.203 F 
BRANCH   3   9
ATOM      9  C   UNL     1       1.410  -6.464   0.467  1.00  0.00     0.335 C 
ATOM     10  O   UNL     1       2.314  -7.105   0.963  1.00  0.00    -0.246 OA
BRANCH   9  11
ATOM     11  O   UNL     1       1.565  -5.911  -0.751  1.00  0.00    -0.478 OA
ATOM     12  H   UNL     1       1.584  -6.513  -1.509  1.00  0.00     0.297 HD
ENDBRANCH   9  11
ENDBRANCH   3   9
ENDBRANCH   1   2
BRANCH   1  13
ATOM     13  C   UNL     1      -2.846  -8.775   3.615  1.00  0.00     0.230 C 
BRANCH  13  14
ATOM     14  C   UNL     1      -2.348 -10.221   3.589  1.00  0.00     0.046 C 
BRANCH  14  15
ATOM     15  C   UNL     1      -2.248 -10.700   2.139  1.00  0.00     0.043 C 
BRANCH  15  16
ATOM     16  C   UNL     1      -2.486 -12.187   2.083  1.00  0.00    -0.004 A 
ATOM     17  C   UNL     1      -3.658 -12.795   1.786  1.00  0.00     0.036 A 
ATOM     18  C   UNL     1      -1.534 -13.183   2.323  1.00  0.00     0.063 A 
ATOM     19  N   UNL     1      -3.456 -14.128   1.842  1.00  0.00    -0.282 N 
ATOM     20  N   UNL     1      -2.116 -14.347   2.186  1.00  0.00    -0.181 NA
ATOM     21  C   UNL     1      -4.956 -12.106   1.451  1.00  0.00     0.066 C 
ATOM     22  C   UNL     1      -0.090 -12.955   2.689  1.00  0.00     0.069 C 
ATOM     23  H   UNL     1      -4.122 -14.813   1.675  1.00  0.00     0.190 HD
ENDBRANCH  15  16
ENDBRANCH  14  15
ENDBRANCH  13  14
ENDBRANCH   1  13
TORSDOF 7
ENDMDL
MODEL 3
REMARK VINA RESULT:    -5.652      2.243      3.838
REMARK INTER + INTRA:          -8.305
REMARK INTER:                  -7.612
REMARK INTRA:                  -0.693
REMARK UNBOUND:                -0.504
REMARK SMILES Cc1n[nH]c(C)c1CCCOc1cc(C(=O)O)ccc1F
REMARK SMILES IDX 11 1 12 2 14 3 18 4 13 5 19 6 20 7 21 8 15 9 16 10 17 11
REMARK SMILES IDX 10 13 9 14 8 15 7 16 5 17 2 18 4 19 3 20 6 21 1 22
REMARK H PARENT 17 12 4 23
ROOT
ATOM      1  O   UNL     1      -1.827  -8.040   3.656  1.00  0.00    -0.490 OA
ENDROOT
BRANCH   1   2
ATOM      2  C   UNL     1      -1.425  -7.091   2.769  1.00  0.00     0.155 A 
ATOM      3  C   UNL     1       0.170  -6.272   1.168  1.00  0.00     0.063 A 
ATOM      4  C   UNL     1      -0.628  -5.145   0.954  1.00  0.00     0.019 A 
ATOM      5  C   UNL     1      -0.236  -7.246   2.082  1.00  0.00     0.065 A 
ATOM      6  C   UNL     1      -1.815  -5.001   1.640  1.00  0.00     0.044 A 
ATOM      7  C   UNL     1      -2.219  -5.971   2.543  1.00  0.00     0.165 A 
ATOM      8  F   UNL     1      -3.384  -5.825   3.212  1.00  0.00    -0.203 F 
BRANCH   3   9
ATOM      9  C   UNL     1       1.442  -6.429   0.434  1.00  0.00     0.335 C 
ATOM     10  O   UNL     1       2.357  -7.051   0.932  1.00  0.00    -0.246 OA
BRANCH   9  11
ATOM     11  O   UNL     1       1.583  -5.886  -0.791  1.00  0.00    -0.478 OA
ATOM     12  H   UNL     1       2.386  -5.371  -0.953  1.00  0.00     0.297 HD
ENDBRANCH   9  11
ENDBRANCH   3   9
ENDBRANCH   1   2
BRANCH   1  13
ATOM     13  C   UNL     1      -2.748  -9.024   3.180  1.00  0.00     0.230 C 
BRANCH  13  14
ATOM     14  C   UNL     1      -2.170 -10.420   3.419  1.00  0.00     0.046 C 
BRANCH  14  15
ATOM     15  C   UNL     1      -1.722 -11.022   2.085  1.00  0.00     0.043 C 
BRANCH  15  16
ATOM     16  C   UNL     1      -1.786 -12.525   2.165  1.00  0.00    -0.004 A 
ATOM     17  C   UNL     1      -0.762 -13.350   2.483  1.00  0.00     0.036 A 
ATOM     18  C   UNL     1      -2.917 -13.314   1.929  1.00  0.00     0.063 A 
ATOM     19  N   UNL     1      -1.226 -14.617   2.444  1.00  0.00    -0.282 N 
ATOM     20  N   UNL     1      -2.580 -14.568   2.089  1.00  0.00    -0.181 NA
ATOM     21  C   UNL     1       0.645 -12.929   2.821  1.00  0.00     0.066 C 
ATOM     22  C   UNL     1      -4.284 -12.808   1.545  1.00  0.00     0.069 C 
ATOM     23  H   UNL     1      -0.712 -15.418   2.627  1.00  0.00     0.190 HD
ENDBRANCH  15  16
ENDBRANCH  14  15
ENDBRANCH  13  14
ENDBRANCH   1  13
TORSDOF 7
ENDMDL
MODEL 4
REMARK VINA RESULT:    -5.650      0.183      1.774
REMARK INTER + INTRA:          -8.301
REMARK INTER:                  -7.757
REMARK INTRA:                  -0.545
REMARK UNBOUND:                -0.504
REMARK SMILES Cc1n[nH]c(C)c1CCCOc1cc(C(=O)O)ccc1F
REMARK SMILES IDX 11 1 12 2 14 3 18 4 13 5 19 6 20 7 21 8 15 9 16 10 17 11
REMARK SMILES IDX 10 13 9 14 8 15 7 16 5 17 2 18 4 19 3 20 6 21 1 22
REMARK H PARENT 17 12 4 23
ROOT
ATOM      1  O   UNL     1      -1.005  -8.407  -0.639  1.00  0.00    -0.490 OA
ENDROOT
BRANCH   1   2
ATOM      2  C   UNL     1      -1.022  -7.317   0.174  1.00  0.00     0.155 A 
ATOM      3  C   UNL     1      -2.193  -5.854   1.680  1.00  0.00     0.063 A 
ATOM      4  C   UNL     1      -1.032  -5.092   1.837  1.00  0.00     0.019 A 
ATOM      5  C   UNL     1      -2.181  -6.971   0.842  1.00  0.00     0.065 A 
ATOM      6  C   UNL     1       0.121  -5.449   1.170  1.00  0.00     0.044 A 
ATOM      7  C   UNL     1       0.132  -6.560   0.344  1.00  0.00     0.165 A 
ATOM      8  F   UNL     1       1.266  -6.904  -0.306  1.00  0.00    -0.203 F 
BRANCH   3   9
ATOM      9  C   UNL     1      -3.429  -5.475   2.392  1.00  0.00     0.335 C 
ATOM     10  O   UNL     1      -4.504  -5.886   2.005  1.00  0.00    -0.246 OA
BRANCH   9  11
ATOM     11  O   UNL     1      -3.364  -4.679   3.477  1.00  0.00    -0.478 OA
ATOM     12  H   UNL     1      -3.696  -3.775   3.379  1.00  0.00     0.297 HD
ENDBRANCH   9  11
ENDBRANCH   3   9
ENDBRANCH   1   2
BRANCH   1  13
ATOM     13  C   UNL     1      -0.198  -9.512  -0.225  1.00  0.00     0.230 C 
BRANCH  13  14
ATOM     14  C   UNL     1      -1.095 -10.719   0.060  1.00  0.00     0.046 C 
BRANCH  14  15
ATOM     15  C   UNL     1      -1.298 -10.858   1.570  1.00  0.00     0.043 C 
BRANCH  15  16
ATOM     16  C   UNL     1      -1.529 -12.306   1.915  1.00  0.00    -0.004 A 
ATOM     17  C   UNL     1      -0.596 -13.177   2.366  1.00  0.00     0.036 A 
ATOM     18  C   UNL     1      -2.748 -12.988   1.832  1.00  0.00     0.063 A 
ATOM     19  N   UNL     1      -1.201 -14.368   2.555  1.00  0.00    -0.282 N 
ATOM     20  N   UNL     1      -2.551 -14.225   2.209  1.00  0.00    -0.181 NA
ATOM     21  C   UNL     1       0.858 -12.870   2.612  1.00  0.00     0.066 C 
ATOM     22  C   UNL     1      -4.059 -12.401   1.376  1.00  0.00     0.069 C 
ATOM     23  H   UNL     1      -0.777 -15.180   2.873  1.00  0.00     0.190 HD
ENDBRANCH  15  16
ENDBRANCH  14  15
ENDBRANCH  13  14
ENDBRANCH   1  13
TORSDOF 7
ENDMDL
MODEL 5
REMARK VINA RESULT:    -4.741      3.923      7.035
REMARK INTER + INTRA:          -7.046
REMARK INTER:                  -6.209
REMARK INTRA:                  -0.837
REMARK UNBOUND:                -0.504
REMARK SMILES Cc1n[nH]c(C)c1CCCOc1cc(C(=O)O)ccc1F
REMARK SMILES IDX 11 1 12 2 14 3 18 4 13 5 19 6 20 7 21 8 15 9 16 10 17 11
REMARK SMILES IDX 10 13 9 14 8 15 7 16 5 17 2 18 4 19 3 20 6 21 1 22
REMARK H PARENT 17 12 4 23
ROOT
ATOM      1  O   UNL     1      -2.707  -9.538   1.727  1.00  0.00    -0.490 OA
ENDROOT
BRANCH   1   2
ATOM      2  C   UNL     1      -2.449 -10.865   1.873  1.00  0.00     0.155 A 
ATOM      3  C   UNL     1      -0.932 -12.649   2.417  1.00  0.00     0.063 A 
ATOM      4  C   UNL     1      -1.946 -13.580   2.176  1.00  0.00     0.019 A 
ATOM      5  C   UNL     1      -1.192 -11.286   2.263  1.00  0.00     0.065 A 
ATOM      6  C   UNL     1      -3.199 -13.150   1.793  1.00  0.00     0.044 A 
ATOM      7  C   UNL     1      -3.455 -11.797   1.645  1.00  0.00     0.165 A 
ATOM      8  F   UNL     1      -4.685 -11.383   1.270  1.00  0.00    -0.203 F 
BRANCH   3   9
ATOM      9  C   UNL     1       0.410 -13.106   2.828  1.00  0.00     0.335 C 
ATOM     10  O   UNL     1       1.244 -13.374   1.988  1.00  0.00    -0.246 OA
BRANCH   9  11
ATOM     11  O   UNL     1       0.712 -13.218   4.137  1.00  0.00    -0.478 OA
ATOM     12  H   UNL     1       0.166 -12.716   4.758  1.00  0.00     0.297 HD
ENDBRANCH   9  11
ENDBRANCH   3   9
ENDBRANCH   1   2
BRANCH   1  13
ATOM     13  C   UNL     1      -2.186  -8.662   2.729  1.00  0.00     0.230 C 
BRANCH  13  14
ATOM     14  C   UNL     1      -2.438  -7.210   2.317  1.00  0.00     0.046 C 
BRANCH  14  15
ATOM     15  C   UNL     1      -2.260  -7.071   0.804  1.00  0.00     0.043 C 
BRANCH  15  16
ATOM     16  C   UNL     1      -0.812  -6.798   0.490  1.00  0.00    -0.004 A 
ATOM     17  C   UNL     1       0.034  -7.635  -0.154  1.00  0.00     0.036 A 
ATOM     18  C   UNL     1      -0.107  -5.632   0.807  1.00  0.00     0.063 A 
ATOM     19  N   UNL     1       1.235  -7.023  -0.235  1.00  0.00    -0.282 N 
ATOM     20  N   UNL     1       1.122  -5.769   0.378  1.00  0.00    -0.181 NA
ATOM     21  C   UNL     1      -0.303  -9.004  -0.684  1.00  0.00     0.066 C 
ATOM     22  C   UNL     1      -0.663  -4.431   1.528  1.00  0.00     0.069 C 
ATOM     23  H   UNL     1       2.034  -7.387  -0.646  1.00  0.00     0.190 HD
ENDBRANCH  15  16
ENDBRANCH  14  15
ENDBRANCH  13  14
ENDBRANCH   1  13
TORSDOF 7
ENDMDL
MODEL 6
REMARK VINA RESULT:    -4.595      3.798      6.558
REMARK INTER + INTRA:          -6.845
REMARK INTER:                  -5.967
REMARK INTRA:                  -0.878
REMARK UNBOUND:                -0.504
REMARK SMILES Cc1n[nH]c(C)c1CCCOc1cc(C(=O)O)ccc1F
REMARK SMILES IDX 11 1 12 2 14 3 18 4 13 5 19 6 20 7 21 8 15 9 16 10 17 11
REMARK SMILES IDX 10 13 9 14 8 15 7 16 5 17 2 18 4 19 3 20 6 21 1 22
REMARK H PARENT 17 12 4 23
ROOT
ATOM      1  O   UNL     1      -0.440 -10.001   1.693  1.00  0.00    -0.490 OA
ENDROOT
BRANCH   1   2
ATOM      2  C   UNL     1      -1.132 -11.164   1.831  1.00  0.00     0.155 A 
ATOM      3  C   UNL     1      -3.165 -12.424   1.591  1.00  0.00     0.063 A 
ATOM      4  C   UNL     1      -2.524 -13.551   2.112  1.00  0.00     0.019 A 
ATOM      5  C   UNL     1      -2.459 -11.227   1.452  1.00  0.00     0.065 A 
ATOM      6  C   UNL     1      -1.198 -13.479   2.482  1.00  0.00     0.044 A 
ATOM      7  C   UNL     1      -0.498 -12.293   2.339  1.00  0.00     0.165 A 
ATOM      8  F   UNL     1       0.801 -12.229   2.704  1.00  0.00    -0.203 F 
BRANCH   3   9
ATOM      9  C   UNL     1      -4.585 -12.497   1.193  1.00  0.00     0.335 C 
ATOM     10  O   UNL     1      -5.203 -11.479   0.958  1.00  0.00    -0.246 OA
BRANCH   9  11
ATOM     11  O   UNL     1      -5.193 -13.695   1.085  1.00  0.00    -0.478 OA
ATOM     12  H   UNL     1      -6.158 -13.694   1.026  1.00  0.00     0.297 HD
ENDBRANCH   9  11
ENDBRANCH   3   9
ENDBRANCH   1   2
BRANCH   1  13
ATOM     13  C   UNL     1      -0.880  -9.102   0.673  1.00  0.00     0.230 C 
BRANCH  13  14
ATOM     14  C   UNL     1      -0.130  -7.775   0.805  1.00  0.00     0.046 C 
BRANCH  14  15
ATOM     15  C   UNL     1      -0.174  -7.307   2.261  1.00  0.00     0.043 C 
BRANCH  15  16
ATOM     16  C   UNL     1      -1.451  -6.547   2.507  1.00  0.00    -0.004 A 
ATOM     17  C   UNL     1      -2.490  -6.961   3.269  1.00  0.00     0.036 A 
ATOM     18  C   UNL     1      -1.770  -5.285   1.993  1.00  0.00     0.063 A 
ATOM     19  N   UNL     1      -3.436  -5.998   3.233  1.00  0.00    -0.282 N 
ATOM     20  N   UNL     1      -2.962  -4.959   2.422  1.00  0.00    -0.181 NA
ATOM     21  C   UNL     1      -2.576  -8.262   4.022  1.00  0.00     0.066 C 
ATOM     22  C   UNL     1      -0.897  -4.452   1.090  1.00  0.00     0.069 C 
ATOM     23  H   UNL     1      -4.292  -6.022   3.687  1.00  0.00     0.190 HD
ENDBRANCH  15  16
ENDBRANCH  14  15
ENDBRANCH  13  14
ENDBRANCH   1  13
TORSDOF 7
ENDMDL
MODEL 7
REMARK VINA RESULT:    -4.512      3.749      5.165
REMARK INTER + INTRA:          -6.731
REMARK INTER:                  -6.065
REMARK INTRA:                  -0.666
REMARK UNBOUND:                -0.504
REMARK SMILES Cc1n[nH]c(C)c1CCCOc1cc(C(=O)O)ccc1F
REMARK SMILES IDX 11 1 12 2 14 3 18 4 13 5 19 6 20 7 21 8 15 9 16 10 17 11
REMARK SMILES IDX 10 13 9 14 8 15 7 16 5 17 2 18 4 19 3 20 6 21 1 22
REMARK H PARENT 17 12 4 23
ROOT
ATOM      1  O   UNL     1      -3.150 -12.674   1.880  1.00  0.00    -0.490 OA
ENDROOT
BRANCH   1   2
ATOM      2  C   UNL     1      -2.579 -11.446   1.996  1.00  0.00     0.155 A 
ATOM      3  C   UNL     1      -2.280  -9.388   3.204  1.00  0.00     0.063 A 
ATOM      4  C   UNL     1      -1.393  -8.944   2.220  1.00  0.00     0.019 A 
ATOM      5  C   UNL     1      -2.873 -10.647   3.086  1.00  0.00     0.065 A 
ATOM      6  C   UNL     1      -1.102  -9.750   1.140  1.00  0.00     0.044 A 
ATOM      7  C   UNL     1      -1.687 -11.000   1.027  1.00  0.00     0.165 A 
ATOM      8  F   UNL     1      -1.397 -11.786  -0.033  1.00  0.00    -0.203 F 
BRANCH   3   9
ATOM      9  C   UNL     1      -2.594  -8.528   4.361  1.00  0.00     0.335 C 
ATOM     10  O   UNL     1      -2.111  -7.417   4.441  1.00  0.00    -0.246 OA
BRANCH   9  11
ATOM     11  O   UNL     1      -3.423  -8.973   5.326  1.00  0.00    -0.478 OA
ATOM     12  H   UNL     1      -3.480  -9.931   5.448  1.00  0.00     0.297 HD
ENDBRANCH   9  11
ENDBRANCH   3   9
ENDBRANCH   1   2
BRANCH   1  13
ATOM     13  C   UNL     1      -4.567 -12.716   1.693  1.00  0.00     0.230 C 
BRANCH  13  14
ATOM     14  C   UNL     1      -4.878 -13.087   0.242  1.00  0.00     0.046 C 
BRANCH  14  15
ATOM     15  C   UNL     1      -6.296 -13.656   0.154  1.00  0.00     0.043 C 
BRANCH  15  16
ATOM     16  C   UNL     1      -6.228 -15.137  -0.115  1.00  0.00    -0.004 A 
ATOM     17  C   UNL     1      -6.109 -15.721  -1.330  1.00  0.00     0.036 A 
ATOM     18  C   UNL     1      -6.271 -16.151   0.848  1.00  0.00     0.063 A 
ATOM     19  N   UNL     1      -6.084 -17.057  -1.143  1.00  0.00    -0.282 N 
ATOM     20  N   UNL     1      -6.191 -17.302   0.232  1.00  0.00    -0.181 NA
ATOM     21  C   UNL     1      -6.020 -15.006  -2.653  1.00  0.00     0.066 C 
ATOM     22  C   UNL     1      -6.399 -15.952   2.336  1.00  0.00     0.069 C 
ATOM     23  H   UNL     1      -6.006 -17.729  -1.838  1.00  0.00     0.190 HD
ENDBRANCH  15  16
ENDBRANCH  14  15
ENDBRANCH  13  14
ENDBRANCH   1  13
TORSDOF 7
ENDMDL
MODEL 8
REMARK VINA RESULT:    -4.497      5.053      8.017
REMARK INTER + INTRA:          -6.710
REMARK INTER:                  -6.063
REMARK INTRA:                  -0.648
REMARK UNBOUND:                -0.504
REMARK SMILES Cc1n[nH]c(C)c1CCCOc1cc(C(=O)O)ccc1F
REMARK SMILES IDX 11 1 12 2 14 3 18 4 13 5 19 6 20 7 21 8 15 9 16 10 17 11
REMARK SMILES IDX 10 13 9 14 8 15 7 16 5 17 2 18 4 19 3 20 6 21 1 22
REMARK H PARENT 17 12 4 23
ROOT
ATOM      1  O   UNL     1      -3.977 -12.210   1.746  1.00  0.00    -0.490 OA
ENDROOT
BRANCH   1   2
ATOM      2  C   UNL     1      -4.727 -13.306   1.455  1.00  0.00     0.155 A 
ATOM      3  C   UNL     1      -5.484 -15.522   2.000  1.00  0.00     0.063 A 
ATOM      4  C   UNL     1      -6.274 -15.532   0.847  1.00  0.00     0.019 A 
ATOM      5  C   UNL     1      -4.709 -14.400   2.299  1.00  0.00     0.065 A 
ATOM      6  C   UNL     1      -6.290 -14.433   0.014  1.00  0.00     0.044 A 
ATOM      7  C   UNL     1      -5.524 -13.319   0.316  1.00  0.00     0.165 A 
ATOM      8  F   UNL     1      -5.545 -12.246  -0.505  1.00  0.00    -0.203 F 
BRANCH   3   9
ATOM      9  C   UNL     1      -5.464 -16.697   2.894  1.00  0.00     0.335 C 
ATOM     10  O   UNL     1      -6.373 -17.501   2.860  1.00  0.00    -0.246 OA
BRANCH   9  11
ATOM     11  O   UNL     1      -4.435 -16.879   3.744  1.00  0.00    -0.478 OA
ATOM     12  H   UNL     1      -4.338 -16.236   4.460  1.00  0.00     0.297 HD
ENDBRANCH   9  11
ENDBRANCH   3   9
ENDBRANCH   1   2
BRANCH   1  13
ATOM     13  C   UNL     1      -2.557 -12.371   1.724  1.00  0.00     0.230 C 
BRANCH  13  14
ATOM     14  C   UNL     1      -1.891 -11.097   2.247  1.00  0.00     0.046 C 
BRANCH  14  15
ATOM     15  C   UNL     1      -2.515  -9.878   1.564  1.00  0.00     0.043 C 
BRANCH  15  16
ATOM     16  C   UNL     1      -1.582  -8.701   1.683  1.00  0.00    -0.004 A 
ATOM     17  C   UNL     1      -0.697  -8.288   0.746  1.00  0.00     0.036 A 
ATOM     18  C   UNL     1      -1.481  -7.839   2.780  1.00  0.00     0.063 A 
ATOM     19  N   UNL     1      -0.055  -7.207   1.236  1.00  0.00    -0.282 N 
ATOM     20  N   UNL     1      -0.562  -6.947   2.516  1.00  0.00    -0.181 NA
ATOM     21  C   UNL     1      -0.471  -8.921  -0.601  1.00  0.00     0.066 C 
ATOM     22  C   UNL     1      -2.285  -7.929   4.052  1.00  0.00     0.069 C 
ATOM     23  H   UNL     1       0.636  -6.700   0.782  1.00  0.00     0.190 HD
ENDBRANCH  15  16
ENDBRANCH  14  15
ENDBRANCH  13  14
ENDBRANCH   1  13
TORSDOF 7
ENDMDL
MODEL 9
REMARK VINA RESULT:    -4.482      4.738      8.202
REMARK INTER + INTRA:          -6.689
REMARK INTER:                  -5.994
REMARK INTRA:                  -0.696
REMARK UNBOUND:                -0.504
REMARK SMILES Cc1n[nH]c(C)c1CCCOc1cc(C(=O)O)ccc1F
REMARK SMILES IDX 11 1 12 2 14 3 18 4 13 5 19 6 20 7 21 8 15 9 16 10 17 11
REMARK SMILES IDX 10 13 9 14 8 15 7 16 5 17 2 18 4 19 3 20 6 21 1 22
REMARK H PARENT 17 12 4 23
ROOT
ATOM      1  O   UNL     1      -0.368 -12.666   2.297  1.00  0.00    -0.490 OA
ENDROOT
BRANCH   1   2
ATOM      2  C   UNL     1       0.104 -13.838   2.799  1.00  0.00     0.155 A 
ATOM      3  C   UNL     1       0.243 -16.238   2.721  1.00  0.00     0.063 A 
ATOM      4  C   UNL     1       1.087 -16.221   3.835  1.00  0.00     0.019 A 
ATOM      5  C   UNL     1      -0.248 -15.036   2.205  1.00  0.00     0.065 A 
ATOM      6  C   UNL     1       1.436 -15.021   4.417  1.00  0.00     0.044 A 
ATOM      7  C   UNL     1       0.953 -13.830   3.901  1.00  0.00     0.165 A 
ATOM      8  F   UNL     1       1.299 -12.658   4.475  1.00  0.00    -0.203 F 
BRANCH   3   9
ATOM      9  C   UNL     1      -0.133 -17.521   2.095  1.00  0.00     0.335 C 
ATOM     10  O   UNL     1       0.491 -18.529   2.354  1.00  0.00    -0.246 OA
BRANCH   9  11
ATOM     11  O   UNL     1      -1.175 -17.574   1.242  1.00  0.00    -0.478 OA
ATOM     12  H   UNL     1      -1.256 -18.369   0.697  1.00  0.00     0.297 HD
ENDBRANCH   9  11
ENDBRANCH   3   9
ENDBRANCH   1   2
BRANCH   1  13
ATOM     13  C   UNL     1      -1.785 -12.548   2.148  1.00  0.00     0.230 C 
BRANCH  13  14
ATOM     14  C   UNL     1      -2.134 -11.124   1.711  1.00  0.00     0.046 C 
BRANCH  14  15
ATOM     15  C   UNL     1      -0.950 -10.199   1.995  1.00  0.00     0.043 C 
BRANCH  15  16
ATOM     16  C   UNL     1      -1.327  -8.780   1.656  1.00  0.00    -0.004 A 
ATOM     17  C   UNL     1      -1.126  -8.165   0.467  1.00  0.00     0.036 A 
ATOM     18  C   UNL     1      -1.953  -7.868   2.512  1.00  0.00     0.063 A 
ATOM     19  N   UNL     1      -1.602  -6.906   0.570  1.00  0.00    -0.282 N 
ATOM     20  N   UNL     1      -2.112  -6.742   1.865  1.00  0.00    -0.181 NA
ATOM     21  C   UNL     1      -0.485  -8.776  -0.751  1.00  0.00     0.066 C 
ATOM     22  C   UNL     1      -2.363  -8.133   3.938  1.00  0.00     0.069 C 
ATOM     23  H   UNL     1      -1.591  -6.233  -0.128  1.00  0.00     0.190 HD
ENDBRANCH  15  16
ENDBRANCH  14  15
ENDBRANCH  13  14
ENDBRANCH   1  13
TORSDOF 7
ENDMDL
