MODEL 1
REMARK VINA RESULT:    -4.240      0.000      0.000
REMARK INTER + INTRA:          -5.142
REMARK INTER:                  -4.860
REMARK INTRA:                  -0.282
REMARK UNBOUND:                -0.282
REMARK SMILES O=C(O)c1ccc2nc(-c3cc(Cl)cc(Cl)c3)oc2c1
REMARK SMILES IDX 5 1 6 2 20 3 8 4 18 5 4 6 9 7 7 8 19 9 2 10 1 11 3 12 10 14
REMARK SMILES IDX 11 15 17 16 12 17 15 18 14 19 13 20 16 21
REMARK H PARENT 3 13
ROOT
ATOM      1  C   UNL     1      13.300  -7.385   8.456  1.00  0.00     0.018 A 
ATOM      2  C   UNL     1      12.884  -6.168   8.904  1.00  0.00     0.033 A 
ATOM      3  C   UNL     1      12.093  -7.060   6.378  1.00  0.00     0.065 A 
ATOM      4  N   UNL     1      11.504  -4.150   8.266  1.00  0.00    -0.209 NA
ATOM      5  O   UNL     1      10.887  -4.855   6.302  1.00  0.00    -0.436 OA
ATOM      6  C   UNL     1      12.913  -7.846   7.190  1.00  0.00     0.063 A 
ATOM      7  C   UNL     1      10.809  -3.851   7.196  1.00  0.00     0.227 A 
ATOM      8  C   UNL     1      12.061  -5.369   8.101  1.00  0.00     0.110 A 
ATOM      9  C   UNL     1      11.664  -5.826   6.831  1.00  0.00     0.156 A 
ENDROOT
BRANCH   6  10
ATOM     10  C   UNL     1      13.374  -9.162   6.713  1.00  0.00     0.335 C 
ATOM     11  O   UNL     1      14.317  -9.236   5.951  1.00  0.00    -0.246 OA
BRANCH  10  12
ATOM     12  O   UNL     1      12.748 -10.284   7.122  1.00  0.00    -0.478 OA
ATOM     13  H   UNL     1      12.783 -10.488   8.066  1.00  0.00     0.297 HD
ENDBRANCH  10  12
ENDBRANCH   6  10
BRANCH   7  14
ATOM     14  C   UNL     1      10.052  -2.598   7.001  1.00  0.00     0.040 A 
ATOM     15  C   UNL     1      10.611  -1.375   7.375  1.00  0.00     0.034 A 
ATOM     16  C   UNL     1       8.773  -2.632   6.442  1.00  0.00     0.034 A 
ATOM     17  C   UNL     1       9.899  -0.207   7.188  1.00  0.00     0.043 A 
ATOM     18  C   UNL     1       8.070  -1.458   6.261  1.00  0.00     0.043 A 
ATOM     19  C   UNL     1       8.631  -0.248   6.634  1.00  0.00     0.041 A 
ATOM     20  Cl  UNL     1      10.593   1.315   7.652  1.00  0.00    -0.084 Cl
ATOM     21  Cl  UNL     1       6.479  -1.498   5.567  1.00  0.00    -0.084 Cl
ENDBRANCH   7  14
TORSDOF 3
ENDMDL
MODEL 2
REMARK VINA RESULT:    -4.236      0.003      2.019
REMARK INTER + INTRA:          -5.138
REMARK INTER:                  -4.855
REMARK INTRA:                  -0.282
REMARK UNBOUND:                -0.282
REMARK SMILES O=C(O)c1ccc2nc(-c3cc(Cl)cc(Cl)c3)oc2c1
REMARK SMILES IDX 5 1 6 2 20 3 8 4 18 5 4 6 9 7 7 8 19 9 2 10 1 11 3 12 10 14
REMARK SMILES IDX 11 15 17 16 12 17 15 18 14 19 13 20 16 21
REMARK H PARENT 3 13
ROOT
ATOM      1  C   UNL     1      13.299  -7.386   8.454  1.00  0.00     0.018 A 
ATOM      2  C   UNL     1      12.883  -6.168   8.903  1.00  0.00     0.033 A 
ATOM      3  C   UNL     1      12.092  -7.060   6.376  1.00  0.00     0.065 A 
ATOM      4  N   UNL     1      11.502  -4.151   8.265  1.00  0.00    -0.209 NA
ATOM      5  O   UNL     1      10.886  -4.855   6.300  1.00  0.00    -0.436 OA
ATOM      6  C   UNL     1      12.912  -7.846   7.188  1.00  0.00     0.063 A 
ATOM      7  C   UNL     1      10.808  -3.852   7.195  1.00  0.00     0.227 A 
ATOM      8  C   UNL     1      12.060  -5.369   8.099  1.00  0.00     0.110 A 
ATOM      9  C   UNL     1      11.664  -5.826   6.830  1.00  0.00     0.156 A 
ENDROOT
BRANCH   6  10
ATOM     10  C   UNL     1      13.374  -9.162   6.711  1.00  0.00     0.335 C 
ATOM     11  O   UNL     1      14.316  -9.235   5.947  1.00  0.00    -0.246 OA
BRANCH  10  12
ATOM     12  O   UNL     1      12.750 -10.285   7.120  1.00  0.00    -0.478 OA
ATOM     13  H   UNL     1      13.255 -11.108   7.077  1.00  0.00     0.297 HD
ENDBRANCH  10  12
ENDBRANCH   6  10
BRANCH   7  14
ATOM     14  C   UNL     1      10.050  -2.598   7.000  1.00  0.00     0.040 A 
ATOM     15  C   UNL     1       8.772  -2.631   6.442  1.00  0.00     0.034 A 
ATOM     16  C   UNL     1      10.612  -1.375   7.373  1.00  0.00     0.034 A 
ATOM     17  C   UNL     1       8.069  -1.456   6.264  1.00  0.00     0.043 A 
ATOM     18  C   UNL     1       9.899  -0.208   7.189  1.00  0.00     0.043 A 
ATOM     19  C   UNL     1       8.631  -0.247   6.635  1.00  0.00     0.041 A 
ATOM     20  Cl  UNL     1       6.478  -1.495   5.570  1.00  0.00    -0.084 Cl
ATOM     21  Cl  UNL     1      10.595   1.314   7.653  1.00  0.00    -0.084 Cl
ENDBRANCH   7  14
TORSDOF 3
ENDMDL
MODEL 3
REMARK VINA RESULT:    -4.110      5.477      8.295
REMARK INTER + INTRA:          -4.992
REMARK INTER:                  -4.710
REMARK INTRA:                  -0.282
REMARK UNBOUND:                -0.282
REMARK SMILES O=C(O)c1ccc2nc(-c3cc(Cl)cc(Cl)c3)oc2c1
REMARK SMILES IDX 5 1 6 2 20 3 8 4 18 5 4 6 9 7 7 8 19 9 2 10 1 11 3 12 10 14
REMARK SMILES IDX 11 15 17 16 12 17 15 18 14 19 13 20 16 21
REMARK H PARENT 3 13
ROOT
ATOM      1  C   UNL     1      14.620   2.381  10.358  1.00  0.00     0.018 A 
ATOM      2  C   UNL     1      14.359   1.329   9.533  1.00  0.00     0.033 A 
ATOM      3  C   UNL     1      12.274   2.997  10.353  1.00  0.00     0.065 A 
ATOM      4  N   UNL     1      12.496   0.150   8.299  1.00  0.00    -0.209 NA
ATOM      5  O   UNL     1      10.879   1.457   8.939  1.00  0.00    -0.436 OA
ATOM      6  C   UNL     1      13.584   3.226  10.780  1.00  0.00     0.063 A 
ATOM      7  C   UNL     1      11.209   0.374   8.210  1.00  0.00     0.227 A 
ATOM      8  C   UNL     1      13.050   1.087   9.098  1.00  0.00     0.110 A 
ATOM      9  C   UNL     1      12.006   1.933   9.512  1.00  0.00     0.156 A 
ENDROOT
BRANCH   6  10
ATOM     10  C   UNL     1      13.877   4.358  11.677  1.00  0.00     0.335 C 
ATOM     11  O   UNL     1      13.728   4.237  12.877  1.00  0.00    -0.246 OA
BRANCH  10  12
ATOM     12  O   UNL     1      14.309   5.529  11.167  1.00  0.00    -0.478 OA
ATOM     13  H   UNL     1      13.640   6.122  10.802  1.00  0.00     0.297 HD
ENDBRANCH  10  12
ENDBRANCH   6  10
BRANCH   7  14
ATOM     14  C   UNL     1      10.260  -0.441   7.424  1.00  0.00     0.040 A 
ATOM     15  C   UNL     1      10.369  -1.832   7.416  1.00  0.00     0.034 A 
ATOM     16  C   UNL     1       9.249   0.178   6.685  1.00  0.00     0.034 A 
ATOM     17  C   UNL     1       9.479  -2.588   6.680  1.00  0.00     0.043 A 
ATOM     18  C   UNL     1       8.365  -0.588   5.954  1.00  0.00     0.043 A 
ATOM     19  C   UNL     1       8.479  -1.968   5.949  1.00  0.00     0.041 A 
ATOM     20  Cl  UNL     1       9.613  -4.319   6.668  1.00  0.00    -0.084 Cl
ATOM     21  Cl  UNL     1       7.107   0.180   5.035  1.00  0.00    -0.084 Cl
ENDBRANCH   7  14
TORSDOF 3
ENDMDL
MODEL 4
REMARK VINA RESULT:    -3.708      3.827      7.620
REMARK INTER + INTRA:          -4.532
REMARK INTER:                  -4.253
REMARK INTRA:                  -0.279
REMARK UNBOUND:                -0.282
REMARK SMILES O=C(O)c1ccc2nc(-c3cc(Cl)cc(Cl)c3)oc2c1
REMARK SMILES IDX 5 1 6 2 20 3 8 4 18 5 4 6 9 7 7 8 19 9 2 10 1 11 3 12 10 14
REMARK SMILES IDX 11 15 17 16 12 17 15 18 14 19 13 20 16 21
REMARK H PARENT 3 13
ROOT
ATOM      1  C   UNL     1       9.037   0.029   6.624  1.00  0.00     0.018 A 
ATOM      2  C   UNL     1      10.179  -0.501   7.145  1.00  0.00     0.033 A 
ATOM      3  C   UNL     1       8.097  -2.192   6.365  1.00  0.00     0.065 A 
ATOM      4  N   UNL     1      11.290  -2.686   7.755  1.00  0.00    -0.209 NA
ATOM      5  O   UNL     1       9.666  -3.996   7.141  1.00  0.00    -0.436 OA
ATOM      6  C   UNL     1       7.982  -0.807   6.230  1.00  0.00     0.063 A 
ATOM      7  C   UNL     1      10.903  -3.934   7.668  1.00  0.00     0.227 A 
ATOM      8  C   UNL     1      10.307  -1.888   7.286  1.00  0.00     0.110 A 
ATOM      9  C   UNL     1       9.256  -2.733   6.889  1.00  0.00     0.156 A 
ENDROOT
BRANCH   6  10
ATOM     10  C   UNL     1       6.749  -0.222   5.673  1.00  0.00     0.335 C 
ATOM     11  O   UNL     1       6.704   0.098   4.502  1.00  0.00    -0.246 OA
BRANCH  10  12
ATOM     12  O   UNL     1       5.672  -0.041   6.463  1.00  0.00    -0.478 OA
ATOM     13  H   UNL     1       5.129   0.740   6.293  1.00  0.00     0.297 HD
ENDBRANCH  10  12
ENDBRANCH   6  10
BRANCH   7  14
ATOM     14  C   UNL     1      11.708  -5.102   8.084  1.00  0.00     0.040 A 
ATOM     15  C   UNL     1      12.049  -6.086   7.155  1.00  0.00     0.034 A 
ATOM     16  C   UNL     1      12.129  -5.225   9.409  1.00  0.00     0.034 A 
ATOM     17  C   UNL     1      12.802  -7.173   7.550  1.00  0.00     0.043 A 
ATOM     18  C   UNL     1      12.882  -6.317   9.792  1.00  0.00     0.043 A 
ATOM     19  C   UNL     1      13.216  -7.290   8.866  1.00  0.00     0.041 A 
ATOM     20  Cl  UNL     1      13.228  -8.398   6.396  1.00  0.00    -0.084 Cl
ATOM     21  Cl  UNL     1      13.407  -6.473  11.440  1.00  0.00    -0.084 Cl
ENDBRANCH   7  14
TORSDOF 3
ENDMDL
MODEL 5
REMARK VINA RESULT:    -3.698      3.827      7.486
REMARK INTER + INTRA:          -4.520
REMARK INTER:                  -4.231
REMARK INTRA:                  -0.290
REMARK UNBOUND:                -0.282
REMARK SMILES O=C(O)c1ccc2nc(-c3cc(Cl)cc(Cl)c3)oc2c1
REMARK SMILES IDX 5 1 6 2 20 3 8 4 18 5 4 6 9 7 7 8 19 9 2 10 1 11 3 12 10 14
REMARK SMILES IDX 11 15 17 16 12 17 15 18 14 19 13 20 16 21
REMARK H PARENT 3 13
ROOT
ATOM      1  C   UNL     1       9.044   0.015   6.601  1.00  0.00     0.018 A 
ATOM      2  C   UNL     1      10.183  -0.512   7.132  1.00  0.00     0.033 A 
ATOM      3  C   UNL     1       8.108  -2.207   6.344  1.00  0.00     0.065 A 
ATOM      4  N   UNL     1      11.292  -2.693   7.760  1.00  0.00    -0.209 NA
ATOM      5  O   UNL     1       9.673  -4.008   7.139  1.00  0.00    -0.436 OA
ATOM      6  C   UNL     1       7.993  -0.823   6.203  1.00  0.00     0.063 A 
ATOM      7  C   UNL     1      10.906  -3.942   7.674  1.00  0.00     0.227 A 
ATOM      8  C   UNL     1      10.311  -1.898   7.280  1.00  0.00     0.110 A 
ATOM      9  C   UNL     1       9.264  -2.746   6.878  1.00  0.00     0.156 A 
ENDROOT
BRANCH   6  10
ATOM     10  C   UNL     1       6.763  -0.242   5.635  1.00  0.00     0.335 C 
ATOM     11  O   UNL     1       5.900  -0.968   5.185  1.00  0.00    -0.246 OA
BRANCH  10  12
ATOM     12  O   UNL     1       6.597   1.095   5.614  1.00  0.00    -0.478 OA
ATOM     13  H   UNL     1       6.381   1.524   6.453  1.00  0.00     0.297 HD
ENDBRANCH  10  12
ENDBRANCH   6  10
BRANCH   7  14
ATOM     14  C   UNL     1      11.709  -5.108   8.100  1.00  0.00     0.040 A 
ATOM     15  C   UNL     1      12.125  -5.224   9.427  1.00  0.00     0.034 A 
ATOM     16  C   UNL     1      12.054  -6.096   7.177  1.00  0.00     0.034 A 
ATOM     17  C   UNL     1      12.874  -6.316   9.820  1.00  0.00     0.043 A 
ATOM     18  C   UNL     1      12.803  -7.183   7.581  1.00  0.00     0.043 A 
ATOM     19  C   UNL     1      13.213  -7.293   8.899  1.00  0.00     0.041 A 
ATOM     20  Cl  UNL     1      13.393  -6.463  11.469  1.00  0.00    -0.084 Cl
ATOM     21  Cl  UNL     1      13.234  -8.414   6.434  1.00  0.00    -0.084 Cl
ENDBRANCH   7  14
TORSDOF 3
ENDMDL
MODEL 6
REMARK VINA RESULT:    -3.477      6.428      7.891
REMARK INTER + INTRA:          -4.268
REMARK INTER:                  -3.987
REMARK INTRA:                  -0.280
REMARK UNBOUND:                -0.282
REMARK SMILES O=C(O)c1ccc2nc(-c3cc(Cl)cc(Cl)c3)oc2c1
REMARK SMILES IDX 5 1 6 2 20 3 8 4 18 5 4 6 9 7 7 8 19 9 2 10 1 11 3 12 10 14
REMARK SMILES IDX 11 15 17 16 12 17 15 18 14 19 13 20 16 21
REMARK H PARENT 3 13
ROOT
ATOM      1  C   UNL     1      14.606   1.685   9.818  1.00  0.00     0.018 A 
ATOM      2  C   UNL     1      14.129   0.811   8.888  1.00  0.00     0.033 A 
ATOM      3  C   UNL     1      12.391   2.630  10.103  1.00  0.00     0.065 A 
ATOM      4  N   UNL     1      12.025   0.106   7.680  1.00  0.00    -0.209 NA
ATOM      5  O   UNL     1      10.679   1.528   8.627  1.00  0.00    -0.436 OA
ATOM      6  C   UNL     1      13.746   2.602  10.438  1.00  0.00     0.063 A 
ATOM      7  C   UNL     1      10.786   0.525   7.735  1.00  0.00     0.227 A 
ATOM      8  C   UNL     1      12.772   0.828   8.542  1.00  0.00     0.110 A 
ATOM      9  C   UNL     1      11.903   1.748   9.156  1.00  0.00     0.156 A 
ENDROOT
BRANCH   6  10
ATOM     10  C   UNL     1      14.272   3.539  11.447  1.00  0.00     0.335 C 
ATOM     11  O   UNL     1      14.413   4.713  11.171  1.00  0.00    -0.246 OA
BRANCH  10  12
ATOM     12  O   UNL     1      14.599   3.092  12.676  1.00  0.00    -0.478 OA
ATOM     13  H   UNL     1      14.623   3.745  13.388  1.00  0.00     0.297 HD
ENDBRANCH  10  12
ENDBRANCH   6  10
BRANCH   7  14
ATOM     14  C   UNL     1       9.670  -0.021   6.935  1.00  0.00     0.040 A 
ATOM     15  C   UNL     1       8.538  -0.533   7.570  1.00  0.00     0.034 A 
ATOM     16  C   UNL     1       9.745  -0.028   5.541  1.00  0.00     0.034 A 
ATOM     17  C   UNL     1       7.498  -1.042   6.817  1.00  0.00     0.043 A 
ATOM     18  C   UNL     1       8.699  -0.539   4.799  1.00  0.00     0.043 A 
ATOM     19  C   UNL     1       7.579  -1.046   5.434  1.00  0.00     0.041 A 
ATOM     20  Cl  UNL     1       6.088  -1.679   7.604  1.00  0.00    -0.084 Cl
ATOM     21  Cl  UNL     1       8.791  -0.549   3.065  1.00  0.00    -0.084 Cl
ENDBRANCH   7  14
TORSDOF 3
ENDMDL
MODEL 7
REMARK VINA RESULT:    -3.442      4.030      8.015
REMARK INTER + INTRA:          -4.227
REMARK INTER:                  -3.934
REMARK INTRA:                  -0.293
REMARK UNBOUND:                -0.282
REMARK SMILES O=C(O)c1ccc2nc(-c3cc(Cl)cc(Cl)c3)oc2c1
REMARK SMILES IDX 5 1 6 2 20 3 8 4 18 5 4 6 9 7 7 8 19 9 2 10 1 11 3 12 10 14
REMARK SMILES IDX 11 15 17 16 12 17 15 18 14 19 13 20 16 21
REMARK H PARENT 3 13
ROOT
ATOM      1  C   UNL     1       6.097  -0.186   6.633  1.00  0.00     0.018 A 
ATOM      2  C   UNL     1       6.592  -1.146   7.464  1.00  0.00     0.033 A 
ATOM      3  C   UNL     1       7.918  -0.561   5.077  1.00  0.00     0.065 A 
ATOM      4  N   UNL     1       8.475  -2.809   7.724  1.00  0.00    -0.209 NA
ATOM      5  O   UNL     1       9.506  -2.344   5.865  1.00  0.00    -0.436 OA
ATOM      6  C   UNL     1       6.750   0.117   5.430  1.00  0.00     0.063 A 
ATOM      7  C   UNL     1       9.507  -3.107   6.974  1.00  0.00     0.227 A 
ATOM      8  C   UNL     1       7.762  -1.834   7.121  1.00  0.00     0.110 A 
ATOM      9  C   UNL     1       8.426  -1.532   5.919  1.00  0.00     0.156 A 
ENDROOT
BRANCH   6  10
ATOM     10  C   UNL     1       6.202   1.153   4.537  1.00  0.00     0.335 C 
ATOM     11  O   UNL     1       5.325   1.895   4.933  1.00  0.00    -0.246 OA
BRANCH  10  12
ATOM     12  O   UNL     1       6.673   1.278   3.280  1.00  0.00    -0.478 OA
ATOM     13  H   UNL     1       7.608   1.500   3.181  1.00  0.00     0.297 HD
ENDBRANCH  10  12
ENDBRANCH   6  10
BRANCH   7  14
ATOM     14  C   UNL     1      10.523  -4.130   7.298  1.00  0.00     0.040 A 
ATOM     15  C   UNL     1      10.980  -5.003   6.310  1.00  0.00     0.034 A 
ATOM     16  C   UNL     1      11.029  -4.228   8.596  1.00  0.00     0.034 A 
ATOM     17  C   UNL     1      11.930  -5.956   6.619  1.00  0.00     0.043 A 
ATOM     18  C   UNL     1      11.978  -5.185   8.893  1.00  0.00     0.043 A 
ATOM     19  C   UNL     1      12.428  -6.047   7.908  1.00  0.00     0.041 A 
ATOM     20  Cl  UNL     1      12.501  -7.042   5.391  1.00  0.00    -0.084 Cl
ATOM     21  Cl  UNL     1      12.609  -5.308  10.507  1.00  0.00    -0.084 Cl
ENDBRANCH   7  14
TORSDOF 3
ENDMDL
MODEL 8
REMARK VINA RESULT:    -3.435      4.029      7.872
REMARK INTER + INTRA:          -4.219
REMARK INTER:                  -3.926
REMARK INTRA:                  -0.293
REMARK UNBOUND:                -0.282
REMARK SMILES O=C(O)c1ccc2nc(-c3cc(Cl)cc(Cl)c3)oc2c1
REMARK SMILES IDX 5 1 6 2 20 3 8 4 18 5 4 6 9 7 7 8 19 9 2 10 1 11 3 12 10 14
REMARK SMILES IDX 11 15 17 16 12 17 15 18 14 19 13 20 16 21
REMARK H PARENT 3 13
ROOT
ATOM      1  C   UNL     1       6.095  -0.191   6.627  1.00  0.00     0.018 A 
ATOM      2  C   UNL     1       6.589  -1.151   7.459  1.00  0.00     0.033 A 
ATOM      3  C   UNL     1       7.922  -0.563   5.076  1.00  0.00     0.065 A 
ATOM      4  N   UNL     1       8.475  -2.811   7.725  1.00  0.00    -0.209 NA
ATOM      5  O   UNL     1       9.510  -2.343   5.869  1.00  0.00    -0.436 OA
ATOM      6  C   UNL     1       6.752   0.113   5.426  1.00  0.00     0.063 A 
ATOM      7  C   UNL     1       9.509  -3.107   6.978  1.00  0.00     0.227 A 
ATOM      8  C   UNL     1       7.762  -1.836   7.120  1.00  0.00     0.110 A 
ATOM      9  C   UNL     1       8.429  -1.533   5.920  1.00  0.00     0.156 A 
ENDROOT
BRANCH   6  10
ATOM     10  C   UNL     1       6.205   1.148   4.531  1.00  0.00     0.335 C 
ATOM     11  O   UNL     1       5.326   1.889   4.924  1.00  0.00    -0.246 OA
BRANCH  10  12
ATOM     12  O   UNL     1       6.678   1.272   3.275  1.00  0.00    -0.478 OA
ATOM     13  H   UNL     1       6.029   1.265   2.558  1.00  0.00     0.297 HD
ENDBRANCH  10  12
ENDBRANCH   6  10
BRANCH   7  14
ATOM     14  C   UNL     1      10.526  -4.128   7.305  1.00  0.00     0.040 A 
ATOM     15  C   UNL     1      11.035  -4.220   8.601  1.00  0.00     0.034 A 
ATOM     16  C   UNL     1      10.981  -5.005   6.318  1.00  0.00     0.034 A 
ATOM     17  C   UNL     1      11.984  -5.177   8.901  1.00  0.00     0.043 A 
ATOM     18  C   UNL     1      11.930  -5.958   6.630  1.00  0.00     0.043 A 
ATOM     19  C   UNL     1      12.431  -6.044   7.918  1.00  0.00     0.041 A 
ATOM     20  Cl  UNL     1      12.619  -5.294  10.512  1.00  0.00    -0.084 Cl
ATOM     21  Cl  UNL     1      12.497  -7.049   5.405  1.00  0.00    -0.084 Cl
ENDBRANCH   7  14
TORSDOF 3
ENDMDL
