MODEL 1
REMARK VINA RESULT:    -5.466      0.000      0.000
REMARK INTER + INTRA:          -7.997
REMARK INTER:                  -7.543
REMARK INTRA:                  -0.454
REMARK UNBOUND:                -0.454
REMARK SMILES Cc1n[nH]c(C)c1CCCOc1cc(C(=O)O)ccc1F
REMARK SMILES IDX 11 1 12 2 14 3 18 4 13 5 19 6 20 7 21 8 15 9 16 10 17 11
REMARK SMILES IDX 10 13 9 14 8 15 7 16 5 17 2 18 4 19 3 20 6 21 1 22
REMARK H PARENT 17 12 4 23
ROOT
ATOM      1  O   UNL     1       5.254  -0.269   7.232  1.00  0.00    -0.490 OA
ENDROOT
BRANCH   1   2
ATOM      2  C   UNL     1       4.900  -0.132   5.926  1.00  0.00     0.155 A 
ATOM      3  C   UNL     1       5.118   0.989   3.810  1.00  0.00     0.063 A 
ATOM      4  C   UNL     1       4.169   0.124   3.258  1.00  0.00     0.019 A 
ATOM      5  C   UNL     1       5.480   0.855   5.152  1.00  0.00     0.065 A 
ATOM      6  C   UNL     1       3.600  -0.862   4.036  1.00  0.00     0.044 A 
ATOM      7  C   UNL     1       3.965  -0.996   5.366  1.00  0.00     0.165 A 
ATOM      8  F   UNL     1       3.403  -1.964   6.123  1.00  0.00    -0.203 F 
BRANCH   3   9
ATOM      9  C   UNL     1       5.729   2.045   2.980  1.00  0.00     0.335 C 
ATOM     10  O   UNL     1       6.303   2.977   3.507  1.00  0.00    -0.246 OA
BRANCH   9  11
ATOM     11  O   UNL     1       5.657   1.972   1.636  1.00  0.00    -0.478 OA
ATOM     12  H   UNL     1       5.061   2.592   1.194  1.00  0.00     0.297 HD
ENDBRANCH   9  11
ENDBRANCH   3   9
ENDBRANCH   1   2
BRANCH   1  13
ATOM     13  C   UNL     1       5.902  -1.488   7.603  1.00  0.00     0.230 C 
BRANCH  13  14
ATOM     14  C   UNL     1       7.365  -1.203   7.948  1.00  0.00     0.046 C 
BRANCH  14  15
ATOM     15  C   UNL     1       8.247  -1.545   6.745  1.00  0.00     0.043 C 
BRANCH  15  16
ATOM     16  C   UNL     1       9.656  -1.802   7.212  1.00  0.00    -0.004 A 
ATOM     17  C   UNL     1      10.578  -0.859   7.520  1.00  0.00     0.036 A 
ATOM     18  C   UNL     1      10.242  -3.056   7.411  1.00  0.00     0.063 A 
ATOM     19  N   UNL     1      11.708  -1.495   7.894  1.00  0.00    -0.282 N 
ATOM     20  N   UNL     1      11.473  -2.874   7.813  1.00  0.00    -0.181 NA
ATOM     21  C   UNL     1      10.377   0.632   7.457  1.00  0.00     0.066 C 
ATOM     22  C   UNL     1       9.573  -4.389   7.189  1.00  0.00     0.069 C 
ATOM     23  H   UNL     1      12.536  -1.073   8.169  1.00  0.00     0.190 HD
ENDBRANCH  15  16
ENDBRANCH  14  15
ENDBRANCH  13  14
ENDBRANCH   1  13
TORSDOF 7
ENDMDL
MODEL 2
REMARK VINA RESULT:    -5.445      2.320      3.949
REMARK INTER + INTRA:          -7.968
REMARK INTER:                  -7.428
REMARK INTRA:                  -0.540
REMARK UNBOUND:                -0.454
REMARK SMILES Cc1n[nH]c(C)c1CCCOc1cc(C(=O)O)ccc1F
REMARK SMILES IDX 11 1 12 2 14 3 18 4 13 5 19 6 20 7 21 8 15 9 16 10 17 11
REMARK SMILES IDX 10 13 9 14 8 15 7 16 5 17 2 18 4 19 3 20 6 21 1 22
REMARK H PARENT 17 12 4 23
ROOT
ATOM      1  O   UNL     1       7.513  -0.765   3.032  1.00  0.00    -0.490 OA
ENDROOT
BRANCH   1   2
ATOM      2  C   UNL     1       6.233  -0.492   3.399  1.00  0.00     0.155 A 
ATOM      3  C   UNL     1       4.185  -1.146   4.476  1.00  0.00     0.063 A 
ATOM      4  C   UNL     1       3.622   0.090   4.148  1.00  0.00     0.019 A 
ATOM      5  C   UNL     1       5.498  -1.433   4.096  1.00  0.00     0.065 A 
ATOM      6  C   UNL     1       4.365   1.024   3.458  1.00  0.00     0.044 A 
ATOM      7  C   UNL     1       5.668   0.740   3.086  1.00  0.00     0.165 A 
ATOM      8  F   UNL     1       6.391   1.660   2.410  1.00  0.00    -0.203 F 
BRANCH   3   9
ATOM      9  C   UNL     1       3.393  -2.148   5.216  1.00  0.00     0.335 C 
ATOM     10  O   UNL     1       3.696  -3.323   5.163  1.00  0.00    -0.246 OA
BRANCH   9  11
ATOM     11  O   UNL     1       2.336  -1.759   5.956  1.00  0.00    -0.478 OA
ATOM     12  H   UNL     1       2.439  -1.786   6.917  1.00  0.00     0.297 HD
ENDBRANCH   9  11
ENDBRANCH   3   9
ENDBRANCH   1   2
BRANCH   1  13
ATOM     13  C   UNL     1       8.546  -0.015   3.675  1.00  0.00     0.230 C 
BRANCH  13  14
ATOM     14  C   UNL     1       9.375  -0.946   4.562  1.00  0.00     0.046 C 
BRANCH  14  15
ATOM     15  C   UNL     1       8.935  -0.788   6.019  1.00  0.00     0.043 C 
BRANCH  15  16
ATOM     16  C   UNL     1      10.068  -1.176   6.932  1.00  0.00    -0.004 A 
ATOM     17  C   UNL     1      10.393  -2.435   7.307  1.00  0.00     0.036 A 
ATOM     18  C   UNL     1      10.976  -0.300   7.536  1.00  0.00     0.063 A 
ATOM     19  N   UNL     1      11.464  -2.358   8.125  1.00  0.00    -0.282 N 
ATOM     20  N   UNL     1      11.808  -1.006   8.257  1.00  0.00    -0.181 NA
ATOM     21  C   UNL     1       9.686  -3.697   6.887  1.00  0.00     0.066 C 
ATOM     22  C   UNL     1      10.985   1.201   7.392  1.00  0.00     0.069 C 
ATOM     23  H   UNL     1      11.914  -3.105   8.548  1.00  0.00     0.190 HD
ENDBRANCH  15  16
ENDBRANCH  14  15
ENDBRANCH  13  14
ENDBRANCH   1  13
TORSDOF 7
ENDMDL
MODEL 3
REMARK VINA RESULT:    -5.389      0.135      1.772
REMARK INTER + INTRA:          -7.891
REMARK INTER:                  -7.397
REMARK INTRA:                  -0.494
REMARK UNBOUND:                -0.454
REMARK SMILES Cc1n[nH]c(C)c1CCCOc1cc(C(=O)O)ccc1F
REMARK SMILES IDX 11 1 12 2 14 3 18 4 13 5 19 6 20 7 21 8 15 9 16 10 17 11
REMARK SMILES IDX 10 13 9 14 8 15 7 16 5 17 2 18 4 19 3 20 6 21 1 22
REMARK H PARENT 17 12 4 23
ROOT
ATOM      1  O   UNL     1       5.365  -0.251   7.214  1.00  0.00    -0.490 OA
ENDROOT
BRANCH   1   2
ATOM      2  C   UNL     1       4.972  -0.107   5.921  1.00  0.00     0.155 A 
ATOM      3  C   UNL     1       5.135   1.017   3.801  1.00  0.00     0.063 A 
ATOM      4  C   UNL     1       4.162   0.163   3.277  1.00  0.00     0.019 A 
ATOM      5  C   UNL     1       5.538   0.876   5.131  1.00  0.00     0.065 A 
ATOM      6  C   UNL     1       3.607  -0.819   4.071  1.00  0.00     0.044 A 
ATOM      7  C   UNL     1       4.012  -0.961   5.388  1.00  0.00     0.165 A 
ATOM      8  F   UNL     1       3.465  -1.925   6.160  1.00  0.00    -0.203 F 
BRANCH   3   9
ATOM      9  C   UNL     1       5.731   2.069   2.955  1.00  0.00     0.335 C 
ATOM     10  O   UNL     1       6.275   3.026   3.467  1.00  0.00    -0.246 OA
BRANCH   9  11
ATOM     11  O   UNL     1       5.678   1.963   1.612  1.00  0.00    -0.478 OA
ATOM     12  H   UNL     1       4.802   1.851   1.215  1.00  0.00     0.297 HD
ENDBRANCH   9  11
ENDBRANCH   3   9
ENDBRANCH   1   2
BRANCH   1  13
ATOM     13  C   UNL     1       6.032  -1.468   7.558  1.00  0.00     0.230 C 
BRANCH  13  14
ATOM     14  C   UNL     1       7.490  -1.167   7.911  1.00  0.00     0.046 C 
BRANCH  14  15
ATOM     15  C   UNL     1       8.391  -1.560   6.738  1.00  0.00     0.043 C 
BRANCH  15  16
ATOM     16  C   UNL     1       9.765  -1.903   7.252  1.00  0.00    -0.004 A 
ATOM     17  C   UNL     1      10.256  -3.149   7.444  1.00  0.00     0.036 A 
ATOM     18  C   UNL     1      10.762  -0.988   7.609  1.00  0.00     0.063 A 
ATOM     19  N   UNL     1      11.516  -3.028   7.912  1.00  0.00    -0.282 N 
ATOM     20  N   UNL     1      11.809  -1.661   8.011  1.00  0.00    -0.181 NA
ATOM     21  C   UNL     1       9.527  -4.441   7.181  1.00  0.00     0.066 C 
ATOM     22  C   UNL     1      10.645   0.514   7.553  1.00  0.00     0.069 C 
ATOM     23  H   UNL     1      12.113  -3.757   8.140  1.00  0.00     0.190 HD
ENDBRANCH  15  16
ENDBRANCH  14  15
ENDBRANCH  13  14
ENDBRANCH   1  13
TORSDOF 7
ENDMDL
MODEL 4
REMARK VINA RESULT:    -5.345      2.331      3.543
REMARK INTER + INTRA:          -7.829
REMARK INTER:                  -7.278
REMARK INTRA:                  -0.552
REMARK UNBOUND:                -0.454
REMARK SMILES Cc1n[nH]c(C)c1CCCOc1cc(C(=O)O)ccc1F
REMARK SMILES IDX 11 1 12 2 14 3 18 4 13 5 19 6 20 7 21 8 15 9 16 10 17 11
REMARK SMILES IDX 10 13 9 14 8 15 7 16 5 17 2 18 4 19 3 20 6 21 1 22
REMARK H PARENT 17 12 4 23
ROOT
ATOM      1  O   UNL     1       7.520  -0.731   3.016  1.00  0.00    -0.490 OA
ENDROOT
BRANCH   1   2
ATOM      2  C   UNL     1       6.241  -0.468   3.397  1.00  0.00     0.155 A 
ATOM      3  C   UNL     1       4.205  -1.144   4.482  1.00  0.00     0.063 A 
ATOM      4  C   UNL     1       3.634   0.094   4.174  1.00  0.00     0.019 A 
ATOM      5  C   UNL     1       5.516  -1.420   4.088  1.00  0.00     0.065 A 
ATOM      6  C   UNL     1       4.368   1.040   3.489  1.00  0.00     0.044 A 
ATOM      7  C   UNL     1       5.669   0.765   3.104  1.00  0.00     0.165 A 
ATOM      8  F   UNL     1       6.383   1.697   2.433  1.00  0.00    -0.203 F 
BRANCH   3   9
ATOM      9  C   UNL     1       3.423  -2.158   5.216  1.00  0.00     0.335 C 
ATOM     10  O   UNL     1       3.769  -3.322   5.198  1.00  0.00    -0.246 OA
BRANCH   9  11
ATOM     11  O   UNL     1       2.328  -1.792   5.911  1.00  0.00    -0.478 OA
ATOM     12  H   UNL     1       1.586  -1.433   5.404  1.00  0.00     0.297 HD
ENDBRANCH   9  11
ENDBRANCH   3   9
ENDBRANCH   1   2
BRANCH   1  13
ATOM     13  C   UNL     1       8.557  -0.006   3.681  1.00  0.00     0.230 C 
BRANCH  13  14
ATOM     14  C   UNL     1       9.339  -0.955   4.592  1.00  0.00     0.046 C 
BRANCH  14  15
ATOM     15  C   UNL     1       8.941  -0.708   6.048  1.00  0.00     0.043 C 
BRANCH  15  16
ATOM     16  C   UNL     1      10.115  -0.997   6.947  1.00  0.00    -0.004 A 
ATOM     17  C   UNL     1      10.946  -0.079   7.492  1.00  0.00     0.036 A 
ATOM     18  C   UNL     1      10.535  -2.263   7.370  1.00  0.00     0.063 A 
ATOM     19  N   UNL     1      11.863  -0.740   8.229  1.00  0.00    -0.282 N 
ATOM     20  N   UNL     1      11.587  -2.110   8.133  1.00  0.00    -0.181 NA
ATOM     21  C   UNL     1      10.862   1.414   7.309  1.00  0.00     0.066 C 
ATOM     22  C   UNL     1       9.893  -3.576   7.002  1.00  0.00     0.069 C 
ATOM     23  H   UNL     1      12.587  -0.338   8.734  1.00  0.00     0.190 HD
ENDBRANCH  15  16
ENDBRANCH  14  15
ENDBRANCH  13  14
ENDBRANCH   1  13
TORSDOF 7
ENDMDL
MODEL 5
REMARK VINA RESULT:    -4.588      3.160      4.423
REMARK INTER + INTRA:          -6.785
REMARK INTER:                  -6.246
REMARK INTRA:                  -0.538
REMARK UNBOUND:                -0.454
REMARK SMILES Cc1n[nH]c(C)c1CCCOc1cc(C(=O)O)ccc1F
REMARK SMILES IDX 11 1 12 2 14 3 18 4 13 5 19 6 20 7 21 8 15 9 16 10 17 11
REMARK SMILES IDX 10 13 9 14 8 15 7 16 5 17 2 18 4 19 3 20 6 21 1 22
REMARK H PARENT 17 12 4 23
ROOT
ATOM      1  O   UNL     1       9.321  -2.146   7.351  1.00  0.00    -0.490 OA
ENDROOT
BRANCH   1   2
ATOM      2  C   UNL     1       8.292  -1.520   6.719  1.00  0.00     0.155 A 
ATOM      3  C   UNL     1       7.378  -0.461   4.763  1.00  0.00     0.063 A 
ATOM      4  C   UNL     1       6.175  -0.253   5.443  1.00  0.00     0.019 A 
ATOM      5  C   UNL     1       8.438  -1.099   5.410  1.00  0.00     0.065 A 
ATOM      6  C   UNL     1       6.037  -0.681   6.746  1.00  0.00     0.044 A 
ATOM      7  C   UNL     1       7.088  -1.318   7.385  1.00  0.00     0.165 A 
ATOM      8  F   UNL     1       6.946  -1.736   8.662  1.00  0.00    -0.203 F 
BRANCH   3   9
ATOM      9  C   UNL     1       7.529  -0.004   3.368  1.00  0.00     0.335 C 
ATOM     10  O   UNL     1       6.785   0.845   2.923  1.00  0.00    -0.246 OA
BRANCH   9  11
ATOM     11  O   UNL     1       8.498  -0.525   2.590  1.00  0.00    -0.478 OA
ATOM     12  H   UNL     1       9.358  -0.082   2.604  1.00  0.00     0.297 HD
ENDBRANCH   9  11
ENDBRANCH   3   9
ENDBRANCH   1   2
BRANCH   1  13
ATOM     13  C   UNL     1       9.830  -3.334   6.740  1.00  0.00     0.230 C 
BRANCH  13  14
ATOM     14  C   UNL     1      10.126  -4.375   7.821  1.00  0.00     0.046 C 
BRANCH  14  15
ATOM     15  C   UNL     1      11.619  -4.352   8.157  1.00  0.00     0.043 C 
BRANCH  15  16
ATOM     16  C   UNL     1      12.127  -5.763   8.292  1.00  0.00    -0.004 A 
ATOM     17  C   UNL     1      12.408  -6.401   9.452  1.00  0.00     0.036 A 
ATOM     18  C   UNL     1      12.384  -6.650   7.240  1.00  0.00     0.063 A 
ATOM     19  N   UNL     1      12.835  -7.644   9.145  1.00  0.00    -0.282 N 
ATOM     20  N   UNL     1      12.816  -7.774   7.750  1.00  0.00    -0.181 NA
ATOM     21  C   UNL     1      12.269  -5.827  10.837  1.00  0.00     0.066 C 
ATOM     22  C   UNL     1      12.208  -6.355   5.773  1.00  0.00     0.069 C 
ATOM     23  H   UNL     1      13.109  -8.326   9.778  1.00  0.00     0.190 HD
ENDBRANCH  15  16
ENDBRANCH  14  15
ENDBRANCH  13  14
ENDBRANCH   1  13
TORSDOF 7
ENDMDL
MODEL 6
REMARK VINA RESULT:    -4.444      4.805      8.243
REMARK INTER + INTRA:          -6.587
REMARK INTER:                  -5.969
REMARK INTRA:                  -0.618
REMARK UNBOUND:                -0.454
REMARK SMILES Cc1n[nH]c(C)c1CCCOc1cc(C(=O)O)ccc1F
REMARK SMILES IDX 11 1 12 2 14 3 18 4 13 5 19 6 20 7 21 8 15 9 16 10 17 11
REMARK SMILES IDX 10 13 9 14 8 15 7 16 5 17 2 18 4 19 3 20 6 21 1 22
REMARK H PARENT 17 12 4 23
ROOT
ATOM      1  O   UNL     1       9.620  -3.486   7.214  1.00  0.00    -0.490 OA
ENDROOT
BRANCH   1   2
ATOM      2  C   UNL     1      10.611  -4.374   7.492  1.00  0.00     0.155 A 
ATOM      3  C   UNL     1      12.344  -5.179   8.952  1.00  0.00     0.063 A 
ATOM      4  C   UNL     1      12.624  -6.206   8.047  1.00  0.00     0.019 A 
ATOM      5  C   UNL     1      11.330  -4.261   8.667  1.00  0.00     0.065 A 
ATOM      6  C   UNL     1      11.896  -6.314   6.881  1.00  0.00     0.044 A 
ATOM      7  C   UNL     1      10.888  -5.406   6.602  1.00  0.00     0.165 A 
ATOM      8  F   UNL     1      10.179  -5.518   5.458  1.00  0.00    -0.203 F 
BRANCH   3   9
ATOM      9  C   UNL     1      13.120  -5.060  10.202  1.00  0.00     0.335 C 
ATOM     10  O   UNL     1      13.566  -6.055  10.736  1.00  0.00    -0.246 OA
BRANCH   9  11
ATOM     11  O   UNL     1      13.339  -3.847  10.746  1.00  0.00    -0.478 OA
ATOM     12  H   UNL     1      13.257  -3.082  10.160  1.00  0.00     0.297 HD
ENDBRANCH   9  11
ENDBRANCH   3   9
ENDBRANCH   1   2
BRANCH   1  13
ATOM     13  C   UNL     1      10.018  -2.152   6.888  1.00  0.00     0.230 C 
BRANCH  13  14
ATOM     14  C   UNL     1       8.785  -1.248   6.847  1.00  0.00     0.046 C 
BRANCH  14  15
ATOM     15  C   UNL     1       7.748  -1.842   5.890  1.00  0.00     0.043 C 
BRANCH  15  16
ATOM     16  C   UNL     1       6.829  -0.752   5.403  1.00  0.00    -0.004 A 
ATOM     17  C   UNL     1       5.744  -0.276   6.056  1.00  0.00     0.036 A 
ATOM     18  C   UNL     1       6.951  -0.049   4.200  1.00  0.00     0.063 A 
ATOM     19  N   UNL     1       5.194   0.690   5.289  1.00  0.00    -0.282 N 
ATOM     20  N   UNL     1       5.968   0.811   4.128  1.00  0.00    -0.181 NA
ATOM     21  C   UNL     1       5.239  -0.740   7.397  1.00  0.00     0.066 C 
ATOM     22  C   UNL     1       8.024  -0.255   3.161  1.00  0.00     0.069 C 
ATOM     23  H   UNL     1       4.403   1.208   5.504  1.00  0.00     0.190 HD
ENDBRANCH  15  16
ENDBRANCH  14  15
ENDBRANCH  13  14
ENDBRANCH   1  13
TORSDOF 7
ENDMDL
MODEL 7
REMARK VINA RESULT:    -4.443      4.809      8.221
REMARK INTER + INTRA:          -6.585
REMARK INTER:                  -5.969
REMARK INTRA:                  -0.616
REMARK UNBOUND:                -0.454
REMARK SMILES Cc1n[nH]c(C)c1CCCOc1cc(C(=O)O)ccc1F
REMARK SMILES IDX 11 1 12 2 14 3 18 4 13 5 19 6 20 7 21 8 15 9 16 10 17 11
REMARK SMILES IDX 10 13 9 14 8 15 7 16 5 17 2 18 4 19 3 20 6 21 1 22
REMARK H PARENT 17 12 4 23
ROOT
ATOM      1  O   UNL     1       9.618  -3.476   7.253  1.00  0.00    -0.490 OA
ENDROOT
BRANCH   1   2
ATOM      2  C   UNL     1      10.615  -4.361   7.520  1.00  0.00     0.155 A 
ATOM      3  C   UNL     1      12.370  -5.158   8.958  1.00  0.00     0.063 A 
ATOM      4  C   UNL     1      12.641  -6.186   8.050  1.00  0.00     0.019 A 
ATOM      5  C   UNL     1      11.350  -4.244   8.685  1.00  0.00     0.065 A 
ATOM      6  C   UNL     1      11.899  -6.298   6.894  1.00  0.00     0.044 A 
ATOM      7  C   UNL     1      10.885  -5.394   6.628  1.00  0.00     0.165 A 
ATOM      8  F   UNL     1      10.161  -5.509   5.492  1.00  0.00    -0.203 F 
BRANCH   3   9
ATOM      9  C   UNL     1      13.162  -5.036  10.197  1.00  0.00     0.335 C 
ATOM     10  O   UNL     1      13.638  -6.025  10.714  1.00  0.00    -0.246 OA
BRANCH   9  11
ATOM     11  O   UNL     1      13.363  -3.824  10.751  1.00  0.00    -0.478 OA
ATOM     12  H   UNL     1      12.987  -3.062  10.288  1.00  0.00     0.297 HD
ENDBRANCH   9  11
ENDBRANCH   3   9
ENDBRANCH   1   2
BRANCH   1  13
ATOM     13  C   UNL     1      10.009  -2.153   6.879  1.00  0.00     0.230 C 
BRANCH  13  14
ATOM     14  C   UNL     1       8.774  -1.250   6.838  1.00  0.00     0.046 C 
BRANCH  14  15
ATOM     15  C   UNL     1       7.757  -1.822   5.848  1.00  0.00     0.043 C 
BRANCH  15  16
ATOM     16  C   UNL     1       6.841  -0.722   5.378  1.00  0.00    -0.004 A 
ATOM     17  C   UNL     1       6.950  -0.037   4.216  1.00  0.00     0.036 A 
ATOM     18  C   UNL     1       5.722  -0.233   6.062  1.00  0.00     0.063 A 
ATOM     19  N   UNL     1       5.941   0.858   4.169  1.00  0.00    -0.282 N 
ATOM     20  N   UNL     1       5.186   0.718   5.342  1.00  0.00    -0.181 NA
ATOM     21  C   UNL     1       8.008  -0.238   3.163  1.00  0.00     0.066 C 
ATOM     22  C   UNL     1       5.228  -0.712   7.403  1.00  0.00     0.069 C 
ATOM     23  H   UNL     1       5.769   1.487   3.452  1.00  0.00     0.190 HD
ENDBRANCH  15  16
ENDBRANCH  14  15
ENDBRANCH  13  14
ENDBRANCH   1  13
TORSDOF 7
ENDMDL
MODEL 8
REMARK VINA RESULT:    -4.429      3.931      6.949
REMARK INTER + INTRA:          -6.566
REMARK INTER:                  -5.761
REMARK INTRA:                  -0.805
REMARK UNBOUND:                -0.454
REMARK SMILES Cc1n[nH]c(C)c1CCCOc1cc(C(=O)O)ccc1F
REMARK SMILES IDX 11 1 12 2 14 3 18 4 13 5 19 6 20 7 21 8 15 9 16 10 17 11
REMARK SMILES IDX 10 13 9 14 8 15 7 16 5 17 2 18 4 19 3 20 6 21 1 22
REMARK H PARENT 17 12 4 23
ROOT
ATOM      1  O   UNL     1       8.128   0.104   5.660  1.00  0.00    -0.490 OA
ENDROOT
BRANCH   1   2
ATOM      2  C   UNL     1       9.063  -0.612   6.341  1.00  0.00     0.155 A 
ATOM      3  C   UNL     1       9.988  -2.725   7.019  1.00  0.00     0.063 A 
ATOM      4  C   UNL     1      10.987  -2.055   7.730  1.00  0.00     0.019 A 
ATOM      5  C   UNL     1       9.024  -1.994   6.323  1.00  0.00     0.065 A 
ATOM      6  C   UNL     1      11.022  -0.676   7.737  1.00  0.00     0.044 A 
ATOM      7  C   UNL     1      10.067   0.047   7.042  1.00  0.00     0.165 A 
ATOM      8  F   UNL     1      10.106   1.398   7.053  1.00  0.00    -0.203 F 
BRANCH   3   9
ATOM      9  C   UNL     1       9.949  -4.200   7.009  1.00  0.00     0.335 C 
ATOM     10  O   UNL     1       9.313  -4.797   7.854  1.00  0.00    -0.246 OA
BRANCH   9  11
ATOM     11  O   UNL     1      10.614  -4.885   6.059  1.00  0.00    -0.478 OA
ATOM     12  H   UNL     1      10.473  -4.613   5.141  1.00  0.00     0.297 HD
ENDBRANCH   9  11
ENDBRANCH   3   9
ENDBRANCH   1   2
BRANCH   1  13
ATOM     13  C   UNL     1       7.788  -0.356   4.349  1.00  0.00     0.230 C 
BRANCH  13  14
ATOM     14  C   UNL     1       6.563   0.409   3.844  1.00  0.00     0.046 C 
BRANCH  14  15
ATOM     15  C   UNL     1       5.690   0.817   5.033  1.00  0.00     0.043 C 
BRANCH  15  16
ATOM     16  C   UNL     1       4.649  -0.243   5.281  1.00  0.00    -0.004 A 
ATOM     17  C   UNL     1       3.616  -0.551   4.463  1.00  0.00     0.036 A 
ATOM     18  C   UNL     1       4.583  -1.088   6.394  1.00  0.00     0.063 A 
ATOM     19  N   UNL     1       2.916  -1.550   5.041  1.00  0.00    -0.282 N 
ATOM     20  N   UNL     1       3.541  -1.867   6.254  1.00  0.00    -0.181 NA
ATOM     21  C   UNL     1       3.302   0.105   3.143  1.00  0.00     0.066 C 
ATOM     22  C   UNL     1       5.539  -1.092   7.559  1.00  0.00     0.069 C 
ATOM     23  H   UNL     1       2.122  -1.973   4.680  1.00  0.00     0.190 HD
ENDBRANCH  15  16
ENDBRANCH  14  15
ENDBRANCH  13  14
ENDBRANCH   1  13
TORSDOF 7
ENDMDL
MODEL 9
REMARK VINA RESULT:    -4.423      3.670      5.584
REMARK INTER + INTRA:          -6.557
REMARK INTER:                  -6.019
REMARK INTRA:                  -0.539
REMARK UNBOUND:                -0.454
REMARK SMILES Cc1n[nH]c(C)c1CCCOc1cc(C(=O)O)ccc1F
REMARK SMILES IDX 11 1 12 2 14 3 18 4 13 5 19 6 20 7 21 8 15 9 16 10 17 11
REMARK SMILES IDX 10 13 9 14 8 15 7 16 5 17 2 18 4 19 3 20 6 21 1 22
REMARK H PARENT 17 12 4 23
ROOT
ATOM      1  O   UNL     1      10.138  -2.459   7.025  1.00  0.00    -0.490 OA
ENDROOT
BRANCH   1   2
ATOM      2  C   UNL     1       9.034  -1.759   6.653  1.00  0.00     0.155 A 
ATOM      3  C   UNL     1       6.769  -1.062   7.060  1.00  0.00     0.063 A 
ATOM      4  C   UNL     1       6.790  -0.314   5.880  1.00  0.00     0.019 A 
ATOM      5  C   UNL     1       7.900  -1.787   7.443  1.00  0.00     0.065 A 
ATOM      6  C   UNL     1       7.928  -0.288   5.102  1.00  0.00     0.044 A 
ATOM      7  C   UNL     1       9.050  -1.003   5.486  1.00  0.00     0.165 A 
ATOM      8  F   UNL     1      10.162  -0.974   4.718  1.00  0.00    -0.203 F 
BRANCH   3   9
ATOM      9  C   UNL     1       5.552  -1.092   7.896  1.00  0.00     0.335 C 
ATOM     10  O   UNL     1       4.515  -0.623   7.476  1.00  0.00    -0.246 OA
BRANCH   9  11
ATOM     11  O   UNL     1       5.593  -1.646   9.124  1.00  0.00    -0.478 OA
ATOM     12  H   UNL     1       5.272  -1.107   9.860  1.00  0.00     0.297 HD
ENDBRANCH   9  11
ENDBRANCH   3   9
ENDBRANCH   1   2
BRANCH   1  13
ATOM     13  C   UNL     1      10.134  -3.865   6.764  1.00  0.00     0.230 C 
BRANCH  13  14
ATOM     14  C   UNL     1      10.462  -4.622   8.052  1.00  0.00     0.046 C 
BRANCH  14  15
ATOM     15  C   UNL     1      11.979  -4.657   8.251  1.00  0.00     0.043 C 
BRANCH  15  16
ATOM     16  C   UNL     1      12.441  -6.088   8.349  1.00  0.00    -0.004 A 
ATOM     17  C   UNL     1      12.684  -6.919   7.309  1.00  0.00     0.036 A 
ATOM     18  C   UNL     1      12.701  -6.790   9.530  1.00  0.00     0.063 A 
ATOM     19  N   UNL     1      13.077  -8.107   7.815  1.00  0.00    -0.282 N 
ATOM     20  N   UNL     1      13.076  -8.002   9.212  1.00  0.00    -0.181 NA
ATOM     21  C   UNL     1      12.541  -6.579   5.848  1.00  0.00     0.066 C 
ATOM     22  C   UNL     1      12.562  -6.247  10.930  1.00  0.00     0.069 C 
ATOM     23  H   UNL     1      13.317  -8.894   7.302  1.00  0.00     0.190 HD
ENDBRANCH  15  16
ENDBRANCH  14  15
ENDBRANCH  13  14
ENDBRANCH   1  13
TORSDOF 7
ENDMDL
