MODEL 1
REMARK VINA RESULT:    -4.111      0.000      0.000
REMARK INTER + INTRA:          -5.008
REMARK INTER:                  -4.712
REMARK INTRA:                  -0.295
REMARK UNBOUND:                -0.295
REMARK SMILES O=C(O)c1ccc2nc(-c3cc(Cl)cc(Cl)c3)oc2c1
REMARK SMILES IDX 5 1 6 2 20 3 8 4 18 5 4 6 9 7 7 8 19 9 2 10 1 11 3 12 10 14
REMARK SMILES IDX 11 15 17 16 12 17 15 18 14 19 13 20 16 21
REMARK H PARENT 3 13
ROOT
ATOM      1  C   UNL     1      -7.465   5.472 -10.484  1.00  0.00     0.018 A 
ATOM      2  C   UNL     1      -6.266   5.039 -10.004  1.00  0.00     0.033 A 
ATOM      3  C   UNL     1      -8.507   5.045  -8.337  1.00  0.00     0.065 A 
ATOM      4  N   UNL     1      -5.136   4.123  -7.938  1.00  0.00    -0.209 NA
ATOM      5  O   UNL     1      -6.887   4.126  -6.648  1.00  0.00    -0.436 OA
ATOM      6  C   UNL     1      -8.599   5.483  -9.659  1.00  0.00     0.063 A 
ATOM      7  C   UNL     1      -5.573   3.846  -6.735  1.00  0.00     0.227 A 
ATOM      8  C   UNL     1      -6.160   4.597  -8.679  1.00  0.00     0.110 A 
ATOM      9  C   UNL     1      -7.293   4.600  -7.847  1.00  0.00     0.156 A 
ENDROOT
BRANCH   6  10
ATOM     10  C   UNL     1      -9.889   5.959 -10.188  1.00  0.00     0.335 C 
ATOM     11  O   UNL     1     -10.880   5.934  -9.486  1.00  0.00    -0.246 OA
BRANCH  10  12
ATOM     12  O   UNL     1      -9.971   6.422 -11.452  1.00  0.00    -0.478 OA
ATOM     13  H   UNL     1     -10.824   6.335 -11.897  1.00  0.00     0.297 HD
ENDBRANCH  10  12
ENDBRANCH   6  10
BRANCH   7  14
ATOM     14  C   UNL     1      -4.746   3.306  -5.637  1.00  0.00     0.040 A 
ATOM     15  C   UNL     1      -3.385   3.604  -5.572  1.00  0.00     0.034 A 
ATOM     16  C   UNL     1      -5.324   2.493  -4.659  1.00  0.00     0.034 A 
ATOM     17  C   UNL     1      -2.617   3.097  -4.542  1.00  0.00     0.043 A 
ATOM     18  C   UNL     1      -4.547   1.991  -3.635  1.00  0.00     0.043 A 
ATOM     19  C   UNL     1      -3.196   2.291  -3.576  1.00  0.00     0.041 A 
ATOM     20  Cl  UNL     1      -0.924   3.468  -4.459  1.00  0.00    -0.084 Cl
ATOM     21  Cl  UNL     1      -5.263   0.980  -2.418  1.00  0.00    -0.084 Cl
ENDBRANCH   7  14
TORSDOF 3
ENDMDL
MODEL 2
REMARK VINA RESULT:    -4.107      0.010      2.019
REMARK INTER + INTRA:          -5.002
REMARK INTER:                  -4.707
REMARK INTRA:                  -0.296
REMARK UNBOUND:                -0.295
REMARK SMILES O=C(O)c1ccc2nc(-c3cc(Cl)cc(Cl)c3)oc2c1
REMARK SMILES IDX 5 1 6 2 20 3 8 4 18 5 4 6 9 7 7 8 19 9 2 10 1 11 3 12 10 14
REMARK SMILES IDX 11 15 17 16 12 17 15 18 14 19 13 20 16 21
REMARK H PARENT 3 13
ROOT
ATOM      1  C   UNL     1      -7.464   5.471 -10.492  1.00  0.00     0.018 A 
ATOM      2  C   UNL     1      -6.267   5.034 -10.011  1.00  0.00     0.033 A 
ATOM      3  C   UNL     1      -8.507   5.052  -8.342  1.00  0.00     0.065 A 
ATOM      4  N   UNL     1      -5.139   4.118  -7.944  1.00  0.00    -0.209 NA
ATOM      5  O   UNL     1      -6.889   4.131  -6.653  1.00  0.00    -0.436 OA
ATOM      6  C   UNL     1      -8.597   5.488  -9.666  1.00  0.00     0.063 A 
ATOM      7  C   UNL     1      -5.576   3.846  -6.740  1.00  0.00     0.227 A 
ATOM      8  C   UNL     1      -6.162   4.595  -8.686  1.00  0.00     0.110 A 
ATOM      9  C   UNL     1      -7.294   4.604  -7.852  1.00  0.00     0.156 A 
ENDROOT
BRANCH   6  10
ATOM     10  C   UNL     1      -9.886   5.968 -10.195  1.00  0.00     0.335 C 
ATOM     11  O   UNL     1     -10.879   5.941  -9.495  1.00  0.00    -0.246 OA
BRANCH  10  12
ATOM     12  O   UNL     1      -9.965   6.437 -11.456  1.00  0.00    -0.478 OA
ATOM     13  H   UNL     1      -9.187   6.320 -12.018  1.00  0.00     0.297 HD
ENDBRANCH  10  12
ENDBRANCH   6  10
BRANCH   7  14
ATOM     14  C   UNL     1      -4.751   3.304  -5.641  1.00  0.00     0.040 A 
ATOM     15  C   UNL     1      -5.327   2.488  -4.667  1.00  0.00     0.034 A 
ATOM     16  C   UNL     1      -3.390   3.609  -5.572  1.00  0.00     0.034 A 
ATOM     17  C   UNL     1      -4.550   1.984  -3.643  1.00  0.00     0.043 A 
ATOM     18  C   UNL     1      -2.623   3.099  -4.543  1.00  0.00     0.043 A 
ATOM     19  C   UNL     1      -3.201   2.290  -3.581  1.00  0.00     0.041 A 
ATOM     20  Cl  UNL     1      -5.265   0.968  -2.431  1.00  0.00    -0.084 Cl
ATOM     21  Cl  UNL     1      -0.930   3.476  -4.456  1.00  0.00    -0.084 Cl
ENDBRANCH   7  14
TORSDOF 3
ENDMDL
MODEL 3
REMARK VINA RESULT:    -4.097      1.870      3.243
REMARK INTER + INTRA:          -4.992
REMARK INTER:                  -4.696
REMARK INTRA:                  -0.295
REMARK UNBOUND:                -0.295
REMARK SMILES O=C(O)c1ccc2nc(-c3cc(Cl)cc(Cl)c3)oc2c1
REMARK SMILES IDX 5 1 6 2 20 3 8 4 18 5 4 6 9 7 7 8 19 9 2 10 1 11 3 12 10 14
REMARK SMILES IDX 11 15 17 16 12 17 15 18 14 19 13 20 16 21
REMARK H PARENT 3 13
ROOT
ATOM      1  C   UNL     1      -7.378   5.543 -10.504  1.00  0.00     0.018 A 
ATOM      2  C   UNL     1      -7.587   5.082  -9.239  1.00  0.00     0.033 A 
ATOM      3  C   UNL     1      -5.057   4.848 -10.400  1.00  0.00     0.065 A 
ATOM      4  N   UNL     1      -6.437   3.960  -7.289  1.00  0.00    -0.209 NA
ATOM      5  O   UNL     1      -4.469   3.787  -8.199  1.00  0.00    -0.436 OA
ATOM      6  C   UNL     1      -6.114   5.431 -11.101  1.00  0.00     0.063 A 
ATOM      7  C   UNL     1      -5.210   3.542  -7.102  1.00  0.00     0.227 A 
ATOM      8  C   UNL     1      -6.535   4.495  -8.525  1.00  0.00     0.110 A 
ATOM      9  C   UNL     1      -5.263   4.383  -9.114  1.00  0.00     0.156 A 
ENDROOT
BRANCH   6  10
ATOM     10  C   UNL     1      -5.902   5.929 -12.472  1.00  0.00     0.335 C 
ATOM     11  O   UNL     1      -4.782   5.960 -12.940  1.00  0.00    -0.246 OA
BRANCH  10  12
ATOM     12  O   UNL     1      -6.951   6.349 -13.207  1.00  0.00    -0.478 OA
ATOM     13  H   UNL     1      -7.244   7.260 -13.073  1.00  0.00     0.297 HD
ENDBRANCH  10  12
ENDBRANCH   6  10
BRANCH   7  14
ATOM     14  C   UNL     1      -4.714   2.897  -5.869  1.00  0.00     0.040 A 
ATOM     15  C   UNL     1      -5.582   2.156  -5.066  1.00  0.00     0.034 A 
ATOM     16  C   UNL     1      -3.373   3.027  -5.501  1.00  0.00     0.034 A 
ATOM     17  C   UNL     1      -5.112   1.555  -3.915  1.00  0.00     0.043 A 
ATOM     18  C   UNL     1      -2.914   2.421  -4.349  1.00  0.00     0.043 A 
ATOM     19  C   UNL     1      -3.781   1.688  -3.557  1.00  0.00     0.041 A 
ATOM     20  Cl  UNL     1      -6.191   0.633  -2.916  1.00  0.00    -0.084 Cl
ATOM     21  Cl  UNL     1      -1.247   2.582  -3.890  1.00  0.00    -0.084 Cl
ENDBRANCH   7  14
TORSDOF 3
ENDMDL
MODEL 4
REMARK VINA RESULT:    -4.095      1.868      2.560
REMARK INTER + INTRA:          -4.989
REMARK INTER:                  -4.693
REMARK INTRA:                  -0.295
REMARK UNBOUND:                -0.295
REMARK SMILES O=C(O)c1ccc2nc(-c3cc(Cl)cc(Cl)c3)oc2c1
REMARK SMILES IDX 5 1 6 2 20 3 8 4 18 5 4 6 9 7 7 8 19 9 2 10 1 11 3 12 10 14
REMARK SMILES IDX 11 15 17 16 12 17 15 18 14 19 13 20 16 21
REMARK H PARENT 3 13
ROOT
ATOM      1  C   UNL     1      -7.380   5.543 -10.500  1.00  0.00     0.018 A 
ATOM      2  C   UNL     1      -7.587   5.082  -9.235  1.00  0.00     0.033 A 
ATOM      3  C   UNL     1      -5.058   4.849 -10.398  1.00  0.00     0.065 A 
ATOM      4  N   UNL     1      -6.436   3.960  -7.286  1.00  0.00    -0.209 NA
ATOM      5  O   UNL     1      -4.468   3.788  -8.197  1.00  0.00    -0.436 OA
ATOM      6  C   UNL     1      -6.117   5.432 -11.098  1.00  0.00     0.063 A 
ATOM      7  C   UNL     1      -5.208   3.542  -7.100  1.00  0.00     0.227 A 
ATOM      8  C   UNL     1      -6.534   4.495  -8.522  1.00  0.00     0.110 A 
ATOM      9  C   UNL     1      -5.263   4.384  -9.113  1.00  0.00     0.156 A 
ENDROOT
BRANCH   6  10
ATOM     10  C   UNL     1      -5.906   5.929 -12.470  1.00  0.00     0.335 C 
ATOM     11  O   UNL     1      -4.786   5.958 -12.940  1.00  0.00    -0.246 OA
BRANCH  10  12
ATOM     12  O   UNL     1      -6.955   6.352 -13.203  1.00  0.00    -0.478 OA
ATOM     13  H   UNL     1      -7.740   5.788 -13.212  1.00  0.00     0.297 HD
ENDBRANCH  10  12
ENDBRANCH   6  10
BRANCH   7  14
ATOM     14  C   UNL     1      -4.710   2.898  -5.867  1.00  0.00     0.040 A 
ATOM     15  C   UNL     1      -3.370   3.026  -5.501  1.00  0.00     0.034 A 
ATOM     16  C   UNL     1      -5.580   2.156  -5.064  1.00  0.00     0.034 A 
ATOM     17  C   UNL     1      -2.912   2.422  -4.347  1.00  0.00     0.043 A 
ATOM     18  C   UNL     1      -5.110   1.557  -3.913  1.00  0.00     0.043 A 
ATOM     19  C   UNL     1      -3.779   1.688  -3.555  1.00  0.00     0.041 A 
ATOM     20  Cl  UNL     1      -1.245   2.581  -3.889  1.00  0.00    -0.084 Cl
ATOM     21  Cl  UNL     1      -6.189   0.635  -2.913  1.00  0.00    -0.084 Cl
ENDBRANCH   7  14
TORSDOF 3
ENDMDL
MODEL 5
REMARK VINA RESULT:    -3.945      3.747      7.644
REMARK INTER + INTRA:          -4.817
REMARK INTER:                  -4.520
REMARK INTRA:                  -0.298
REMARK UNBOUND:                -0.295
REMARK SMILES O=C(O)c1ccc2nc(-c3cc(Cl)cc(Cl)c3)oc2c1
REMARK SMILES IDX 5 1 6 2 20 3 8 4 18 5 4 6 9 7 7 8 19 9 2 10 1 11 3 12 10 14
REMARK SMILES IDX 11 15 17 16 12 17 15 18 14 19 13 20 16 21
REMARK H PARENT 3 13
ROOT
ATOM      1  C   UNL     1      -2.663   2.335  -4.210  1.00  0.00     0.018 A 
ATOM      2  C   UNL     1      -2.668   2.889  -5.455  1.00  0.00     0.033 A 
ATOM      3  C   UNL     1      -5.082   2.474  -4.113  1.00  0.00     0.065 A 
ATOM      4  N   UNL     1      -4.195   3.805  -7.247  1.00  0.00    -0.209 NA
ATOM      5  O   UNL     1      -6.071   3.483  -6.193  1.00  0.00    -0.436 OA
ATOM      6  C   UNL     1      -3.867   2.118  -3.525  1.00  0.00     0.063 A 
ATOM      7  C   UNL     1      -5.496   3.939  -7.321  1.00  0.00     0.227 A 
ATOM      8  C   UNL     1      -3.879   3.251  -6.057  1.00  0.00     0.110 A 
ATOM      9  C   UNL     1      -5.091   3.041  -5.374  1.00  0.00     0.156 A 
ENDROOT
BRANCH   6  10
ATOM     10  C   UNL     1      -3.850   1.512  -2.182  1.00  0.00     0.335 C 
ATOM     11  O   UNL     1      -2.791   1.269  -1.639  1.00  0.00    -0.246 OA
BRANCH  10  12
ATOM     12  O   UNL     1      -5.009   1.227  -1.556  1.00  0.00    -0.478 OA
ATOM     13  H   UNL     1      -5.097   1.521  -0.640  1.00  0.00     0.297 HD
ENDBRANCH  10  12
ENDBRANCH   6  10
BRANCH   7  14
ATOM     14  C   UNL     1      -6.224   4.509  -8.474  1.00  0.00     0.040 A 
ATOM     15  C   UNL     1      -7.576   4.835  -8.358  1.00  0.00     0.034 A 
ATOM     16  C   UNL     1      -5.562   4.723  -9.684  1.00  0.00     0.034 A 
ATOM     17  C   UNL     1      -8.250   5.368  -9.439  1.00  0.00     0.043 A 
ATOM     18  C   UNL     1      -6.247   5.256 -10.758  1.00  0.00     0.043 A 
ATOM     19  C   UNL     1      -7.588   5.577 -10.636  1.00  0.00     0.041 A 
ATOM     20  Cl  UNL     1      -9.932   5.774  -9.297  1.00  0.00    -0.084 Cl
ATOM     21  Cl  UNL     1      -5.425   5.523 -12.264  1.00  0.00    -0.084 Cl
ENDBRANCH   7  14
TORSDOF 3
ENDMDL
MODEL 6
REMARK VINA RESULT:    -3.937      3.744      7.411
REMARK INTER + INTRA:          -4.808
REMARK INTER:                  -4.511
REMARK INTRA:                  -0.298
REMARK UNBOUND:                -0.295
REMARK SMILES O=C(O)c1ccc2nc(-c3cc(Cl)cc(Cl)c3)oc2c1
REMARK SMILES IDX 5 1 6 2 20 3 8 4 18 5 4 6 9 7 7 8 19 9 2 10 1 11 3 12 10 14
REMARK SMILES IDX 11 15 17 16 12 17 15 18 14 19 13 20 16 21
REMARK H PARENT 3 13
ROOT
ATOM      1  C   UNL     1      -2.680   2.328  -4.201  1.00  0.00     0.018 A 
ATOM      2  C   UNL     1      -2.687   2.885  -5.445  1.00  0.00     0.033 A 
ATOM      3  C   UNL     1      -5.100   2.463  -4.101  1.00  0.00     0.065 A 
ATOM      4  N   UNL     1      -4.219   3.801  -7.234  1.00  0.00    -0.209 NA
ATOM      5  O   UNL     1      -6.093   3.474  -6.178  1.00  0.00    -0.436 OA
ATOM      6  C   UNL     1      -3.883   2.109  -3.515  1.00  0.00     0.063 A 
ATOM      7  C   UNL     1      -5.520   3.933  -7.307  1.00  0.00     0.227 A 
ATOM      8  C   UNL     1      -3.900   3.245  -6.045  1.00  0.00     0.110 A 
ATOM      9  C   UNL     1      -5.111   3.033  -5.361  1.00  0.00     0.156 A 
ENDROOT
BRANCH   6  10
ATOM     10  C   UNL     1      -3.864   1.501  -2.173  1.00  0.00     0.335 C 
ATOM     11  O   UNL     1      -2.803   1.247  -1.636  1.00  0.00    -0.246 OA
BRANCH  10  12
ATOM     12  O   UNL     1      -5.021   1.224  -1.540  1.00  0.00    -0.478 OA
ATOM     13  H   UNL     1      -5.321   1.858  -0.875  1.00  0.00     0.297 HD
ENDBRANCH  10  12
ENDBRANCH   6  10
BRANCH   7  14
ATOM     14  C   UNL     1      -6.250   4.503  -8.458  1.00  0.00     0.040 A 
ATOM     15  C   UNL     1      -5.588   4.729  -9.665  1.00  0.00     0.034 A 
ATOM     16  C   UNL     1      -7.605   4.818  -8.341  1.00  0.00     0.034 A 
ATOM     17  C   UNL     1      -6.277   5.261 -10.738  1.00  0.00     0.043 A 
ATOM     18  C   UNL     1      -8.282   5.350  -9.420  1.00  0.00     0.043 A 
ATOM     19  C   UNL     1      -7.620   5.572 -10.615  1.00  0.00     0.041 A 
ATOM     20  Cl  UNL     1      -5.456   5.543 -12.241  1.00  0.00    -0.084 Cl
ATOM     21  Cl  UNL     1      -9.968   5.743  -9.277  1.00  0.00    -0.084 Cl
ENDBRANCH   7  14
TORSDOF 3
ENDMDL
MODEL 7
REMARK VINA RESULT:    -3.690      4.304      7.777
REMARK INTER + INTRA:          -4.525
REMARK INTER:                  -4.237
REMARK INTRA:                  -0.287
REMARK UNBOUND:                -0.295
REMARK SMILES O=C(O)c1ccc2nc(-c3cc(Cl)cc(Cl)c3)oc2c1
REMARK SMILES IDX 5 1 6 2 20 3 8 4 18 5 4 6 9 7 7 8 19 9 2 10 1 11 3 12 10 14
REMARK SMILES IDX 11 15 17 16 12 17 15 18 14 19 13 20 16 21
REMARK H PARENT 3 13
ROOT
ATOM      1  C   UNL     1      -4.942   2.071  -6.621  1.00  0.00     0.018 A 
ATOM      2  C   UNL     1      -6.157   2.080  -7.239  1.00  0.00     0.033 A 
ATOM      3  C   UNL     1      -4.830   4.490  -6.756  1.00  0.00     0.065 A 
ATOM      4  N   UNL     1      -7.894   3.614  -8.246  1.00  0.00    -0.209 NA
ATOM      5  O   UNL     1      -6.851   5.486  -7.871  1.00  0.00    -0.436 OA
ATOM      6  C   UNL     1      -4.265   3.273  -6.371  1.00  0.00     0.063 A 
ATOM      7  C   UNL     1      -7.957   4.915  -8.384  1.00  0.00     0.227 A 
ATOM      8  C   UNL     1      -6.735   3.294  -7.631  1.00  0.00     0.110 A 
ATOM      9  C   UNL     1      -6.060   4.503  -7.388  1.00  0.00     0.156 A 
ENDROOT
BRANCH   6  10
ATOM     10  C   UNL     1      -2.954   3.251  -5.696  1.00  0.00     0.335 C 
ATOM     11  O   UNL     1      -2.294   2.232  -5.686  1.00  0.00    -0.246 OA
BRANCH  10  12
ATOM     12  O   UNL     1      -2.489   4.361  -5.091  1.00  0.00    -0.478 OA
ATOM     13  H   UNL     1      -3.092   4.820  -4.491  1.00  0.00     0.297 HD
ENDBRANCH  10  12
ENDBRANCH   6  10
BRANCH   7  14
ATOM     14  C   UNL     1      -9.076   5.647  -9.012  1.00  0.00     0.040 A 
ATOM     15  C   UNL     1      -9.892   6.476  -8.242  1.00  0.00     0.034 A 
ATOM     16  C   UNL     1      -9.322   5.510 -10.380  1.00  0.00     0.034 A 
ATOM     17  C   UNL     1     -10.936   7.157  -8.835  1.00  0.00     0.043 A 
ATOM     18  C   UNL     1     -10.369   6.197 -10.962  1.00  0.00     0.043 A 
ATOM     19  C   UNL     1     -11.175   7.018 -10.192  1.00  0.00     0.041 A 
ATOM     20  Cl  UNL     1     -11.952   8.190  -7.878  1.00  0.00    -0.084 Cl
ATOM     21  Cl  UNL     1     -10.676   6.029 -12.663  1.00  0.00    -0.084 Cl
ENDBRANCH   7  14
TORSDOF 3
ENDMDL
MODEL 8
REMARK VINA RESULT:    -3.674      4.597      7.541
REMARK INTER + INTRA:          -4.507
REMARK INTER:                  -4.219
REMARK INTRA:                  -0.288
REMARK UNBOUND:                -0.295
REMARK SMILES O=C(O)c1ccc2nc(-c3cc(Cl)cc(Cl)c3)oc2c1
REMARK SMILES IDX 5 1 6 2 20 3 8 4 18 5 4 6 9 7 7 8 19 9 2 10 1 11 3 12 10 14
REMARK SMILES IDX 11 15 17 16 12 17 15 18 14 19 13 20 16 21
REMARK H PARENT 3 13
ROOT
ATOM      1  C   UNL     1      -4.896   4.214  -5.462  1.00  0.00     0.018 A 
ATOM      2  C   UNL     1      -4.615   5.079  -6.476  1.00  0.00     0.033 A 
ATOM      3  C   UNL     1      -5.878   2.651  -7.036  1.00  0.00     0.065 A 
ATOM      4  N   UNL     1      -4.817   5.387  -8.976  1.00  0.00    -0.209 NA
ATOM      5  O   UNL     1      -5.805   3.496  -9.402  1.00  0.00    -0.436 OA
ATOM      6  C   UNL     1      -5.527   2.991  -5.727  1.00  0.00     0.063 A 
ATOM      7  C   UNL     1      -5.318   4.638  -9.926  1.00  0.00     0.227 A 
ATOM      8  C   UNL     1      -4.961   4.752  -7.793  1.00  0.00     0.110 A 
ATOM      9  C   UNL     1      -5.599   3.529  -8.067  1.00  0.00     0.156 A 
ENDROOT
BRANCH   6  10
ATOM     10  C   UNL     1      -5.821   2.059  -4.623  1.00  0.00     0.335 C 
ATOM     11  O   UNL     1      -6.076   0.896  -4.861  1.00  0.00    -0.246 OA
BRANCH  10  12
ATOM     12  O   UNL     1      -5.806   2.499  -3.349  1.00  0.00    -0.478 OA
ATOM     13  H   UNL     1      -5.001   2.939  -3.045  1.00  0.00     0.297 HD
ENDBRANCH  10  12
ENDBRANCH   6  10
BRANCH   7  14
ATOM     14  C   UNL     1      -5.347   4.993 -11.359  1.00  0.00     0.040 A 
ATOM     15  C   UNL     1      -6.123   6.065 -11.801  1.00  0.00     0.034 A 
ATOM     16  C   UNL     1      -4.597   4.257 -12.279  1.00  0.00     0.034 A 
ATOM     17  C   UNL     1      -6.145   6.393 -13.142  1.00  0.00     0.043 A 
ATOM     18  C   UNL     1      -4.626   4.594 -13.617  1.00  0.00     0.043 A 
ATOM     19  C   UNL     1      -5.399   5.659 -14.048  1.00  0.00     0.041 A 
ATOM     20  Cl  UNL     1      -7.110   7.726 -13.693  1.00  0.00    -0.084 Cl
ATOM     21  Cl  UNL     1      -3.694   3.680 -14.762  1.00  0.00    -0.084 Cl
ENDBRANCH   7  14
TORSDOF 3
ENDMDL
MODEL 9
REMARK VINA RESULT:    -3.674      4.601      7.480
REMARK INTER + INTRA:          -4.506
REMARK INTER:                  -4.218
REMARK INTRA:                  -0.288
REMARK UNBOUND:                -0.295
REMARK SMILES O=C(O)c1ccc2nc(-c3cc(Cl)cc(Cl)c3)oc2c1
REMARK SMILES IDX 5 1 6 2 20 3 8 4 18 5 4 6 9 7 7 8 19 9 2 10 1 11 3 12 10 14
REMARK SMILES IDX 11 15 17 16 12 17 15 18 14 19 13 20 16 21
REMARK H PARENT 3 13
ROOT
ATOM      1  C   UNL     1      -4.897   4.209  -5.473  1.00  0.00     0.018 A 
ATOM      2  C   UNL     1      -4.616   5.075  -6.486  1.00  0.00     0.033 A 
ATOM      3  C   UNL     1      -5.879   2.648  -7.047  1.00  0.00     0.065 A 
ATOM      4  N   UNL     1      -4.817   5.384  -8.985  1.00  0.00    -0.209 NA
ATOM      5  O   UNL     1      -5.805   3.494  -9.413  1.00  0.00    -0.436 OA
ATOM      6  C   UNL     1      -5.529   2.986  -5.739  1.00  0.00     0.063 A 
ATOM      7  C   UNL     1      -5.318   4.635  -9.936  1.00  0.00     0.227 A 
ATOM      8  C   UNL     1      -4.962   4.748  -7.803  1.00  0.00     0.110 A 
ATOM      9  C   UNL     1      -5.600   3.526  -8.078  1.00  0.00     0.156 A 
ENDROOT
BRANCH   6  10
ATOM     10  C   UNL     1      -5.823   2.054  -4.635  1.00  0.00     0.335 C 
ATOM     11  O   UNL     1      -6.090   0.893  -4.875  1.00  0.00    -0.246 OA
BRANCH  10  12
ATOM     12  O   UNL     1      -5.796   2.490  -3.360  1.00  0.00    -0.478 OA
ATOM     13  H   UNL     1      -5.615   1.832  -2.675  1.00  0.00     0.297 HD
ENDBRANCH  10  12
ENDBRANCH   6  10
BRANCH   7  14
ATOM     14  C   UNL     1      -5.346   4.992 -11.370  1.00  0.00     0.040 A 
ATOM     15  C   UNL     1      -4.597   4.257 -12.289  1.00  0.00     0.034 A 
ATOM     16  C   UNL     1      -6.122   6.067 -11.809  1.00  0.00     0.034 A 
ATOM     17  C   UNL     1      -4.628   4.595 -13.628  1.00  0.00     0.043 A 
ATOM     18  C   UNL     1      -6.144   6.394 -13.150  1.00  0.00     0.043 A 
ATOM     19  C   UNL     1      -5.399   5.661 -14.057  1.00  0.00     0.041 A 
ATOM     20  Cl  UNL     1      -3.697   3.682 -14.774  1.00  0.00    -0.084 Cl
ATOM     21  Cl  UNL     1      -7.108   7.730 -13.699  1.00  0.00    -0.084 Cl
ENDBRANCH   7  14
TORSDOF 3
ENDMDL
