MODEL 1
REMARK VINA RESULT:    -5.703      0.000      0.000
REMARK INTER + INTRA:          -8.355
REMARK INTER:                  -7.871
REMARK INTRA:                  -0.484
REMARK UNBOUND:                -0.484
REMARK SMILES Cc1n[nH]c(C)c1CCCOc1cc(C(=O)O)ccc1F
REMARK SMILES IDX 11 1 12 2 14 3 18 4 13 5 19 6 20 7 21 8 15 9 16 10 17 11
REMARK SMILES IDX 10 13 9 14 8 15 7 16 5 17 2 18 4 19 3 20 6 21 1 22
REMARK H PARENT 17 12 4 23
ROOT
ATOM      1  O   UNL     1      -5.210   1.020  -6.707  1.00  0.00    -0.490 OA
ENDROOT
BRANCH   1   2
ATOM      2  C   UNL     1      -4.576   1.477  -5.594  1.00  0.00     0.155 A 
ATOM      3  C   UNL     1      -2.777   2.700  -4.570  1.00  0.00     0.063 A 
ATOM      4  C   UNL     1      -3.302   2.409  -3.309  1.00  0.00     0.019 A 
ATOM      5  C   UNL     1      -3.422   2.228  -5.715  1.00  0.00     0.065 A 
ATOM      6  C   UNL     1      -4.457   1.664  -3.198  1.00  0.00     0.044 A 
ATOM      7  C   UNL     1      -5.098   1.202  -4.335  1.00  0.00     0.165 A 
ATOM      8  F   UNL     1      -6.230   0.472  -4.220  1.00  0.00    -0.203 F 
BRANCH   3   9
ATOM      9  C   UNL     1      -1.541   3.498  -4.692  1.00  0.00     0.335 C 
ATOM     10  O   UNL     1      -0.912   3.490  -5.731  1.00  0.00    -0.246 OA
BRANCH   9  11
ATOM     11  O   UNL     1      -1.113   4.240  -3.652  1.00  0.00    -0.478 OA
ATOM     12  H   UNL     1      -0.350   4.814  -3.806  1.00  0.00     0.297 HD
ENDBRANCH   9  11
ENDBRANCH   3   9
ENDBRANCH   1   2
BRANCH   1  13
ATOM     13  C   UNL     1      -6.528   1.518  -6.953  1.00  0.00     0.230 C 
BRANCH  13  14
ATOM     14  C   UNL     1      -6.533   2.325  -8.252  1.00  0.00     0.046 C 
BRANCH  14  15
ATOM     15  C   UNL     1      -6.354   3.810  -7.931  1.00  0.00     0.043 C 
BRANCH  15  16
ATOM     16  C   UNL     1      -6.926   4.640  -9.050  1.00  0.00    -0.004 A 
ATOM     17  C   UNL     1      -6.289   4.984 -10.193  1.00  0.00     0.036 A 
ATOM     18  C   UNL     1      -8.213   5.187  -9.094  1.00  0.00     0.063 A 
ATOM     19  N   UNL     1      -7.140   5.727 -10.932  1.00  0.00    -0.282 N 
ATOM     20  N   UNL     1      -8.340   5.844 -10.218  1.00  0.00    -0.181 NA
ATOM     21  C   UNL     1      -4.882   4.605 -10.574  1.00  0.00     0.066 C 
ATOM     22  C   UNL     1      -9.268   5.052  -8.025  1.00  0.00     0.069 C 
ATOM     23  H   UNL     1      -6.954   6.112 -11.802  1.00  0.00     0.190 HD
ENDBRANCH  15  16
ENDBRANCH  14  15
ENDBRANCH  13  14
ENDBRANCH   1  13
TORSDOF 7
ENDMDL
MODEL 2
REMARK VINA RESULT:    -5.693      2.314      3.918
REMARK INTER + INTRA:          -8.340
REMARK INTER:                  -7.838
REMARK INTRA:                  -0.502
REMARK UNBOUND:                -0.484
REMARK SMILES Cc1n[nH]c(C)c1CCCOc1cc(C(=O)O)ccc1F
REMARK SMILES IDX 11 1 12 2 14 3 18 4 13 5 19 6 20 7 21 8 15 9 16 10 17 11
REMARK SMILES IDX 10 13 9 14 8 15 7 16 5 17 2 18 4 19 3 20 6 21 1 22
REMARK H PARENT 17 12 4 23
ROOT
ATOM      1  O   UNL     1      -4.347   5.304  -5.031  1.00  0.00    -0.490 OA
ENDROOT
BRANCH   1   2
ATOM      2  C   UNL     1      -4.098   4.049  -4.569  1.00  0.00     0.155 A 
ATOM      3  C   UNL     1      -4.888   1.914  -3.796  1.00  0.00     0.063 A 
ATOM      4  C   UNL     1      -3.567   1.487  -3.636  1.00  0.00     0.019 A 
ATOM      5  C   UNL     1      -5.148   3.203  -4.265  1.00  0.00     0.065 A 
ATOM      6  C   UNL     1      -2.526   2.337  -3.947  1.00  0.00     0.044 A 
ATOM      7  C   UNL     1      -2.786   3.613  -4.417  1.00  0.00     0.165 A 
ATOM      8  F   UNL     1      -1.762   4.441  -4.721  1.00  0.00    -0.203 F 
BRANCH   3   9
ATOM      9  C   UNL     1      -6.004   1.007  -3.464  1.00  0.00     0.335 C 
ATOM     10  O   UNL     1      -7.118   1.455  -3.285  1.00  0.00    -0.246 OA
BRANCH   9  11
ATOM     11  O   UNL     1      -5.788  -0.319  -3.366  1.00  0.00    -0.478 OA
ATOM     12  H   UNL     1      -4.909  -0.641  -3.614  1.00  0.00     0.297 HD
ENDBRANCH   9  11
ENDBRANCH   3   9
ENDBRANCH   1   2
BRANCH   1  13
ATOM     13  C   UNL     1      -3.929   5.598  -6.366  1.00  0.00     0.230 C 
BRANCH  13  14
ATOM     14  C   UNL     1      -5.157   5.884  -7.233  1.00  0.00     0.046 C 
BRANCH  14  15
ATOM     15  C   UNL     1      -5.550   4.616  -7.994  1.00  0.00     0.043 C 
BRANCH  15  16
ATOM     16  C   UNL     1      -6.338   4.991  -9.223  1.00  0.00    -0.004 A 
ATOM     17  C   UNL     1      -7.668   5.236  -9.271  1.00  0.00     0.036 A 
ATOM     18  C   UNL     1      -5.823   5.154 -10.513  1.00  0.00     0.063 A 
ATOM     19  N   UNL     1      -7.984   5.536 -10.549  1.00  0.00    -0.282 N 
ATOM     20  N   UNL     1      -6.810   5.474 -11.310  1.00  0.00    -0.181 NA
ATOM     21  C   UNL     1      -8.624   5.183  -8.108  1.00  0.00     0.066 C 
ATOM     22  C   UNL     1      -4.381   4.978 -10.918  1.00  0.00     0.069 C 
ATOM     23  H   UNL     1      -8.869   5.756 -10.881  1.00  0.00     0.190 HD
ENDBRANCH  15  16
ENDBRANCH  14  15
ENDBRANCH  13  14
ENDBRANCH   1  13
TORSDOF 7
ENDMDL
MODEL 3
REMARK VINA RESULT:    -5.557      0.159      1.774
REMARK INTER + INTRA:          -8.153
REMARK INTER:                  -7.681
REMARK INTRA:                  -0.472
REMARK UNBOUND:                -0.484
REMARK SMILES Cc1n[nH]c(C)c1CCCOc1cc(C(=O)O)ccc1F
REMARK SMILES IDX 11 1 12 2 14 3 18 4 13 5 19 6 20 7 21 8 15 9 16 10 17 11
REMARK SMILES IDX 10 13 9 14 8 15 7 16 5 17 2 18 4 19 3 20 6 21 1 22
REMARK H PARENT 17 12 4 23
ROOT
ATOM      1  O   UNL     1      -5.183   1.005  -6.718  1.00  0.00    -0.490 OA
ENDROOT
BRANCH   1   2
ATOM      2  C   UNL     1      -4.556   1.467  -5.603  1.00  0.00     0.155 A 
ATOM      3  C   UNL     1      -2.766   2.701  -4.575  1.00  0.00     0.063 A 
ATOM      4  C   UNL     1      -3.295   2.411  -3.315  1.00  0.00     0.019 A 
ATOM      5  C   UNL     1      -3.404   2.223  -5.722  1.00  0.00     0.065 A 
ATOM      6  C   UNL     1      -4.447   1.661  -3.207  1.00  0.00     0.044 A 
ATOM      7  C   UNL     1      -5.082   1.193  -4.346  1.00  0.00     0.165 A 
ATOM      8  F   UNL     1      -6.210   0.459  -4.233  1.00  0.00    -0.203 F 
BRANCH   3   9
ATOM      9  C   UNL     1      -1.533   3.504  -4.694  1.00  0.00     0.335 C 
ATOM     10  O   UNL     1      -0.897   3.491  -5.728  1.00  0.00    -0.246 OA
BRANCH   9  11
ATOM     11  O   UNL     1      -1.117   4.256  -3.656  1.00  0.00    -0.478 OA
ATOM     12  H   UNL     1      -1.769   4.846  -3.253  1.00  0.00     0.297 HD
ENDBRANCH   9  11
ENDBRANCH   3   9
ENDBRANCH   1   2
BRANCH   1  13
ATOM     13  C   UNL     1      -6.508   1.483  -6.962  1.00  0.00     0.230 C 
BRANCH  13  14
ATOM     14  C   UNL     1      -6.513   2.347  -8.224  1.00  0.00     0.046 C 
BRANCH  14  15
ATOM     15  C   UNL     1      -6.465   3.825  -7.832  1.00  0.00     0.043 C 
BRANCH  15  16
ATOM     16  C   UNL     1      -7.112   4.653  -8.911  1.00  0.00    -0.004 A 
ATOM     17  C   UNL     1      -8.373   5.144  -8.890  1.00  0.00     0.036 A 
ATOM     18  C   UNL     1      -6.514   5.057 -10.110  1.00  0.00     0.063 A 
ATOM     19  N   UNL     1      -8.568   5.828 -10.037  1.00  0.00    -0.282 N 
ATOM     20  N   UNL     1      -7.388   5.755 -10.788  1.00  0.00    -0.181 NA
ATOM     21  C   UNL     1      -9.379   4.960  -7.784  1.00  0.00     0.066 C 
ATOM     22  C   UNL     1      -5.109   4.733 -10.549  1.00  0.00     0.069 C 
ATOM     23  H   UNL     1      -9.382   6.288 -10.296  1.00  0.00     0.190 HD
ENDBRANCH  15  16
ENDBRANCH  14  15
ENDBRANCH  13  14
ENDBRANCH   1  13
TORSDOF 7
ENDMDL
MODEL 4
REMARK VINA RESULT:    -5.513      2.304      3.472
REMARK INTER + INTRA:          -8.092
REMARK INTER:                  -7.487
REMARK INTRA:                  -0.605
REMARK UNBOUND:                -0.484
REMARK SMILES Cc1n[nH]c(C)c1CCCOc1cc(C(=O)O)ccc1F
REMARK SMILES IDX 11 1 12 2 14 3 18 4 13 5 19 6 20 7 21 8 15 9 16 10 17 11
REMARK SMILES IDX 10 13 9 14 8 15 7 16 5 17 2 18 4 19 3 20 6 21 1 22
REMARK H PARENT 17 12 4 23
ROOT
ATOM      1  O   UNL     1      -4.207   5.304  -5.122  1.00  0.00    -0.490 OA
ENDROOT
BRANCH   1   2
ATOM      2  C   UNL     1      -3.981   4.059  -4.625  1.00  0.00     0.155 A 
ATOM      3  C   UNL     1      -4.811   1.956  -3.807  1.00  0.00     0.063 A 
ATOM      4  C   UNL     1      -3.498   1.515  -3.620  1.00  0.00     0.019 A 
ATOM      5  C   UNL     1      -5.047   3.236  -4.313  1.00  0.00     0.065 A 
ATOM      6  C   UNL     1      -2.442   2.341  -3.940  1.00  0.00     0.044 A 
ATOM      7  C   UNL     1      -2.678   3.609  -4.446  1.00  0.00     0.165 A 
ATOM      8  F   UNL     1      -1.638   4.413  -4.758  1.00  0.00    -0.203 F 
BRANCH   3   9
ATOM      9  C   UNL     1      -5.944   1.074  -3.466  1.00  0.00     0.335 C 
ATOM     10  O   UNL     1      -7.057   1.540  -3.327  1.00  0.00    -0.246 OA
BRANCH   9  11
ATOM     11  O   UNL     1      -5.745  -0.250  -3.315  1.00  0.00    -0.478 OA
ATOM     12  H   UNL     1      -5.529  -0.756  -4.111  1.00  0.00     0.297 HD
ENDBRANCH   9  11
ENDBRANCH   3   9
ENDBRANCH   1   2
BRANCH   1  13
ATOM     13  C   UNL     1      -3.983   5.494  -6.522  1.00  0.00     0.230 C 
BRANCH  13  14
ATOM     14  C   UNL     1      -5.324   5.701  -7.228  1.00  0.00     0.046 C 
BRANCH  14  15
ATOM     15  C   UNL     1      -5.625   4.492  -8.116  1.00  0.00     0.043 C 
BRANCH  15  16
ATOM     16  C   UNL     1      -6.261   4.956  -9.400  1.00  0.00    -0.004 A 
ATOM     17  C   UNL     1      -5.638   5.089 -10.594  1.00  0.00     0.036 A 
ATOM     18  C   UNL     1      -7.601   5.318  -9.571  1.00  0.00     0.063 A 
ATOM     19  N   UNL     1      -6.551   5.527 -11.487  1.00  0.00    -0.282 N 
ATOM     20  N   UNL     1      -7.774   5.668 -10.820  1.00  0.00    -0.181 NA
ATOM     21  C   UNL     1      -4.187   4.800 -10.876  1.00  0.00     0.066 C 
ATOM     22  C   UNL     1      -8.661   5.318  -8.498  1.00  0.00     0.069 C 
ATOM     23  H   UNL     1      -6.388   5.713 -12.425  1.00  0.00     0.190 HD
ENDBRANCH  15  16
ENDBRANCH  14  15
ENDBRANCH  13  14
ENDBRANCH   1  13
TORSDOF 7
ENDMDL
MODEL 5
REMARK VINA RESULT:    -4.657      3.819      6.530
REMARK INTER + INTRA:          -6.911
REMARK INTER:                  -6.098
REMARK INTRA:                  -0.813
REMARK UNBOUND:                -0.484
REMARK SMILES Cc1n[nH]c(C)c1CCCOc1cc(C(=O)O)ccc1F
REMARK SMILES IDX 11 1 12 2 14 3 18 4 13 5 19 6 20 7 21 8 15 9 16 10 17 11
REMARK SMILES IDX 10 13 9 14 8 15 7 16 5 17 2 18 4 19 3 20 6 21 1 22
REMARK H PARENT 17 12 4 23
ROOT
ATOM      1  O   UNL     1      -6.367   3.646  -6.697  1.00  0.00    -0.490 OA
ENDROOT
BRANCH   1   2
ATOM      2  C   UNL     1      -6.559   4.220  -7.914  1.00  0.00     0.155 A 
ATOM      3  C   UNL     1      -5.734   4.823 -10.091  1.00  0.00     0.063 A 
ATOM      4  C   UNL     1      -6.975   5.388 -10.400  1.00  0.00     0.019 A 
ATOM      5  C   UNL     1      -5.532   4.238  -8.839  1.00  0.00     0.065 A 
ATOM      6  C   UNL     1      -7.995   5.359  -9.473  1.00  0.00     0.044 A 
ATOM      7  C   UNL     1      -7.794   4.774  -8.234  1.00  0.00     0.165 A 
ATOM      8  F   UNL     1      -8.798   4.749  -7.330  1.00  0.00    -0.203 F 
BRANCH   3   9
ATOM      9  C   UNL     1      -4.640   4.852 -11.081  1.00  0.00     0.335 C 
ATOM     10  O   UNL     1      -3.662   4.149 -10.926  1.00  0.00    -0.246 OA
BRANCH   9  11
ATOM     11  O   UNL     1      -4.730   5.653 -12.161  1.00  0.00    -0.478 OA
ATOM     12  H   UNL     1      -5.126   6.526 -12.029  1.00  0.00     0.297 HD
ENDBRANCH   9  11
ENDBRANCH   3   9
ENDBRANCH   1   2
BRANCH   1  13
ATOM     13  C   UNL     1      -5.800   2.334  -6.680  1.00  0.00     0.230 C 
BRANCH  13  14
ATOM     14  C   UNL     1      -5.505   1.925  -5.236  1.00  0.00     0.046 C 
BRANCH  14  15
ATOM     15  C   UNL     1      -5.253   3.177  -4.392  1.00  0.00     0.043 C 
BRANCH  15  16
ATOM     16  C   UNL     1      -3.776   3.472  -4.359  1.00  0.00    -0.004 A 
ATOM     17  C   UNL     1      -2.826   2.714  -3.764  1.00  0.00     0.036 A 
ATOM     18  C   UNL     1      -3.144   4.575  -4.942  1.00  0.00     0.063 A 
ATOM     19  N   UNL     1      -1.635   3.319  -3.959  1.00  0.00    -0.282 N 
ATOM     20  N   UNL     1      -1.862   4.488  -4.697  1.00  0.00    -0.181 NA
ATOM     21  C   UNL     1      -3.056   1.425  -3.019  1.00  0.00     0.066 C 
ATOM     22  C   UNL     1      -3.824   5.680  -5.710  1.00  0.00     0.069 C 
ATOM     23  H   UNL     1      -0.775   3.002  -3.642  1.00  0.00     0.190 HD
ENDBRANCH  15  16
ENDBRANCH  14  15
ENDBRANCH  13  14
ENDBRANCH   1  13
TORSDOF 7
ENDMDL
MODEL 6
REMARK VINA RESULT:    -4.633      3.934      7.037
REMARK INTER + INTRA:          -6.877
REMARK INTER:                  -6.102
REMARK INTRA:                  -0.775
REMARK UNBOUND:                -0.484
REMARK SMILES Cc1n[nH]c(C)c1CCCOc1cc(C(=O)O)ccc1F
REMARK SMILES IDX 11 1 12 2 14 3 18 4 13 5 19 6 20 7 21 8 15 9 16 10 17 11
REMARK SMILES IDX 10 13 9 14 8 15 7 16 5 17 2 18 4 19 3 20 6 21 1 22
REMARK H PARENT 17 12 4 23
ROOT
ATOM      1  O   UNL     1      -4.707   3.882  -7.524  1.00  0.00    -0.490 OA
ENDROOT
BRANCH   1   2
ATOM      2  C   UNL     1      -5.675   4.379  -8.340  1.00  0.00     0.155 A 
ATOM      3  C   UNL     1      -7.929   5.144  -8.680  1.00  0.00     0.063 A 
ATOM      4  C   UNL     1      -7.634   5.405 -10.020  1.00  0.00     0.019 A 
ATOM      5  C   UNL     1      -6.940   4.628  -7.840  1.00  0.00     0.065 A 
ATOM      6  C   UNL     1      -6.368   5.159 -10.508  1.00  0.00     0.044 A 
ATOM      7  C   UNL     1      -5.387   4.653  -9.673  1.00  0.00     0.165 A 
ATOM      8  F   UNL     1      -4.148   4.414 -10.157  1.00  0.00    -0.203 F 
BRANCH   3   9
ATOM      9  C   UNL     1      -9.283   5.406  -8.154  1.00  0.00     0.335 C 
ATOM     10  O   UNL     1      -9.531   5.201  -6.984  1.00  0.00    -0.246 OA
BRANCH   9  11
ATOM     11  O   UNL     1     -10.243   5.879  -8.973  1.00  0.00    -0.478 OA
ATOM     12  H   UNL     1     -10.278   6.837  -9.102  1.00  0.00     0.297 HD
ENDBRANCH   9  11
ENDBRANCH   3   9
ENDBRANCH   1   2
BRANCH   1  13
ATOM     13  C   UNL     1      -4.500   4.553  -6.279  1.00  0.00     0.230 C 
BRANCH  13  14
ATOM     14  C   UNL     1      -3.437   3.809  -5.470  1.00  0.00     0.046 C 
BRANCH  14  15
ATOM     15  C   UNL     1      -3.457   2.325  -5.844  1.00  0.00     0.043 C 
BRANCH  15  16
ATOM     16  C   UNL     1      -4.425   1.594  -4.950  1.00  0.00    -0.004 A 
ATOM     17  C   UNL     1      -4.290   1.404  -3.617  1.00  0.00     0.036 A 
ATOM     18  C   UNL     1      -5.626   0.999  -5.350  1.00  0.00     0.063 A 
ATOM     19  N   UNL     1      -5.364   0.706  -3.190  1.00  0.00    -0.282 N 
ATOM     20  N   UNL     1      -6.186   0.460  -4.298  1.00  0.00    -0.181 NA
ATOM     21  C   UNL     1      -3.146   1.884  -2.763  1.00  0.00     0.066 C 
ATOM     22  C   UNL     1      -6.174   0.971  -6.754  1.00  0.00     0.069 C 
ATOM     23  H   UNL     1      -5.535   0.424  -2.279  1.00  0.00     0.190 HD
ENDBRANCH  15  16
ENDBRANCH  14  15
ENDBRANCH  13  14
ENDBRANCH   1  13
TORSDOF 7
ENDMDL
MODEL 7
REMARK VINA RESULT:    -4.539      4.693      8.077
REMARK INTER + INTRA:          -6.748
REMARK INTER:                  -6.058
REMARK INTRA:                  -0.690
REMARK UNBOUND:                -0.484
REMARK SMILES Cc1n[nH]c(C)c1CCCOc1cc(C(=O)O)ccc1F
REMARK SMILES IDX 11 1 12 2 14 3 18 4 13 5 19 6 20 7 21 8 15 9 16 10 17 11
REMARK SMILES IDX 10 13 9 14 8 15 7 16 5 17 2 18 4 19 3 20 6 21 1 22
REMARK H PARENT 17 12 4 23
ROOT
ATOM      1  O   UNL     1      -8.116   4.720  -8.482  1.00  0.00    -0.490 OA
ENDROOT
BRANCH   1   2
ATOM      2  C   UNL     1      -9.145   5.498  -8.913  1.00  0.00     0.155 A 
ATOM      3  C   UNL     1     -10.494   6.371 -10.701  1.00  0.00     0.063 A 
ATOM      4  C   UNL     1     -11.257   7.084  -9.772  1.00  0.00     0.019 A 
ATOM      5  C   UNL     1      -9.434   5.576 -10.263  1.00  0.00     0.065 A 
ATOM      6  C   UNL     1     -10.965   6.995  -8.427  1.00  0.00     0.044 A 
ATOM      7  C   UNL     1      -9.916   6.201  -7.994  1.00  0.00     0.165 A 
ATOM      8  F   UNL     1      -9.635   6.118  -6.675  1.00  0.00    -0.203 F 
BRANCH   3   9
ATOM      9  C   UNL     1     -10.805   6.464 -12.141  1.00  0.00     0.335 C 
ATOM     10  O   UNL     1     -11.486   7.379 -12.558  1.00  0.00    -0.246 OA
BRANCH   9  11
ATOM     11  O   UNL     1     -10.326   5.537 -12.994  1.00  0.00    -0.478 OA
ATOM     12  H   UNL     1      -9.545   5.041 -12.711  1.00  0.00     0.297 HD
ENDBRANCH   9  11
ENDBRANCH   3   9
ENDBRANCH   1   2
BRANCH   1  13
ATOM     13  C   UNL     1      -6.840   4.936  -9.092  1.00  0.00     0.230 C 
BRANCH  13  14
ATOM     14  C   UNL     1      -5.785   4.089  -8.379  1.00  0.00     0.046 C 
BRANCH  14  15
ATOM     15  C   UNL     1      -6.177   3.917  -6.909  1.00  0.00     0.043 C 
BRANCH  15  16
ATOM     16  C   UNL     1      -5.050   3.253  -6.162  1.00  0.00    -0.004 A 
ATOM     17  C   UNL     1      -4.854   1.920  -6.036  1.00  0.00     0.036 A 
ATOM     18  C   UNL     1      -4.016   3.905  -5.482  1.00  0.00     0.063 A 
ATOM     19  N   UNL     1      -3.741   1.735  -5.296  1.00  0.00    -0.282 N 
ATOM     20  N   UNL     1      -3.235   2.997  -4.957  1.00  0.00    -0.181 NA
ATOM     21  C   UNL     1      -5.724   0.836  -6.617  1.00  0.00     0.066 C 
ATOM     22  C   UNL     1      -3.840   5.398  -5.364  1.00  0.00     0.069 C 
ATOM     23  H   UNL     1      -3.359   0.881  -5.044  1.00  0.00     0.190 HD
ENDBRANCH  15  16
ENDBRANCH  14  15
ENDBRANCH  13  14
ENDBRANCH   1  13
TORSDOF 7
ENDMDL
MODEL 8
REMARK VINA RESULT:    -4.519      4.666      8.013
REMARK INTER + INTRA:          -6.720
REMARK INTER:                  -6.013
REMARK INTRA:                  -0.707
REMARK UNBOUND:                -0.484
REMARK SMILES Cc1n[nH]c(C)c1CCCOc1cc(C(=O)O)ccc1F
REMARK SMILES IDX 11 1 12 2 14 3 18 4 13 5 19 6 20 7 21 8 15 9 16 10 17 11
REMARK SMILES IDX 10 13 9 14 8 15 7 16 5 17 2 18 4 19 3 20 6 21 1 22
REMARK H PARENT 17 12 4 23
ROOT
ATOM      1  O   UNL     1      -8.039   4.723  -8.453  1.00  0.00    -0.490 OA
ENDROOT
BRANCH   1   2
ATOM      2  C   UNL     1      -9.081   5.491  -8.871  1.00  0.00     0.155 A 
ATOM      3  C   UNL     1     -10.459   6.354 -10.642  1.00  0.00     0.063 A 
ATOM      4  C   UNL     1     -11.219   7.057  -9.703  1.00  0.00     0.019 A 
ATOM      5  C   UNL     1      -9.386   5.568 -10.217  1.00  0.00     0.065 A 
ATOM      6  C   UNL     1     -10.910   6.969  -8.362  1.00  0.00     0.044 A 
ATOM      7  C   UNL     1      -9.848   6.185  -7.942  1.00  0.00     0.165 A 
ATOM      8  F   UNL     1      -9.551   6.103  -6.627  1.00  0.00    -0.203 F 
BRANCH   3   9
ATOM      9  C   UNL     1     -10.787   6.446 -12.078  1.00  0.00     0.335 C 
ATOM     10  O   UNL     1     -11.523   7.324 -12.478  1.00  0.00    -0.246 OA
BRANCH   9  11
ATOM     11  O   UNL     1     -10.265   5.557 -12.946  1.00  0.00    -0.478 OA
ATOM     12  H   UNL     1      -9.653   4.899 -12.586  1.00  0.00     0.297 HD
ENDBRANCH   9  11
ENDBRANCH   3   9
ENDBRANCH   1   2
BRANCH   1  13
ATOM     13  C   UNL     1      -6.822   4.819  -9.198  1.00  0.00     0.230 C 
BRANCH  13  14
ATOM     14  C   UNL     1      -5.677   4.216  -8.383  1.00  0.00     0.046 C 
BRANCH  14  15
ATOM     15  C   UNL     1      -6.146   3.974  -6.946  1.00  0.00     0.043 C 
BRANCH  15  16
ATOM     16  C   UNL     1      -5.048   3.301  -6.165  1.00  0.00    -0.004 A 
ATOM     17  C   UNL     1      -4.067   3.924  -5.471  1.00  0.00     0.036 A 
ATOM     18  C   UNL     1      -4.864   1.921  -6.024  1.00  0.00     0.063 A 
ATOM     19  N   UNL     1      -3.287   2.973  -4.916  1.00  0.00    -0.282 N 
ATOM     20  N   UNL     1      -3.805   1.724  -5.281  1.00  0.00    -0.181 NA
ATOM     21  C   UNL     1      -3.880   5.413  -5.341  1.00  0.00     0.066 C 
ATOM     22  C   UNL     1      -5.730   0.848  -6.632  1.00  0.00     0.069 C 
ATOM     23  H   UNL     1      -2.506   3.127  -4.363  1.00  0.00     0.190 HD
ENDBRANCH  15  16
ENDBRANCH  14  15
ENDBRANCH  13  14
ENDBRANCH   1  13
TORSDOF 7
ENDMDL
MODEL 9
REMARK VINA RESULT:    -4.493      4.982      7.995
REMARK INTER + INTRA:          -6.684
REMARK INTER:                  -6.021
REMARK INTRA:                  -0.663
REMARK UNBOUND:                -0.484
REMARK SMILES Cc1n[nH]c(C)c1CCCOc1cc(C(=O)O)ccc1F
REMARK SMILES IDX 11 1 12 2 14 3 18 4 13 5 19 6 20 7 21 8 15 9 16 10 17 11
REMARK SMILES IDX 10 13 9 14 8 15 7 16 5 17 2 18 4 19 3 20 6 21 1 22
REMARK H PARENT 17 12 4 23
ROOT
ATOM      1  O   UNL     1      -5.144   5.083 -10.096  1.00  0.00    -0.490 OA
ENDROOT
BRANCH   1   2
ATOM      2  C   UNL     1      -5.161   5.177 -11.452  1.00  0.00     0.155 A 
ATOM      3  C   UNL     1      -5.995   6.196 -13.464  1.00  0.00     0.063 A 
ATOM      4  C   UNL     1      -5.174   5.359 -14.224  1.00  0.00     0.019 A 
ATOM      5  C   UNL     1      -5.984   6.099 -12.071  1.00  0.00     0.065 A 
ATOM      6  C   UNL     1      -4.352   4.446 -13.598  1.00  0.00     0.044 A 
ATOM      7  C   UNL     1      -4.338   4.355 -12.216  1.00  0.00     0.165 A 
ATOM      8  F   UNL     1      -3.531   3.459 -11.608  1.00  0.00    -0.203 F 
BRANCH   3   9
ATOM      9  C   UNL     1      -6.876   7.174 -14.131  1.00  0.00     0.335 C 
ATOM     10  O   UNL     1      -7.190   7.016 -15.293  1.00  0.00    -0.246 OA
BRANCH   9  11
ATOM     11  O   UNL     1      -7.337   8.241 -13.448  1.00  0.00    -0.478 OA
ATOM     12  H   UNL     1      -6.895   8.452 -12.614  1.00  0.00     0.297 HD
ENDBRANCH   9  11
ENDBRANCH   3   9
ENDBRANCH   1   2
BRANCH   1  13
ATOM     13  C   UNL     1      -6.229   4.384  -9.480  1.00  0.00     0.230 C 
BRANCH  13  14
ATOM     14  C   UNL     1      -6.062   4.422  -7.960  1.00  0.00     0.046 C 
BRANCH  14  15
ATOM     15  C   UNL     1      -4.777   3.688  -7.570  1.00  0.00     0.043 C 
BRANCH  15  16
ATOM     16  C   UNL     1      -4.843   3.298  -6.116  1.00  0.00    -0.004 A 
ATOM     17  C   UNL     1      -5.271   2.110  -5.629  1.00  0.00     0.036 A 
ATOM     18  C   UNL     1      -4.467   4.097  -5.031  1.00  0.00     0.063 A 
ATOM     19  N   UNL     1      -5.175   2.158  -4.283  1.00  0.00    -0.282 N 
ATOM     20  N   UNL     1      -4.672   3.418  -3.932  1.00  0.00    -0.181 NA
ATOM     21  C   UNL     1      -5.764   0.942  -6.443  1.00  0.00     0.066 C 
ATOM     22  C   UNL     1      -3.931   5.503  -5.114  1.00  0.00     0.069 C 
ATOM     23  H   UNL     1      -5.413   1.447  -3.669  1.00  0.00     0.190 HD
ENDBRANCH  15  16
ENDBRANCH  14  15
ENDBRANCH  13  14
ENDBRANCH   1  13
TORSDOF 7
ENDMDL
