MODEL 1
REMARK VINA RESULT:    -4.692      0.000      0.000
REMARK INTER + INTRA:          -5.675
REMARK INTER:                  -5.377
REMARK INTRA:                  -0.298
REMARK UNBOUND:                -0.298
REMARK SMILES O=C(O)c1ccc2nc(-c3cc(Cl)cc(Cl)c3)oc2c1
REMARK SMILES IDX 5 1 6 2 20 3 8 4 18 5 4 6 9 7 7 8 19 9 2 10 1 11 3 12 10 14
REMARK SMILES IDX 11 15 17 16 12 17 15 18 14 19 13 20 16 21
REMARK H PARENT 3 13
ROOT
ATOM      1  C   UNL     1      -3.980   0.431   1.782  1.00  0.00     0.018 A 
ATOM      2  C   UNL     1      -5.087   0.817   2.477  1.00  0.00     0.033 A 
ATOM      3  C   UNL     1      -5.209  -1.415   0.801  1.00  0.00     0.065 A 
ATOM      4  N   UNL     1      -7.507   0.229   2.897  1.00  0.00    -0.209 NA
ATOM      5  O   UNL     1      -7.593  -1.511   1.594  1.00  0.00    -0.436 OA
ATOM      6  C   UNL     1      -4.026  -0.685   0.936  1.00  0.00     0.063 A 
ATOM      7  C   UNL     1      -8.281  -0.725   2.444  1.00  0.00     0.227 A 
ATOM      8  C   UNL     1      -6.280   0.095   2.352  1.00  0.00     0.110 A 
ATOM      9  C   UNL     1      -6.333  -1.029   1.509  1.00  0.00     0.156 A 
ENDROOT
BRANCH   6  10
ATOM     10  C   UNL     1      -2.824  -1.089   0.184  1.00  0.00     0.335 C 
ATOM     11  O   UNL     1      -1.793  -0.460   0.305  1.00  0.00    -0.246 OA
BRANCH  10  12
ATOM     12  O   UNL     1      -2.870  -2.156  -0.638  1.00  0.00    -0.478 OA
ATOM     13  H   UNL     1      -3.533  -2.832  -0.444  1.00  0.00     0.297 HD
ENDBRANCH  10  12
ENDBRANCH   6  10
BRANCH   7  14
ATOM     14  C   UNL     1      -9.700  -0.912   2.811  1.00  0.00     0.040 A 
ATOM     15  C   UNL     1     -10.397   0.109   3.460  1.00  0.00     0.034 A 
ATOM     16  C   UNL     1     -10.349  -2.112   2.512  1.00  0.00     0.034 A 
ATOM     17  C   UNL     1     -11.723  -0.072   3.800  1.00  0.00     0.043 A 
ATOM     18  C   UNL     1     -11.675  -2.280   2.857  1.00  0.00     0.043 A 
ATOM     19  C   UNL     1     -12.361  -1.264   3.501  1.00  0.00     0.041 A 
ATOM     20  Cl  UNL     1     -12.591   1.197   4.606  1.00  0.00    -0.084 Cl
ATOM     21  Cl  UNL     1     -12.485  -3.771   2.486  1.00  0.00    -0.084 Cl
ENDBRANCH   7  14
TORSDOF 3
ENDMDL
MODEL 2
REMARK VINA RESULT:    -4.682      0.018      2.020
REMARK INTER + INTRA:          -5.664
REMARK INTER:                  -5.367
REMARK INTRA:                  -0.298
REMARK UNBOUND:                -0.298
REMARK SMILES O=C(O)c1ccc2nc(-c3cc(Cl)cc(Cl)c3)oc2c1
REMARK SMILES IDX 5 1 6 2 20 3 8 4 18 5 4 6 9 7 7 8 19 9 2 10 1 11 3 12 10 14
REMARK SMILES IDX 11 15 17 16 12 17 15 18 14 19 13 20 16 21
REMARK H PARENT 3 13
ROOT
ATOM      1  C   UNL     1      -3.983   0.428   1.784  1.00  0.00     0.018 A 
ATOM      2  C   UNL     1      -5.092   0.809   2.478  1.00  0.00     0.033 A 
ATOM      3  C   UNL     1      -5.206  -1.420   0.799  1.00  0.00     0.065 A 
ATOM      4  N   UNL     1      -7.511   0.215   2.894  1.00  0.00    -0.209 NA
ATOM      5  O   UNL     1      -7.591  -1.523   1.588  1.00  0.00    -0.436 OA
ATOM      6  C   UNL     1      -4.025  -0.688   0.936  1.00  0.00     0.063 A 
ATOM      7  C   UNL     1      -8.282  -0.741   2.438  1.00  0.00     0.227 A 
ATOM      8  C   UNL     1      -6.283   0.084   2.350  1.00  0.00     0.110 A 
ATOM      9  C   UNL     1      -6.332  -1.039   1.505  1.00  0.00     0.156 A 
ENDROOT
BRANCH   6  10
ATOM     10  C   UNL     1      -2.821  -1.087   0.185  1.00  0.00     0.335 C 
ATOM     11  O   UNL     1      -1.793  -0.451   0.303  1.00  0.00    -0.246 OA
BRANCH  10  12
ATOM     12  O   UNL     1      -2.861  -2.158  -0.633  1.00  0.00    -0.478 OA
ATOM     13  H   UNL     1      -3.316  -2.945  -0.305  1.00  0.00     0.297 HD
ENDBRANCH  10  12
ENDBRANCH   6  10
BRANCH   7  14
ATOM     14  C   UNL     1      -9.701  -0.932   2.803  1.00  0.00     0.040 A 
ATOM     15  C   UNL     1     -10.346  -2.133   2.506  1.00  0.00     0.034 A 
ATOM     16  C   UNL     1     -10.402   0.090   3.447  1.00  0.00     0.034 A 
ATOM     17  C   UNL     1     -11.672  -2.305   2.852  1.00  0.00     0.043 A 
ATOM     18  C   UNL     1     -11.727  -0.094   3.787  1.00  0.00     0.043 A 
ATOM     19  C   UNL     1     -12.362  -1.288   3.490  1.00  0.00     0.041 A 
ATOM     20  Cl  UNL     1     -12.477  -3.799   2.484  1.00  0.00    -0.084 Cl
ATOM     21  Cl  UNL     1     -12.601   1.175   4.588  1.00  0.00    -0.084 Cl
ENDBRANCH   7  14
TORSDOF 3
ENDMDL
MODEL 3
REMARK VINA RESULT:    -4.671      3.743      7.662
REMARK INTER + INTRA:          -5.651
REMARK INTER:                  -5.356
REMARK INTRA:                  -0.295
REMARK UNBOUND:                -0.298
REMARK SMILES O=C(O)c1ccc2nc(-c3cc(Cl)cc(Cl)c3)oc2c1
REMARK SMILES IDX 5 1 6 2 20 3 8 4 18 5 4 6 9 7 7 8 19 9 2 10 1 11 3 12 10 14
REMARK SMILES IDX 11 15 17 16 12 17 15 18 14 19 13 20 16 21
REMARK H PARENT 3 13
ROOT
ATOM      1  C   UNL     1     -12.208  -1.048   3.522  1.00  0.00     0.018 A 
ATOM      2  C   UNL     1     -11.101  -0.255   3.564  1.00  0.00     0.033 A 
ATOM      3  C   UNL     1     -10.962  -2.765   2.346  1.00  0.00     0.065 A 
ATOM      4  N   UNL     1      -8.669  -0.153   2.887  1.00  0.00    -0.209 NA
ATOM      5  O   UNL     1      -8.571  -2.107   1.936  1.00  0.00    -0.436 OA
ATOM      6  C   UNL     1     -12.154  -2.311   2.915  1.00  0.00     0.063 A 
ATOM      7  C   UNL     1      -7.887  -0.993   2.257  1.00  0.00     0.227 A 
ATOM      8  C   UNL     1      -9.900  -0.698   2.997  1.00  0.00     0.110 A 
ATOM      9  C   UNL     1      -9.838  -1.961   2.383  1.00  0.00     0.156 A 
ENDROOT
BRANCH   6  10
ATOM     10  C   UNL     1     -13.356  -3.163   2.881  1.00  0.00     0.335 C 
ATOM     11  O   UNL     1     -13.401  -4.120   2.134  1.00  0.00    -0.246 OA
BRANCH  10  12
ATOM     12  O   UNL     1     -14.407  -2.879   3.676  1.00  0.00    -0.478 OA
ATOM     13  H   UNL     1     -14.293  -2.163   4.314  1.00  0.00     0.297 HD
ENDBRANCH  10  12
ENDBRANCH   6  10
BRANCH   7  14
ATOM     14  C   UNL     1      -6.462  -0.752   1.945  1.00  0.00     0.040 A 
ATOM     15  C   UNL     1      -5.872  -1.372   0.843  1.00  0.00     0.034 A 
ATOM     16  C   UNL     1      -5.702   0.095   2.753  1.00  0.00     0.034 A 
ATOM     17  C   UNL     1      -4.541  -1.142   0.556  1.00  0.00     0.043 A 
ATOM     18  C   UNL     1      -4.372   0.317   2.456  1.00  0.00     0.043 A 
ATOM     19  C   UNL     1      -3.792  -0.301   1.361  1.00  0.00     0.041 A 
ATOM     20  Cl  UNL     1      -3.805  -1.910  -0.816  1.00  0.00    -0.084 Cl
ATOM     21  Cl  UNL     1      -3.424   1.370   3.460  1.00  0.00    -0.084 Cl
ENDBRANCH   7  14
TORSDOF 3
ENDMDL
MODEL 4
REMARK VINA RESULT:    -4.662      3.743      7.426
REMARK INTER + INTRA:          -5.641
REMARK INTER:                  -5.345
REMARK INTRA:                  -0.295
REMARK UNBOUND:                -0.298
REMARK SMILES O=C(O)c1ccc2nc(-c3cc(Cl)cc(Cl)c3)oc2c1
REMARK SMILES IDX 5 1 6 2 20 3 8 4 18 5 4 6 9 7 7 8 19 9 2 10 1 11 3 12 10 14
REMARK SMILES IDX 11 15 17 16 12 17 15 18 14 19 13 20 16 21
REMARK H PARENT 3 13
ROOT
ATOM      1  C   UNL     1     -12.193  -1.065   3.520  1.00  0.00     0.018 A 
ATOM      2  C   UNL     1     -11.084  -0.274   3.567  1.00  0.00     0.033 A 
ATOM      3  C   UNL     1     -10.955  -2.769   2.318  1.00  0.00     0.065 A 
ATOM      4  N   UNL     1      -8.655  -0.167   2.880  1.00  0.00    -0.209 NA
ATOM      5  O   UNL     1      -8.564  -2.109   1.904  1.00  0.00    -0.436 OA
ATOM      6  C   UNL     1     -12.143  -2.321   2.898  1.00  0.00     0.063 A 
ATOM      7  C   UNL     1      -7.877  -1.001   2.236  1.00  0.00     0.227 A 
ATOM      8  C   UNL     1      -9.886  -0.712   2.989  1.00  0.00     0.110 A 
ATOM      9  C   UNL     1      -9.829  -1.968   2.359  1.00  0.00     0.156 A 
ENDROOT
BRANCH   6  10
ATOM     10  C   UNL     1     -13.347  -3.170   2.858  1.00  0.00     0.335 C 
ATOM     11  O   UNL     1     -13.392  -4.125   2.108  1.00  0.00    -0.246 OA
BRANCH  10  12
ATOM     12  O   UNL     1     -14.399  -2.887   3.652  1.00  0.00    -0.478 OA
ATOM     13  H   UNL     1     -14.272  -2.200   4.320  1.00  0.00     0.297 HD
ENDBRANCH  10  12
ENDBRANCH   6  10
BRANCH   7  14
ATOM     14  C   UNL     1      -6.454  -0.759   1.920  1.00  0.00     0.040 A 
ATOM     15  C   UNL     1      -5.694   0.097   2.719  1.00  0.00     0.034 A 
ATOM     16  C   UNL     1      -5.864  -1.385   0.820  1.00  0.00     0.034 A 
ATOM     17  C   UNL     1      -4.364   0.318   2.419  1.00  0.00     0.043 A 
ATOM     18  C   UNL     1      -4.534  -1.155   0.531  1.00  0.00     0.043 A 
ATOM     19  C   UNL     1      -3.786  -0.306   1.327  1.00  0.00     0.041 A 
ATOM     20  Cl  UNL     1      -3.417   1.381   3.412  1.00  0.00    -0.084 Cl
ATOM     21  Cl  UNL     1      -3.799  -1.933  -0.837  1.00  0.00    -0.084 Cl
ENDBRANCH   7  14
TORSDOF 3
ENDMDL
MODEL 5
REMARK VINA RESULT:    -4.647      3.918      7.825
REMARK INTER + INTRA:          -5.624
REMARK INTER:                  -5.328
REMARK INTRA:                  -0.295
REMARK UNBOUND:                -0.298
REMARK SMILES O=C(O)c1ccc2nc(-c3cc(Cl)cc(Cl)c3)oc2c1
REMARK SMILES IDX 5 1 6 2 20 3 8 4 18 5 4 6 9 7 7 8 19 9 2 10 1 11 3 12 10 14
REMARK SMILES IDX 11 15 17 16 12 17 15 18 14 19 13 20 16 21
REMARK H PARENT 3 13
ROOT
ATOM      1  C   UNL     1     -12.184  -1.312   3.483  1.00  0.00     0.018 A 
ATOM      2  C   UNL     1     -11.178  -1.908   2.784  1.00  0.00     0.033 A 
ATOM      3  C   UNL     1     -10.810   0.656   3.829  1.00  0.00     0.065 A 
ATOM      4  N   UNL     1      -8.814  -1.559   1.962  1.00  0.00    -0.209 NA
ATOM      5  O   UNL     1      -8.534   0.436   2.784  1.00  0.00    -0.436 OA
ATOM      6  C   UNL     1     -12.015  -0.025   4.012  1.00  0.00     0.063 A 
ATOM      7  C   UNL     1      -7.971  -0.563   2.079  1.00  0.00     0.227 A 
ATOM      8  C   UNL     1      -9.964  -1.236   2.593  1.00  0.00     0.110 A 
ATOM      9  C   UNL     1      -9.785   0.053   3.125  1.00  0.00     0.156 A 
ENDROOT
BRANCH   6  10
ATOM     10  C   UNL     1     -13.113   0.612   4.762  1.00  0.00     0.335 C 
ATOM     11  O   UNL     1     -12.906   1.628   5.395  1.00  0.00    -0.246 OA
BRANCH  10  12
ATOM     12  O   UNL     1     -14.345   0.068   4.746  1.00  0.00    -0.478 OA
ATOM     13  H   UNL     1     -14.806   0.047   3.896  1.00  0.00     0.297 HD
ENDBRANCH  10  12
ENDBRANCH   6  10
BRANCH   7  14
ATOM     14  C   UNL     1      -6.604  -0.541   1.519  1.00  0.00     0.040 A 
ATOM     15  C   UNL     1      -6.299  -1.291   0.382  1.00  0.00     0.034 A 
ATOM     16  C   UNL     1      -5.610   0.229   2.128  1.00  0.00     0.034 A 
ATOM     17  C   UNL     1      -5.020  -1.265  -0.136  1.00  0.00     0.043 A 
ATOM     18  C   UNL     1      -4.335   0.246   1.600  1.00  0.00     0.043 A 
ATOM     19  C   UNL     1      -4.039  -0.499   0.471  1.00  0.00     0.041 A 
ATOM     20  Cl  UNL     1      -4.639  -2.196  -1.551  1.00  0.00    -0.084 Cl
ATOM     21  Cl  UNL     1      -3.098   1.204   2.354  1.00  0.00    -0.084 Cl
ENDBRANCH   7  14
TORSDOF 3
ENDMDL
MODEL 6
REMARK VINA RESULT:    -4.644      1.085      1.759
REMARK INTER + INTRA:          -5.620
REMARK INTER:                  -5.322
REMARK INTRA:                  -0.298
REMARK UNBOUND:                -0.298
REMARK SMILES O=C(O)c1ccc2nc(-c3cc(Cl)cc(Cl)c3)oc2c1
REMARK SMILES IDX 5 1 6 2 20 3 8 4 18 5 4 6 9 7 7 8 19 9 2 10 1 11 3 12 10 14
REMARK SMILES IDX 11 15 17 16 12 17 15 18 14 19 13 20 16 21
REMARK H PARENT 3 13
ROOT
ATOM      1  C   UNL     1      -4.254  -1.298   0.260  1.00  0.00     0.018 A 
ATOM      2  C   UNL     1      -5.453  -1.946   0.278  1.00  0.00     0.033 A 
ATOM      3  C   UNL     1      -5.105   0.368   1.803  1.00  0.00     0.065 A 
ATOM      4  N   UNL     1      -7.773  -1.863   1.274  1.00  0.00    -0.209 NA
ATOM      5  O   UNL     1      -7.496  -0.057   2.455  1.00  0.00    -0.436 OA
ATOM      6  C   UNL     1      -4.064  -0.136   1.021  1.00  0.00     0.063 A 
ATOM      7  C   UNL     1      -8.354  -1.033   2.104  1.00  0.00     0.227 A 
ATOM      8  C   UNL     1      -6.505  -1.451   1.058  1.00  0.00     0.110 A 
ATOM      9  C   UNL     1      -6.324  -0.284   1.821  1.00  0.00     0.156 A 
ENDROOT
BRANCH   6  10
ATOM     10  C   UNL     1      -2.762   0.554   0.998  1.00  0.00     0.335 C 
ATOM     11  O   UNL     1      -1.864   0.132   0.297  1.00  0.00    -0.246 OA
BRANCH  10  12
ATOM     12  O   UNL     1      -2.566   1.651   1.755  1.00  0.00    -0.478 OA
ATOM     13  H   UNL     1      -1.774   2.175   1.574  1.00  0.00     0.297 HD
ENDBRANCH  10  12
ENDBRANCH   6  10
BRANCH   7  14
ATOM     14  C   UNL     1      -9.748  -1.150   2.582  1.00  0.00     0.040 A 
ATOM     15  C   UNL     1     -10.351  -0.084   3.251  1.00  0.00     0.034 A 
ATOM     16  C   UNL     1     -10.465  -2.328   2.367  1.00  0.00     0.034 A 
ATOM     17  C   UNL     1     -11.654  -0.199   3.694  1.00  0.00     0.043 A 
ATOM     18  C   UNL     1     -11.767  -2.431   2.815  1.00  0.00     0.043 A 
ATOM     19  C   UNL     1     -12.360  -1.371   3.477  1.00  0.00     0.041 A 
ATOM     20  Cl  UNL     1     -12.407   1.125   4.525  1.00  0.00    -0.084 Cl
ATOM     21  Cl  UNL     1     -12.661  -3.896   2.548  1.00  0.00    -0.084 Cl
ENDBRANCH   7  14
TORSDOF 3
ENDMDL
MODEL 7
REMARK VINA RESULT:    -4.643      3.917      7.599
REMARK INTER + INTRA:          -5.620
REMARK INTER:                  -5.325
REMARK INTRA:                  -0.295
REMARK UNBOUND:                -0.298
REMARK SMILES O=C(O)c1ccc2nc(-c3cc(Cl)cc(Cl)c3)oc2c1
REMARK SMILES IDX 5 1 6 2 20 3 8 4 18 5 4 6 9 7 7 8 19 9 2 10 1 11 3 12 10 14
REMARK SMILES IDX 11 15 17 16 12 17 15 18 14 19 13 20 16 21
REMARK H PARENT 3 13
ROOT
ATOM      1  C   UNL     1     -12.187  -1.325   3.477  1.00  0.00     0.018 A 
ATOM      2  C   UNL     1     -11.180  -1.918   2.776  1.00  0.00     0.033 A 
ATOM      3  C   UNL     1     -10.814   0.643   3.828  1.00  0.00     0.065 A 
ATOM      4  N   UNL     1      -8.816  -1.566   1.957  1.00  0.00    -0.209 NA
ATOM      5  O   UNL     1      -8.538   0.427   2.784  1.00  0.00    -0.436 OA
ATOM      6  C   UNL     1     -12.019  -0.038   4.009  1.00  0.00     0.063 A 
ATOM      7  C   UNL     1      -7.974  -0.570   2.076  1.00  0.00     0.227 A 
ATOM      8  C   UNL     1      -9.966  -1.246   2.588  1.00  0.00     0.110 A 
ATOM      9  C   UNL     1      -9.788   0.042   3.123  1.00  0.00     0.156 A 
ENDROOT
BRANCH   6  10
ATOM     10  C   UNL     1     -13.117   0.596   4.760  1.00  0.00     0.335 C 
ATOM     11  O   UNL     1     -12.902   1.584   5.433  1.00  0.00    -0.246 OA
BRANCH  10  12
ATOM     12  O   UNL     1     -14.361   0.080   4.701  1.00  0.00    -0.478 OA
ATOM     13  H   UNL     1     -14.729  -0.078   3.821  1.00  0.00     0.297 HD
ENDBRANCH  10  12
ENDBRANCH   6  10
BRANCH   7  14
ATOM     14  C   UNL     1      -6.606  -0.546   1.517  1.00  0.00     0.040 A 
ATOM     15  C   UNL     1      -5.614   0.224   2.125  1.00  0.00     0.034 A 
ATOM     16  C   UNL     1      -6.302  -1.294   0.378  1.00  0.00     0.034 A 
ATOM     17  C   UNL     1      -4.338   0.242   1.598  1.00  0.00     0.043 A 
ATOM     18  C   UNL     1      -5.022  -1.268  -0.139  1.00  0.00     0.043 A 
ATOM     19  C   UNL     1      -4.042  -0.502   0.468  1.00  0.00     0.041 A 
ATOM     20  Cl  UNL     1      -3.102   1.199   2.353  1.00  0.00    -0.084 Cl
ATOM     21  Cl  UNL     1      -4.642  -2.198  -1.556  1.00  0.00    -0.084 Cl
ENDBRANCH   7  14
TORSDOF 3
ENDMDL
MODEL 8
REMARK VINA RESULT:    -4.264      1.900      3.006
REMARK INTER + INTRA:          -5.185
REMARK INTER:                  -4.898
REMARK INTRA:                  -0.287
REMARK UNBOUND:                -0.298
REMARK SMILES O=C(O)c1ccc2nc(-c3cc(Cl)cc(Cl)c3)oc2c1
REMARK SMILES IDX 5 1 6 2 20 3 8 4 18 5 4 6 9 7 7 8 19 9 2 10 1 11 3 12 10 14
REMARK SMILES IDX 11 15 17 16 12 17 15 18 14 19 13 20 16 21
REMARK H PARENT 3 13
ROOT
ATOM      1  C   UNL     1      -5.131   0.686   1.073  1.00  0.00     0.018 A 
ATOM      2  C   UNL     1      -6.355   0.298   0.616  1.00  0.00     0.033 A 
ATOM      3  C   UNL     1      -5.735   0.018   3.325  1.00  0.00     0.065 A 
ATOM      4  N   UNL     1      -8.558  -0.696   1.352  1.00  0.00    -0.209 NA
ATOM      5  O   UNL     1      -8.069  -0.906   3.461  1.00  0.00    -0.436 OA
ATOM      6  C   UNL     1      -4.804   0.549   2.430  1.00  0.00     0.063 A 
ATOM      7  C   UNL     1      -9.009  -1.092   2.516  1.00  0.00     0.227 A 
ATOM      8  C   UNL     1      -7.297  -0.236   1.503  1.00  0.00     0.110 A 
ATOM      9  C   UNL     1      -6.979  -0.372   2.866  1.00  0.00     0.156 A 
ENDROOT
BRANCH   6  10
ATOM     10  C   UNL     1      -3.475   0.966   2.912  1.00  0.00     0.335 C 
ATOM     11  O   UNL     1      -2.741   1.609   2.188  1.00  0.00    -0.246 OA
BRANCH  10  12
ATOM     12  O   UNL     1      -3.074   0.634   4.155  1.00  0.00    -0.478 OA
ATOM     13  H   UNL     1      -3.562   1.022   4.893  1.00  0.00     0.297 HD
ENDBRANCH  10  12
ENDBRANCH   6  10
BRANCH   7  14
ATOM     14  C   UNL     1     -10.352  -1.659   2.755  1.00  0.00     0.040 A 
ATOM     15  C   UNL     1     -10.639  -2.969   2.371  1.00  0.00     0.034 A 
ATOM     16  C   UNL     1     -11.340  -0.884   3.366  1.00  0.00     0.034 A 
ATOM     17  C   UNL     1     -11.897  -3.493   2.599  1.00  0.00     0.043 A 
ATOM     18  C   UNL     1     -12.594  -1.419   3.588  1.00  0.00     0.043 A 
ATOM     19  C   UNL     1     -12.872  -2.720   3.205  1.00  0.00     0.041 A 
ATOM     20  Cl  UNL     1     -12.256  -5.123   2.123  1.00  0.00    -0.084 Cl
ATOM     21  Cl  UNL     1     -13.824  -0.457   4.348  1.00  0.00    -0.084 Cl
ENDBRANCH   7  14
TORSDOF 3
ENDMDL
MODEL 9
REMARK VINA RESULT:    -4.168      4.850      8.422
REMARK INTER + INTRA:          -5.075
REMARK INTER:                  -4.791
REMARK INTRA:                  -0.284
REMARK UNBOUND:                -0.298
REMARK SMILES O=C(O)c1ccc2nc(-c3cc(Cl)cc(Cl)c3)oc2c1
REMARK SMILES IDX 5 1 6 2 20 3 8 4 18 5 4 6 9 7 7 8 19 9 2 10 1 11 3 12 10 14
REMARK SMILES IDX 11 15 17 16 12 17 15 18 14 19 13 20 16 21
REMARK H PARENT 3 13
ROOT
ATOM      1  C   UNL     1     -14.820  -6.302   3.285  1.00  0.00     0.018 A 
ATOM      2  C   UNL     1     -14.685  -4.958   3.102  1.00  0.00     0.033 A 
ATOM      3  C   UNL     1     -12.415  -6.539   3.489  1.00  0.00     0.065 A 
ATOM      4  N   UNL     1     -12.973  -3.107   2.957  1.00  0.00    -0.209 NA
ATOM      5  O   UNL     1     -11.209  -4.346   3.254  1.00  0.00    -0.436 OA
ATOM      6  C   UNL     1     -13.690  -7.108   3.482  1.00  0.00     0.063 A 
ATOM      7  C   UNL     1     -11.666  -3.097   3.046  1.00  0.00     0.227 A 
ATOM      8  C   UNL     1     -13.413  -4.375   3.107  1.00  0.00     0.110 A 
ATOM      9  C   UNL     1     -12.274  -5.177   3.300  1.00  0.00     0.156 A 
ENDROOT
BRANCH   6  10
ATOM     10  C   UNL     1     -13.848  -8.560   3.684  1.00  0.00     0.335 C 
ATOM     11  O   UNL     1     -14.102  -9.280   2.739  1.00  0.00    -0.246 OA
BRANCH  10  12
ATOM     12  O   UNL     1     -13.713  -9.088   4.917  1.00  0.00    -0.478 OA
ATOM     13  H   UNL     1     -14.526  -9.284   5.402  1.00  0.00     0.297 HD
ENDBRANCH  10  12
ENDBRANCH   6  10
BRANCH   7  14
ATOM     14  C   UNL     1     -10.819  -1.891   2.933  1.00  0.00     0.040 A 
ATOM     15  C   UNL     1     -11.243  -0.682   3.484  1.00  0.00     0.034 A 
ATOM     16  C   UNL     1      -9.590  -1.958   2.272  1.00  0.00     0.034 A 
ATOM     17  C   UNL     1     -10.446   0.440   3.376  1.00  0.00     0.043 A 
ATOM     18  C   UNL     1      -8.803  -0.829   2.170  1.00  0.00     0.043 A 
ATOM     19  C   UNL     1      -9.229   0.367   2.719  1.00  0.00     0.041 A 
ATOM     20  Cl  UNL     1     -10.971   1.946   4.062  1.00  0.00    -0.084 Cl
ATOM     21  Cl  UNL     1      -7.275  -0.910   1.349  1.00  0.00    -0.084 Cl
ENDBRANCH   7  14
TORSDOF 3
ENDMDL
