MODEL 1
REMARK VINA RESULT:    -5.832      0.000      0.000
REMARK INTER + INTRA:          -8.719
REMARK INTER:                  -8.048
REMARK INTRA:                  -0.671
REMARK UNBOUND:                -0.671
REMARK SMILES Cc1n[nH]c(C)c1CCCOc1cc(C(=O)O)ccc1F
REMARK SMILES IDX 11 1 12 2 14 3 18 4 13 5 19 6 20 7 21 8 15 9 16 10 17 11
REMARK SMILES IDX 10 13 9 14 8 15 7 16 5 17 2 18 4 19 3 20 6 21 1 22
REMARK H PARENT 17 12 4 23
ROOT
ATOM      1  O   UNL     1      -6.584   0.007   3.158  1.00  0.00    -0.490 OA
ENDROOT
BRANCH   1   2
ATOM      2  C   UNL     1      -5.582  -0.163   2.255  1.00  0.00     0.155 A 
ATOM      3  C   UNL     1      -4.778  -1.055   0.171  1.00  0.00     0.063 A 
ATOM      4  C   UNL     1      -3.524  -0.490   0.418  1.00  0.00     0.019 A 
ATOM      5  C   UNL     1      -5.809  -0.886   1.099  1.00  0.00     0.065 A 
ATOM      6  C   UNL     1      -3.309   0.235   1.571  1.00  0.00     0.044 A 
ATOM      7  C   UNL     1      -4.334   0.405   2.487  1.00  0.00     0.165 A 
ATOM      8  F   UNL     1      -4.117   1.117   3.615  1.00  0.00    -0.203 F 
BRANCH   3   9
ATOM      9  C   UNL     1      -5.012  -1.831  -1.062  1.00  0.00     0.335 C 
ATOM     10  O   UNL     1      -5.555  -2.916  -1.004  1.00  0.00    -0.246 OA
BRANCH   9  11
ATOM     11  O   UNL     1      -4.628  -1.333  -2.254  1.00  0.00    -0.478 OA
ATOM     12  H   UNL     1      -4.059  -1.893  -2.801  1.00  0.00     0.297 HD
ENDBRANCH   9  11
ENDBRANCH   3   9
ENDBRANCH   1   2
BRANCH   1  13
ATOM     13  C   UNL     1      -6.952  -1.131   3.941  1.00  0.00     0.230 C 
BRANCH  13  14
ATOM     14  C   UNL     1      -8.443  -1.060   4.273  1.00  0.00     0.046 C 
BRANCH  14  15
ATOM     15  C   UNL     1      -9.226  -0.653   3.022  1.00  0.00     0.043 C 
BRANCH  15  16
ATOM     16  C   UNL     1     -10.703  -0.747   3.300  1.00  0.00    -0.004 A 
ATOM     17  C   UNL     1     -11.490  -1.825   3.071  1.00  0.00     0.036 A 
ATOM     18  C   UNL     1     -11.504   0.261   3.847  1.00  0.00     0.063 A 
ATOM     19  N   UNL     1     -12.745  -1.507   3.453  1.00  0.00    -0.282 N 
ATOM     20  N   UNL     1     -12.729  -0.190   3.933  1.00  0.00    -0.181 NA
ATOM     21  C   UNL     1     -11.044  -3.142   2.493  1.00  0.00     0.066 C 
ATOM     22  C   UNL     1     -11.038   1.635   4.256  1.00  0.00     0.069 C 
ATOM     23  H   UNL     1     -13.520  -2.086   3.403  1.00  0.00     0.190 HD
ENDBRANCH  15  16
ENDBRANCH  14  15
ENDBRANCH  13  14
ENDBRANCH   1  13
TORSDOF 7
ENDMDL
MODEL 2
REMARK VINA RESULT:    -5.753      0.126      1.771
REMARK INTER + INTRA:          -8.610
REMARK INTER:                  -7.935
REMARK INTRA:                  -0.675
REMARK UNBOUND:                -0.671
REMARK SMILES Cc1n[nH]c(C)c1CCCOc1cc(C(=O)O)ccc1F
REMARK SMILES IDX 11 1 12 2 14 3 18 4 13 5 19 6 20 7 21 8 15 9 16 10 17 11
REMARK SMILES IDX 10 13 9 14 8 15 7 16 5 17 2 18 4 19 3 20 6 21 1 22
REMARK H PARENT 17 12 4 23
ROOT
ATOM      1  O   UNL     1      -6.655   0.010   3.172  1.00  0.00    -0.490 OA
ENDROOT
BRANCH   1   2
ATOM      2  C   UNL     1      -5.640  -0.148   2.281  1.00  0.00     0.155 A 
ATOM      3  C   UNL     1      -4.805  -1.018   0.201  1.00  0.00     0.063 A 
ATOM      4  C   UNL     1      -3.557  -0.450   0.469  1.00  0.00     0.019 A 
ATOM      5  C   UNL     1      -5.848  -0.862   1.116  1.00  0.00     0.065 A 
ATOM      6  C   UNL     1      -3.361   0.266   1.630  1.00  0.00     0.044 A 
ATOM      7  C   UNL     1      -4.398   0.424   2.535  1.00  0.00     0.165 A 
ATOM      8  F   UNL     1      -4.199   1.127   3.671  1.00  0.00    -0.203 F 
BRANCH   3   9
ATOM      9  C   UNL     1      -5.019  -1.785  -1.042  1.00  0.00     0.335 C 
ATOM     10  O   UNL     1      -5.534  -2.883  -0.997  1.00  0.00    -0.246 OA
BRANCH   9  11
ATOM     11  O   UNL     1      -4.648  -1.263  -2.227  1.00  0.00    -0.478 OA
ATOM     12  H   UNL     1      -3.881  -0.673  -2.227  1.00  0.00     0.297 HD
ENDBRANCH   9  11
ENDBRANCH   3   9
ENDBRANCH   1   2
BRANCH   1  13
ATOM     13  C   UNL     1      -7.000  -1.125   3.970  1.00  0.00     0.230 C 
BRANCH  13  14
ATOM     14  C   UNL     1      -8.489  -1.070   4.317  1.00  0.00     0.046 C 
BRANCH  14  15
ATOM     15  C   UNL     1      -9.284  -0.641   3.082  1.00  0.00     0.043 C 
BRANCH  15  16
ATOM     16  C   UNL     1     -10.757  -0.657   3.402  1.00  0.00    -0.004 A 
ATOM     17  C   UNL     1     -11.468   0.366   3.931  1.00  0.00     0.036 A 
ATOM     18  C   UNL     1     -11.631  -1.729   3.198  1.00  0.00     0.063 A 
ATOM     19  N   UNL     1     -12.746  -0.047   4.063  1.00  0.00    -0.282 N 
ATOM     20  N   UNL     1     -12.822  -1.367   3.600  1.00  0.00    -0.181 NA
ATOM     21  C   UNL     1     -10.930   1.722   4.305  1.00  0.00     0.066 C 
ATOM     22  C   UNL     1     -11.263  -3.074   2.625  1.00  0.00     0.069 C 
ATOM     23  H   UNL     1     -13.481   0.477   4.417  1.00  0.00     0.190 HD
ENDBRANCH  15  16
ENDBRANCH  14  15
ENDBRANCH  13  14
ENDBRANCH   1  13
TORSDOF 7
ENDMDL
MODEL 3
REMARK VINA RESULT:    -5.732      2.123      3.674
REMARK INTER + INTRA:          -8.582
REMARK INTER:                  -7.873
REMARK INTRA:                  -0.709
REMARK UNBOUND:                -0.671
REMARK SMILES Cc1n[nH]c(C)c1CCCOc1cc(C(=O)O)ccc1F
REMARK SMILES IDX 11 1 12 2 14 3 18 4 13 5 19 6 20 7 21 8 15 9 16 10 17 11
REMARK SMILES IDX 10 13 9 14 8 15 7 16 5 17 2 18 4 19 3 20 6 21 1 22
REMARK H PARENT 17 12 4 23
ROOT
ATOM      1  O   UNL     1      -7.327  -0.759  -0.417  1.00  0.00    -0.490 OA
ENDROOT
BRANCH   1   2
ATOM      2  C   UNL     1      -6.036  -0.725   0.008  1.00  0.00     0.155 A 
ATOM      3  C   UNL     1      -4.367   0.052   1.555  1.00  0.00     0.063 A 
ATOM      4  C   UNL     1      -3.394  -0.677   0.865  1.00  0.00     0.019 A 
ATOM      5  C   UNL     1      -5.693   0.023   1.118  1.00  0.00     0.065 A 
ATOM      6  C   UNL     1      -3.747  -1.425  -0.239  1.00  0.00     0.044 A 
ATOM      7  C   UNL     1      -5.064  -1.455  -0.667  1.00  0.00     0.165 A 
ATOM      8  F   UNL     1      -5.403  -2.190  -1.749  1.00  0.00    -0.203 F 
BRANCH   3   9
ATOM      9  C   UNL     1      -3.993   0.853   2.736  1.00  0.00     0.335 C 
ATOM     10  O   UNL     1      -4.614   0.734   3.772  1.00  0.00    -0.246 OA
BRANCH   9  11
ATOM     11  O   UNL     1      -2.957   1.712   2.667  1.00  0.00    -0.478 OA
ATOM     12  H   UNL     1      -2.497   1.914   3.494  1.00  0.00     0.297 HD
ENDBRANCH   9  11
ENDBRANCH   3   9
ENDBRANCH   1   2
BRANCH   1  13
ATOM     13  C   UNL     1      -8.286  -0.040   0.363  1.00  0.00     0.230 C 
BRANCH  13  14
ATOM     14  C   UNL     1      -9.453  -0.964   0.713  1.00  0.00     0.046 C 
BRANCH  14  15
ATOM     15  C   UNL     1      -9.351  -1.380   2.182  1.00  0.00     0.043 C 
BRANCH  15  16
ATOM     16  C   UNL     1     -10.734  -1.504   2.768  1.00  0.00    -0.004 A 
ATOM     17  C   UNL     1     -11.408  -0.535   3.430  1.00  0.00     0.036 A 
ATOM     18  C   UNL     1     -11.550  -2.639   2.717  1.00  0.00     0.063 A 
ATOM     19  N   UNL     1     -12.606  -1.041   3.791  1.00  0.00    -0.282 N 
ATOM     20  N   UNL     1     -12.670  -2.365   3.336  1.00  0.00    -0.181 NA
ATOM     21  C   UNL     1     -10.910   0.858   3.712  1.00  0.00     0.066 C 
ATOM     22  C   UNL     1     -11.197  -3.954   2.072  1.00  0.00     0.069 C 
ATOM     23  H   UNL     1     -13.299  -0.572   4.280  1.00  0.00     0.190 HD
ENDBRANCH  15  16
ENDBRANCH  14  15
ENDBRANCH  13  14
ENDBRANCH   1  13
TORSDOF 7
ENDMDL
MODEL 4
REMARK VINA RESULT:    -5.728      2.091      3.176
REMARK INTER + INTRA:          -8.576
REMARK INTER:                  -7.905
REMARK INTRA:                  -0.671
REMARK UNBOUND:                -0.671
REMARK SMILES Cc1n[nH]c(C)c1CCCOc1cc(C(=O)O)ccc1F
REMARK SMILES IDX 11 1 12 2 14 3 18 4 13 5 19 6 20 7 21 8 15 9 16 10 17 11
REMARK SMILES IDX 10 13 9 14 8 15 7 16 5 17 2 18 4 19 3 20 6 21 1 22
REMARK H PARENT 17 12 4 23
ROOT
ATOM      1  O   UNL     1      -7.384  -1.392   0.945  1.00  0.00    -0.490 OA
ENDROOT
BRANCH   1   2
ATOM      2  C   UNL     1      -6.066  -1.055   0.937  1.00  0.00     0.155 A 
ATOM      3  C   UNL     1      -4.190   0.061   1.945  1.00  0.00     0.063 A 
ATOM      4  C   UNL     1      -3.370  -0.387   0.905  1.00  0.00     0.019 A 
ATOM      5  C   UNL     1      -5.545  -0.278   1.954  1.00  0.00     0.065 A 
ATOM      6  C   UNL     1      -3.899  -1.166  -0.102  1.00  0.00     0.044 A 
ATOM      7  C   UNL     1      -5.241  -1.505  -0.088  1.00  0.00     0.165 A 
ATOM      8  F   UNL     1      -5.753  -2.269  -1.078  1.00  0.00    -0.203 F 
BRANCH   3   9
ATOM      9  C   UNL     1      -3.628   0.895   3.025  1.00  0.00     0.335 C 
ATOM     10  O   UNL     1      -3.910   0.661   4.182  1.00  0.00    -0.246 OA
BRANCH   9  11
ATOM     11  O   UNL     1      -2.796   1.912   2.726  1.00  0.00    -0.478 OA
ATOM     12  H   UNL     1      -1.863   1.799   2.956  1.00  0.00     0.297 HD
ENDBRANCH   9  11
ENDBRANCH   3   9
ENDBRANCH   1   2
BRANCH   1  13
ATOM     13  C   UNL     1      -8.292  -0.475   0.329  1.00  0.00     0.230 C 
BRANCH  13  14
ATOM     14  C   UNL     1      -9.703  -0.718   0.866  1.00  0.00     0.046 C 
BRANCH  14  15
ATOM     15  C   UNL     1      -9.620  -1.234   2.305  1.00  0.00     0.043 C 
BRANCH  15  16
ATOM     16  C   UNL     1     -11.009  -1.488   2.829  1.00  0.00    -0.004 A 
ATOM     17  C   UNL     1     -11.707  -2.641   2.709  1.00  0.00     0.036 A 
ATOM     18  C   UNL     1     -11.804  -0.576   3.532  1.00  0.00     0.063 A 
ATOM     19  N   UNL     1     -12.903  -2.463   3.309  1.00  0.00    -0.282 N 
ATOM     20  N   UNL     1     -12.941  -1.157   3.814  1.00  0.00    -0.181 NA
ATOM     21  C   UNL     1     -11.234  -3.899   2.028  1.00  0.00     0.066 C 
ATOM     22  C   UNL     1     -11.420   0.837   3.892  1.00  0.00     0.069 C 
ATOM     23  H   UNL     1     -13.611  -3.122   3.377  1.00  0.00     0.190 HD
ENDBRANCH  15  16
ENDBRANCH  14  15
ENDBRANCH  13  14
ENDBRANCH   1  13
TORSDOF 7
ENDMDL
MODEL 5
REMARK VINA RESULT:    -5.308      2.147      2.968
REMARK INTER + INTRA:          -7.996
REMARK INTER:                  -7.326
REMARK INTRA:                  -0.670
REMARK UNBOUND:                -0.671
REMARK SMILES Cc1n[nH]c(C)c1CCCOc1cc(C(=O)O)ccc1F
REMARK SMILES IDX 11 1 12 2 14 3 18 4 13 5 19 6 20 7 21 8 15 9 16 10 17 11
REMARK SMILES IDX 10 13 9 14 8 15 7 16 5 17 2 18 4 19 3 20 6 21 1 22
REMARK H PARENT 17 12 4 23
ROOT
ATOM      1  O   UNL     1      -6.840  -1.820   3.294  1.00  0.00    -0.490 OA
ENDROOT
BRANCH   1   2
ATOM      2  C   UNL     1      -5.814  -1.282   2.582  1.00  0.00     0.155 A 
ATOM      3  C   UNL     1      -4.061   0.347   2.354  1.00  0.00     0.063 A 
ATOM      4  C   UNL     1      -3.716  -0.203   1.117  1.00  0.00     0.019 A 
ATOM      5  C   UNL     1      -5.117  -0.200   3.085  1.00  0.00     0.065 A 
ATOM      6  C   UNL     1      -4.414  -1.287   0.626  1.00  0.00     0.044 A 
ATOM      7  C   UNL     1      -5.457  -1.831   1.356  1.00  0.00     0.165 A 
ATOM      8  F   UNL     1      -6.137  -2.892   0.869  1.00  0.00    -0.203 F 
BRANCH   3   9
ATOM      9  C   UNL     1      -3.315   1.507   2.882  1.00  0.00     0.335 C 
ATOM     10  O   UNL     1      -2.429   2.011   2.223  1.00  0.00    -0.246 OA
BRANCH   9  11
ATOM     11  O   UNL     1      -3.623   2.009   4.094  1.00  0.00    -0.478 OA
ATOM     12  H   UNL     1      -2.887   2.183   4.698  1.00  0.00     0.297 HD
ENDBRANCH   9  11
ENDBRANCH   3   9
ENDBRANCH   1   2
BRANCH   1  13
ATOM     13  C   UNL     1      -7.188  -1.173   4.521  1.00  0.00     0.230 C 
BRANCH  13  14
ATOM     14  C   UNL     1      -8.710  -1.148   4.670  1.00  0.00     0.046 C 
BRANCH  14  15
ATOM     15  C   UNL     1      -9.347  -0.775   3.330  1.00  0.00     0.043 C 
BRANCH  15  16
ATOM     16  C   UNL     1     -10.845  -0.905   3.431  1.00  0.00    -0.004 A 
ATOM     17  C   UNL     1     -11.576  -1.988   3.079  1.00  0.00     0.036 A 
ATOM     18  C   UNL     1     -11.725   0.071   3.912  1.00  0.00     0.063 A 
ATOM     19  N   UNL     1     -12.873  -1.705   3.322  1.00  0.00    -0.282 N 
ATOM     20  N   UNL     1     -12.942  -0.406   3.840  1.00  0.00    -0.181 NA
ATOM     21  C   UNL     1     -11.038  -3.277   2.517  1.00  0.00     0.066 C 
ATOM     22  C   UNL     1     -11.340   1.439   4.414  1.00  0.00     0.069 C 
ATOM     23  H   UNL     1     -13.625  -2.297   3.165  1.00  0.00     0.190 HD
ENDBRANCH  15  16
ENDBRANCH  14  15
ENDBRANCH  13  14
ENDBRANCH   1  13
TORSDOF 7
ENDMDL
MODEL 6
REMARK VINA RESULT:    -4.854      4.276      7.766
REMARK INTER + INTRA:          -7.369
REMARK INTER:                  -6.784
REMARK INTRA:                  -0.585
REMARK UNBOUND:                -0.671
REMARK SMILES Cc1n[nH]c(C)c1CCCOc1cc(C(=O)O)ccc1F
REMARK SMILES IDX 11 1 12 2 14 3 18 4 13 5 19 6 20 7 21 8 15 9 16 10 17 11
REMARK SMILES IDX 10 13 9 14 8 15 7 16 5 17 2 18 4 19 3 20 6 21 1 22
REMARK H PARENT 17 12 4 23
ROOT
ATOM      1  O   UNL     1      -8.687  -1.781   1.927  1.00  0.00    -0.490 OA
ENDROOT
BRANCH   1   2
ATOM      2  C   UNL     1      -9.947  -1.700   2.431  1.00  0.00     0.155 A 
ATOM      3  C   UNL     1     -11.667  -0.456   3.560  1.00  0.00     0.063 A 
ATOM      4  C   UNL     1     -12.528  -1.551   3.447  1.00  0.00     0.019 A 
ATOM      5  C   UNL     1     -10.371  -0.538   3.048  1.00  0.00     0.065 A 
ATOM      6  C   UNL     1     -12.098  -2.704   2.826  1.00  0.00     0.044 A 
ATOM      7  C   UNL     1     -10.813  -2.781   2.313  1.00  0.00     0.165 A 
ATOM      8  F   UNL     1     -10.398  -3.914   1.705  1.00  0.00    -0.203 F 
BRANCH   3   9
ATOM      9  C   UNL     1     -12.124   0.780   4.225  1.00  0.00     0.335 C 
ATOM     10  O   UNL     1     -13.312   0.996   4.356  1.00  0.00    -0.246 OA
BRANCH   9  11
ATOM     11  O   UNL     1     -11.223   1.667   4.691  1.00  0.00    -0.478 OA
ATOM     12  H   UNL     1     -11.550   2.351   5.292  1.00  0.00     0.297 HD
ENDBRANCH   9  11
ENDBRANCH   3   9
ENDBRANCH   1   2
BRANCH   1  13
ATOM     13  C   UNL     1      -8.273  -0.735   1.044  1.00  0.00     0.230 C 
BRANCH  13  14
ATOM     14  C   UNL     1      -7.124   0.046   1.685  1.00  0.00     0.046 C 
BRANCH  14  15
ATOM     15  C   UNL     1      -6.021  -0.926   2.110  1.00  0.00     0.043 C 
BRANCH  15  16
ATOM     16  C   UNL     1      -4.711  -0.498   1.500  1.00  0.00    -0.004 A 
ATOM     17  C   UNL     1      -3.801   0.328   2.066  1.00  0.00     0.036 A 
ATOM     18  C   UNL     1      -4.218  -0.890   0.251  1.00  0.00     0.063 A 
ATOM     19  N   UNL     1      -2.772   0.459   1.204  1.00  0.00    -0.282 N 
ATOM     20  N   UNL     1      -3.059  -0.311   0.069  1.00  0.00    -0.181 NA
ATOM     21  C   UNL     1      -3.916   0.982   3.418  1.00  0.00     0.066 C 
ATOM     22  C   UNL     1      -4.909  -1.810  -0.724  1.00  0.00     0.069 C 
ATOM     23  H   UNL     1      -1.975   0.994   1.344  1.00  0.00     0.190 HD
ENDBRANCH  15  16
ENDBRANCH  14  15
ENDBRANCH  13  14
ENDBRANCH   1  13
TORSDOF 7
ENDMDL
MODEL 7
REMARK VINA RESULT:    -4.816      4.272      7.594
REMARK INTER + INTRA:          -7.317
REMARK INTER:                  -6.744
REMARK INTRA:                  -0.573
REMARK UNBOUND:                -0.671
REMARK SMILES Cc1n[nH]c(C)c1CCCOc1cc(C(=O)O)ccc1F
REMARK SMILES IDX 11 1 12 2 14 3 18 4 13 5 19 6 20 7 21 8 15 9 16 10 17 11
REMARK SMILES IDX 10 13 9 14 8 15 7 16 5 17 2 18 4 19 3 20 6 21 1 22
REMARK H PARENT 17 12 4 23
ROOT
ATOM      1  O   UNL     1      -8.749  -1.710   1.622  1.00  0.00    -0.490 OA
ENDROOT
BRANCH   1   2
ATOM      2  C   UNL     1      -9.950  -1.610   2.252  1.00  0.00     0.155 A 
ATOM      3  C   UNL     1     -11.547  -0.328   3.512  1.00  0.00     0.063 A 
ATOM      4  C   UNL     1     -12.413  -1.424   3.523  1.00  0.00     0.019 A 
ATOM      5  C   UNL     1     -10.310  -0.428   2.871  1.00  0.00     0.065 A 
ATOM      6  C   UNL     1     -12.048  -2.597   2.898  1.00  0.00     0.044 A 
ATOM      7  C   UNL     1     -10.823  -2.693   2.258  1.00  0.00     0.165 A 
ATOM      8  F   UNL     1     -10.471  -3.846   1.647  1.00  0.00    -0.203 F 
BRANCH   3   9
ATOM      9  C   UNL     1     -11.934   0.930   4.180  1.00  0.00     0.335 C 
ATOM     10  O   UNL     1     -11.083   1.656   4.651  1.00  0.00    -0.246 OA
BRANCH   9  11
ATOM     11  O   UNL     1     -13.234   1.275   4.262  1.00  0.00    -0.478 OA
ATOM     12  H   UNL     1     -13.564   1.904   3.605  1.00  0.00     0.297 HD
ENDBRANCH   9  11
ENDBRANCH   3   9
ENDBRANCH   1   2
BRANCH   1  13
ATOM     13  C   UNL     1      -8.442  -0.709   0.649  1.00  0.00     0.230 C 
BRANCH  13  14
ATOM     14  C   UNL     1      -7.208   0.075   1.097  1.00  0.00     0.046 C 
BRANCH  14  15
ATOM     15  C   UNL     1      -6.218  -0.875   1.775  1.00  0.00     0.043 C 
BRANCH  15  16
ATOM     16  C   UNL     1      -4.822  -0.575   1.292  1.00  0.00    -0.004 A 
ATOM     17  C   UNL     1      -4.265  -1.019   0.141  1.00  0.00     0.036 A 
ATOM     18  C   UNL     1      -3.875   0.216   1.951  1.00  0.00     0.063 A 
ATOM     19  N   UNL     1      -3.008  -0.531   0.078  1.00  0.00    -0.282 N 
ATOM     20  N   UNL     1      -2.786   0.237   1.228  1.00  0.00    -0.181 NA
ATOM     21  C   UNL     1      -4.930  -1.899  -0.885  1.00  0.00     0.066 C 
ATOM     22  C   UNL     1      -4.072   0.913   3.273  1.00  0.00     0.069 C 
ATOM     23  H   UNL     1      -2.372  -0.686  -0.637  1.00  0.00     0.190 HD
ENDBRANCH  15  16
ENDBRANCH  14  15
ENDBRANCH  13  14
ENDBRANCH   1  13
TORSDOF 7
ENDMDL
MODEL 8
REMARK VINA RESULT:    -4.752      3.832      6.680
REMARK INTER + INTRA:          -7.229
REMARK INTER:                  -6.411
REMARK INTRA:                  -0.818
REMARK UNBOUND:                -0.671
REMARK SMILES Cc1n[nH]c(C)c1CCCOc1cc(C(=O)O)ccc1F
REMARK SMILES IDX 11 1 12 2 14 3 18 4 13 5 19 6 20 7 21 8 15 9 16 10 17 11
REMARK SMILES IDX 10 13 9 14 8 15 7 16 5 17 2 18 4 19 3 20 6 21 1 22
REMARK H PARENT 17 12 4 23
ROOT
ATOM      1  O   UNL     1      -8.218  -0.055   2.754  1.00  0.00    -0.490 OA
ENDROOT
BRANCH   1   2
ATOM      2  C   UNL     1      -9.474  -0.548   2.924  1.00  0.00     0.155 A 
ATOM      3  C   UNL     1     -11.063  -2.337   2.694  1.00  0.00     0.063 A 
ATOM      4  C   UNL     1     -12.043  -1.539   3.290  1.00  0.00     0.019 A 
ATOM      5  C   UNL     1      -9.774  -1.833   2.512  1.00  0.00     0.065 A 
ATOM      6  C   UNL     1     -11.733  -0.260   3.703  1.00  0.00     0.044 A 
ATOM      7  C   UNL     1     -10.452   0.236   3.527  1.00  0.00     0.165 A 
ATOM      8  F   UNL     1     -10.154   1.490   3.934  1.00  0.00    -0.203 F 
BRANCH   3   9
ATOM      9  C   UNL     1     -11.392  -3.707   2.251  1.00  0.00     0.335 C 
ATOM     10  O   UNL     1     -10.546  -4.390   1.711  1.00  0.00    -0.246 OA
BRANCH   9  11
ATOM     11  O   UNL     1     -12.629  -4.201   2.453  1.00  0.00    -0.478 OA
ATOM     12  H   UNL     1     -12.712  -5.162   2.524  1.00  0.00     0.297 HD
ENDBRANCH   9  11
ENDBRANCH   3   9
ENDBRANCH   1   2
BRANCH   1  13
ATOM     13  C   UNL     1      -7.136  -0.859   3.229  1.00  0.00     0.230 C 
BRANCH  13  14
ATOM     14  C   UNL     1      -5.809  -0.175   2.896  1.00  0.00     0.046 C 
BRANCH  14  15
ATOM     15  C   UNL     1      -5.959   0.629   1.603  1.00  0.00     0.043 C 
BRANCH  15  16
ATOM     16  C   UNL     1      -5.623  -0.247   0.424  1.00  0.00    -0.004 A 
ATOM     17  C   UNL     1      -6.493  -0.686  -0.515  1.00  0.00     0.036 A 
ATOM     18  C   UNL     1      -4.356  -0.746   0.103  1.00  0.00     0.063 A 
ATOM     19  N   UNL     1      -5.802  -1.441  -1.395  1.00  0.00    -0.282 N 
ATOM     20  N   UNL     1      -4.464  -1.467  -0.983  1.00  0.00    -0.181 NA
ATOM     21  C   UNL     1      -7.968  -0.385  -0.569  1.00  0.00     0.066 C 
ATOM     22  C   UNL     1      -3.088  -0.505   0.882  1.00  0.00     0.069 C 
ATOM     23  H   UNL     1      -6.168  -1.887  -2.175  1.00  0.00     0.190 HD
ENDBRANCH  15  16
ENDBRANCH  14  15
ENDBRANCH  13  14
ENDBRANCH   1  13
TORSDOF 7
ENDMDL
MODEL 9
REMARK VINA RESULT:    -4.724      4.149      7.157
REMARK INTER + INTRA:          -7.190
REMARK INTER:                  -6.837
REMARK INTRA:                  -0.354
REMARK UNBOUND:                -0.671
REMARK SMILES Cc1n[nH]c(C)c1CCCOc1cc(C(=O)O)ccc1F
REMARK SMILES IDX 11 1 12 2 14 3 18 4 13 5 19 6 20 7 21 8 15 9 16 10 17 11
REMARK SMILES IDX 10 13 9 14 8 15 7 16 5 17 2 18 4 19 3 20 6 21 1 22
REMARK H PARENT 17 12 4 23
ROOT
ATOM      1  O   UNL     1      -8.314  -0.261   3.296  1.00  0.00    -0.490 OA
ENDROOT
BRANCH   1   2
ATOM      2  C   UNL     1      -9.618  -0.645   3.295  1.00  0.00     0.155 A 
ATOM      3  C   UNL     1     -11.311  -2.288   2.827  1.00  0.00     0.063 A 
ATOM      4  C   UNL     1     -12.288  -1.414   3.312  1.00  0.00     0.019 A 
ATOM      5  C   UNL     1      -9.971  -1.895   2.822  1.00  0.00     0.065 A 
ATOM      6  C   UNL     1     -11.926  -0.171   3.787  1.00  0.00     0.044 A 
ATOM      7  C   UNL     1     -10.595   0.214   3.785  1.00  0.00     0.165 A 
ATOM      8  F   UNL     1     -10.247   1.433   4.253  1.00  0.00    -0.203 F 
BRANCH   3   9
ATOM      9  C   UNL     1     -11.695  -3.619   2.318  1.00  0.00     0.335 C 
ATOM     10  O   UNL     1     -10.840  -4.446   2.073  1.00  0.00    -0.246 OA
BRANCH   9  11
ATOM     11  O   UNL     1     -12.995  -3.919   2.131  1.00  0.00    -0.478 OA
ATOM     12  H   UNL     1     -13.294  -4.028   1.217  1.00  0.00     0.297 HD
ENDBRANCH   9  11
ENDBRANCH   3   9
ENDBRANCH   1   2
BRANCH   1  13
ATOM     13  C   UNL     1      -7.405  -1.053   4.065  1.00  0.00     0.230 C 
BRANCH  13  14
ATOM     14  C   UNL     1      -6.165  -1.365   3.226  1.00  0.00     0.046 C 
BRANCH  14  15
ATOM     15  C   UNL     1      -6.229  -0.584   1.912  1.00  0.00     0.043 C 
BRANCH  15  16
ATOM     16  C   UNL     1      -4.836  -0.398   1.370  1.00  0.00    -0.004 A 
ATOM     17  C   UNL     1      -3.844   0.318   1.950  1.00  0.00     0.036 A 
ATOM     18  C   UNL     1      -4.336  -0.938   0.180  1.00  0.00     0.063 A 
ATOM     19  N   UNL     1      -2.758   0.238   1.153  1.00  0.00    -0.282 N 
ATOM     20  N   UNL     1      -3.093  -0.553   0.046  1.00  0.00    -0.181 NA
ATOM     21  C   UNL     1      -3.937   1.069   3.253  1.00  0.00     0.066 C 
ATOM     22  C   UNL     1      -5.101  -1.806  -0.786  1.00  0.00     0.069 C 
ATOM     23  H   UNL     1      -1.898   0.655   1.317  1.00  0.00     0.190 HD
ENDBRANCH  15  16
ENDBRANCH  14  15
ENDBRANCH  13  14
ENDBRANCH   1  13
TORSDOF 7
ENDMDL
