MODEL 1
REMARK VINA RESULT:    -4.261      0.000      0.000
REMARK INTER + INTRA:          -5.166
REMARK INTER:                  -4.884
REMARK INTRA:                  -0.282
REMARK UNBOUND:                -0.282
REMARK SMILES O=C(O)c1ccc2nc(-c3cc(Cl)cc(Cl)c3)oc2c1
REMARK SMILES IDX 5 1 6 2 20 3 8 4 18 5 4 6 9 7 7 8 19 9 2 10 1 11 3 12 10 14
REMARK SMILES IDX 11 15 17 16 12 17 15 18 14 19 13 20 16 21
REMARK H PARENT 3 13
ROOT
ATOM      1  C   UNL     1      11.095   1.253  13.495  1.00  0.00     0.018 A 
ATOM      2  C   UNL     1      10.898   0.072  12.844  1.00  0.00     0.033 A 
ATOM      3  C   UNL     1       8.938   2.059  12.733  1.00  0.00     0.065 A 
ATOM      4  N   UNL     1       9.250  -1.179  11.393  1.00  0.00    -0.209 NA
ATOM      5  O   UNL     1       7.731   0.376  11.307  1.00  0.00    -0.436 OA
ATOM      6  C   UNL     1      10.119   2.259  13.450  1.00  0.00     0.063 A 
ATOM      7  C   UNL     1       8.072  -0.865  10.914  1.00  0.00     0.227 A 
ATOM      8  C   UNL     1       9.718  -0.142  12.121  1.00  0.00     0.110 A 
ATOM      9  C   UNL     1       8.737   0.864  12.067  1.00  0.00     0.156 A 
ENDROOT
BRANCH   6  10
ATOM     10  C   UNL     1      10.341   3.530  14.163  1.00  0.00     0.335 C 
ATOM     11  O   UNL     1      10.106   3.608  15.352  1.00  0.00    -0.246 OA
BRANCH  10  12
ATOM     12  O   UNL     1      10.802   4.606  13.495  1.00  0.00    -0.478 OA
ATOM     13  H   UNL     1      11.574   5.054  13.865  1.00  0.00     0.297 HD
ENDBRANCH  10  12
ENDBRANCH   6  10
BRANCH   7  14
ATOM     14  C   UNL     1       7.241  -1.745  10.067  1.00  0.00     0.040 A 
ATOM     15  C   UNL     1       6.564  -1.222   8.965  1.00  0.00     0.034 A 
ATOM     16  C   UNL     1       7.129  -3.105  10.367  1.00  0.00     0.034 A 
ATOM     17  C   UNL     1       5.789  -2.050   8.177  1.00  0.00     0.043 A 
ATOM     18  C   UNL     1       6.352  -3.922   9.571  1.00  0.00     0.043 A 
ATOM     19  C   UNL     1       5.683  -3.397   8.479  1.00  0.00     0.041 A 
ATOM     20  Cl  UNL     1       4.947  -1.401   6.805  1.00  0.00    -0.084 Cl
ATOM     21  Cl  UNL     1       6.212  -5.613   9.942  1.00  0.00    -0.084 Cl
ENDBRANCH   7  14
TORSDOF 3
ENDMDL
MODEL 2
REMARK VINA RESULT:    -4.259      0.009      2.019
REMARK INTER + INTRA:          -5.164
REMARK INTER:                  -4.881
REMARK INTRA:                  -0.282
REMARK UNBOUND:                -0.282
REMARK SMILES O=C(O)c1ccc2nc(-c3cc(Cl)cc(Cl)c3)oc2c1
REMARK SMILES IDX 5 1 6 2 20 3 8 4 18 5 4 6 9 7 7 8 19 9 2 10 1 11 3 12 10 14
REMARK SMILES IDX 11 15 17 16 12 17 15 18 14 19 13 20 16 21
REMARK H PARENT 3 13
ROOT
ATOM      1  C   UNL     1      11.097   1.254  13.496  1.00  0.00     0.018 A 
ATOM      2  C   UNL     1      10.900   0.072  12.846  1.00  0.00     0.033 A 
ATOM      3  C   UNL     1       8.941   2.060  12.733  1.00  0.00     0.065 A 
ATOM      4  N   UNL     1       9.252  -1.179  11.397  1.00  0.00    -0.209 NA
ATOM      5  O   UNL     1       7.733   0.376  11.310  1.00  0.00    -0.436 OA
ATOM      6  C   UNL     1      10.122   2.260  13.450  1.00  0.00     0.063 A 
ATOM      7  C   UNL     1       8.074  -0.866  10.918  1.00  0.00     0.227 A 
ATOM      8  C   UNL     1       9.720  -0.142  12.123  1.00  0.00     0.110 A 
ATOM      9  C   UNL     1       8.739   0.865  12.069  1.00  0.00     0.156 A 
ENDROOT
BRANCH   6  10
ATOM     10  C   UNL     1      10.344   3.532  14.162  1.00  0.00     0.335 C 
ATOM     11  O   UNL     1      10.134   3.603  15.357  1.00  0.00    -0.246 OA
BRANCH  10  12
ATOM     12  O   UNL     1      10.778   4.615  13.488  1.00  0.00    -0.478 OA
ATOM     13  H   UNL     1      10.410   4.760  12.606  1.00  0.00     0.297 HD
ENDBRANCH  10  12
ENDBRANCH   6  10
BRANCH   7  14
ATOM     14  C   UNL     1       7.242  -1.746  10.071  1.00  0.00     0.040 A 
ATOM     15  C   UNL     1       7.131  -3.105  10.370  1.00  0.00     0.034 A 
ATOM     16  C   UNL     1       6.565  -1.222   8.968  1.00  0.00     0.034 A 
ATOM     17  C   UNL     1       6.351  -3.922   9.575  1.00  0.00     0.043 A 
ATOM     18  C   UNL     1       5.789  -2.049   8.181  1.00  0.00     0.043 A 
ATOM     19  C   UNL     1       5.682  -3.396   8.483  1.00  0.00     0.041 A 
ATOM     20  Cl  UNL     1       6.211  -5.612   9.945  1.00  0.00    -0.084 Cl
ATOM     21  Cl  UNL     1       4.946  -1.399   6.809  1.00  0.00    -0.084 Cl
ENDBRANCH   7  14
TORSDOF 3
ENDMDL
MODEL 3
REMARK VINA RESULT:    -4.238      5.443      8.236
REMARK INTER + INTRA:          -5.140
REMARK INTER:                  -4.857
REMARK INTRA:                  -0.283
REMARK UNBOUND:                -0.282
REMARK SMILES O=C(O)c1ccc2nc(-c3cc(Cl)cc(Cl)c3)oc2c1
REMARK SMILES IDX 5 1 6 2 20 3 8 4 18 5 4 6 9 7 7 8 19 9 2 10 1 11 3 12 10 14
REMARK SMILES IDX 11 15 17 16 12 17 15 18 14 19 13 20 16 21
REMARK H PARENT 3 13
ROOT
ATOM      1  C   UNL     1       8.825  -8.409  13.337  1.00  0.00     0.018 A 
ATOM      2  C   UNL     1       8.482  -7.090  13.364  1.00  0.00     0.033 A 
ATOM      3  C   UNL     1       8.273  -8.528  10.978  1.00  0.00     0.065 A 
ATOM      4  N   UNL     1       7.623  -5.202  11.922  1.00  0.00    -0.209 NA
ATOM      5  O   UNL     1       7.458  -6.331  10.069  1.00  0.00    -0.436 OA
ATOM      6  C   UNL     1       8.727  -9.143  12.147  1.00  0.00     0.063 A 
ATOM      7  C   UNL     1       7.288  -5.132  10.658  1.00  0.00     0.227 A 
ATOM      8  C   UNL     1       8.025  -6.461  12.200  1.00  0.00     0.110 A 
ATOM      9  C   UNL     1       7.920  -7.192  11.003  1.00  0.00     0.156 A 
ENDROOT
BRANCH   6  10
ATOM     10  C   UNL     1       9.106 -10.568  12.128  1.00  0.00     0.335 C 
ATOM     11  O   UNL     1      10.141 -10.914  11.595  1.00  0.00    -0.246 OA
BRANCH  10  12
ATOM     12  O   UNL     1       8.304 -11.487  12.701  1.00  0.00    -0.478 OA
ATOM     13  H   UNL     1       8.514 -11.748  13.608  1.00  0.00     0.297 HD
ENDBRANCH  10  12
ENDBRANCH   6  10
BRANCH   7  14
ATOM     14  C   UNL     1       6.796  -3.915   9.978  1.00  0.00     0.040 A 
ATOM     15  C   UNL     1       7.375  -2.676  10.254  1.00  0.00     0.034 A 
ATOM     16  C   UNL     1       5.750  -4.002   9.058  1.00  0.00     0.034 A 
ATOM     17  C   UNL     1       6.912  -1.543   9.615  1.00  0.00     0.043 A 
ATOM     18  C   UNL     1       5.295  -2.862   8.426  1.00  0.00     0.043 A 
ATOM     19  C   UNL     1       5.873  -1.635   8.704  1.00  0.00     0.041 A 
ATOM     20  Cl  UNL     1       7.630   0.000   9.956  1.00  0.00    -0.084 Cl
ATOM     21  Cl  UNL     1       3.993  -2.967   7.281  1.00  0.00    -0.084 Cl
ENDBRANCH   7  14
TORSDOF 3
ENDMDL
MODEL 4
REMARK VINA RESULT:    -4.235      5.443      8.231
REMARK INTER + INTRA:          -5.137
REMARK INTER:                  -4.853
REMARK INTRA:                  -0.283
REMARK UNBOUND:                -0.282
REMARK SMILES O=C(O)c1ccc2nc(-c3cc(Cl)cc(Cl)c3)oc2c1
REMARK SMILES IDX 5 1 6 2 20 3 8 4 18 5 4 6 9 7 7 8 19 9 2 10 1 11 3 12 10 14
REMARK SMILES IDX 11 15 17 16 12 17 15 18 14 19 13 20 16 21
REMARK H PARENT 3 13
ROOT
ATOM      1  C   UNL     1       8.821  -8.408  13.341  1.00  0.00     0.018 A 
ATOM      2  C   UNL     1       8.476  -7.090  13.368  1.00  0.00     0.033 A 
ATOM      3  C   UNL     1       8.276  -8.527  10.981  1.00  0.00     0.065 A 
ATOM      4  N   UNL     1       7.616  -5.203  11.924  1.00  0.00    -0.209 NA
ATOM      5  O   UNL     1       7.458  -6.331  10.070  1.00  0.00    -0.436 OA
ATOM      6  C   UNL     1       8.728  -9.142  12.150  1.00  0.00     0.063 A 
ATOM      7  C   UNL     1       7.285  -5.133  10.659  1.00  0.00     0.227 A 
ATOM      8  C   UNL     1       8.020  -6.461  12.202  1.00  0.00     0.110 A 
ATOM      9  C   UNL     1       7.920  -7.191  11.005  1.00  0.00     0.156 A 
ENDROOT
BRANCH   6  10
ATOM     10  C   UNL     1       9.110 -10.565  12.132  1.00  0.00     0.335 C 
ATOM     11  O   UNL     1      10.147 -10.909  11.599  1.00  0.00    -0.246 OA
BRANCH  10  12
ATOM     12  O   UNL     1       8.310 -11.486  12.705  1.00  0.00    -0.478 OA
ATOM     13  H   UNL     1       7.757 -11.190  13.440  1.00  0.00     0.297 HD
ENDBRANCH  10  12
ENDBRANCH   6  10
BRANCH   7  14
ATOM     14  C   UNL     1       6.792  -3.917   9.979  1.00  0.00     0.040 A 
ATOM     15  C   UNL     1       5.749  -4.003   9.056  1.00  0.00     0.034 A 
ATOM     16  C   UNL     1       7.370  -2.676  10.256  1.00  0.00     0.034 A 
ATOM     17  C   UNL     1       5.292  -2.863   8.425  1.00  0.00     0.043 A 
ATOM     18  C   UNL     1       6.905  -1.544   9.619  1.00  0.00     0.043 A 
ATOM     19  C   UNL     1       5.869  -1.636   8.705  1.00  0.00     0.041 A 
ATOM     20  Cl  UNL     1       3.994  -2.969   7.278  1.00  0.00    -0.084 Cl
ATOM     21  Cl  UNL     1       7.622   0.000   9.962  1.00  0.00    -0.084 Cl
ENDBRANCH   7  14
TORSDOF 3
ENDMDL
MODEL 5
REMARK VINA RESULT:    -3.902      5.582      7.440
REMARK INTER + INTRA:          -4.755
REMARK INTER:                  -4.466
REMARK INTRA:                  -0.289
REMARK UNBOUND:                -0.282
REMARK SMILES O=C(O)c1ccc2nc(-c3cc(Cl)cc(Cl)c3)oc2c1
REMARK SMILES IDX 5 1 6 2 20 3 8 4 18 5 4 6 9 7 7 8 19 9 2 10 1 11 3 12 10 14
REMARK SMILES IDX 11 15 17 16 12 17 15 18 14 19 13 20 16 21
REMARK H PARENT 3 13
ROOT
ATOM      1  C   UNL     1       6.478  -1.463   8.978  1.00  0.00     0.018 A 
ATOM      2  C   UNL     1       7.312  -1.939   9.944  1.00  0.00     0.033 A 
ATOM      3  C   UNL     1       5.344  -3.604   8.869  1.00  0.00     0.065 A 
ATOM      4  N   UNL     1       7.844  -3.995  11.313  1.00  0.00    -0.209 NA
ATOM      5  O   UNL     1       6.312  -5.287  10.467  1.00  0.00    -0.436 OA
ATOM      6  C   UNL     1       5.484  -2.287   8.430  1.00  0.00     0.063 A 
ATOM      7  C   UNL     1       7.322  -5.196  11.352  1.00  0.00     0.227 A 
ATOM      8  C   UNL     1       7.183  -3.259  10.394  1.00  0.00     0.110 A 
ATOM      9  C   UNL     1       6.192  -4.092   9.846  1.00  0.00     0.156 A 
ENDROOT
BRANCH   6  10
ATOM     10  C   UNL     1       4.583  -1.759   7.389  1.00  0.00     0.335 C 
ATOM     11  O   UNL     1       3.842  -2.512   6.789  1.00  0.00    -0.246 OA
BRANCH  10  12
ATOM     12  O   UNL     1       4.582  -0.442   7.102  1.00  0.00    -0.478 OA
ATOM     13  H   UNL     1       5.206   0.114   7.588  1.00  0.00     0.297 HD
ENDBRANCH  10  12
ENDBRANCH   6  10
BRANCH   7  14
ATOM     14  C   UNL     1       7.777  -6.288  12.237  1.00  0.00     0.040 A 
ATOM     15  C   UNL     1       7.717  -6.139  13.623  1.00  0.00     0.034 A 
ATOM     16  C   UNL     1       8.268  -7.475  11.688  1.00  0.00     0.034 A 
ATOM     17  C   UNL     1       8.143  -7.165  14.444  1.00  0.00     0.043 A 
ATOM     18  C   UNL     1       8.691  -8.493  12.519  1.00  0.00     0.043 A 
ATOM     19  C   UNL     1       8.629  -8.339  13.894  1.00  0.00     0.041 A 
ATOM     20  Cl  UNL     1       8.069  -6.982  16.168  1.00  0.00    -0.084 Cl
ATOM     21  Cl  UNL     1       9.303  -9.969  11.839  1.00  0.00    -0.084 Cl
ENDBRANCH   7  14
TORSDOF 3
ENDMDL
MODEL 6
REMARK VINA RESULT:    -3.902      5.582      7.446
REMARK INTER + INTRA:          -4.754
REMARK INTER:                  -4.465
REMARK INTRA:                  -0.289
REMARK UNBOUND:                -0.282
REMARK SMILES O=C(O)c1ccc2nc(-c3cc(Cl)cc(Cl)c3)oc2c1
REMARK SMILES IDX 5 1 6 2 20 3 8 4 18 5 4 6 9 7 7 8 19 9 2 10 1 11 3 12 10 14
REMARK SMILES IDX 11 15 17 16 12 17 15 18 14 19 13 20 16 21
REMARK H PARENT 3 13
ROOT
ATOM      1  C   UNL     1       6.479  -1.464   8.977  1.00  0.00     0.018 A 
ATOM      2  C   UNL     1       7.313  -1.940   9.944  1.00  0.00     0.033 A 
ATOM      3  C   UNL     1       5.345  -3.605   8.866  1.00  0.00     0.065 A 
ATOM      4  N   UNL     1       7.843  -3.997  11.311  1.00  0.00    -0.209 NA
ATOM      5  O   UNL     1       6.311  -5.289  10.463  1.00  0.00    -0.436 OA
ATOM      6  C   UNL     1       5.485  -2.286   8.428  1.00  0.00     0.063 A 
ATOM      7  C   UNL     1       7.321  -5.198  11.349  1.00  0.00     0.227 A 
ATOM      8  C   UNL     1       7.183  -3.261  10.392  1.00  0.00     0.110 A 
ATOM      9  C   UNL     1       6.192  -4.094   9.843  1.00  0.00     0.156 A 
ENDROOT
BRANCH   6  10
ATOM     10  C   UNL     1       4.585  -1.758   7.387  1.00  0.00     0.335 C 
ATOM     11  O   UNL     1       3.848  -2.511   6.782  1.00  0.00    -0.246 OA
BRANCH  10  12
ATOM     12  O   UNL     1       4.580  -0.440   7.106  1.00  0.00    -0.478 OA
ATOM     13  H   UNL     1       4.648  -0.189   6.175  1.00  0.00     0.297 HD
ENDBRANCH  10  12
ENDBRANCH   6  10
BRANCH   7  14
ATOM     14  C   UNL     1       7.775  -6.292  12.233  1.00  0.00     0.040 A 
ATOM     15  C   UNL     1       8.268  -7.477  11.685  1.00  0.00     0.034 A 
ATOM     16  C   UNL     1       7.712  -6.143  13.620  1.00  0.00     0.034 A 
ATOM     17  C   UNL     1       8.691  -8.495  12.517  1.00  0.00     0.043 A 
ATOM     18  C   UNL     1       8.138  -7.168  14.441  1.00  0.00     0.043 A 
ATOM     19  C   UNL     1       8.626  -8.341  13.892  1.00  0.00     0.041 A 
ATOM     20  Cl  UNL     1       9.305  -9.970  11.838  1.00  0.00    -0.084 Cl
ATOM     21  Cl  UNL     1       8.060  -6.985  16.166  1.00  0.00    -0.084 Cl
ENDBRANCH   7  14
TORSDOF 3
ENDMDL
MODEL 7
REMARK VINA RESULT:    -3.826      3.228      4.993
REMARK INTER + INTRA:          -4.667
REMARK INTER:                  -4.383
REMARK INTRA:                  -0.285
REMARK UNBOUND:                -0.282
REMARK SMILES O=C(O)c1ccc2nc(-c3cc(Cl)cc(Cl)c3)oc2c1
REMARK SMILES IDX 5 1 6 2 20 3 8 4 18 5 4 6 9 7 7 8 19 9 2 10 1 11 3 12 10 14
REMARK SMILES IDX 11 15 17 16 12 17 15 18 14 19 13 20 16 21
REMARK H PARENT 3 13
ROOT
ATOM      1  C   UNL     1       8.184  -2.632  11.044  1.00  0.00     0.018 A 
ATOM      2  C   UNL     1       7.190  -3.255  10.350  1.00  0.00     0.033 A 
ATOM      3  C   UNL     1       7.736  -0.559   9.868  1.00  0.00     0.065 A 
ATOM      4  N   UNL     1       5.430  -2.881   8.576  1.00  0.00    -0.209 NA
ATOM      5  O   UNL     1       5.866  -0.782   8.203  1.00  0.00    -0.436 OA
ATOM      6  C   UNL     1       8.468  -1.279  10.814  1.00  0.00     0.063 A 
ATOM      7  C   UNL     1       5.090  -1.831   7.871  1.00  0.00     0.227 A 
ATOM      8  C   UNL     1       6.448  -2.545   9.398  1.00  0.00     0.110 A 
ATOM      9  C   UNL     1       6.731  -1.189   9.159  1.00  0.00     0.156 A 
ENDROOT
BRANCH   6  10
ATOM     10  C   UNL     1       9.542  -0.613  11.574  1.00  0.00     0.335 C 
ATOM     11  O   UNL     1      10.701  -0.757  11.241  1.00  0.00    -0.246 OA
BRANCH  10  12
ATOM     12  O   UNL     1       9.238   0.154  12.640  1.00  0.00    -0.478 OA
ATOM     13  H   UNL     1       8.485   0.753  12.549  1.00  0.00     0.297 HD
ENDBRANCH  10  12
ENDBRANCH   6  10
BRANCH   7  14
ATOM     14  C   UNL     1       4.013  -1.803   6.860  1.00  0.00     0.040 A 
ATOM     15  C   UNL     1       4.105  -0.949   5.760  1.00  0.00     0.034 A 
ATOM     16  C   UNL     1       2.898  -2.632   7.001  1.00  0.00     0.034 A 
ATOM     17  C   UNL     1       3.096  -0.928   4.818  1.00  0.00     0.043 A 
ATOM     18  C   UNL     1       1.895  -2.603   6.052  1.00  0.00     0.043 A 
ATOM     19  C   UNL     1       1.993  -1.753   4.964  1.00  0.00     0.041 A 
ATOM     20  Cl  UNL     1       3.209   0.133   3.450  1.00  0.00    -0.084 Cl
ATOM     21  Cl  UNL     1       0.508  -3.633   6.226  1.00  0.00    -0.084 Cl
ENDBRANCH   7  14
TORSDOF 3
ENDMDL
MODEL 8
REMARK VINA RESULT:    -3.825      3.242      5.240
REMARK INTER + INTRA:          -4.667
REMARK INTER:                  -4.382
REMARK INTRA:                  -0.284
REMARK UNBOUND:                -0.282
REMARK SMILES O=C(O)c1ccc2nc(-c3cc(Cl)cc(Cl)c3)oc2c1
REMARK SMILES IDX 5 1 6 2 20 3 8 4 18 5 4 6 9 7 7 8 19 9 2 10 1 11 3 12 10 14
REMARK SMILES IDX 11 15 17 16 12 17 15 18 14 19 13 20 16 21
REMARK H PARENT 3 13
ROOT
ATOM      1  C   UNL     1       8.192  -2.643  11.076  1.00  0.00     0.018 A 
ATOM      2  C   UNL     1       7.196  -3.264  10.385  1.00  0.00     0.033 A 
ATOM      3  C   UNL     1       7.755  -0.572   9.891  1.00  0.00     0.065 A 
ATOM      4  N   UNL     1       5.440  -2.889   8.608  1.00  0.00    -0.209 NA
ATOM      5  O   UNL     1       5.884  -0.794   8.226  1.00  0.00    -0.436 OA
ATOM      6  C   UNL     1       8.483  -1.291  10.841  1.00  0.00     0.063 A 
ATOM      7  C   UNL     1       5.104  -1.841   7.898  1.00  0.00     0.227 A 
ATOM      8  C   UNL     1       6.458  -2.555   9.429  1.00  0.00     0.110 A 
ATOM      9  C   UNL     1       6.747  -1.201   9.184  1.00  0.00     0.156 A 
ENDROOT
BRANCH   6  10
ATOM     10  C   UNL     1       9.559  -0.628  11.600  1.00  0.00     0.335 C 
ATOM     11  O   UNL     1       9.294   0.002  12.604  1.00  0.00    -0.246 OA
BRANCH  10  12
ATOM     12  O   UNL     1      10.836  -0.719  11.179  1.00  0.00    -0.478 OA
ATOM     13  H   UNL     1      11.044  -1.429  10.557  1.00  0.00     0.297 HD
ENDBRANCH  10  12
ENDBRANCH   6  10
BRANCH   7  14
ATOM     14  C   UNL     1       4.028  -1.813   6.886  1.00  0.00     0.040 A 
ATOM     15  C   UNL     1       2.907  -2.631   7.031  1.00  0.00     0.034 A 
ATOM     16  C   UNL     1       4.130  -0.967   5.779  1.00  0.00     0.034 A 
ATOM     17  C   UNL     1       1.905  -2.599   6.082  1.00  0.00     0.043 A 
ATOM     18  C   UNL     1       3.121  -0.944   4.837  1.00  0.00     0.043 A 
ATOM     19  C   UNL     1       2.011  -1.758   4.987  1.00  0.00     0.041 A 
ATOM     20  Cl  UNL     1       0.509  -3.616   6.260  1.00  0.00    -0.084 Cl
ATOM     21  Cl  UNL     1       3.245   0.107   3.461  1.00  0.00    -0.084 Cl
ENDBRANCH   7  14
TORSDOF 3
ENDMDL
MODEL 9
REMARK VINA RESULT:    -3.825      5.443      6.714
REMARK INTER + INTRA:          -4.666
REMARK INTER:                  -4.382
REMARK INTRA:                  -0.284
REMARK UNBOUND:                -0.282
REMARK SMILES O=C(O)c1ccc2nc(-c3cc(Cl)cc(Cl)c3)oc2c1
REMARK SMILES IDX 5 1 6 2 20 3 8 4 18 5 4 6 9 7 7 8 19 9 2 10 1 11 3 12 10 14
REMARK SMILES IDX 11 15 17 16 12 17 15 18 14 19 13 20 16 21
REMARK H PARENT 3 13
ROOT
ATOM      1  C   UNL     1       7.809  -3.513  11.235  1.00  0.00     0.018 A 
ATOM      2  C   UNL     1       7.445  -2.543  10.350  1.00  0.00     0.033 A 
ATOM      3  C   UNL     1       6.272  -5.073  10.193  1.00  0.00     0.065 A 
ATOM      4  N   UNL     1       5.934  -2.077   8.379  1.00  0.00    -0.209 NA
ATOM      5  O   UNL     1       5.022  -4.049   8.266  1.00  0.00    -0.436 OA
ATOM      6  C   UNL     1       7.231  -4.789  11.167  1.00  0.00     0.063 A 
ATOM      7  C   UNL     1       5.069  -2.815   7.730  1.00  0.00     0.227 A 
ATOM      8  C   UNL     1       6.485  -2.814   9.368  1.00  0.00     0.110 A 
ATOM      9  C   UNL     1       5.896  -4.089   9.296  1.00  0.00     0.156 A 
ENDROOT
BRANCH   6  10
ATOM     10  C   UNL     1       7.637  -5.832  12.125  1.00  0.00     0.335 C 
ATOM     11  O   UNL     1       7.081  -5.917  13.202  1.00  0.00    -0.246 OA
BRANCH  10  12
ATOM     12  O   UNL     1       8.625  -6.692  11.808  1.00  0.00    -0.478 OA
ATOM     13  H   UNL     1       9.243  -6.930  12.512  1.00  0.00     0.297 HD
ENDBRANCH  10  12
ENDBRANCH   6  10
BRANCH   7  14
ATOM     14  C   UNL     1       4.262  -2.360   6.579  1.00  0.00     0.040 A 
ATOM     15  C   UNL     1       4.760  -1.383   5.716  1.00  0.00     0.034 A 
ATOM     16  C   UNL     1       2.997  -2.905   6.351  1.00  0.00     0.034 A 
ATOM     17  C   UNL     1       4.002  -0.962   4.642  1.00  0.00     0.043 A 
ATOM     18  C   UNL     1       2.248  -2.476   5.273  1.00  0.00     0.043 A 
ATOM     19  C   UNL     1       2.748  -1.506   4.421  1.00  0.00     0.041 A 
ATOM     20  Cl  UNL     1       4.620   0.253   3.567  1.00  0.00    -0.084 Cl
ATOM     21  Cl  UNL     1       0.675  -3.153   4.987  1.00  0.00    -0.084 Cl
ENDBRANCH   7  14
TORSDOF 3
ENDMDL
