MODEL 1
REMARK VINA RESULT:    -5.632      0.000      0.000
REMARK INTER + INTRA:          -8.095
REMARK INTER:                  -7.773
REMARK INTRA:                  -0.322
REMARK UNBOUND:                -0.322
REMARK SMILES Cc1n[nH]c(C)c1CCCOc1cc(C(=O)O)ccc1F
REMARK SMILES IDX 11 1 12 2 14 3 18 4 13 5 19 6 20 7 21 8 15 9 16 10 17 11
REMARK SMILES IDX 10 13 9 14 8 15 7 16 5 17 2 18 4 19 3 20 6 21 1 22
REMARK H PARENT 17 12 4 23
ROOT
ATOM      1  O   UNL     1       2.706  -1.118   8.336  1.00  0.00    -0.490 OA
ENDROOT
BRANCH   1   2
ATOM      2  C   UNL     1       2.681  -1.301   6.988  1.00  0.00     0.155 A 
ATOM      3  C   UNL     1       3.544  -0.810   4.798  1.00  0.00     0.063 A 
ATOM      4  C   UNL     1       2.619  -1.696   4.240  1.00  0.00     0.019 A 
ATOM      5  C   UNL     1       3.570  -0.616   6.181  1.00  0.00     0.065 A 
ATOM      6  C   UNL     1       1.740  -2.379   5.054  1.00  0.00     0.044 A 
ATOM      7  C   UNL     1       1.771  -2.188   6.425  1.00  0.00     0.165 A 
ATOM      8  F   UNL     1       0.907  -2.860   7.217  1.00  0.00    -0.203 F 
BRANCH   3   9
ATOM      9  C   UNL     1       4.487  -0.078   3.930  1.00  0.00     0.335 C 
ATOM     10  O   UNL     1       5.029   0.929   4.335  1.00  0.00    -0.246 OA
BRANCH   9  11
ATOM     11  O   UNL     1       4.751  -0.533   2.689  1.00  0.00    -0.478 OA
ATOM     12  H   UNL     1       5.491  -1.149   2.595  1.00  0.00     0.297 HD
ENDBRANCH   9  11
ENDBRANCH   3   9
ENDBRANCH   1   2
BRANCH   1  13
ATOM     13  C   UNL     1       2.846  -2.288   9.146  1.00  0.00     0.230 C 
BRANCH  13  14
ATOM     14  C   UNL     1       4.146  -2.200   9.947  1.00  0.00     0.046 C 
BRANCH  14  15
ATOM     15  C   UNL     1       5.309  -2.701   9.089  1.00  0.00     0.043 C 
BRANCH  15  16
ATOM     16  C   UNL     1       6.509  -2.954   9.965  1.00  0.00    -0.004 A 
ATOM     17  C   UNL     1       7.447  -2.043  10.313  1.00  0.00     0.036 A 
ATOM     18  C   UNL     1       6.846  -4.171  10.568  1.00  0.00     0.063 A 
ATOM     19  N   UNL     1       8.349  -2.663  11.103  1.00  0.00    -0.282 N 
ATOM     20  N   UNL     1       7.953  -3.999  11.244  1.00  0.00    -0.181 NA
ATOM     21  C   UNL     1       7.478  -0.597   9.895  1.00  0.00     0.066 C 
ATOM     22  C   UNL     1       6.074  -5.460  10.448  1.00  0.00     0.069 C 
ATOM     23  H   UNL     1       9.134  -2.256  11.501  1.00  0.00     0.190 HD
ENDBRANCH  15  16
ENDBRANCH  14  15
ENDBRANCH  13  14
ENDBRANCH   1  13
TORSDOF 7
ENDMDL
MODEL 2
REMARK VINA RESULT:    -5.571      2.224      3.818
REMARK INTER + INTRA:          -8.010
REMARK INTER:                  -7.393
REMARK INTRA:                  -0.617
REMARK UNBOUND:                -0.322
REMARK SMILES Cc1n[nH]c(C)c1CCCOc1cc(C(=O)O)ccc1F
REMARK SMILES IDX 11 1 12 2 14 3 18 4 13 5 19 6 20 7 21 8 15 9 16 10 17 11
REMARK SMILES IDX 10 13 9 14 8 15 7 16 5 17 2 18 4 19 3 20 6 21 1 22
REMARK H PARENT 17 12 4 23
ROOT
ATOM      1  O   UNL     1       5.411  -1.391   6.133  1.00  0.00    -0.490 OA
ENDROOT
BRANCH   1   2
ATOM      2  C   UNL     1       4.170  -1.518   5.592  1.00  0.00     0.155 A 
ATOM      3  C   UNL     1       1.954  -2.450   5.648  1.00  0.00     0.063 A 
ATOM      4  C   UNL     1       1.637  -1.756   4.477  1.00  0.00     0.019 A 
ATOM      5  C   UNL     1       3.229  -2.326   6.204  1.00  0.00     0.065 A 
ATOM      6  C   UNL     1       2.581  -0.949   3.877  1.00  0.00     0.044 A 
ATOM      7  C   UNL     1       3.843  -0.823   4.433  1.00  0.00     0.165 A 
ATOM      8  F   UNL     1       4.763  -0.030   3.841  1.00  0.00    -0.203 F 
BRANCH   3   9
ATOM      9  C   UNL     1       0.946  -3.315   6.292  1.00  0.00     0.335 C 
ATOM     10  O   UNL     1       1.211  -4.472   6.544  1.00  0.00    -0.246 OA
BRANCH   9  11
ATOM     11  O   UNL     1      -0.266  -2.817   6.606  1.00  0.00    -0.478 OA
ATOM     12  H   UNL     1      -0.286  -2.030   7.168  1.00  0.00     0.297 HD
ENDBRANCH   9  11
ENDBRANCH   3   9
ENDBRANCH   1   2
BRANCH   1  13
ATOM     13  C   UNL     1       6.305  -2.495   5.973  1.00  0.00     0.230 C 
BRANCH  13  14
ATOM     14  C   UNL     1       7.141  -2.663   7.243  1.00  0.00     0.046 C 
BRANCH  14  15
ATOM     15  C   UNL     1       6.300  -2.276   8.461  1.00  0.00     0.043 C 
BRANCH  15  16
ATOM     16  C   UNL     1       7.080  -2.556   9.720  1.00  0.00    -0.004 A 
ATOM     17  C   UNL     1       7.103  -3.728  10.397  1.00  0.00     0.036 A 
ATOM     18  C   UNL     1       7.912  -1.655  10.391  1.00  0.00     0.063 A 
ATOM     19  N   UNL     1       7.916  -3.571  11.463  1.00  0.00    -0.282 N 
ATOM     20  N   UNL     1       8.409  -2.259  11.440  1.00  0.00    -0.181 NA
ATOM     21  C   UNL     1       6.356  -4.983  10.027  1.00  0.00     0.066 C 
ATOM     22  C   UNL     1       8.181  -0.228   9.984  1.00  0.00     0.069 C 
ATOM     23  H   UNL     1       8.123  -4.246  12.128  1.00  0.00     0.190 HD
ENDBRANCH  15  16
ENDBRANCH  14  15
ENDBRANCH  13  14
ENDBRANCH   1  13
TORSDOF 7
ENDMDL
MODEL 3
REMARK VINA RESULT:    -5.539      0.246      1.782
REMARK INTER + INTRA:          -7.966
REMARK INTER:                  -7.335
REMARK INTRA:                  -0.630
REMARK UNBOUND:                -0.322
REMARK SMILES Cc1n[nH]c(C)c1CCCOc1cc(C(=O)O)ccc1F
REMARK SMILES IDX 11 1 12 2 14 3 18 4 13 5 19 6 20 7 21 8 15 9 16 10 17 11
REMARK SMILES IDX 10 13 9 14 8 15 7 16 5 17 2 18 4 19 3 20 6 21 1 22
REMARK H PARENT 17 12 4 23
ROOT
ATOM      1  O   UNL     1       2.660  -1.335   8.337  1.00  0.00    -0.490 OA
ENDROOT
BRANCH   1   2
ATOM      2  C   UNL     1       2.631  -1.448   6.982  1.00  0.00     0.155 A 
ATOM      3  C   UNL     1       3.502  -0.861   4.819  1.00  0.00     0.063 A 
ATOM      4  C   UNL     1       2.560  -1.699   4.217  1.00  0.00     0.019 A 
ATOM      5  C   UNL     1       3.532  -0.739   6.210  1.00  0.00     0.065 A 
ATOM      6  C   UNL     1       1.668  -2.406   4.996  1.00  0.00     0.044 A 
ATOM      7  C   UNL     1       1.704  -2.288   6.375  1.00  0.00     0.165 A 
ATOM      8  F   UNL     1       0.827  -2.983   7.133  1.00  0.00    -0.203 F 
BRANCH   3   9
ATOM      9  C   UNL     1       4.458  -0.102   3.989  1.00  0.00     0.335 C 
ATOM     10  O   UNL     1       5.009   0.880   4.440  1.00  0.00    -0.246 OA
BRANCH   9  11
ATOM     11  O   UNL     1       4.723  -0.505   2.730  1.00  0.00    -0.478 OA
ATOM     12  H   UNL     1       4.105  -1.134   2.331  1.00  0.00     0.297 HD
ENDBRANCH   9  11
ENDBRANCH   3   9
ENDBRANCH   1   2
BRANCH   1  13
ATOM     13  C   UNL     1       3.187  -2.446   9.068  1.00  0.00     0.230 C 
BRANCH  13  14
ATOM     14  C   UNL     1       4.488  -2.031   9.757  1.00  0.00     0.046 C 
BRANCH  14  15
ATOM     15  C   UNL     1       5.673  -2.688   9.046  1.00  0.00     0.043 C 
BRANCH  15  16
ATOM     16  C   UNL     1       6.743  -3.018  10.054  1.00  0.00    -0.004 A 
ATOM     17  C   UNL     1       6.932  -4.218  10.651  1.00  0.00     0.036 A 
ATOM     18  C   UNL     1       7.722  -2.141  10.533  1.00  0.00     0.063 A 
ATOM     19  N   UNL     1       7.988  -4.103  11.483  1.00  0.00    -0.282 N 
ATOM     20  N   UNL     1       8.464  -2.788  11.395  1.00  0.00    -0.181 NA
ATOM     21  C   UNL     1       6.110  -5.461  10.426  1.00  0.00     0.066 C 
ATOM     22  C   UNL     1       7.886  -0.697  10.134  1.00  0.00     0.069 C 
ATOM     23  H   UNL     1       8.352  -4.805  12.044  1.00  0.00     0.190 HD
ENDBRANCH  15  16
ENDBRANCH  14  15
ENDBRANCH  13  14
ENDBRANCH   1  13
TORSDOF 7
ENDMDL
MODEL 4
REMARK VINA RESULT:    -4.889      3.726      5.676
REMARK INTER + INTRA:          -7.069
REMARK INTER:                  -6.490
REMARK INTRA:                  -0.578
REMARK UNBOUND:                -0.322
REMARK SMILES Cc1n[nH]c(C)c1CCCOc1cc(C(=O)O)ccc1F
REMARK SMILES IDX 11 1 12 2 14 3 18 4 13 5 19 6 20 7 21 8 15 9 16 10 17 11
REMARK SMILES IDX 10 13 9 14 8 15 7 16 5 17 2 18 4 19 3 20 6 21 1 22
REMARK H PARENT 17 12 4 23
ROOT
ATOM      1  O   UNL     1       6.881  -3.662  10.253  1.00  0.00    -0.490 OA
ENDROOT
BRANCH   1   2
ATOM      2  C   UNL     1       6.018  -3.039   9.407  1.00  0.00     0.155 A 
ATOM      3  C   UNL     1       3.843  -2.125   8.944  1.00  0.00     0.063 A 
ATOM      4  C   UNL     1       4.273  -1.757   7.666  1.00  0.00     0.019 A 
ATOM      5  C   UNL     1       4.725  -2.769   9.814  1.00  0.00     0.065 A 
ATOM      6  C   UNL     1       5.567  -2.025   7.271  1.00  0.00     0.044 A 
ATOM      7  C   UNL     1       6.442  -2.660   8.138  1.00  0.00     0.165 A 
ATOM      8  F   UNL     1       7.708  -2.919   7.744  1.00  0.00    -0.203 F 
BRANCH   3   9
ATOM      9  C   UNL     1       2.459  -1.839   9.370  1.00  0.00     0.335 C 
ATOM     10  O   UNL     1       1.690  -1.290   8.608  1.00  0.00    -0.246 OA
BRANCH   9  11
ATOM     11  O   UNL     1       2.047  -2.194  10.603  1.00  0.00    -0.478 OA
ATOM     12  H   UNL     1       2.397  -3.021  10.962  1.00  0.00     0.297 HD
ENDBRANCH   9  11
ENDBRANCH   3   9
ENDBRANCH   1   2
BRANCH   1  13
ATOM     13  C   UNL     1       6.895  -5.092  10.228  1.00  0.00     0.230 C 
BRANCH  13  14
ATOM     14  C   UNL     1       6.662  -5.627  11.642  1.00  0.00     0.046 C 
BRANCH  14  15
ATOM     15  C   UNL     1       7.999  -5.717  12.380  1.00  0.00     0.043 C 
BRANCH  15  16
ATOM     16  C   UNL     1       8.148  -7.088  12.987  1.00  0.00    -0.004 A 
ATOM     17  C   UNL     1       8.576  -8.200  12.346  1.00  0.00     0.036 A 
ATOM     18  C   UNL     1       7.873  -7.435  14.314  1.00  0.00     0.063 A 
ATOM     19  N   UNL     1       8.567  -9.216  13.235  1.00  0.00    -0.282 N 
ATOM     20  N   UNL     1       8.117  -8.712  14.462  1.00  0.00    -0.181 NA
ATOM     21  C   UNL     1       8.990  -8.288  10.901  1.00  0.00     0.066 C 
ATOM     22  C   UNL     1       7.371  -6.502  15.386  1.00  0.00     0.069 C 
ATOM     23  H   UNL     1       8.825 -10.134  13.055  1.00  0.00     0.190 HD
ENDBRANCH  15  16
ENDBRANCH  14  15
ENDBRANCH  13  14
ENDBRANCH   1  13
TORSDOF 7
ENDMDL
MODEL 5
REMARK VINA RESULT:    -4.810      2.009      2.995
REMARK INTER + INTRA:          -6.959
REMARK INTER:                  -6.531
REMARK INTRA:                  -0.428
REMARK UNBOUND:                -0.322
REMARK SMILES Cc1n[nH]c(C)c1CCCOc1cc(C(=O)O)ccc1F
REMARK SMILES IDX 11 1 12 2 14 3 18 4 13 5 19 6 20 7 21 8 15 9 16 10 17 11
REMARK SMILES IDX 10 13 9 14 8 15 7 16 5 17 2 18 4 19 3 20 6 21 1 22
REMARK H PARENT 17 12 4 23
ROOT
ATOM      1  O   UNL     1       4.502  -1.168   7.635  1.00  0.00    -0.490 OA
ENDROOT
BRANCH   1   2
ATOM      2  C   UNL     1       3.660  -1.361   6.585  1.00  0.00     0.155 A 
ATOM      3  C   UNL     1       1.712  -2.402   5.636  1.00  0.00     0.063 A 
ATOM      4  C   UNL     1       1.947  -1.735   4.430  1.00  0.00     0.019 A 
ATOM      5  C   UNL     1       2.577  -2.210   6.715  1.00  0.00     0.065 A 
ATOM      6  C   UNL     1       3.027  -0.886   4.312  1.00  0.00     0.044 A 
ATOM      7  C   UNL     1       3.881  -0.693   5.385  1.00  0.00     0.165 A 
ATOM      8  F   UNL     1       4.937   0.141   5.263  1.00  0.00    -0.203 F 
BRANCH   3   9
ATOM      9  C   UNL     1       0.556  -3.312   5.766  1.00  0.00     0.335 C 
ATOM     10  O   UNL     1       0.139  -3.906   4.793  1.00  0.00    -0.246 OA
BRANCH   9  11
ATOM     11  O   UNL     1      -0.031  -3.487   6.966  1.00  0.00    -0.478 OA
ATOM     12  H   UNL     1      -0.611  -4.255   7.063  1.00  0.00     0.297 HD
ENDBRANCH   9  11
ENDBRANCH   3   9
ENDBRANCH   1   2
BRANCH   1  13
ATOM     13  C   UNL     1       4.003  -1.493   8.935  1.00  0.00     0.230 C 
BRANCH  13  14
ATOM     14  C   UNL     1       4.555  -2.852   9.366  1.00  0.00     0.046 C 
BRANCH  14  15
ATOM     15  C   UNL     1       5.964  -3.035   8.799  1.00  0.00     0.043 C 
BRANCH  15  16
ATOM     16  C   UNL     1       6.955  -3.115   9.931  1.00  0.00    -0.004 A 
ATOM     17  C   UNL     1       7.719  -2.098  10.394  1.00  0.00     0.036 A 
ATOM     18  C   UNL     1       7.244  -4.252  10.694  1.00  0.00     0.063 A 
ATOM     19  N   UNL     1       8.470  -2.577  11.409  1.00  0.00    -0.282 N 
ATOM     20  N   UNL     1       8.156  -3.932  11.575  1.00  0.00    -0.181 NA
ATOM     21  C   UNL     1       7.730  -0.686   9.870  1.00  0.00     0.066 C 
ATOM     22  C   UNL     1       6.620  -5.613  10.521  1.00  0.00     0.069 C 
ATOM     23  H   UNL     1       9.113  -2.072  11.930  1.00  0.00     0.190 HD
ENDBRANCH  15  16
ENDBRANCH  14  15
ENDBRANCH  13  14
ENDBRANCH   1  13
TORSDOF 7
ENDMDL
MODEL 6
REMARK VINA RESULT:    -4.772      3.458      4.778
REMARK INTER + INTRA:          -6.908
REMARK INTER:                  -6.267
REMARK INTRA:                  -0.641
REMARK UNBOUND:                -0.322
REMARK SMILES Cc1n[nH]c(C)c1CCCOc1cc(C(=O)O)ccc1F
REMARK SMILES IDX 11 1 12 2 14 3 18 4 13 5 19 6 20 7 21 8 15 9 16 10 17 11
REMARK SMILES IDX 10 13 9 14 8 15 7 16 5 17 2 18 4 19 3 20 6 21 1 22
REMARK H PARENT 17 12 4 23
ROOT
ATOM      1  O   UNL     1       6.681  -3.590  10.041  1.00  0.00    -0.490 OA
ENDROOT
BRANCH   1   2
ATOM      2  C   UNL     1       5.951  -3.019   9.046  1.00  0.00     0.155 A 
ATOM      3  C   UNL     1       5.715  -2.357   6.746  1.00  0.00     0.063 A 
ATOM      4  C   UNL     1       4.440  -1.858   7.025  1.00  0.00     0.019 A 
ATOM      5  C   UNL     1       6.469  -2.940   7.767  1.00  0.00     0.065 A 
ATOM      6  C   UNL     1       3.929  -1.947   8.303  1.00  0.00     0.044 A 
ATOM      7  C   UNL     1       4.677  -2.529   9.312  1.00  0.00     0.165 A 
ATOM      8  F   UNL     1       4.171  -2.614  10.562  1.00  0.00    -0.203 F 
BRANCH   3   9
ATOM      9  C   UNL     1       6.264  -2.264   5.380  1.00  0.00     0.335 C 
ATOM     10  O   UNL     1       5.613  -1.744   4.497  1.00  0.00    -0.246 OA
BRANCH   9  11
ATOM     11  O   UNL     1       7.492  -2.750   5.113  1.00  0.00    -0.478 OA
ATOM     12  H   UNL     1       8.216  -2.454   5.684  1.00  0.00     0.297 HD
ENDBRANCH   9  11
ENDBRANCH   3   9
ENDBRANCH   1   2
BRANCH   1  13
ATOM     13  C   UNL     1       6.781  -5.016  10.035  1.00  0.00     0.230 C 
BRANCH  13  14
ATOM     14  C   UNL     1       6.557  -5.548  11.451  1.00  0.00     0.046 C 
BRANCH  14  15
ATOM     15  C   UNL     1       7.893  -5.598  12.196  1.00  0.00     0.043 C 
BRANCH  15  16
ATOM     16  C   UNL     1       8.060  -6.950  12.839  1.00  0.00    -0.004 A 
ATOM     17  C   UNL     1       7.809  -7.253  14.134  1.00  0.00     0.036 A 
ATOM     18  C   UNL     1       8.497  -8.116  12.202  1.00  0.00     0.063 A 
ATOM     19  N   UNL     1       8.083  -8.562  14.311  1.00  0.00    -0.282 N 
ATOM     20  N   UNL     1       8.518  -9.082  13.084  1.00  0.00    -0.181 NA
ATOM     21  C   UNL     1       7.311  -6.299  15.188  1.00  0.00     0.066 C 
ATOM     22  C   UNL     1       8.889  -8.237  10.751  1.00  0.00     0.069 C 
ATOM     23  H   UNL     1       7.996  -9.057  15.141  1.00  0.00     0.190 HD
ENDBRANCH  15  16
ENDBRANCH  14  15
ENDBRANCH  13  14
ENDBRANCH   1  13
TORSDOF 7
ENDMDL
MODEL 7
REMARK VINA RESULT:    -4.600      8.699     10.300
REMARK INTER + INTRA:          -6.670
REMARK INTER:                  -5.320
REMARK INTRA:                  -1.350
REMARK UNBOUND:                -0.322
REMARK SMILES Cc1n[nH]c(C)c1CCCOc1cc(C(=O)O)ccc1F
REMARK SMILES IDX 11 1 12 2 14 3 18 4 13 5 19 6 20 7 21 8 15 9 16 10 17 11
REMARK SMILES IDX 10 13 9 14 8 15 7 16 5 17 2 18 4 19 3 20 6 21 1 22
REMARK H PARENT 17 12 4 23
ROOT
ATOM      1  O   UNL     1       9.231   0.578  13.425  1.00  0.00    -0.490 OA
ENDROOT
BRANCH   1   2
ATOM      2  C   UNL     1       9.325   1.696  14.193  1.00  0.00     0.155 A 
ATOM      3  C   UNL     1      10.143   3.931  14.535  1.00  0.00     0.063 A 
ATOM      4  C   UNL     1       9.497   3.974  15.774  1.00  0.00     0.019 A 
ATOM      5  C   UNL     1      10.053   2.783  13.746  1.00  0.00     0.065 A 
ATOM      6  C   UNL     1       8.769   2.887  16.209  1.00  0.00     0.044 A 
ATOM      7  C   UNL     1       8.677   1.751  15.422  1.00  0.00     0.165 A 
ATOM      8  F   UNL     1       7.962   0.689  15.854  1.00  0.00    -0.203 F 
BRANCH   3   9
ATOM      9  C   UNL     1      10.923   5.093  14.066  1.00  0.00     0.335 C 
ATOM     10  O   UNL     1      11.743   5.610  14.797  1.00  0.00    -0.246 OA
BRANCH   9  11
ATOM     11  O   UNL     1      10.729   5.577  12.823  1.00  0.00    -0.478 OA
ATOM     12  H   UNL     1      11.101   5.067  12.090  1.00  0.00     0.297 HD
ENDBRANCH   9  11
ENDBRANCH   3   9
ENDBRANCH   1   2
BRANCH   1  13
ATOM     13  C   UNL     1      10.340   0.282  12.572  1.00  0.00     0.230 C 
BRANCH  13  14
ATOM     14  C   UNL     1      10.625  -1.220  12.611  1.00  0.00     0.046 C 
BRANCH  14  15
ATOM     15  C   UNL     1      11.844  -1.485  13.498  1.00  0.00     0.043 C 
BRANCH  15  16
ATOM     16  C   UNL     1      11.386  -1.843  14.888  1.00  0.00    -0.004 A 
ATOM     17  C   UNL     1      10.772  -2.993  15.253  1.00  0.00     0.036 A 
ATOM     18  C   UNL     1      11.528  -1.050  16.031  1.00  0.00     0.063 A 
ATOM     19  N   UNL     1      10.527  -2.926  16.578  1.00  0.00    -0.282 N 
ATOM     20  N   UNL     1      11.007  -1.694  17.043  1.00  0.00    -0.181 NA
ATOM     21  C   UNL     1      10.424  -4.141  14.342  1.00  0.00     0.066 C 
ATOM     22  C   UNL     1      12.160   0.318  16.085  1.00  0.00     0.069 C 
ATOM     23  H   UNL     1      10.094  -3.608  17.114  1.00  0.00     0.190 HD
ENDBRANCH  15  16
ENDBRANCH  14  15
ENDBRANCH  13  14
ENDBRANCH   1  13
TORSDOF 7
ENDMDL
MODEL 8
REMARK VINA RESULT:    -4.574      7.720      9.931
REMARK INTER + INTRA:          -6.634
REMARK INTER:                  -4.760
REMARK INTRA:                  -1.873
REMARK UNBOUND:                -0.322
REMARK SMILES Cc1n[nH]c(C)c1CCCOc1cc(C(=O)O)ccc1F
REMARK SMILES IDX 11 1 12 2 14 3 18 4 13 5 19 6 20 7 21 8 15 9 16 10 17 11
REMARK SMILES IDX 10 13 9 14 8 15 7 16 5 17 2 18 4 19 3 20 6 21 1 22
REMARK H PARENT 17 12 4 23
ROOT
ATOM      1  O   UNL     1       9.845  -9.591  14.112  1.00  0.00    -0.490 OA
ENDROOT
BRANCH   1   2
ATOM      2  C   UNL     1       9.671  -9.187  12.825  1.00  0.00     0.155 A 
ATOM      3  C   UNL     1       8.557  -7.804  11.204  1.00  0.00     0.063 A 
ATOM      4  C   UNL     1       9.337  -8.369  10.191  1.00  0.00     0.019 A 
ATOM      5  C   UNL     1       8.730  -8.220  12.525  1.00  0.00     0.065 A 
ATOM      6  C   UNL     1      10.277  -9.330  10.500  1.00  0.00     0.044 A 
ATOM      7  C   UNL     1      10.450  -9.737  11.813  1.00  0.00     0.165 A 
ATOM      8  F   UNL     1      11.373 -10.679  12.109  1.00  0.00    -0.203 F 
BRANCH   3   9
ATOM      9  C   UNL     1       7.551  -6.775  10.876  1.00  0.00     0.335 C 
ATOM     10  O   UNL     1       6.616  -7.049  10.152  1.00  0.00    -0.246 OA
BRANCH   9  11
ATOM     11  O   UNL     1       7.667  -5.534  11.386  1.00  0.00    -0.478 OA
ATOM     12  H   UNL     1       7.909  -5.463  12.321  1.00  0.00     0.297 HD
ENDBRANCH   9  11
ENDBRANCH   3   9
ENDBRANCH   1   2
BRANCH   1  13
ATOM     13  C   UNL     1      10.516  -8.685  14.990  1.00  0.00     0.230 C 
BRANCH  13  14
ATOM     14  C   UNL     1       9.609  -8.361  16.178  1.00  0.00     0.046 C 
BRANCH  14  15
ATOM     15  C   UNL     1       9.728  -6.875  16.522  1.00  0.00     0.043 C 
BRANCH  15  16
ATOM     16  C   UNL     1       9.033  -6.057  15.464  1.00  0.00    -0.004 A 
ATOM     17  C   UNL     1       7.703  -6.046  15.212  1.00  0.00     0.036 A 
ATOM     18  C   UNL     1       9.647  -5.169  14.574  1.00  0.00     0.063 A 
ATOM     19  N   UNL     1       7.485  -5.188  14.194  1.00  0.00    -0.282 N 
ATOM     20  N   UNL     1       8.721  -4.653  13.808  1.00  0.00    -0.181 NA
ATOM     21  C   UNL     1       6.655  -6.849  15.937  1.00  0.00     0.066 C 
ATOM     22  C   UNL     1      11.122  -4.869  14.503  1.00  0.00     0.069 C 
ATOM     23  H   UNL     1       6.624  -4.978  13.798  1.00  0.00     0.190 HD
ENDBRANCH  15  16
ENDBRANCH  14  15
ENDBRANCH  13  14
ENDBRANCH   1  13
TORSDOF 7
ENDMDL
MODEL 9
REMARK VINA RESULT:    -4.530      4.959      7.892
REMARK INTER + INTRA:          -6.574
REMARK INTER:                  -5.893
REMARK INTRA:                  -0.681
REMARK UNBOUND:                -0.322
REMARK SMILES Cc1n[nH]c(C)c1CCCOc1cc(C(=O)O)ccc1F
REMARK SMILES IDX 11 1 12 2 14 3 18 4 13 5 19 6 20 7 21 8 15 9 16 10 17 11
REMARK SMILES IDX 10 13 9 14 8 15 7 16 5 17 2 18 4 19 3 20 6 21 1 22
REMARK H PARENT 17 12 4 23
ROOT
ATOM      1  O   UNL     1       7.730  -1.255   9.627  1.00  0.00    -0.490 OA
ENDROOT
BRANCH   1   2
ATOM      2  C   UNL     1       8.455  -0.680  10.623  1.00  0.00     0.155 A 
ATOM      3  C   UNL     1      10.243  -0.778  12.228  1.00  0.00     0.063 A 
ATOM      4  C   UNL     1       9.931   0.517  12.650  1.00  0.00     0.019 A 
ATOM      5  C   UNL     1       9.497  -1.374  11.209  1.00  0.00     0.065 A 
ATOM      6  C   UNL     1       8.893   1.204  12.055  1.00  0.00     0.044 A 
ATOM      7  C   UNL     1       8.158   0.613  11.041  1.00  0.00     0.165 A 
ATOM      8  F   UNL     1       7.143   1.291  10.462  1.00  0.00    -0.203 F 
BRANCH   3   9
ATOM      9  C   UNL     1      11.353  -1.516  12.863  1.00  0.00     0.335 C 
ATOM     10  O   UNL     1      11.976  -1.011  13.774  1.00  0.00    -0.246 OA
BRANCH   9  11
ATOM     11  O   UNL     1      11.670  -2.754  12.434  1.00  0.00    -0.478 OA
ATOM     12  H   UNL     1      12.003  -3.376  13.096  1.00  0.00     0.297 HD
ENDBRANCH   9  11
ENDBRANCH   3   9
ENDBRANCH   1   2
BRANCH   1  13
ATOM     13  C   UNL     1       6.958  -2.408   9.970  1.00  0.00     0.230 C 
BRANCH  13  14
ATOM     14  C   UNL     1       6.148  -2.859   8.753  1.00  0.00     0.046 C 
BRANCH  14  15
ATOM     15  C   UNL     1       5.530  -1.637   8.070  1.00  0.00     0.043 C 
BRANCH  15  16
ATOM     16  C   UNL     1       4.493  -2.087   7.074  1.00  0.00    -0.004 A 
ATOM     17  C   UNL     1       3.158  -2.153   7.289  1.00  0.00     0.036 A 
ATOM     18  C   UNL     1       4.738  -2.506   5.762  1.00  0.00     0.063 A 
ATOM     19  N   UNL     1       2.581  -2.603   6.156  1.00  0.00    -0.282 N 
ATOM     20  N   UNL     1       3.594  -2.822   5.213  1.00  0.00    -0.181 NA
ATOM     21  C   UNL     1       2.446  -1.788   8.565  1.00  0.00     0.066 C 
ATOM     22  C   UNL     1       6.090  -2.590   5.100  1.00  0.00     0.069 C 
ATOM     23  H   UNL     1       1.632  -2.750   6.018  1.00  0.00     0.190 HD
ENDBRANCH  15  16
ENDBRANCH  14  15
ENDBRANCH  13  14
ENDBRANCH   1  13
TORSDOF 7
ENDMDL
