MODEL 1
REMARK VINA RESULT:    -4.333      0.000      0.000
REMARK INTER + INTRA:          -5.249
REMARK INTER:                  -4.966
REMARK INTRA:                  -0.283
REMARK UNBOUND:                -0.283
REMARK SMILES O=C(O)c1ccc2nc(-c3cc(Cl)cc(Cl)c3)oc2c1
REMARK SMILES IDX 5 1 6 2 20 3 8 4 18 5 4 6 9 7 7 8 19 9 2 10 1 11 3 12 10 14
REMARK SMILES IDX 11 15 17 16 12 17 15 18 14 19 13 20 16 21
REMARK H PARENT 3 13
ROOT
ATOM      1  C   UNL     1      -3.155  15.238  -9.575  1.00  0.00     0.018 A 
ATOM      2  C   UNL     1      -4.055  14.647  -8.739  1.00  0.00     0.033 A 
ATOM      3  C   UNL     1      -1.831  13.207  -9.625  1.00  0.00     0.065 A 
ATOM      4  N   UNL     1      -4.560  12.490  -7.524  1.00  0.00    -0.209 NA
ATOM      5  O   UNL     1      -2.823  11.377  -8.214  1.00  0.00    -0.436 OA
ATOM      6  C   UNL     1      -2.035  14.528 -10.029  1.00  0.00     0.063 A 
ATOM      7  C   UNL     1      -3.939  11.338  -7.463  1.00  0.00     0.227 A 
ATOM      8  C   UNL     1      -3.862  13.323  -8.325  1.00  0.00     0.110 A 
ATOM      9  C   UNL     1      -2.739  12.605  -8.773  1.00  0.00     0.156 A 
ENDROOT
BRANCH   6  10
ATOM     10  C   UNL     1      -1.072  15.176 -10.938  1.00  0.00     0.335 C 
ATOM     11  O   UNL     1      -1.203  15.065 -12.140  1.00  0.00    -0.246 OA
BRANCH  10  12
ATOM     12  O   UNL     1      -0.046  15.890 -10.435  1.00  0.00    -0.478 OA
ATOM     13  H   UNL     1       0.831  15.716 -10.801  1.00  0.00     0.297 HD
ENDBRANCH  10  12
ENDBRANCH   6  10
BRANCH   7  14
ATOM     14  C   UNL     1      -4.396  10.170  -6.683  1.00  0.00     0.040 A 
ATOM     15  C   UNL     1      -3.467   9.327  -6.072  1.00  0.00     0.034 A 
ATOM     16  C   UNL     1      -5.761   9.904  -6.555  1.00  0.00     0.034 A 
ATOM     17  C   UNL     1      -3.901   8.237  -5.344  1.00  0.00     0.043 A 
ATOM     18  C   UNL     1      -6.183   8.811  -5.824  1.00  0.00     0.043 A 
ATOM     19  C   UNL     1      -5.256   7.979  -5.221  1.00  0.00     0.041 A 
ATOM     20  Cl  UNL     1      -2.746   7.188  -4.582  1.00  0.00    -0.084 Cl
ATOM     21  Cl  UNL     1      -7.879   8.479  -5.664  1.00  0.00    -0.084 Cl
ENDBRANCH   7  14
TORSDOF 3
ENDMDL
MODEL 2
REMARK VINA RESULT:    -4.329      0.006      2.019
REMARK INTER + INTRA:          -5.245
REMARK INTER:                  -4.961
REMARK INTRA:                  -0.283
REMARK UNBOUND:                -0.283
REMARK SMILES O=C(O)c1ccc2nc(-c3cc(Cl)cc(Cl)c3)oc2c1
REMARK SMILES IDX 5 1 6 2 20 3 8 4 18 5 4 6 9 7 7 8 19 9 2 10 1 11 3 12 10 14
REMARK SMILES IDX 11 15 17 16 12 17 15 18 14 19 13 20 16 21
REMARK H PARENT 3 13
ROOT
ATOM      1  C   UNL     1      -3.156  15.237  -9.575  1.00  0.00     0.018 A 
ATOM      2  C   UNL     1      -4.056  14.646  -8.739  1.00  0.00     0.033 A 
ATOM      3  C   UNL     1      -1.832  13.207  -9.624  1.00  0.00     0.065 A 
ATOM      4  N   UNL     1      -4.562  12.490  -7.524  1.00  0.00    -0.209 NA
ATOM      5  O   UNL     1      -2.824  11.377  -8.214  1.00  0.00    -0.436 OA
ATOM      6  C   UNL     1      -2.036  14.527 -10.029  1.00  0.00     0.063 A 
ATOM      7  C   UNL     1      -3.941  11.338  -7.463  1.00  0.00     0.227 A 
ATOM      8  C   UNL     1      -3.863  13.322  -8.326  1.00  0.00     0.110 A 
ATOM      9  C   UNL     1      -2.740  12.605  -8.773  1.00  0.00     0.156 A 
ENDROOT
BRANCH   6  10
ATOM     10  C   UNL     1      -1.073  15.175 -10.937  1.00  0.00     0.335 C 
ATOM     11  O   UNL     1      -1.193  15.050 -12.139  1.00  0.00    -0.246 OA
BRANCH  10  12
ATOM     12  O   UNL     1      -0.057  15.905 -10.434  1.00  0.00    -0.478 OA
ATOM     13  H   UNL     1       0.614  15.431  -9.926  1.00  0.00     0.297 HD
ENDBRANCH  10  12
ENDBRANCH   6  10
BRANCH   7  14
ATOM     14  C   UNL     1      -4.399  10.170  -6.683  1.00  0.00     0.040 A 
ATOM     15  C   UNL     1      -5.762   9.903  -6.554  1.00  0.00     0.034 A 
ATOM     16  C   UNL     1      -3.467   9.327  -6.072  1.00  0.00     0.034 A 
ATOM     17  C   UNL     1      -6.183   8.809  -5.824  1.00  0.00     0.043 A 
ATOM     18  C   UNL     1      -3.901   8.236  -5.345  1.00  0.00     0.043 A 
ATOM     19  C   UNL     1      -5.255   7.978  -5.220  1.00  0.00     0.041 A 
ATOM     20  Cl  UNL     1      -7.879   8.476  -5.663  1.00  0.00    -0.084 Cl
ATOM     21  Cl  UNL     1      -2.745   7.188  -4.584  1.00  0.00    -0.084 Cl
ENDBRANCH   7  14
TORSDOF 3
ENDMDL
MODEL 3
REMARK VINA RESULT:    -4.144      5.146      6.579
REMARK INTER + INTRA:          -5.033
REMARK INTER:                  -4.738
REMARK INTRA:                  -0.296
REMARK UNBOUND:                -0.283
REMARK SMILES O=C(O)c1ccc2nc(-c3cc(Cl)cc(Cl)c3)oc2c1
REMARK SMILES IDX 5 1 6 2 20 3 8 4 18 5 4 6 9 7 7 8 19 9 2 10 1 11 3 12 10 14
REMARK SMILES IDX 11 15 17 16 12 17 15 18 14 19 13 20 16 21
REMARK H PARENT 3 13
ROOT
ATOM      1  C   UNL     1      -5.994  10.783  -6.962  1.00  0.00     0.018 A 
ATOM      2  C   UNL     1      -4.776  10.320  -6.563  1.00  0.00     0.033 A 
ATOM      3  C   UNL     1      -7.058   8.766  -6.136  1.00  0.00     0.065 A 
ATOM      4  N   UNL     1      -3.631   8.361  -5.453  1.00  0.00    -0.209 NA
ATOM      5  O   UNL     1      -5.412   7.155  -5.128  1.00  0.00    -0.436 OA
ATOM      6  C   UNL     1      -7.149  10.015  -6.752  1.00  0.00     0.063 A 
ATOM      7  C   UNL     1      -4.077   7.228  -4.970  1.00  0.00     0.227 A 
ATOM      8  C   UNL     1      -4.671   9.068  -5.944  1.00  0.00     0.110 A 
ATOM      9  C   UNL     1      -5.823   8.290  -5.734  1.00  0.00     0.156 A 
ENDROOT
BRANCH   6  10
ATOM     10  C   UNL     1      -8.462  10.529  -7.182  1.00  0.00     0.335 C 
ATOM     11  O   UNL     1      -9.430   9.795  -7.186  1.00  0.00    -0.246 OA
BRANCH  10  12
ATOM     12  O   UNL     1      -8.589  11.813  -7.572  1.00  0.00    -0.478 OA
ATOM     13  H   UNL     1      -9.360  12.035  -8.110  1.00  0.00     0.297 HD
ENDBRANCH  10  12
ENDBRANCH   6  10
BRANCH   7  14
ATOM     14  C   UNL     1      -3.238   6.184  -4.346  1.00  0.00     0.040 A 
ATOM     15  C   UNL     1      -2.046   6.531  -3.709  1.00  0.00     0.034 A 
ATOM     16  C   UNL     1      -3.635   4.846  -4.392  1.00  0.00     0.034 A 
ATOM     17  C   UNL     1      -1.267   5.550  -3.127  1.00  0.00     0.043 A 
ATOM     18  C   UNL     1      -2.848   3.875  -3.806  1.00  0.00     0.043 A 
ATOM     19  C   UNL     1      -1.666   4.226  -3.176  1.00  0.00     0.041 A 
ATOM     20  Cl  UNL     1       0.216   5.979  -2.334  1.00  0.00    -0.084 Cl
ATOM     21  Cl  UNL     1      -3.340   2.211  -3.862  1.00  0.00    -0.084 Cl
ENDBRANCH   7  14
TORSDOF 3
ENDMDL
MODEL 4
REMARK VINA RESULT:    -4.135      5.141      6.739
REMARK INTER + INTRA:          -5.023
REMARK INTER:                  -4.727
REMARK INTRA:                  -0.296
REMARK UNBOUND:                -0.283
REMARK SMILES O=C(O)c1ccc2nc(-c3cc(Cl)cc(Cl)c3)oc2c1
REMARK SMILES IDX 5 1 6 2 20 3 8 4 18 5 4 6 9 7 7 8 19 9 2 10 1 11 3 12 10 14
REMARK SMILES IDX 11 15 17 16 12 17 15 18 14 19 13 20 16 21
REMARK H PARENT 3 13
ROOT
ATOM      1  C   UNL     1      -5.993  10.779  -6.963  1.00  0.00     0.018 A 
ATOM      2  C   UNL     1      -4.775  10.314  -6.566  1.00  0.00     0.033 A 
ATOM      3  C   UNL     1      -7.059   8.765  -6.134  1.00  0.00     0.065 A 
ATOM      4  N   UNL     1      -3.632   8.354  -5.457  1.00  0.00    -0.209 NA
ATOM      5  O   UNL     1      -5.415   7.151  -5.128  1.00  0.00    -0.436 OA
ATOM      6  C   UNL     1      -7.148  10.014  -6.751  1.00  0.00     0.063 A 
ATOM      7  C   UNL     1      -4.079   7.222  -4.973  1.00  0.00     0.227 A 
ATOM      8  C   UNL     1      -4.671   9.063  -5.946  1.00  0.00     0.110 A 
ATOM      9  C   UNL     1      -5.825   8.287  -5.734  1.00  0.00     0.156 A 
ENDROOT
BRANCH   6  10
ATOM     10  C   UNL     1      -8.461  10.531  -7.179  1.00  0.00     0.335 C 
ATOM     11  O   UNL     1      -9.439   9.811  -7.140  1.00  0.00    -0.246 OA
BRANCH  10  12
ATOM     12  O   UNL     1      -8.577  11.801  -7.615  1.00  0.00    -0.478 OA
ATOM     13  H   UNL     1      -9.470  12.164  -7.679  1.00  0.00     0.297 HD
ENDBRANCH  10  12
ENDBRANCH   6  10
BRANCH   7  14
ATOM     14  C   UNL     1      -3.241   6.177  -4.349  1.00  0.00     0.040 A 
ATOM     15  C   UNL     1      -3.642   4.840  -4.389  1.00  0.00     0.034 A 
ATOM     16  C   UNL     1      -2.045   6.523  -3.717  1.00  0.00     0.034 A 
ATOM     17  C   UNL     1      -2.853   3.868  -3.805  1.00  0.00     0.043 A 
ATOM     18  C   UNL     1      -1.266   5.542  -3.137  1.00  0.00     0.043 A 
ATOM     19  C   UNL     1      -1.669   4.218  -3.180  1.00  0.00     0.041 A 
ATOM     20  Cl  UNL     1      -3.349   2.206  -3.854  1.00  0.00    -0.084 Cl
ATOM     21  Cl  UNL     1       0.222   5.970  -2.350  1.00  0.00    -0.084 Cl
ENDBRANCH   7  14
TORSDOF 3
ENDMDL
MODEL 5
REMARK VINA RESULT:    -4.109      3.502      5.545
REMARK INTER + INTRA:          -4.993
REMARK INTER:                  -4.697
REMARK INTRA:                  -0.296
REMARK UNBOUND:                -0.283
REMARK SMILES O=C(O)c1ccc2nc(-c3cc(Cl)cc(Cl)c3)oc2c1
REMARK SMILES IDX 5 1 6 2 20 3 8 4 18 5 4 6 9 7 7 8 19 9 2 10 1 11 3 12 10 14
REMARK SMILES IDX 11 15 17 16 12 17 15 18 14 19 13 20 16 21
REMARK H PARENT 3 13
ROOT
ATOM      1  C   UNL     1      -5.932  10.828  -6.889  1.00  0.00     0.018 A 
ATOM      2  C   UNL     1      -6.101   9.565  -6.406  1.00  0.00     0.033 A 
ATOM      3  C   UNL     1      -3.531  10.643  -6.601  1.00  0.00     0.065 A 
ATOM      4  N   UNL     1      -4.843   7.569  -5.503  1.00  0.00    -0.209 NA
ATOM      5  O   UNL     1      -2.845   8.417  -5.653  1.00  0.00    -0.436 OA
ATOM      6  C   UNL     1      -4.648  11.382  -6.995  1.00  0.00     0.063 A 
ATOM      7  C   UNL     1      -3.570   7.340  -5.296  1.00  0.00     0.227 A 
ATOM      8  C   UNL     1      -4.989   8.813  -6.008  1.00  0.00     0.110 A 
ATOM      9  C   UNL     1      -3.699   9.363  -6.106  1.00  0.00     0.156 A 
ENDROOT
BRANCH   6  10
ATOM     10  C   UNL     1      -4.477  12.747  -7.524  1.00  0.00     0.335 C 
ATOM     11  O   UNL     1      -3.370  13.244  -7.576  1.00  0.00    -0.246 OA
BRANCH  10  12
ATOM     12  O   UNL     1      -5.549  13.444  -7.951  1.00  0.00    -0.478 OA
ATOM     13  H   UNL     1      -6.392  13.264  -7.514  1.00  0.00     0.297 HD
ENDBRANCH  10  12
ENDBRANCH   6  10
BRANCH   7  14
ATOM     14  C   UNL     1      -3.013   6.086  -4.750  1.00  0.00     0.040 A 
ATOM     15  C   UNL     1      -3.685   4.878  -4.941  1.00  0.00     0.034 A 
ATOM     16  C   UNL     1      -1.811   6.105  -4.038  1.00  0.00     0.034 A 
ATOM     17  C   UNL     1      -3.158   3.709  -4.429  1.00  0.00     0.043 A 
ATOM     18  C   UNL     1      -1.295   4.929  -3.531  1.00  0.00     0.043 A 
ATOM     19  C   UNL     1      -1.966   3.734  -3.725  1.00  0.00     0.041 A 
ATOM     20  Cl  UNL     1      -3.992   2.205  -4.667  1.00  0.00    -0.084 Cl
ATOM     21  Cl  UNL     1       0.199   4.950  -2.646  1.00  0.00    -0.084 Cl
ENDBRANCH   7  14
TORSDOF 3
ENDMDL
MODEL 6
REMARK VINA RESULT:    -4.106      3.496      5.279
REMARK INTER + INTRA:          -4.989
REMARK INTER:                  -4.693
REMARK INTRA:                  -0.296
REMARK UNBOUND:                -0.283
REMARK SMILES O=C(O)c1ccc2nc(-c3cc(Cl)cc(Cl)c3)oc2c1
REMARK SMILES IDX 5 1 6 2 20 3 8 4 18 5 4 6 9 7 7 8 19 9 2 10 1 11 3 12 10 14
REMARK SMILES IDX 11 15 17 16 12 17 15 18 14 19 13 20 16 21
REMARK H PARENT 3 13
ROOT
ATOM      1  C   UNL     1      -5.939  10.831  -6.894  1.00  0.00     0.018 A 
ATOM      2  C   UNL     1      -6.108   9.570  -6.406  1.00  0.00     0.033 A 
ATOM      3  C   UNL     1      -3.538  10.643  -6.618  1.00  0.00     0.065 A 
ATOM      4  N   UNL     1      -4.848   7.574  -5.504  1.00  0.00    -0.209 NA
ATOM      5  O   UNL     1      -2.850   8.420  -5.667  1.00  0.00    -0.436 OA
ATOM      6  C   UNL     1      -4.656  11.383  -7.008  1.00  0.00     0.063 A 
ATOM      7  C   UNL     1      -3.575   7.345  -5.303  1.00  0.00     0.227 A 
ATOM      8  C   UNL     1      -4.995   8.817  -6.012  1.00  0.00     0.110 A 
ATOM      9  C   UNL     1      -3.705   9.365  -6.118  1.00  0.00     0.156 A 
ENDROOT
BRANCH   6  10
ATOM     10  C   UNL     1      -4.485  12.746  -7.542  1.00  0.00     0.335 C 
ATOM     11  O   UNL     1      -3.377  13.240  -7.605  1.00  0.00    -0.246 OA
BRANCH  10  12
ATOM     12  O   UNL     1      -5.559  13.446  -7.960  1.00  0.00    -0.478 OA
ATOM     13  H   UNL     1      -6.421  13.017  -7.877  1.00  0.00     0.297 HD
ENDBRANCH  10  12
ENDBRANCH   6  10
BRANCH   7  14
ATOM     14  C   UNL     1      -3.016   6.091  -4.756  1.00  0.00     0.040 A 
ATOM     15  C   UNL     1      -1.813   6.109  -4.050  1.00  0.00     0.034 A 
ATOM     16  C   UNL     1      -3.691   4.883  -4.945  1.00  0.00     0.034 A 
ATOM     17  C   UNL     1      -1.297   4.934  -3.540  1.00  0.00     0.043 A 
ATOM     18  C   UNL     1      -3.165   3.715  -4.431  1.00  0.00     0.043 A 
ATOM     19  C   UNL     1      -1.970   3.739  -3.731  1.00  0.00     0.041 A 
ATOM     20  Cl  UNL     1       0.200   4.954  -2.661  1.00  0.00    -0.084 Cl
ATOM     21  Cl  UNL     1      -4.002   2.211  -4.664  1.00  0.00    -0.084 Cl
ENDBRANCH   7  14
TORSDOF 3
ENDMDL
MODEL 7
REMARK VINA RESULT:    -3.896      4.988      8.783
REMARK INTER + INTRA:          -4.749
REMARK INTER:                  -4.452
REMARK INTRA:                  -0.298
REMARK UNBOUND:                -0.283
REMARK SMILES O=C(O)c1ccc2nc(-c3cc(Cl)cc(Cl)c3)oc2c1
REMARK SMILES IDX 5 1 6 2 20 3 8 4 18 5 4 6 9 7 7 8 19 9 2 10 1 11 3 12 10 14
REMARK SMILES IDX 11 15 17 16 12 17 15 18 14 19 13 20 16 21
REMARK H PARENT 3 13
ROOT
ATOM      1  C   UNL     1      -2.849   3.468  -3.784  1.00  0.00     0.018 A 
ATOM      2  C   UNL     1      -3.935   4.102  -4.309  1.00  0.00     0.033 A 
ATOM      3  C   UNL     1      -1.540   5.501  -3.979  1.00  0.00     0.065 A 
ATOM      4  N   UNL     1      -4.730   6.322  -5.216  1.00  0.00    -0.209 NA
ATOM      5  O   UNL     1      -2.859   7.403  -4.960  1.00  0.00    -0.436 OA
ATOM      6  C   UNL     1      -1.640   4.158  -3.611  1.00  0.00     0.063 A 
ATOM      7  C   UNL     1      -4.137   7.479  -5.377  1.00  0.00     0.227 A 
ATOM      8  C   UNL     1      -3.849   5.448  -4.683  1.00  0.00     0.110 A 
ATOM      9  C   UNL     1      -2.639   6.146  -4.517  1.00  0.00     0.156 A 
ENDROOT
BRANCH   6  10
ATOM     10  C   UNL     1      -0.474   3.464  -3.037  1.00  0.00     0.335 C 
ATOM     11  O   UNL     1      -0.566   2.302  -2.695  1.00  0.00    -0.246 OA
BRANCH  10  12
ATOM     12  O   UNL     1       0.695   4.119  -2.889  1.00  0.00    -0.478 OA
ATOM     13  H   UNL     1       1.279   3.821  -2.179  1.00  0.00     0.297 HD
ENDBRANCH  10  12
ENDBRANCH   6  10
BRANCH   7  14
ATOM     14  C   UNL     1      -4.778   8.688  -5.935  1.00  0.00     0.040 A 
ATOM     15  C   UNL     1      -6.167   8.759  -6.044  1.00  0.00     0.034 A 
ATOM     16  C   UNL     1      -3.994   9.764  -6.356  1.00  0.00     0.034 A 
ATOM     17  C   UNL     1      -6.759   9.892  -6.565  1.00  0.00     0.043 A 
ATOM     18  C   UNL     1      -4.598  10.892  -6.876  1.00  0.00     0.043 A 
ATOM     19  C   UNL     1      -5.977  10.956  -6.981  1.00  0.00     0.041 A 
ATOM     20  Cl  UNL     1      -8.487   9.983  -6.701  1.00  0.00    -0.084 Cl
ATOM     21  Cl  UNL     1      -3.626  12.232  -7.400  1.00  0.00    -0.084 Cl
ENDBRANCH   7  14
TORSDOF 3
ENDMDL
MODEL 8
REMARK VINA RESULT:    -3.878      4.985      8.617
REMARK INTER + INTRA:          -4.728
REMARK INTER:                  -4.430
REMARK INTRA:                  -0.297
REMARK UNBOUND:                -0.283
REMARK SMILES O=C(O)c1ccc2nc(-c3cc(Cl)cc(Cl)c3)oc2c1
REMARK SMILES IDX 5 1 6 2 20 3 8 4 18 5 4 6 9 7 7 8 19 9 2 10 1 11 3 12 10 14
REMARK SMILES IDX 11 15 17 16 12 17 15 18 14 19 13 20 16 21
REMARK H PARENT 3 13
ROOT
ATOM      1  C   UNL     1      -2.844   3.465  -3.781  1.00  0.00     0.018 A 
ATOM      2  C   UNL     1      -3.928   4.103  -4.306  1.00  0.00     0.033 A 
ATOM      3  C   UNL     1      -1.529   5.494  -3.971  1.00  0.00     0.065 A 
ATOM      4  N   UNL     1      -4.714   6.327  -5.210  1.00  0.00    -0.209 NA
ATOM      5  O   UNL     1      -2.840   7.402  -4.951  1.00  0.00    -0.436 OA
ATOM      6  C   UNL     1      -1.634   4.151  -3.605  1.00  0.00     0.063 A 
ATOM      7  C   UNL     1      -4.117   7.483  -5.369  1.00  0.00     0.227 A 
ATOM      8  C   UNL     1      -3.836   5.450  -4.678  1.00  0.00     0.110 A 
ATOM      9  C   UNL     1      -2.624   6.143  -4.509  1.00  0.00     0.156 A 
ENDROOT
BRANCH   6  10
ATOM     10  C   UNL     1      -0.470   3.452  -3.030  1.00  0.00     0.335 C 
ATOM     11  O   UNL     1      -0.572   2.296  -2.671  1.00  0.00    -0.246 OA
BRANCH  10  12
ATOM     12  O   UNL     1       0.707   4.096  -2.901  1.00  0.00    -0.478 OA
ATOM     13  H   UNL     1       0.725   5.031  -3.144  1.00  0.00     0.297 HD
ENDBRANCH  10  12
ENDBRANCH   6  10
BRANCH   7  14
ATOM     14  C   UNL     1      -4.752   8.695  -5.926  1.00  0.00     0.040 A 
ATOM     15  C   UNL     1      -3.967   9.774  -6.334  1.00  0.00     0.034 A 
ATOM     16  C   UNL     1      -6.142   8.765  -6.046  1.00  0.00     0.034 A 
ATOM     17  C   UNL     1      -4.567  10.903  -6.855  1.00  0.00     0.043 A 
ATOM     18  C   UNL     1      -6.729   9.899  -6.569  1.00  0.00     0.043 A 
ATOM     19  C   UNL     1      -5.945  10.966  -6.971  1.00  0.00     0.041 A 
ATOM     20  Cl  UNL     1      -3.592  12.246  -7.363  1.00  0.00    -0.084 Cl
ATOM     21  Cl  UNL     1      -8.457   9.989  -6.719  1.00  0.00    -0.084 Cl
ENDBRANCH   7  14
TORSDOF 3
ENDMDL
MODEL 9
REMARK VINA RESULT:    -3.726      3.968      7.766
REMARK INTER + INTRA:          -4.554
REMARK INTER:                  -4.266
REMARK INTRA:                  -0.287
REMARK UNBOUND:                -0.283
REMARK SMILES O=C(O)c1ccc2nc(-c3cc(Cl)cc(Cl)c3)oc2c1
REMARK SMILES IDX 5 1 6 2 20 3 8 4 18 5 4 6 9 7 7 8 19 9 2 10 1 11 3 12 10 14
REMARK SMILES IDX 11 15 17 16 12 17 15 18 14 19 13 20 16 21
REMARK H PARENT 3 13
ROOT
ATOM      1  C   UNL     1      -3.732   6.775  -3.663  1.00  0.00     0.018 A 
ATOM      2  C   UNL     1      -3.630   8.134  -3.686  1.00  0.00     0.033 A 
ATOM      3  C   UNL     1      -4.023   6.733  -6.070  1.00  0.00     0.065 A 
ATOM      4  N   UNL     1      -3.664  10.131  -5.234  1.00  0.00    -0.209 NA
ATOM      5  O   UNL     1      -3.976   9.032  -7.086  1.00  0.00    -0.436 OA
ATOM      6  C   UNL     1      -3.927   6.058  -4.852  1.00  0.00     0.063 A 
ATOM      7  C   UNL     1      -3.813  10.248  -6.530  1.00  0.00     0.227 A 
ATOM      8  C   UNL     1      -3.724   8.823  -4.902  1.00  0.00     0.110 A 
ATOM      9  C   UNL     1      -3.925   8.112  -6.097  1.00  0.00     0.156 A 
ENDROOT
BRANCH   6  10
ATOM     10  C   UNL     1      -4.030   4.588  -4.815  1.00  0.00     0.335 C 
ATOM     11  O   UNL     1      -3.819   3.939  -5.821  1.00  0.00    -0.246 OA
BRANCH  10  12
ATOM     12  O   UNL     1      -4.358   3.963  -3.667  1.00  0.00    -0.478 OA
ATOM     13  H   UNL     1      -5.067   3.307  -3.711  1.00  0.00     0.297 HD
ENDBRANCH  10  12
ENDBRANCH   6  10
BRANCH   7  14
ATOM     14  C   UNL     1      -3.805  11.526  -7.272  1.00  0.00     0.040 A 
ATOM     15  C   UNL     1      -2.782  11.803  -8.179  1.00  0.00     0.034 A 
ATOM     16  C   UNL     1      -4.821  12.461  -7.066  1.00  0.00     0.034 A 
ATOM     17  C   UNL     1      -2.781  12.999  -8.870  1.00  0.00     0.043 A 
ATOM     18  C   UNL     1      -4.809  13.653  -7.762  1.00  0.00     0.043 A 
ATOM     19  C   UNL     1      -3.791  13.922  -8.661  1.00  0.00     0.041 A 
ATOM     20  Cl  UNL     1      -1.510  13.346 -10.000  1.00  0.00    -0.084 Cl
ATOM     21  Cl  UNL     1      -6.071  14.818  -7.508  1.00  0.00    -0.084 Cl
ENDBRANCH   7  14
TORSDOF 3
ENDMDL
