MODEL 1
REMARK VINA RESULT:    -5.747      0.000      0.000
REMARK INTER + INTRA:          -8.467
REMARK INTER:                  -7.931
REMARK INTRA:                  -0.537
REMARK UNBOUND:                -0.537
REMARK SMILES Cc1n[nH]c(C)c1CCCOc1cc(C(=O)O)ccc1F
REMARK SMILES IDX 11 1 12 2 14 3 18 4 13 5 19 6 20 7 21 8 15 9 16 10 17 11
REMARK SMILES IDX 10 13 9 14 8 15 7 16 5 17 2 18 4 19 3 20 6 21 1 22
REMARK H PARENT 17 12 4 23
ROOT
ATOM      1  O   UNL     1      -3.575   7.107  -2.524  1.00  0.00    -0.490 OA
ENDROOT
BRANCH   1   2
ATOM      2  C   UNL     1      -2.990   5.958  -2.956  1.00  0.00     0.155 A 
ATOM      3  C   UNL     1      -3.131   3.841  -4.088  1.00  0.00     0.063 A 
ATOM      4  C   UNL     1      -1.773   3.622  -3.839  1.00  0.00     0.019 A 
ATOM      5  C   UNL     1      -3.736   5.017  -3.641  1.00  0.00     0.065 A 
ATOM      6  C   UNL     1      -1.035   4.569  -3.161  1.00  0.00     0.044 A 
ATOM      7  C   UNL     1      -1.637   5.737  -2.723  1.00  0.00     0.165 A 
ATOM      8  F   UNL     1      -0.908   6.661  -2.059  1.00  0.00    -0.203 F 
BRANCH   3   9
ATOM      9  C   UNL     1      -3.923   2.829  -4.814  1.00  0.00     0.335 C 
ATOM     10  O   UNL     1      -5.128   2.786  -4.674  1.00  0.00    -0.246 OA
BRANCH   9  11
ATOM     11  O   UNL     1      -3.309   1.957  -5.638  1.00  0.00    -0.478 OA
ATOM     12  H   UNL     1      -3.839   1.585  -6.357  1.00  0.00     0.297 HD
ENDBRANCH   9  11
ENDBRANCH   3   9
ENDBRANCH   1   2
BRANCH   1  13
ATOM     13  C   UNL     1      -3.150   8.323  -3.144  1.00  0.00     0.230 C 
BRANCH  13  14
ATOM     14  C   UNL     1      -4.335   8.968  -3.866  1.00  0.00     0.046 C 
BRANCH  14  15
ATOM     15  C   UNL     1      -4.262   8.638  -5.359  1.00  0.00     0.043 C 
BRANCH  15  16
ATOM     16  C   UNL     1      -5.014   9.683  -6.141  1.00  0.00    -0.004 A 
ATOM     17  C   UNL     1      -6.346   9.694  -6.381  1.00  0.00     0.036 A 
ATOM     18  C   UNL     1      -4.460  10.818  -6.743  1.00  0.00     0.063 A 
ATOM     19  N   UNL     1      -6.623  10.793  -7.114  1.00  0.00    -0.282 N 
ATOM     20  N   UNL     1      -5.422  11.480  -7.333  1.00  0.00    -0.181 NA
ATOM     21  C   UNL     1      -7.341   8.664  -5.913  1.00  0.00     0.066 C 
ATOM     22  C   UNL     1      -3.003  11.205  -6.727  1.00  0.00     0.069 C 
ATOM     23  H   UNL     1      -7.499  11.059  -7.435  1.00  0.00     0.190 HD
ENDBRANCH  15  16
ENDBRANCH  14  15
ENDBRANCH  13  14
ENDBRANCH   1  13
TORSDOF 7
ENDMDL
MODEL 2
REMARK VINA RESULT:    -5.614      2.156      3.763
REMARK INTER + INTRA:          -8.283
REMARK INTER:                  -7.628
REMARK INTRA:                  -0.655
REMARK UNBOUND:                -0.537
REMARK SMILES Cc1n[nH]c(C)c1CCCOc1cc(C(=O)O)ccc1F
REMARK SMILES IDX 11 1 12 2 14 3 18 4 13 5 19 6 20 7 21 8 15 9 16 10 17 11
REMARK SMILES IDX 10 13 9 14 8 15 7 16 5 17 2 18 4 19 3 20 6 21 1 22
REMARK H PARENT 17 12 4 23
ROOT
ATOM      1  O   UNL     1      -4.202   5.636  -5.466  1.00  0.00    -0.490 OA
ENDROOT
BRANCH   1   2
ATOM      2  C   UNL     1      -3.251   5.065  -4.679  1.00  0.00     0.155 A 
ATOM      3  C   UNL     1      -1.346   5.268  -3.225  1.00  0.00     0.063 A 
ATOM      4  C   UNL     1      -1.323   3.880  -3.069  1.00  0.00     0.019 A 
ATOM      5  C   UNL     1      -2.318   5.858  -4.037  1.00  0.00     0.065 A 
ATOM      6  C   UNL     1      -2.261   3.098  -3.709  1.00  0.00     0.044 A 
ATOM      7  C   UNL     1      -3.227   3.685  -4.509  1.00  0.00     0.165 A 
ATOM      8  F   UNL     1      -4.144   2.914  -5.133  1.00  0.00    -0.203 F 
BRANCH   3   9
ATOM      9  C   UNL     1      -0.343   6.108  -2.541  1.00  0.00     0.335 C 
ATOM     10  O   UNL     1       0.353   6.867  -3.183  1.00  0.00    -0.246 OA
BRANCH   9  11
ATOM     11  O   UNL     1      -0.206   6.036  -1.203  1.00  0.00    -0.478 OA
ATOM     12  H   UNL     1      -0.832   5.473  -0.726  1.00  0.00     0.297 HD
ENDBRANCH   9  11
ENDBRANCH   3   9
ENDBRANCH   1   2
BRANCH   1  13
ATOM     13  C   UNL     1      -3.813   6.001  -6.792  1.00  0.00     0.230 C 
BRANCH  13  14
ATOM     14  C   UNL     1      -4.570   7.261  -7.216  1.00  0.00     0.046 C 
BRANCH  14  15
ATOM     15  C   UNL     1      -4.773   8.167  -6.000  1.00  0.00     0.043 C 
BRANCH  15  16
ATOM     16  C   UNL     1      -5.419   9.457  -6.436  1.00  0.00    -0.004 A 
ATOM     17  C   UNL     1      -4.771  10.589  -6.797  1.00  0.00     0.036 A 
ATOM     18  C   UNL     1      -6.793   9.694  -6.547  1.00  0.00     0.063 A 
ATOM     19  N   UNL     1      -5.703  11.512  -7.117  1.00  0.00    -0.282 N 
ATOM     20  N   UNL     1      -6.964  10.927  -6.948  1.00  0.00    -0.181 NA
ATOM     21  C   UNL     1      -3.278  10.785  -6.834  1.00  0.00     0.066 C 
ATOM     22  C   UNL     1      -7.888   8.703  -6.243  1.00  0.00     0.069 C 
ATOM     23  H   UNL     1      -5.529  12.419  -7.412  1.00  0.00     0.190 HD
ENDBRANCH  15  16
ENDBRANCH  14  15
ENDBRANCH  13  14
ENDBRANCH   1  13
TORSDOF 7
ENDMDL
MODEL 3
REMARK VINA RESULT:    -5.589      2.287      3.458
REMARK INTER + INTRA:          -8.249
REMARK INTER:                  -7.665
REMARK INTRA:                  -0.584
REMARK UNBOUND:                -0.537
REMARK SMILES Cc1n[nH]c(C)c1CCCOc1cc(C(=O)O)ccc1F
REMARK SMILES IDX 11 1 12 2 14 3 18 4 13 5 19 6 20 7 21 8 15 9 16 10 17 11
REMARK SMILES IDX 10 13 9 14 8 15 7 16 5 17 2 18 4 19 3 20 6 21 1 22
REMARK H PARENT 17 12 4 23
ROOT
ATOM      1  O   UNL     1      -2.888   5.523  -6.658  1.00  0.00    -0.490 OA
ENDROOT
BRANCH   1   2
ATOM      2  C   UNL     1      -2.477   5.053  -5.450  1.00  0.00     0.155 A 
ATOM      3  C   UNL     1      -1.218   5.330  -3.420  1.00  0.00     0.063 A 
ATOM      4  C   UNL     1      -1.658   4.078  -2.981  1.00  0.00     0.019 A 
ATOM      5  C   UNL     1      -1.633   5.814  -4.663  1.00  0.00     0.065 A 
ATOM      6  C   UNL     1      -2.504   3.329  -3.772  1.00  0.00     0.044 A 
ATOM      7  C   UNL     1      -2.919   3.813  -5.001  1.00  0.00     0.165 A 
ATOM      8  F   UNL     1      -3.748   3.075  -5.771  1.00  0.00    -0.203 F 
BRANCH   3   9
ATOM      9  C   UNL     1      -0.313   6.134  -2.577  1.00  0.00     0.335 C 
ATOM     10  O   UNL     1       0.441   6.937  -3.088  1.00  0.00    -0.246 OA
BRANCH   9  11
ATOM     11  O   UNL     1      -0.327   5.982  -1.238  1.00  0.00    -0.478 OA
ATOM     12  H   UNL     1       0.256   6.558  -0.724  1.00  0.00     0.297 HD
ENDBRANCH   9  11
ENDBRANCH   3   9
ENDBRANCH   1   2
BRANCH   1  13
ATOM     13  C   UNL     1      -4.262   5.899  -6.775  1.00  0.00     0.230 C 
BRANCH  13  14
ATOM     14  C   UNL     1      -4.355   7.371  -7.180  1.00  0.00     0.046 C 
BRANCH  14  15
ATOM     15  C   UNL     1      -4.749   8.211  -5.963  1.00  0.00     0.043 C 
BRANCH  15  16
ATOM     16  C   UNL     1      -5.515   9.426  -6.418  1.00  0.00    -0.004 A 
ATOM     17  C   UNL     1      -6.862   9.536  -6.493  1.00  0.00     0.036 A 
ATOM     18  C   UNL     1      -4.960  10.643  -6.830  1.00  0.00     0.063 A 
ATOM     19  N   UNL     1      -7.148  10.776  -6.943  1.00  0.00    -0.282 N 
ATOM     20  N   UNL     1      -5.938  11.450  -7.151  1.00  0.00    -0.181 NA
ATOM     21  C   UNL     1      -7.861   8.467  -6.138  1.00  0.00     0.066 C 
ATOM     22  C   UNL     1      -3.489  10.964  -6.902  1.00  0.00     0.069 C 
ATOM     23  H   UNL     1      -8.036  11.136  -7.097  1.00  0.00     0.190 HD
ENDBRANCH  15  16
ENDBRANCH  14  15
ENDBRANCH  13  14
ENDBRANCH   1  13
TORSDOF 7
ENDMDL
MODEL 4
REMARK VINA RESULT:    -5.575      0.169      1.774
REMARK INTER + INTRA:          -8.230
REMARK INTER:                  -7.807
REMARK INTRA:                  -0.423
REMARK UNBOUND:                -0.537
REMARK SMILES Cc1n[nH]c(C)c1CCCOc1cc(C(=O)O)ccc1F
REMARK SMILES IDX 11 1 12 2 14 3 18 4 13 5 19 6 20 7 21 8 15 9 16 10 17 11
REMARK SMILES IDX 10 13 9 14 8 15 7 16 5 17 2 18 4 19 3 20 6 21 1 22
REMARK H PARENT 17 12 4 23
ROOT
ATOM      1  O   UNL     1      -3.707   7.110  -2.597  1.00  0.00    -0.490 OA
ENDROOT
BRANCH   1   2
ATOM      2  C   UNL     1      -3.089   5.973  -3.017  1.00  0.00     0.155 A 
ATOM      3  C   UNL     1      -3.171   3.839  -4.121  1.00  0.00     0.063 A 
ATOM      4  C   UNL     1      -1.806   3.664  -3.875  1.00  0.00     0.019 A 
ATOM      5  C   UNL     1      -3.809   5.002  -3.687  1.00  0.00     0.065 A 
ATOM      6  C   UNL     1      -1.095   4.641  -3.211  1.00  0.00     0.044 A 
ATOM      7  C   UNL     1      -1.729   5.796  -2.786  1.00  0.00     0.165 A 
ATOM      8  F   UNL     1      -1.027   6.750  -2.136  1.00  0.00    -0.203 F 
BRANCH   3   9
ATOM      9  C   UNL     1      -3.935   2.795  -4.831  1.00  0.00     0.335 C 
ATOM     10  O   UNL     1      -5.139   2.724  -4.694  1.00  0.00    -0.246 OA
BRANCH   9  11
ATOM     11  O   UNL     1      -3.296   1.925  -5.638  1.00  0.00    -0.478 OA
ATOM     12  H   UNL     1      -3.516   0.988  -5.536  1.00  0.00     0.297 HD
ENDBRANCH   9  11
ENDBRANCH   3   9
ENDBRANCH   1   2
BRANCH   1  13
ATOM     13  C   UNL     1      -3.202   8.347  -3.104  1.00  0.00     0.230 C 
BRANCH  13  14
ATOM     14  C   UNL     1      -4.311   9.078  -3.862  1.00  0.00     0.046 C 
BRANCH  14  15
ATOM     15  C   UNL     1      -4.219   8.739  -5.352  1.00  0.00     0.043 C 
BRANCH  15  16
ATOM     16  C   UNL     1      -4.880   9.827  -6.157  1.00  0.00    -0.004 A 
ATOM     17  C   UNL     1      -4.257  10.874  -6.745  1.00  0.00     0.036 A 
ATOM     18  C   UNL     1      -6.248   9.930  -6.435  1.00  0.00     0.063 A 
ATOM     19  N   UNL     1      -5.196  11.616  -7.367  1.00  0.00    -0.282 N 
ATOM     20  N   UNL     1      -6.439  11.005  -7.154  1.00  0.00    -0.181 NA
ATOM     21  C   UNL     1      -2.778  11.159  -6.712  1.00  0.00     0.066 C 
ATOM     22  C   UNL     1      -7.318   8.973  -5.974  1.00  0.00     0.069 C 
ATOM     23  H   UNL     1      -5.039  12.430  -7.872  1.00  0.00     0.190 HD
ENDBRANCH  15  16
ENDBRANCH  14  15
ENDBRANCH  13  14
ENDBRANCH   1  13
TORSDOF 7
ENDMDL
MODEL 5
REMARK VINA RESULT:    -4.629      3.943      7.051
REMARK INTER + INTRA:          -6.925
REMARK INTER:                  -6.060
REMARK INTRA:                  -0.865
REMARK UNBOUND:                -0.537
REMARK SMILES Cc1n[nH]c(C)c1CCCOc1cc(C(=O)O)ccc1F
REMARK SMILES IDX 11 1 12 2 14 3 18 4 13 5 19 6 20 7 21 8 15 9 16 10 17 11
REMARK SMILES IDX 10 13 9 14 8 15 7 16 5 17 2 18 4 19 3 20 6 21 1 22
REMARK H PARENT 17 12 4 23
ROOT
ATOM      1  O   UNL     1      -4.930   6.843  -5.447  1.00  0.00    -0.490 OA
ENDROOT
BRANCH   1   2
ATOM      2  C   UNL     1      -5.130   8.113  -5.887  1.00  0.00     0.155 A 
ATOM      3  C   UNL     1      -4.258  10.210  -6.678  1.00  0.00     0.063 A 
ATOM      4  C   UNL     1      -5.560  10.703  -6.796  1.00  0.00     0.019 A 
ATOM      5  C   UNL     1      -4.049   8.907  -6.221  1.00  0.00     0.065 A 
ATOM      6  C   UNL     1      -6.633   9.902  -6.466  1.00  0.00     0.044 A 
ATOM      7  C   UNL     1      -6.423   8.608  -6.018  1.00  0.00     0.165 A 
ATOM      8  F   UNL     1      -7.479   7.828  -5.696  1.00  0.00    -0.203 F 
BRANCH   3   9
ATOM      9  C   UNL     1      -3.108  11.065  -7.030  1.00  0.00     0.335 C 
ATOM     10  O   UNL     1      -2.588  11.764  -6.184  1.00  0.00    -0.246 OA
BRANCH   9  11
ATOM     11  O   UNL     1      -2.630  11.065  -8.290  1.00  0.00    -0.478 OA
ATOM     12  H   UNL     1      -2.094  11.825  -8.557  1.00  0.00     0.297 HD
ENDBRANCH   9  11
ENDBRANCH   3   9
ENDBRANCH   1   2
BRANCH   1  13
ATOM     13  C   UNL     1      -3.785   6.153  -5.953  1.00  0.00     0.230 C 
BRANCH  13  14
ATOM     14  C   UNL     1      -3.610   4.834  -5.199  1.00  0.00     0.046 C 
BRANCH  14  15
ATOM     15  C   UNL     1      -3.805   5.074  -3.700  1.00  0.00     0.043 C 
BRANCH  15  16
ATOM     16  C   UNL     1      -2.501   5.515  -3.088  1.00  0.00    -0.004 A 
ATOM     17  C   UNL     1      -2.224   6.751  -2.609  1.00  0.00     0.036 A 
ATOM     18  C   UNL     1      -1.365   4.720  -2.907  1.00  0.00     0.063 A 
ATOM     19  N   UNL     1      -0.956   6.739  -2.149  1.00  0.00    -0.282 N 
ATOM     20  N   UNL     1      -0.436   5.453  -2.351  1.00  0.00    -0.181 NA
ATOM     21  C   UNL     1      -3.164   7.928  -2.594  1.00  0.00     0.066 C 
ATOM     22  C   UNL     1      -1.230   3.270  -3.298  1.00  0.00     0.069 C 
ATOM     23  H   UNL     1      -0.486   7.488  -1.749  1.00  0.00     0.190 HD
ENDBRANCH  15  16
ENDBRANCH  14  15
ENDBRANCH  13  14
ENDBRANCH   1  13
TORSDOF 7
ENDMDL
MODEL 6
REMARK VINA RESULT:    -4.591      3.955      7.041
REMARK INTER + INTRA:          -6.872
REMARK INTER:                  -6.004
REMARK INTRA:                  -0.868
REMARK UNBOUND:                -0.537
REMARK SMILES Cc1n[nH]c(C)c1CCCOc1cc(C(=O)O)ccc1F
REMARK SMILES IDX 11 1 12 2 14 3 18 4 13 5 19 6 20 7 21 8 15 9 16 10 17 11
REMARK SMILES IDX 10 13 9 14 8 15 7 16 5 17 2 18 4 19 3 20 6 21 1 22
REMARK H PARENT 17 12 4 23
ROOT
ATOM      1  O   UNL     1      -4.814   6.895  -5.460  1.00  0.00    -0.490 OA
ENDROOT
BRANCH   1   2
ATOM      2  C   UNL     1      -5.062   8.154  -5.910  1.00  0.00     0.155 A 
ATOM      3  C   UNL     1      -4.272  10.262  -6.756  1.00  0.00     0.063 A 
ATOM      4  C   UNL     1      -5.590  10.720  -6.834  1.00  0.00     0.019 A 
ATOM      5  C   UNL     1      -4.014   8.971  -6.290  1.00  0.00     0.065 A 
ATOM      6  C   UNL     1      -6.630   9.896  -6.458  1.00  0.00     0.044 A 
ATOM      7  C   UNL     1      -6.371   8.614  -6.001  1.00  0.00     0.165 A 
ATOM      8  F   UNL     1      -7.394   7.811  -5.633  1.00  0.00    -0.203 F 
BRANCH   3   9
ATOM      9  C   UNL     1      -3.157  11.141  -7.159  1.00  0.00     0.335 C 
ATOM     10  O   UNL     1      -3.382  12.166  -7.769  1.00  0.00    -0.246 OA
BRANCH   9  11
ATOM     11  O   UNL     1      -1.890  10.809  -6.843  1.00  0.00    -0.478 OA
ATOM     12  H   UNL     1      -1.199  11.070  -7.468  1.00  0.00     0.297 HD
ENDBRANCH   9  11
ENDBRANCH   3   9
ENDBRANCH   1   2
BRANCH   1  13
ATOM     13  C   UNL     1      -3.702   6.207  -6.038  1.00  0.00     0.230 C 
BRANCH  13  14
ATOM     14  C   UNL     1      -3.486   4.882  -5.305  1.00  0.00     0.046 C 
BRANCH  14  15
ATOM     15  C   UNL     1      -3.768   5.073  -3.813  1.00  0.00     0.043 C 
BRANCH  15  16
ATOM     16  C   UNL     1      -2.502   5.493  -3.112  1.00  0.00    -0.004 A 
ATOM     17  C   UNL     1      -1.413   4.718  -2.902  1.00  0.00     0.036 A 
ATOM     18  C   UNL     1      -2.242   6.756  -2.568  1.00  0.00     0.063 A 
ATOM     19  N   UNL     1      -0.499   5.461  -2.243  1.00  0.00    -0.282 N 
ATOM     20  N   UNL     1      -1.045   6.736  -2.041  1.00  0.00    -0.181 NA
ATOM     21  C   UNL     1      -1.250   3.282  -3.327  1.00  0.00     0.066 C 
ATOM     22  C   UNL     1      -3.184   7.933  -2.577  1.00  0.00     0.069 C 
ATOM     23  H   UNL     1       0.379   5.165  -1.958  1.00  0.00     0.190 HD
ENDBRANCH  15  16
ENDBRANCH  14  15
ENDBRANCH  13  14
ENDBRANCH   1  13
TORSDOF 7
ENDMDL
MODEL 7
REMARK VINA RESULT:    -4.502      4.975      7.992
REMARK INTER + INTRA:          -6.749
REMARK INTER:                  -6.077
REMARK INTRA:                  -0.672
REMARK UNBOUND:                -0.537
REMARK SMILES Cc1n[nH]c(C)c1CCCOc1cc(C(=O)O)ccc1F
REMARK SMILES IDX 11 1 12 2 14 3 18 4 13 5 19 6 20 7 21 8 15 9 16 10 17 11
REMARK SMILES IDX 10 13 9 14 8 15 7 16 5 17 2 18 4 19 3 20 6 21 1 22
REMARK H PARENT 17 12 4 23
ROOT
ATOM      1  O   UNL     1      -6.744   8.710  -6.420  1.00  0.00    -0.490 OA
ENDROOT
BRANCH   1   2
ATOM      2  C   UNL     1      -7.910   9.409  -6.446  1.00  0.00     0.155 A 
ATOM      3  C   UNL     1      -9.315  11.088  -7.439  1.00  0.00     0.063 A 
ATOM      4  C   UNL     1     -10.303  10.818  -6.489  1.00  0.00     0.019 A 
ATOM      5  C   UNL     1      -8.114  10.376  -7.412  1.00  0.00     0.065 A 
ATOM      6  C   UNL     1     -10.092   9.847  -5.533  1.00  0.00     0.044 A 
ATOM      7  C   UNL     1      -8.903   9.139  -5.511  1.00  0.00     0.165 A 
ATOM      8  F   UNL     1      -8.703   8.188  -4.571  1.00  0.00    -0.203 F 
BRANCH   3   9
ATOM      9  C   UNL     1      -9.537  12.127  -8.464  1.00  0.00     0.335 C 
ATOM     10  O   UNL     1     -10.503  12.858  -8.389  1.00  0.00    -0.246 OA
BRANCH   9  11
ATOM     11  O   UNL     1      -8.664  12.267  -9.481  1.00  0.00    -0.478 OA
ATOM     12  H   UNL     1      -9.023  12.553 -10.332  1.00  0.00     0.297 HD
ENDBRANCH   9  11
ENDBRANCH   3   9
ENDBRANCH   1   2
BRANCH   1  13
ATOM     13  C   UNL     1      -5.577   9.411  -5.983  1.00  0.00     0.230 C 
BRANCH  13  14
ATOM     14  C   UNL     1      -4.381   8.457  -5.980  1.00  0.00     0.046 C 
BRANCH  14  15
ATOM     15  C   UNL     1      -4.713   7.227  -5.133  1.00  0.00     0.043 C 
BRANCH  15  16
ATOM     16  C   UNL     1      -3.441   6.498  -4.784  1.00  0.00    -0.004 A 
ATOM     17  C   UNL     1      -2.735   6.633  -3.637  1.00  0.00     0.036 A 
ATOM     18  C   UNL     1      -2.785   5.558  -5.585  1.00  0.00     0.063 A 
ATOM     19  N   UNL     1      -1.666   5.812  -3.713  1.00  0.00    -0.282 N 
ATOM     20  N   UNL     1      -1.717   5.151  -4.947  1.00  0.00    -0.181 NA
ATOM     21  C   UNL     1      -3.081   7.536  -2.483  1.00  0.00     0.066 C 
ATOM     22  C   UNL     1      -3.224   5.101  -6.953  1.00  0.00     0.069 C 
ATOM     23  H   UNL     1      -0.984   5.700  -3.034  1.00  0.00     0.190 HD
ENDBRANCH  15  16
ENDBRANCH  14  15
ENDBRANCH  13  14
ENDBRANCH   1  13
TORSDOF 7
ENDMDL
MODEL 8
REMARK VINA RESULT:    -4.485      4.707      8.133
REMARK INTER + INTRA:          -6.726
REMARK INTER:                  -6.020
REMARK INTRA:                  -0.706
REMARK UNBOUND:                -0.537
REMARK SMILES Cc1n[nH]c(C)c1CCCOc1cc(C(=O)O)ccc1F
REMARK SMILES IDX 11 1 12 2 14 3 18 4 13 5 19 6 20 7 21 8 15 9 16 10 17 11
REMARK SMILES IDX 10 13 9 14 8 15 7 16 5 17 2 18 4 19 3 20 6 21 1 22
REMARK H PARENT 17 12 4 23
ROOT
ATOM      1  O   UNL     1      -3.849  10.461  -6.272  1.00  0.00    -0.490 OA
ENDROOT
BRANCH   1   2
ATOM      2  C   UNL     1      -3.710  11.531  -7.100  1.00  0.00     0.155 A 
ATOM      3  C   UNL     1      -4.533  13.614  -7.976  1.00  0.00     0.063 A 
ATOM      4  C   UNL     1      -3.402  13.714  -8.791  1.00  0.00     0.019 A 
ATOM      5  C   UNL     1      -4.682  12.514  -7.129  1.00  0.00     0.065 A 
ATOM      6  C   UNL     1      -2.435  12.731  -8.751  1.00  0.00     0.044 A 
ATOM      7  C   UNL     1      -2.582  11.644  -7.906  1.00  0.00     0.165 A 
ATOM      8  F   UNL     1      -1.631  10.685  -7.871  1.00  0.00    -0.203 F 
BRANCH   3   9
ATOM      9  C   UNL     1      -5.569  14.664  -8.016  1.00  0.00     0.335 C 
ATOM     10  O   UNL     1      -5.577  15.476  -8.918  1.00  0.00    -0.246 OA
BRANCH   9  11
ATOM     11  O   UNL     1      -6.512  14.716  -7.054  1.00  0.00    -0.478 OA
ATOM     12  H   UNL     1      -6.332  14.232  -6.236  1.00  0.00     0.297 HD
ENDBRANCH   9  11
ENDBRANCH   3   9
ENDBRANCH   1   2
BRANCH   1  13
ATOM     13  C   UNL     1      -5.030   9.670  -6.428  1.00  0.00     0.230 C 
BRANCH  13  14
ATOM     14  C   UNL     1      -4.917   8.412  -5.565  1.00  0.00     0.046 C 
BRANCH  14  15
ATOM     15  C   UNL     1      -3.447   8.007  -5.442  1.00  0.00     0.043 C 
BRANCH  15  16
ATOM     16  C   UNL     1      -3.349   6.671  -4.752  1.00  0.00    -0.004 A 
ATOM     17  C   UNL     1      -3.253   6.470  -3.417  1.00  0.00     0.036 A 
ATOM     18  C   UNL     1      -3.347   5.420  -5.377  1.00  0.00     0.063 A 
ATOM     19  N   UNL     1      -3.187   5.139  -3.206  1.00  0.00    -0.282 N 
ATOM     20  N   UNL     1      -3.243   4.501  -4.452  1.00  0.00    -0.181 NA
ATOM     21  C   UNL     1      -3.227   7.540  -2.358  1.00  0.00     0.066 C 
ATOM     22  C   UNL     1      -3.437   5.173  -6.862  1.00  0.00     0.069 C 
ATOM     23  H   UNL     1      -3.112   4.701  -2.344  1.00  0.00     0.190 HD
ENDBRANCH  15  16
ENDBRANCH  14  15
ENDBRANCH  13  14
ENDBRANCH   1  13
TORSDOF 7
ENDMDL
MODEL 9
REMARK VINA RESULT:    -4.334      4.064      6.801
REMARK INTER + INTRA:          -6.517
REMARK INTER:                  -6.161
REMARK INTRA:                  -0.357
REMARK UNBOUND:                -0.537
REMARK SMILES Cc1n[nH]c(C)c1CCCOc1cc(C(=O)O)ccc1F
REMARK SMILES IDX 11 1 12 2 14 3 18 4 13 5 19 6 20 7 21 8 15 9 16 10 17 11
REMARK SMILES IDX 10 13 9 14 8 15 7 16 5 17 2 18 4 19 3 20 6 21 1 22
REMARK H PARENT 17 12 4 23
ROOT
ATOM      1  O   UNL     1      -3.364   8.493  -4.748  1.00  0.00    -0.490 OA
ENDROOT
BRANCH   1   2
ATOM      2  C   UNL     1      -4.313   9.153  -5.464  1.00  0.00     0.155 A 
ATOM      3  C   UNL     1      -6.605   9.428  -6.137  1.00  0.00     0.063 A 
ATOM      4  C   UNL     1      -6.238  10.522  -6.926  1.00  0.00     0.019 A 
ATOM      5  C   UNL     1      -5.633   8.745  -5.404  1.00  0.00     0.065 A 
ATOM      6  C   UNL     1      -4.921  10.926  -6.974  1.00  0.00     0.044 A 
ATOM      7  C   UNL     1      -3.959  10.249  -6.243  1.00  0.00     0.165 A 
ATOM      8  F   UNL     1      -2.669  10.650  -6.294  1.00  0.00    -0.203 F 
BRANCH   3   9
ATOM      9  C   UNL     1      -8.015   8.994  -6.083  1.00  0.00     0.335 C 
ATOM     10  O   UNL     1      -8.880   9.670  -6.601  1.00  0.00    -0.246 OA
BRANCH   9  11
ATOM     11  O   UNL     1      -8.341   7.842  -5.463  1.00  0.00    -0.478 OA
ATOM     12  H   UNL     1      -9.045   7.883  -4.801  1.00  0.00     0.297 HD
ENDBRANCH   9  11
ENDBRANCH   3   9
ENDBRANCH   1   2
BRANCH   1  13
ATOM     13  C   UNL     1      -3.628   8.285  -3.358  1.00  0.00     0.230 C 
BRANCH  13  14
ATOM     14  C   UNL     1      -3.593   6.787  -3.052  1.00  0.00     0.046 C 
BRANCH  14  15
ATOM     15  C   UNL     1      -3.020   6.034  -4.255  1.00  0.00     0.043 C 
BRANCH  15  16
ATOM     16  C   UNL     1      -2.228   4.846  -3.775  1.00  0.00    -0.004 A 
ATOM     17  C   UNL     1      -2.550   3.545  -3.963  1.00  0.00     0.036 A 
ATOM     18  C   UNL     1      -1.025   4.892  -3.062  1.00  0.00     0.063 A 
ATOM     19  N   UNL     1      -1.589   2.795  -3.383  1.00  0.00    -0.282 N 
ATOM     20  N   UNL     1      -0.645   3.664  -2.820  1.00  0.00    -0.181 NA
ATOM     21  C   UNL     1      -3.764   3.027  -4.689  1.00  0.00     0.066 C 
ATOM     22  C   UNL     1      -0.299   6.142  -2.634  1.00  0.00     0.069 C 
ATOM     23  H   UNL     1      -1.558   1.826  -3.359  1.00  0.00     0.190 HD
ENDBRANCH  15  16
ENDBRANCH  14  15
ENDBRANCH  13  14
ENDBRANCH   1  13
TORSDOF 7
ENDMDL
