MODEL 1
REMARK VINA RESULT:    -3.950      0.000      0.000
REMARK INTER + INTRA:          -4.810
REMARK INTER:                  -4.527
REMARK INTRA:                  -0.283
REMARK UNBOUND:                -0.283
REMARK SMILES O=C(O)c1ccc2nc(-c3cc(Cl)cc(Cl)c3)oc2c1
REMARK SMILES IDX 5 1 6 2 20 3 8 4 18 5 4 6 9 7 7 8 19 9 2 10 1 11 3 12 10 14
REMARK SMILES IDX 11 15 17 16 12 17 15 18 14 19 13 20 16 21
REMARK H PARENT 3 13
ROOT
ATOM      1  C   UNL     1       2.283   6.196 -15.368  1.00  0.00     0.018 A 
ATOM      2  C   UNL     1       1.365   5.197 -15.231  1.00  0.00     0.033 A 
ATOM      3  C   UNL     1       3.150   5.736 -13.151  1.00  0.00     0.065 A 
ATOM      4  N   UNL     1       0.543   3.423 -13.631  1.00  0.00    -0.209 NA
ATOM      5  O   UNL     1       1.933   3.853 -12.014  1.00  0.00    -0.436 OA
ATOM      6  C   UNL     1       3.186   6.476 -14.334  1.00  0.00     0.063 A 
ATOM      7  C   UNL     1       0.913   3.075 -12.424  1.00  0.00     0.227 A 
ATOM      8  C   UNL     1       1.318   4.447 -14.050  1.00  0.00     0.110 A 
ATOM      9  C   UNL     1       2.218   4.725 -13.005  1.00  0.00     0.156 A 
ENDROOT
BRANCH   6  10
ATOM     10  C   UNL     1       4.178   7.555 -14.496  1.00  0.00     0.335 C 
ATOM     11  O   UNL     1       5.266   7.311 -14.977  1.00  0.00    -0.246 OA
BRANCH  10  12
ATOM     12  O   UNL     1       3.878   8.811 -14.109  1.00  0.00    -0.478 OA
ATOM     13  H   UNL     1       4.444   9.520 -14.443  1.00  0.00     0.297 HD
ENDBRANCH  10  12
ENDBRANCH   6  10
BRANCH   7  14
ATOM     14  C   UNL     1       0.301   1.990 -11.629  1.00  0.00     0.040 A 
ATOM     15  C   UNL     1       0.193   2.111 -10.244  1.00  0.00     0.034 A 
ATOM     16  C   UNL     1      -0.172   0.839 -12.263  1.00  0.00     0.034 A 
ATOM     17  C   UNL     1      -0.382   1.094  -9.507  1.00  0.00     0.043 A 
ATOM     18  C   UNL     1      -0.744  -0.170 -11.516  1.00  0.00     0.043 A 
ATOM     19  C   UNL     1      -0.849  -0.045 -10.142  1.00  0.00     0.041 A 
ATOM     20  Cl  UNL     1      -0.518   1.242  -7.783  1.00  0.00    -0.084 Cl
ATOM     21  Cl  UNL     1      -1.333  -1.603 -12.303  1.00  0.00    -0.084 Cl
ENDBRANCH   7  14
TORSDOF 3
ENDMDL
MODEL 2
REMARK VINA RESULT:    -3.949      0.023      2.020
REMARK INTER + INTRA:          -4.809
REMARK INTER:                  -4.526
REMARK INTRA:                  -0.283
REMARK UNBOUND:                -0.283
REMARK SMILES O=C(O)c1ccc2nc(-c3cc(Cl)cc(Cl)c3)oc2c1
REMARK SMILES IDX 5 1 6 2 20 3 8 4 18 5 4 6 9 7 7 8 19 9 2 10 1 11 3 12 10 14
REMARK SMILES IDX 11 15 17 16 12 17 15 18 14 19 13 20 16 21
REMARK H PARENT 3 13
ROOT
ATOM      1  C   UNL     1       2.277   6.180 -15.371  1.00  0.00     0.018 A 
ATOM      2  C   UNL     1       1.361   5.180 -15.234  1.00  0.00     0.033 A 
ATOM      3  C   UNL     1       3.144   5.722 -13.153  1.00  0.00     0.065 A 
ATOM      4  N   UNL     1       0.541   3.405 -13.635  1.00  0.00    -0.209 NA
ATOM      5  O   UNL     1       1.930   3.837 -12.017  1.00  0.00    -0.436 OA
ATOM      6  C   UNL     1       3.180   6.463 -14.336  1.00  0.00     0.063 A 
ATOM      7  C   UNL     1       0.912   3.058 -12.427  1.00  0.00     0.227 A 
ATOM      8  C   UNL     1       1.315   4.430 -14.053  1.00  0.00     0.110 A 
ATOM      9  C   UNL     1       2.213   4.710 -13.009  1.00  0.00     0.156 A 
ENDROOT
BRANCH   6  10
ATOM     10  C   UNL     1       4.170   7.543 -14.498  1.00  0.00     0.335 C 
ATOM     11  O   UNL     1       5.270   7.295 -14.949  1.00  0.00    -0.246 OA
BRANCH  10  12
ATOM     12  O   UNL     1       3.855   8.805 -14.145  1.00  0.00    -0.478 OA
ATOM     13  H   UNL     1       4.244   9.142 -13.327  1.00  0.00     0.297 HD
ENDBRANCH  10  12
ENDBRANCH   6  10
BRANCH   7  14
ATOM     14  C   UNL     1       0.300   1.972 -11.633  1.00  0.00     0.040 A 
ATOM     15  C   UNL     1      -0.162   0.817 -12.264  1.00  0.00     0.034 A 
ATOM     16  C   UNL     1       0.182   2.099 -10.248  1.00  0.00     0.034 A 
ATOM     17  C   UNL     1      -0.731  -0.195 -11.517  1.00  0.00     0.043 A 
ATOM     18  C   UNL     1      -0.389   1.081  -9.511  1.00  0.00     0.043 A 
ATOM     19  C   UNL     1      -0.845  -0.063 -10.143  1.00  0.00     0.041 A 
ATOM     20  Cl  UNL     1      -1.307  -1.633 -12.299  1.00  0.00    -0.084 Cl
ATOM     21  Cl  UNL     1      -0.536   1.236  -7.788  1.00  0.00    -0.084 Cl
ENDBRANCH   7  14
TORSDOF 3
ENDMDL
MODEL 3
REMARK VINA RESULT:    -3.932      5.489      8.356
REMARK INTER + INTRA:          -4.790
REMARK INTER:                  -4.506
REMARK INTRA:                  -0.284
REMARK UNBOUND:                -0.283
REMARK SMILES O=C(O)c1ccc2nc(-c3cc(Cl)cc(Cl)c3)oc2c1
REMARK SMILES IDX 5 1 6 2 20 3 8 4 18 5 4 6 9 7 7 8 19 9 2 10 1 11 3 12 10 14
REMARK SMILES IDX 11 15 17 16 12 17 15 18 14 19 13 20 16 21
REMARK H PARENT 3 13
ROOT
ATOM      1  C   UNL     1      -1.851  -2.830 -17.084  1.00  0.00     0.018 A 
ATOM      2  C   UNL     1      -0.990  -1.952 -16.498  1.00  0.00     0.033 A 
ATOM      3  C   UNL     1      -3.092  -3.033 -15.011  1.00  0.00     0.065 A 
ATOM      4  N   UNL     1      -0.485  -0.774 -14.321  1.00  0.00    -0.209 NA
ATOM      5  O   UNL     1      -2.123  -1.624 -13.168  1.00  0.00    -0.436 OA
ATOM      6  C   UNL     1      -2.912  -3.379 -16.351  1.00  0.00     0.063 A 
ATOM      7  C   UNL     1      -1.062  -0.795 -13.145  1.00  0.00     0.227 A 
ATOM      8  C   UNL     1      -1.158  -1.596 -15.155  1.00  0.00     0.110 A 
ATOM      9  C   UNL     1      -2.217  -2.146 -14.411  1.00  0.00     0.156 A 
ENDROOT
BRANCH   6  10
ATOM     10  C   UNL     1      -3.842  -4.323 -16.998  1.00  0.00     0.335 C 
ATOM     11  O   UNL     1      -4.922  -3.935 -17.396  1.00  0.00    -0.246 OA
BRANCH  10  12
ATOM     12  O   UNL     1      -3.494  -5.617 -17.146  1.00  0.00    -0.478 OA
ATOM     13  H   UNL     1      -2.911  -5.833 -17.886  1.00  0.00     0.297 HD
ENDBRANCH  10  12
ENDBRANCH   6  10
BRANCH   7  14
ATOM     14  C   UNL     1      -0.614  -0.022 -11.968  1.00  0.00     0.040 A 
ATOM     15  C   UNL     1      -0.710  -0.574 -10.690  1.00  0.00     0.034 A 
ATOM     16  C   UNL     1      -0.094   1.263 -12.130  1.00  0.00     0.034 A 
ATOM     17  C   UNL     1      -0.289   0.153  -9.594  1.00  0.00     0.043 A 
ATOM     18  C   UNL     1       0.324   1.980 -11.027  1.00  0.00     0.043 A 
ATOM     19  C   UNL     1       0.226   1.427  -9.761  1.00  0.00     0.041 A 
ATOM     20  Cl  UNL     1      -0.406  -0.532  -8.003  1.00  0.00    -0.084 Cl
ATOM     21  Cl  UNL     1       0.972   3.578 -11.226  1.00  0.00    -0.084 Cl
ENDBRANCH   7  14
TORSDOF 3
ENDMDL
MODEL 4
REMARK VINA RESULT:    -3.928      5.490      8.367
REMARK INTER + INTRA:          -4.786
REMARK INTER:                  -4.502
REMARK INTRA:                  -0.283
REMARK UNBOUND:                -0.283
REMARK SMILES O=C(O)c1ccc2nc(-c3cc(Cl)cc(Cl)c3)oc2c1
REMARK SMILES IDX 5 1 6 2 20 3 8 4 18 5 4 6 9 7 7 8 19 9 2 10 1 11 3 12 10 14
REMARK SMILES IDX 11 15 17 16 12 17 15 18 14 19 13 20 16 21
REMARK H PARENT 3 13
ROOT
ATOM      1  C   UNL     1      -1.846  -2.828 -17.080  1.00  0.00     0.018 A 
ATOM      2  C   UNL     1      -0.984  -1.950 -16.493  1.00  0.00     0.033 A 
ATOM      3  C   UNL     1      -3.090  -3.029 -15.009  1.00  0.00     0.065 A 
ATOM      4  N   UNL     1      -0.483  -0.772 -14.316  1.00  0.00    -0.209 NA
ATOM      5  O   UNL     1      -2.123  -1.620 -13.165  1.00  0.00    -0.436 OA
ATOM      6  C   UNL     1      -2.909  -3.376 -16.348  1.00  0.00     0.063 A 
ATOM      7  C   UNL     1      -1.062  -0.792 -13.141  1.00  0.00     0.227 A 
ATOM      8  C   UNL     1      -1.155  -1.593 -15.150  1.00  0.00     0.110 A 
ATOM      9  C   UNL     1      -2.215  -2.143 -14.408  1.00  0.00     0.156 A 
ENDROOT
BRANCH   6  10
ATOM     10  C   UNL     1      -3.837  -4.320 -16.996  1.00  0.00     0.335 C 
ATOM     11  O   UNL     1      -4.925  -3.936 -17.378  1.00  0.00    -0.246 OA
BRANCH  10  12
ATOM     12  O   UNL     1      -3.481  -5.609 -17.163  1.00  0.00    -0.478 OA
ATOM     13  H   UNL     1      -2.776  -5.947 -16.596  1.00  0.00     0.297 HD
ENDBRANCH  10  12
ENDBRANCH   6  10
BRANCH   7  14
ATOM     14  C   UNL     1      -0.615  -0.019 -11.963  1.00  0.00     0.040 A 
ATOM     15  C   UNL     1      -0.098   1.267 -12.123  1.00  0.00     0.034 A 
ATOM     16  C   UNL     1      -0.708  -0.574 -10.685  1.00  0.00     0.034 A 
ATOM     17  C   UNL     1       0.317   1.984 -11.018  1.00  0.00     0.043 A 
ATOM     18  C   UNL     1      -0.290   0.153  -9.588  1.00  0.00     0.043 A 
ATOM     19  C   UNL     1       0.222   1.428  -9.754  1.00  0.00     0.041 A 
ATOM     20  Cl  UNL     1       0.960   3.584 -11.215  1.00  0.00    -0.084 Cl
ATOM     21  Cl  UNL     1      -0.405  -0.535  -7.998  1.00  0.00    -0.084 Cl
ENDBRANCH   7  14
TORSDOF 3
ENDMDL
MODEL 5
REMARK VINA RESULT:    -3.897      5.155      6.780
REMARK INTER + INTRA:          -4.749
REMARK INTER:                  -4.454
REMARK INTRA:                  -0.296
REMARK UNBOUND:                -0.283
REMARK SMILES O=C(O)c1ccc2nc(-c3cc(Cl)cc(Cl)c3)oc2c1
REMARK SMILES IDX 5 1 6 2 20 3 8 4 18 5 4 6 9 7 7 8 19 9 2 10 1 11 3 12 10 14
REMARK SMILES IDX 11 15 17 16 12 17 15 18 14 19 13 20 16 21
REMARK H PARENT 3 13
ROOT
ATOM      1  C   UNL     1       0.009   1.200 -13.076  1.00  0.00     0.018 A 
ATOM      2  C   UNL     1       0.053   1.796 -11.851  1.00  0.00     0.033 A 
ATOM      3  C   UNL     1      -0.598  -0.913 -12.052  1.00  0.00     0.065 A 
ATOM      4  N   UNL     1      -0.259   1.354  -9.383  1.00  0.00    -0.209 NA
ATOM      5  O   UNL     1      -0.761  -0.756  -9.548  1.00  0.00    -0.436 OA
ATOM      6  C   UNL     1      -0.319  -0.158 -13.192  1.00  0.00     0.063 A 
ATOM      7  C   UNL     1      -0.578   0.279  -8.707  1.00  0.00     0.227 A 
ATOM      8  C   UNL     1      -0.225   1.051 -10.698  1.00  0.00     0.110 A 
ATOM      9  C   UNL     1      -0.549  -0.313 -10.807  1.00  0.00     0.156 A 
ENDROOT
BRANCH   6  10
ATOM     10  C   UNL     1      -0.370  -0.790 -14.523  1.00  0.00     0.335 C 
ATOM     11  O   UNL     1      -0.709  -1.952 -14.631  1.00  0.00    -0.246 OA
BRANCH  10  12
ATOM     12  O   UNL     1      -0.040  -0.080 -15.620  1.00  0.00    -0.478 OA
ATOM     13  H   UNL     1       0.093  -0.575 -16.440  1.00  0.00     0.297 HD
ENDBRANCH  10  12
ENDBRANCH   6  10
BRANCH   7  14
ATOM     14  C   UNL     1      -0.715   0.213  -7.237  1.00  0.00     0.040 A 
ATOM     15  C   UNL     1      -0.487  -0.989  -6.565  1.00  0.00     0.034 A 
ATOM     16  C   UNL     1      -1.075   1.353  -6.515  1.00  0.00     0.034 A 
ATOM     17  C   UNL     1      -0.616  -1.044  -5.191  1.00  0.00     0.043 A 
ATOM     18  C   UNL     1      -1.201   1.285  -5.142  1.00  0.00     0.043 A 
ATOM     19  C   UNL     1      -0.974   0.090  -4.481  1.00  0.00     0.041 A 
ATOM     20  Cl  UNL     1      -0.332  -2.537  -4.353  1.00  0.00    -0.084 Cl
ATOM     21  Cl  UNL     1      -1.649   2.701  -4.242  1.00  0.00    -0.084 Cl
ENDBRANCH   7  14
TORSDOF 3
ENDMDL
MODEL 6
REMARK VINA RESULT:    -3.888      5.158      6.634
REMARK INTER + INTRA:          -4.740
REMARK INTER:                  -4.444
REMARK INTRA:                  -0.296
REMARK UNBOUND:                -0.283
REMARK SMILES O=C(O)c1ccc2nc(-c3cc(Cl)cc(Cl)c3)oc2c1
REMARK SMILES IDX 5 1 6 2 20 3 8 4 18 5 4 6 9 7 7 8 19 9 2 10 1 11 3 12 10 14
REMARK SMILES IDX 11 15 17 16 12 17 15 18 14 19 13 20 16 21
REMARK H PARENT 3 13
ROOT
ATOM      1  C   UNL     1       0.004   1.197 -13.074  1.00  0.00     0.018 A 
ATOM      2  C   UNL     1       0.049   1.793 -11.849  1.00  0.00     0.033 A 
ATOM      3  C   UNL     1      -0.598  -0.916 -12.049  1.00  0.00     0.065 A 
ATOM      4  N   UNL     1      -0.260   1.352  -9.381  1.00  0.00    -0.209 NA
ATOM      5  O   UNL     1      -0.758  -0.760  -9.545  1.00  0.00    -0.436 OA
ATOM      6  C   UNL     1      -0.321  -0.162 -13.190  1.00  0.00     0.063 A 
ATOM      7  C   UNL     1      -0.576   0.276  -8.704  1.00  0.00     0.227 A 
ATOM      8  C   UNL     1      -0.226   1.048 -10.696  1.00  0.00     0.110 A 
ATOM      9  C   UNL     1      -0.548  -0.316 -10.804  1.00  0.00     0.156 A 
ENDROOT
BRANCH   6  10
ATOM     10  C   UNL     1      -0.372  -0.794 -14.520  1.00  0.00     0.335 C 
ATOM     11  O   UNL     1      -0.715  -1.955 -14.628  1.00  0.00    -0.246 OA
BRANCH  10  12
ATOM     12  O   UNL     1      -0.038  -0.086 -15.617  1.00  0.00    -0.478 OA
ATOM     13  H   UNL     1       0.134  -0.585 -16.427  1.00  0.00     0.297 HD
ENDBRANCH  10  12
ENDBRANCH   6  10
BRANCH   7  14
ATOM     14  C   UNL     1      -0.712   0.210  -7.234  1.00  0.00     0.040 A 
ATOM     15  C   UNL     1      -1.071   1.348  -6.511  1.00  0.00     0.034 A 
ATOM     16  C   UNL     1      -0.481  -0.993  -6.563  1.00  0.00     0.034 A 
ATOM     17  C   UNL     1      -1.197   1.279  -5.138  1.00  0.00     0.043 A 
ATOM     18  C   UNL     1      -0.611  -1.049  -5.190  1.00  0.00     0.043 A 
ATOM     19  C   UNL     1      -0.967   0.084  -4.478  1.00  0.00     0.041 A 
ATOM     20  Cl  UNL     1      -1.644   2.694  -4.237  1.00  0.00    -0.084 Cl
ATOM     21  Cl  UNL     1      -0.324  -2.543  -4.353  1.00  0.00    -0.084 Cl
ENDBRANCH   7  14
TORSDOF 3
ENDMDL
MODEL 7
REMARK VINA RESULT:    -3.876      3.676      5.470
REMARK INTER + INTRA:          -4.726
REMARK INTER:                  -4.429
REMARK INTRA:                  -0.296
REMARK UNBOUND:                -0.283
REMARK SMILES O=C(O)c1ccc2nc(-c3cc(Cl)cc(Cl)c3)oc2c1
REMARK SMILES IDX 5 1 6 2 20 3 8 4 18 5 4 6 9 7 7 8 19 9 2 10 1 11 3 12 10 14
REMARK SMILES IDX 11 15 17 16 12 17 15 18 14 19 13 20 16 21
REMARK H PARENT 3 13
ROOT
ATOM      1  C   UNL     1      -0.137   1.025 -13.088  1.00  0.00     0.018 A 
ATOM      2  C   UNL     1      -0.346   0.104 -12.106  1.00  0.00     0.033 A 
ATOM      3  C   UNL     1       0.225   2.751 -11.424  1.00  0.00     0.065 A 
ATOM      4  N   UNL     1      -0.431  -0.183  -9.598  1.00  0.00    -0.209 NA
ATOM      5  O   UNL     1       0.009   1.882  -9.074  1.00  0.00    -0.436 OA
ATOM      6  C   UNL     1       0.153   2.358 -12.761  1.00  0.00     0.063 A 
ATOM      7  C   UNL     1      -0.261   0.651  -8.602  1.00  0.00     0.227 A 
ATOM      8  C   UNL     1      -0.276   0.485 -10.761  1.00  0.00     0.110 A 
ATOM      9  C   UNL     1       0.009   1.820 -10.424  1.00  0.00     0.156 A 
ENDROOT
BRANCH   6  10
ATOM     10  C   UNL     1       0.383   3.345 -13.831  1.00  0.00     0.335 C 
ATOM     11  O   UNL     1       0.626   4.501 -13.549  1.00  0.00    -0.246 OA
BRANCH  10  12
ATOM     12  O   UNL     1       0.322   2.965 -15.123  1.00  0.00    -0.478 OA
ATOM     13  H   UNL     1       0.898   2.238 -15.395  1.00  0.00     0.297 HD
ENDBRANCH  10  12
ENDBRANCH   6  10
BRANCH   7  14
ATOM     14  C   UNL     1      -0.352   0.292  -7.172  1.00  0.00     0.040 A 
ATOM     15  C   UNL     1      -0.696   1.259  -6.227  1.00  0.00     0.034 A 
ATOM     16  C   UNL     1      -0.094  -1.017  -6.760  1.00  0.00     0.034 A 
ATOM     17  C   UNL     1      -0.781   0.917  -4.891  1.00  0.00     0.043 A 
ATOM     18  C   UNL     1      -0.182  -1.347  -5.423  1.00  0.00     0.043 A 
ATOM     19  C   UNL     1      -0.524  -0.383  -4.490  1.00  0.00     0.041 A 
ATOM     20  Cl  UNL     1      -1.210   2.118  -3.714  1.00  0.00    -0.084 Cl
ATOM     21  Cl  UNL     1       0.139  -2.975  -4.909  1.00  0.00    -0.084 Cl
ENDBRANCH   7  14
TORSDOF 3
ENDMDL
MODEL 8
REMARK VINA RESULT:    -3.874      3.673      5.702
REMARK INTER + INTRA:          -4.723
REMARK INTER:                  -4.427
REMARK INTRA:                  -0.296
REMARK UNBOUND:                -0.283
REMARK SMILES O=C(O)c1ccc2nc(-c3cc(Cl)cc(Cl)c3)oc2c1
REMARK SMILES IDX 5 1 6 2 20 3 8 4 18 5 4 6 9 7 7 8 19 9 2 10 1 11 3 12 10 14
REMARK SMILES IDX 11 15 17 16 12 17 15 18 14 19 13 20 16 21
REMARK H PARENT 3 13
ROOT
ATOM      1  C   UNL     1      -0.131   1.031 -13.088  1.00  0.00     0.018 A 
ATOM      2  C   UNL     1      -0.338   0.108 -12.107  1.00  0.00     0.033 A 
ATOM      3  C   UNL     1       0.225   2.757 -11.421  1.00  0.00     0.065 A 
ATOM      4  N   UNL     1      -0.427  -0.181  -9.599  1.00  0.00    -0.209 NA
ATOM      5  O   UNL     1       0.008   1.885  -9.073  1.00  0.00    -0.436 OA
ATOM      6  C   UNL     1       0.155   2.364 -12.759  1.00  0.00     0.063 A 
ATOM      7  C   UNL     1      -0.260   0.652  -8.602  1.00  0.00     0.227 A 
ATOM      8  C   UNL     1      -0.271   0.488 -10.761  1.00  0.00     0.110 A 
ATOM      9  C   UNL     1       0.010   1.824 -10.423  1.00  0.00     0.156 A 
ENDROOT
BRANCH   6  10
ATOM     10  C   UNL     1       0.384   3.353 -13.828  1.00  0.00     0.335 C 
ATOM     11  O   UNL     1       0.629   4.508 -13.544  1.00  0.00    -0.246 OA
BRANCH  10  12
ATOM     12  O   UNL     1       0.320   2.975 -15.120  1.00  0.00    -0.478 OA
ATOM     13  H   UNL     1       0.551   2.059 -15.322  1.00  0.00     0.297 HD
ENDBRANCH  10  12
ENDBRANCH   6  10
BRANCH   7  14
ATOM     14  C   UNL     1      -0.352   0.291  -7.172  1.00  0.00     0.040 A 
ATOM     15  C   UNL     1      -0.094  -1.017  -6.761  1.00  0.00     0.034 A 
ATOM     16  C   UNL     1      -0.699   1.259  -6.227  1.00  0.00     0.034 A 
ATOM     17  C   UNL     1      -0.181  -1.347  -5.423  1.00  0.00     0.043 A 
ATOM     18  C   UNL     1      -0.783   0.916  -4.892  1.00  0.00     0.043 A 
ATOM     19  C   UNL     1      -0.525  -0.383  -4.491  1.00  0.00     0.041 A 
ATOM     20  Cl  UNL     1       0.140  -2.974  -4.909  1.00  0.00    -0.084 Cl
ATOM     21  Cl  UNL     1      -1.214   2.118  -3.715  1.00  0.00    -0.084 Cl
ENDBRANCH   7  14
TORSDOF 3
ENDMDL
MODEL 9
REMARK VINA RESULT:    -3.766      5.280      9.001
REMARK INTER + INTRA:          -4.599
REMARK INTER:                  -4.302
REMARK INTRA:                  -0.298
REMARK UNBOUND:                -0.283
REMARK SMILES O=C(O)c1ccc2nc(-c3cc(Cl)cc(Cl)c3)oc2c1
REMARK SMILES IDX 5 1 6 2 20 3 8 4 18 5 4 6 9 7 7 8 19 9 2 10 1 11 3 12 10 14
REMARK SMILES IDX 11 15 17 16 12 17 15 18 14 19 13 20 16 21
REMARK H PARENT 3 13
ROOT
ATOM      1  C   UNL     1      -0.518   0.902  -4.604  1.00  0.00     0.018 A 
ATOM      2  C   UNL     1      -0.310   1.687  -5.699  1.00  0.00     0.033 A 
ATOM      3  C   UNL     1      -0.826  -1.039  -6.024  1.00  0.00     0.065 A 
ATOM      4  N   UNL     1      -0.198   1.634  -8.222  1.00  0.00    -0.209 NA
ATOM      5  O   UNL     1      -0.605  -0.489  -8.467  1.00  0.00    -0.436 OA
ATOM      6  C   UNL     1      -0.775  -0.468  -4.751  1.00  0.00     0.063 A 
ATOM      7  C   UNL     1      -0.345   0.672  -9.098  1.00  0.00     0.227 A 
ATOM      8  C   UNL     1      -0.358   1.126  -6.981  1.00  0.00     0.110 A 
ATOM      9  C   UNL     1      -0.621  -0.246  -7.137  1.00  0.00     0.156 A 
ENDROOT
BRANCH   6  10
ATOM     10  C   UNL     1      -0.992  -1.308  -3.559  1.00  0.00     0.335 C 
ATOM     11  O   UNL     1      -1.179  -0.789  -2.477  1.00  0.00    -0.246 OA
BRANCH  10  12
ATOM     12  O   UNL     1      -0.982  -2.651  -3.669  1.00  0.00    -0.478 OA
ATOM     13  H   UNL     1      -0.301  -3.040  -4.235  1.00  0.00     0.297 HD
ENDBRANCH  10  12
ENDBRANCH   6  10
BRANCH   7  14
ATOM     14  C   UNL     1      -0.242   0.836 -10.563  1.00  0.00     0.040 A 
ATOM     15  C   UNL     1      -0.480  -0.248 -11.409  1.00  0.00     0.034 A 
ATOM     16  C   UNL     1       0.095   2.078 -11.106  1.00  0.00     0.034 A 
ATOM     17  C   UNL     1      -0.383  -0.087 -12.777  1.00  0.00     0.043 A 
ATOM     18  C   UNL     1       0.189   2.226 -12.475  1.00  0.00     0.043 A 
ATOM     19  C   UNL     1      -0.048   1.147 -13.309  1.00  0.00     0.041 A 
ATOM     20  Cl  UNL     1      -0.679  -1.434 -13.831  1.00  0.00    -0.084 Cl
ATOM     21  Cl  UNL     1       0.607   3.769 -13.153  1.00  0.00    -0.084 Cl
ENDBRANCH   7  14
TORSDOF 3
ENDMDL
