MODEL 1
REMARK VINA RESULT:    -5.529      0.000      0.000
REMARK INTER + INTRA:          -8.222
REMARK INTER:                  -7.630
REMARK INTRA:                  -0.592
REMARK UNBOUND:                -0.592
REMARK SMILES Cc1n[nH]c(C)c1CCCOc1cc(C(=O)O)ccc1F
REMARK SMILES IDX 11 1 12 2 14 3 18 4 13 5 19 6 20 7 21 8 15 9 16 10 17 11
REMARK SMILES IDX 10 13 9 14 8 15 7 16 5 17 2 18 4 19 3 20 6 21 1 22
REMARK H PARENT 17 12 4 23
ROOT
ATOM      1  O   UNL     1      -2.788   0.769  -7.494  1.00  0.00    -0.490 OA
ENDROOT
BRANCH   1   2
ATOM      2  C   UNL     1      -1.969   0.404  -6.471  1.00  0.00     0.155 A 
ATOM      3  C   UNL     1      -0.484  -1.189  -5.452  1.00  0.00     0.063 A 
ATOM      4  C   UNL     1      -0.294  -0.318  -4.376  1.00  0.00     0.019 A 
ATOM      5  C   UNL     1      -1.328  -0.820  -6.502  1.00  0.00     0.065 A 
ATOM      6  C   UNL     1      -0.934   0.903  -4.357  1.00  0.00     0.044 A 
ATOM      7  C   UNL     1      -1.766   1.269  -5.402  1.00  0.00     0.165 A 
ATOM      8  F   UNL     1      -2.390   2.468  -5.377  1.00  0.00    -0.203 F 
BRANCH   3   9
ATOM      9  C   UNL     1       0.199  -2.497  -5.476  1.00  0.00     0.335 C 
ATOM     10  O   UNL     1      -0.226  -3.393  -6.177  1.00  0.00    -0.246 OA
BRANCH   9  11
ATOM     11  O   UNL     1       1.300  -2.696  -4.725  1.00  0.00    -0.478 OA
ATOM     12  H   UNL     1       1.698  -1.915  -4.314  1.00  0.00     0.297 HD
ENDBRANCH   9  11
ENDBRANCH   3   9
ENDBRANCH   1   2
BRANCH   1  13
ATOM     13  C   UNL     1      -2.318   1.803  -8.362  1.00  0.00     0.230 C 
BRANCH  13  14
ATOM     14  C   UNL     1      -2.096   1.230  -9.763  1.00  0.00     0.046 C 
BRANCH  14  15
ATOM     15  C   UNL     1      -0.599   1.008  -9.991  1.00  0.00     0.043 C 
BRANCH  15  16
ATOM     16  C   UNL     1      -0.289   1.139 -11.459  1.00  0.00    -0.004 A 
ATOM     17  C   UNL     1      -0.408   0.162 -12.389  1.00  0.00     0.036 A 
ATOM     18  C   UNL     1       0.166   2.293 -12.105  1.00  0.00     0.063 A 
ATOM     19  N   UNL     1      -0.035   0.679 -13.579  1.00  0.00    -0.282 N 
ATOM     20  N   UNL     1       0.326   2.017 -13.373  1.00  0.00    -0.181 NA
ATOM     21  C   UNL     1      -0.874  -1.248 -12.140  1.00  0.00     0.066 C 
ATOM     22  C   UNL     1       0.439   3.623 -11.449  1.00  0.00     0.069 C 
ATOM     23  H   UNL     1      -0.018   0.207 -14.425  1.00  0.00     0.190 HD
ENDBRANCH  15  16
ENDBRANCH  14  15
ENDBRANCH  13  14
ENDBRANCH   1  13
TORSDOF 7
ENDMDL
MODEL 2
REMARK VINA RESULT:    -5.528      2.263      3.881
REMARK INTER + INTRA:          -8.220
REMARK INTER:                  -7.605
REMARK INTRA:                  -0.616
REMARK UNBOUND:                -0.592
REMARK SMILES Cc1n[nH]c(C)c1CCCOc1cc(C(=O)O)ccc1F
REMARK SMILES IDX 11 1 12 2 14 3 18 4 13 5 19 6 20 7 21 8 15 9 16 10 17 11
REMARK SMILES IDX 10 13 9 14 8 15 7 16 5 17 2 18 4 19 3 20 6 21 1 22
REMARK H PARENT 17 12 4 23
ROOT
ATOM      1  O   UNL     1       1.789  -0.231  -7.263  1.00  0.00    -0.490 OA
ENDROOT
BRANCH   1   2
ATOM      2  C   UNL     1       0.810  -0.159  -6.322  1.00  0.00     0.155 A 
ATOM      3  C   UNL     1      -0.850   1.107  -5.129  1.00  0.00     0.063 A 
ATOM      4  C   UNL     1      -1.194  -0.036  -4.402  1.00  0.00     0.019 A 
ATOM      5  C   UNL     1       0.158   1.038  -6.093  1.00  0.00     0.065 A 
ATOM      6  C   UNL     1      -0.542  -1.227  -4.642  1.00  0.00     0.044 A 
ATOM      7  C   UNL     1       0.455  -1.294  -5.601  1.00  0.00     0.165 A 
ATOM      8  F   UNL     1       1.090  -2.465  -5.831  1.00  0.00    -0.203 F 
BRANCH   3   9
ATOM      9  C   UNL     1      -1.546   2.383  -4.876  1.00  0.00     0.335 C 
ATOM     10  O   UNL     1      -1.030   3.432  -5.202  1.00  0.00    -0.246 OA
BRANCH   9  11
ATOM     11  O   UNL     1      -2.758   2.384  -4.287  1.00  0.00    -0.478 OA
ATOM     12  H   UNL     1      -2.796   2.116  -3.358  1.00  0.00     0.297 HD
ENDBRANCH   9  11
ENDBRANCH   3   9
ENDBRANCH   1   2
BRANCH   1  13
ATOM     13  C   UNL     1       1.471  -0.912  -8.479  1.00  0.00     0.230 C 
BRANCH  13  14
ATOM     14  C   UNL     1       1.454   0.090  -9.634  1.00  0.00     0.046 C 
BRANCH  14  15
ATOM     15  C   UNL     1       0.006   0.402 -10.018  1.00  0.00     0.043 C 
BRANCH  15  16
ATOM     16  C   UNL     1      -0.068   0.712 -11.490  1.00  0.00    -0.004 A 
ATOM     17  C   UNL     1       0.161   1.917 -12.063  1.00  0.00     0.036 A 
ATOM     18  C   UNL     1      -0.381  -0.195 -12.508  1.00  0.00     0.063 A 
ATOM     19  N   UNL     1      -0.007   1.778 -13.395  1.00  0.00    -0.282 N 
ATOM     20  N   UNL     1      -0.351   0.444 -13.649  1.00  0.00    -0.181 NA
ATOM     21  C   UNL     1       0.538   3.185 -11.343  1.00  0.00     0.066 C 
ATOM     22  C   UNL     1      -0.709  -1.655 -12.320  1.00  0.00     0.069 C 
ATOM     23  H   UNL     1       0.093   2.478 -14.059  1.00  0.00     0.190 HD
ENDBRANCH  15  16
ENDBRANCH  14  15
ENDBRANCH  13  14
ENDBRANCH   1  13
TORSDOF 7
ENDMDL
MODEL 3
REMARK VINA RESULT:    -5.404      2.276      3.446
REMARK INTER + INTRA:          -8.050
REMARK INTER:                  -7.426
REMARK INTRA:                  -0.624
REMARK UNBOUND:                -0.592
REMARK SMILES Cc1n[nH]c(C)c1CCCOc1cc(C(=O)O)ccc1F
REMARK SMILES IDX 11 1 12 2 14 3 18 4 13 5 19 6 20 7 21 8 15 9 16 10 17 11
REMARK SMILES IDX 10 13 9 14 8 15 7 16 5 17 2 18 4 19 3 20 6 21 1 22
REMARK H PARENT 17 12 4 23
ROOT
ATOM      1  O   UNL     1       1.729  -0.160  -7.372  1.00  0.00    -0.490 OA
ENDROOT
BRANCH   1   2
ATOM      2  C   UNL     1       0.781  -0.107  -6.399  1.00  0.00     0.155 A 
ATOM      3  C   UNL     1      -0.863   1.128  -5.152  1.00  0.00     0.063 A 
ATOM      4  C   UNL     1      -1.161  -0.021  -4.414  1.00  0.00     0.019 A 
ATOM      5  C   UNL     1       0.114   1.078  -6.148  1.00  0.00     0.065 A 
ATOM      6  C   UNL     1      -0.494  -1.200  -4.676  1.00  0.00     0.044 A 
ATOM      7  C   UNL     1       0.471  -1.248  -5.668  1.00  0.00     0.165 A 
ATOM      8  F   UNL     1       1.120  -2.406  -5.919  1.00  0.00    -0.203 F 
BRANCH   3   9
ATOM      9  C   UNL     1      -1.574   2.391  -4.875  1.00  0.00     0.335 C 
ATOM     10  O   UNL     1      -1.062   3.453  -5.162  1.00  0.00    -0.246 OA
BRANCH   9  11
ATOM     11  O   UNL     1      -2.797   2.364  -4.308  1.00  0.00    -0.478 OA
ATOM     12  H   UNL     1      -2.984   3.035  -3.636  1.00  0.00     0.297 HD
ENDBRANCH   9  11
ENDBRANCH   3   9
ENDBRANCH   1   2
BRANCH   1  13
ATOM     13  C   UNL     1       1.389  -0.860  -8.572  1.00  0.00     0.230 C 
BRANCH  13  14
ATOM     14  C   UNL     1       1.394   0.116  -9.749  1.00  0.00     0.046 C 
BRANCH  14  15
ATOM     15  C   UNL     1      -0.046   0.410 -10.174  1.00  0.00     0.043 C 
BRANCH  15  16
ATOM     16  C   UNL     1      -0.095   0.637 -11.662  1.00  0.00    -0.004 A 
ATOM     17  C   UNL     1      -0.382  -0.295 -12.601  1.00  0.00     0.036 A 
ATOM     18  C   UNL     1       0.141   1.850 -12.319  1.00  0.00     0.063 A 
ATOM     19  N   UNL     1      -0.323   0.306 -13.809  1.00  0.00    -0.282 N 
ATOM     20  N   UNL     1       0.012   1.651 -13.605  1.00  0.00    -0.181 NA
ATOM     21  C   UNL     1      -0.709  -1.742 -12.344  1.00  0.00     0.066 C 
ATOM     22  C   UNL     1       0.496   3.158 -11.658  1.00  0.00     0.069 C 
ATOM     23  H   UNL     1      -0.482  -0.119 -14.665  1.00  0.00     0.190 HD
ENDBRANCH  15  16
ENDBRANCH  14  15
ENDBRANCH  13  14
ENDBRANCH   1  13
TORSDOF 7
ENDMDL
MODEL 4
REMARK VINA RESULT:    -4.391      9.103     11.263
REMARK INTER + INTRA:          -6.652
REMARK INTER:                  -4.913
REMARK INTRA:                  -1.739
REMARK UNBOUND:                -0.592
REMARK SMILES Cc1n[nH]c(C)c1CCCOc1cc(C(=O)O)ccc1F
REMARK SMILES IDX 11 1 12 2 14 3 18 4 13 5 19 6 20 7 21 8 15 9 16 10 17 11
REMARK SMILES IDX 10 13 9 14 8 15 7 16 5 17 2 18 4 19 3 20 6 21 1 22
REMARK H PARENT 17 12 4 23
ROOT
ATOM      1  O   UNL     1       2.808   7.927 -15.310  1.00  0.00    -0.490 OA
ENDROOT
BRANCH   1   2
ATOM      2  C   UNL     1       2.266   6.950 -16.085  1.00  0.00     0.155 A 
ATOM      3  C   UNL     1       1.058   4.881 -16.295  1.00  0.00     0.063 A 
ATOM      4  C   UNL     1       1.158   4.969 -17.686  1.00  0.00     0.019 A 
ATOM      5  C   UNL     1       1.618   5.880 -15.496  1.00  0.00     0.065 A 
ATOM      6  C   UNL     1       1.802   6.042 -18.265  1.00  0.00     0.044 A 
ATOM      7  C   UNL     1       2.352   7.034 -17.470  1.00  0.00     0.165 A 
ATOM      8  F   UNL     1       2.981   8.084 -18.043  1.00  0.00    -0.203 F 
BRANCH   3   9
ATOM      9  C   UNL     1       0.370   3.734 -15.673  1.00  0.00     0.335 C 
ATOM     10  O   UNL     1       0.683   3.369 -14.558  1.00  0.00    -0.246 OA
BRANCH   9  11
ATOM     11  O   UNL     1      -0.612   3.095 -16.340  1.00  0.00    -0.478 OA
ATOM     12  H   UNL     1      -0.445   2.881 -17.268  1.00  0.00     0.297 HD
ENDBRANCH   9  11
ENDBRANCH   3   9
ENDBRANCH   1   2
BRANCH   1  13
ATOM     13  C   UNL     1       3.981   7.590 -14.566  1.00  0.00     0.230 C 
BRANCH  13  14
ATOM     14  C   UNL     1       5.223   7.979 -15.370  1.00  0.00     0.046 C 
BRANCH  14  15
ATOM     15  C   UNL     1       6.275   6.874 -15.251  1.00  0.00     0.043 C 
BRANCH  15  16
ATOM     16  C   UNL     1       5.710   5.582 -15.781  1.00  0.00    -0.004 A 
ATOM     17  C   UNL     1       5.589   5.242 -17.086  1.00  0.00     0.036 A 
ATOM     18  C   UNL     1       5.222   4.520 -15.013  1.00  0.00     0.063 A 
ATOM     19  N   UNL     1       5.039   4.010 -17.140  1.00  0.00    -0.282 N 
ATOM     20  N   UNL     1       4.814   3.580 -15.826  1.00  0.00    -0.181 NA
ATOM     21  C   UNL     1       5.997   6.085 -18.265  1.00  0.00     0.066 C 
ATOM     22  C   UNL     1       5.166   4.472 -13.507  1.00  0.00     0.069 C 
ATOM     23  H   UNL     1       4.835   3.512 -17.946  1.00  0.00     0.190 HD
ENDBRANCH  15  16
ENDBRANCH  14  15
ENDBRANCH  13  14
ENDBRANCH   1  13
TORSDOF 7
ENDMDL
MODEL 5
REMARK VINA RESULT:    -4.389      3.802      6.544
REMARK INTER + INTRA:          -6.649
REMARK INTER:                  -5.826
REMARK INTRA:                  -0.823
REMARK UNBOUND:                -0.592
REMARK SMILES Cc1n[nH]c(C)c1CCCOc1cc(C(=O)O)ccc1F
REMARK SMILES IDX 11 1 12 2 14 3 18 4 13 5 19 6 20 7 21 8 15 9 16 10 17 11
REMARK SMILES IDX 10 13 9 14 8 15 7 16 5 17 2 18 4 19 3 20 6 21 1 22
REMARK H PARENT 17 12 4 23
ROOT
ATOM      1  O   UNL     1      -0.408   1.614  -8.766  1.00  0.00    -0.490 OA
ENDROOT
BRANCH   1   2
ATOM      2  C   UNL     1      -0.306   1.360 -10.098  1.00  0.00     0.155 A 
ATOM      3  C   UNL     1      -0.547  -0.139 -11.962  1.00  0.00     0.063 A 
ATOM      4  C   UNL     1      -0.099   0.866 -12.823  1.00  0.00     0.019 A 
ATOM      5  C   UNL     1      -0.649   0.116 -10.593  1.00  0.00     0.065 A 
ATOM      6  C   UNL     1       0.235   2.106 -12.321  1.00  0.00     0.044 A 
ATOM      7  C   UNL     1       0.129   2.358 -10.963  1.00  0.00     0.165 A 
ATOM      8  F   UNL     1       0.458   3.575 -10.477  1.00  0.00    -0.203 F 
BRANCH   3   9
ATOM      9  C   UNL     1      -0.907  -1.467 -12.497  1.00  0.00     0.335 C 
ATOM     10  O   UNL     1      -0.050  -2.313 -12.646  1.00  0.00    -0.246 OA
BRANCH   9  11
ATOM     11  O   UNL     1      -2.188  -1.741 -12.813  1.00  0.00    -0.478 OA
ATOM     12  H   UNL     1      -2.678  -1.057 -13.290  1.00  0.00     0.297 HD
ENDBRANCH   9  11
ENDBRANCH   3   9
ENDBRANCH   1   2
BRANCH   1  13
ATOM     13  C   UNL     1      -1.539   1.064  -8.086  1.00  0.00     0.230 C 
BRANCH  13  14
ATOM     14  C   UNL     1      -1.415   1.338  -6.586  1.00  0.00     0.046 C 
BRANCH  14  15
ATOM     15  C   UNL     1       0.048   1.194  -6.161  1.00  0.00     0.043 C 
BRANCH  15  16
ATOM     16  C   UNL     1       0.336  -0.246  -5.824  1.00  0.00    -0.004 A 
ATOM     17  C   UNL     1      -0.150  -0.927  -4.760  1.00  0.00     0.036 A 
ATOM     18  C   UNL     1       1.146  -1.118  -6.559  1.00  0.00     0.063 A 
ATOM     19  N   UNL     1       0.341  -2.183  -4.816  1.00  0.00    -0.282 N 
ATOM     20  N   UNL     1       1.156  -2.277  -5.952  1.00  0.00    -0.181 NA
ATOM     21  C   UNL     1      -1.074  -0.381  -3.703  1.00  0.00     0.066 C 
ATOM     22  C   UNL     1       1.890  -0.777  -7.825  1.00  0.00     0.069 C 
ATOM     23  H   UNL     1       0.162  -2.894  -4.182  1.00  0.00     0.190 HD
ENDBRANCH  15  16
ENDBRANCH  14  15
ENDBRANCH  13  14
ENDBRANCH   1  13
TORSDOF 7
ENDMDL
MODEL 6
REMARK VINA RESULT:    -4.385      3.960      7.069
REMARK INTER + INTRA:          -6.643
REMARK INTER:                  -5.798
REMARK INTRA:                  -0.846
REMARK UNBOUND:                -0.592
REMARK SMILES Cc1n[nH]c(C)c1CCCOc1cc(C(=O)O)ccc1F
REMARK SMILES IDX 11 1 12 2 14 3 18 4 13 5 19 6 20 7 21 8 15 9 16 10 17 11
REMARK SMILES IDX 10 13 9 14 8 15 7 16 5 17 2 18 4 19 3 20 6 21 1 22
REMARK H PARENT 17 12 4 23
ROOT
ATOM      1  O   UNL     1      -0.292  -0.477  -9.099  1.00  0.00    -0.490 OA
ENDROOT
BRANCH   1   2
ATOM      2  C   UNL     1      -0.204   0.161 -10.297  1.00  0.00     0.155 A 
ATOM      3  C   UNL     1       0.305   2.130 -11.580  1.00  0.00     0.063 A 
ATOM      4  C   UNL     1      -0.019   1.444 -12.754  1.00  0.00     0.019 A 
ATOM      5  C   UNL     1       0.210   1.479 -10.348  1.00  0.00     0.065 A 
ATOM      6  C   UNL     1      -0.425   0.127 -12.693  1.00  0.00     0.044 A 
ATOM      7  C   UNL     1      -0.514  -0.518 -11.470  1.00  0.00     0.165 A 
ATOM      8  F   UNL     1      -0.912  -1.808 -11.417  1.00  0.00    -0.203 F 
BRANCH   3   9
ATOM      9  C   UNL     1       0.740   3.539 -11.642  1.00  0.00     0.335 C 
ATOM     10  O   UNL     1       1.014   4.136 -10.621  1.00  0.00    -0.246 OA
BRANCH   9  11
ATOM     11  O   UNL     1       0.839   4.161 -12.834  1.00  0.00    -0.478 OA
ATOM     12  H   UNL     1       0.108   4.741 -13.089  1.00  0.00     0.297 HD
ENDBRANCH   9  11
ENDBRANCH   3   9
ENDBRANCH   1   2
BRANCH   1  13
ATOM     13  C   UNL     1       0.748  -0.225  -8.152  1.00  0.00     0.230 C 
BRANCH  13  14
ATOM     14  C   UNL     1       0.390  -0.880  -6.816  1.00  0.00     0.046 C 
BRANCH  14  15
ATOM     15  C   UNL     1      -1.130  -0.880  -6.640  1.00  0.00     0.043 C 
BRANCH  15  16
ATOM     16  C   UNL     1      -1.551   0.368  -5.908  1.00  0.00    -0.004 A 
ATOM     17  C   UNL     1      -1.292   0.658  -4.612  1.00  0.00     0.036 A 
ATOM     18  C   UNL     1      -2.275   1.436  -6.451  1.00  0.00     0.063 A 
ATOM     19  N   UNL     1      -1.837   1.862  -4.342  1.00  0.00    -0.282 N 
ATOM     20  N   UNL     1      -2.453   2.329  -5.511  1.00  0.00    -0.181 NA
ATOM     21  C   UNL     1      -0.530  -0.209  -3.644  1.00  0.00     0.066 C 
ATOM     22  C   UNL     1      -2.775   1.534  -7.870  1.00  0.00     0.069 C 
ATOM     23  H   UNL     1      -1.809   2.323  -3.490  1.00  0.00     0.190 HD
ENDBRANCH  15  16
ENDBRANCH  14  15
ENDBRANCH  13  14
ENDBRANCH   1  13
TORSDOF 7
ENDMDL
MODEL 7
REMARK VINA RESULT:    -4.264      9.643     11.483
REMARK INTER + INTRA:          -6.476
REMARK INTER:                  -5.094
REMARK INTRA:                  -1.382
REMARK UNBOUND:                -0.592
REMARK SMILES Cc1n[nH]c(C)c1CCCOc1cc(C(=O)O)ccc1F
REMARK SMILES IDX 11 1 12 2 14 3 18 4 13 5 19 6 20 7 21 8 15 9 16 10 17 11
REMARK SMILES IDX 10 13 9 14 8 15 7 16 5 17 2 18 4 19 3 20 6 21 1 22
REMARK H PARENT 17 12 4 23
ROOT
ATOM      1  O   UNL     1       2.362   6.729 -14.885  1.00  0.00    -0.490 OA
ENDROOT
BRANCH   1   2
ATOM      2  C   UNL     1       1.779   6.053 -15.910  1.00  0.00     0.155 A 
ATOM      3  C   UNL     1       0.587   4.134 -16.735  1.00  0.00     0.063 A 
ATOM      4  C   UNL     1       0.584   4.692 -18.016  1.00  0.00     0.019 A 
ATOM      5  C   UNL     1       1.190   4.823 -15.680  1.00  0.00     0.065 A 
ATOM      6  C   UNL     1       1.169   5.921 -18.234  1.00  0.00     0.044 A 
ATOM      7  C   UNL     1       1.761   6.605 -17.186  1.00  0.00     0.165 A 
ATOM      8  F   UNL     1       2.333   7.810 -17.406  1.00  0.00    -0.203 F 
BRANCH   3   9
ATOM      9  C   UNL     1      -0.038   2.818 -16.498  1.00  0.00     0.335 C 
ATOM     10  O   UNL     1       0.208   2.203 -15.480  1.00  0.00    -0.246 OA
BRANCH   9  11
ATOM     11  O   UNL     1      -0.887   2.303 -17.408  1.00  0.00    -0.478 OA
ATOM     12  H   UNL     1      -0.834   1.350 -17.568  1.00  0.00     0.297 HD
ENDBRANCH   9  11
ENDBRANCH   3   9
ENDBRANCH   1   2
BRANCH   1  13
ATOM     13  C   UNL     1       3.273   5.998 -14.060  1.00  0.00     0.230 C 
BRANCH  13  14
ATOM     14  C   UNL     1       4.582   5.776 -14.819  1.00  0.00     0.046 C 
BRANCH  14  15
ATOM     15  C   UNL     1       5.505   6.978 -14.607  1.00  0.00     0.043 C 
BRANCH  15  16
ATOM     16  C   UNL     1       5.322   7.958 -15.736  1.00  0.00    -0.004 A 
ATOM     17  C   UNL     1       5.724   7.782 -17.017  1.00  0.00     0.036 A 
ATOM     18  C   UNL     1       4.701   9.208 -15.649  1.00  0.00     0.063 A 
ATOM     19  N   UNL     1       5.375   8.885 -17.713  1.00  0.00    -0.282 N 
ATOM     20  N   UNL     1       4.738   9.768 -16.831  1.00  0.00    -0.181 NA
ATOM     21  C   UNL     1       6.433   6.572 -17.566  1.00  0.00     0.066 C 
ATOM     22  C   UNL     1       4.102   9.812 -14.404  1.00  0.00     0.069 C 
ATOM     23  H   UNL     1       5.538   9.039 -18.656  1.00  0.00     0.190 HD
ENDBRANCH  15  16
ENDBRANCH  14  15
ENDBRANCH  13  14
ENDBRANCH   1  13
TORSDOF 7
ENDMDL
MODEL 8
REMARK VINA RESULT:    -4.221      4.745      8.140
REMARK INTER + INTRA:          -6.416
REMARK INTER:                  -5.743
REMARK INTRA:                  -0.673
REMARK UNBOUND:                -0.592
REMARK SMILES Cc1n[nH]c(C)c1CCCOc1cc(C(=O)O)ccc1F
REMARK SMILES IDX 11 1 12 2 14 3 18 4 13 5 19 6 20 7 21 8 15 9 16 10 17 11
REMARK SMILES IDX 10 13 9 14 8 15 7 16 5 17 2 18 4 19 3 20 6 21 1 22
REMARK H PARENT 17 12 4 23
ROOT
ATOM      1  O   UNL     1      -0.097   2.639 -11.366  1.00  0.00    -0.490 OA
ENDROOT
BRANCH   1   2
ATOM      2  C   UNL     1       0.507   3.379 -12.334  1.00  0.00     0.155 A 
ATOM      3  C   UNL     1       0.672   4.079 -14.629  1.00  0.00     0.063 A 
ATOM      4  C   UNL     1       1.746   4.908 -14.295  1.00  0.00     0.019 A 
ATOM      5  C   UNL     1       0.053   3.313 -13.638  1.00  0.00     0.065 A 
ATOM      6  C   UNL     1       2.188   4.971 -12.990  1.00  0.00     0.044 A 
ATOM      7  C   UNL     1       1.569   4.215 -12.008  1.00  0.00     0.165 A 
ATOM      8  F   UNL     1       2.006   4.282 -10.731  1.00  0.00    -0.203 F 
BRANCH   3   9
ATOM      9  C   UNL     1       0.197   4.008 -16.024  1.00  0.00     0.335 C 
ATOM     10  O   UNL     1       0.727   4.685 -16.881  1.00  0.00    -0.246 OA
BRANCH   9  11
ATOM     11  O   UNL     1      -0.821   3.187 -16.348  1.00  0.00    -0.478 OA
ATOM     12  H   UNL     1      -1.680   3.371 -15.942  1.00  0.00     0.297 HD
ENDBRANCH   9  11
ENDBRANCH   3   9
ENDBRANCH   1   2
BRANCH   1  13
ATOM     13  C   UNL     1       0.068   1.220 -11.437  1.00  0.00     0.230 C 
BRANCH  13  14
ATOM     14  C   UNL     1      -0.590   0.569 -10.220  1.00  0.00     0.046 C 
BRANCH  14  15
ATOM     15  C   UNL     1      -0.115   1.272  -8.946  1.00  0.00     0.043 C 
BRANCH  15  16
ATOM     16  C   UNL     1      -0.474   0.435  -7.746  1.00  0.00    -0.004 A 
ATOM     17  C   UNL     1       0.350  -0.419  -7.096  1.00  0.00     0.036 A 
ATOM     18  C   UNL     1      -1.716   0.408  -7.103  1.00  0.00     0.063 A 
ATOM     19  N   UNL     1      -0.348  -0.972  -6.081  1.00  0.00    -0.282 N 
ATOM     20  N   UNL     1      -1.644  -0.440  -6.109  1.00  0.00    -0.181 NA
ATOM     21  C   UNL     1       1.788  -0.702  -7.442  1.00  0.00     0.066 C 
ATOM     22  C   UNL     1      -2.932   1.209  -7.495  1.00  0.00     0.069 C 
ATOM     23  H   UNL     1      -0.012  -1.623  -5.446  1.00  0.00     0.190 HD
ENDBRANCH  15  16
ENDBRANCH  14  15
ENDBRANCH  13  14
ENDBRANCH   1  13
TORSDOF 7
ENDMDL
MODEL 9
REMARK VINA RESULT:    -4.210      4.931      7.904
REMARK INTER + INTRA:          -6.402
REMARK INTER:                  -5.695
REMARK INTRA:                  -0.707
REMARK UNBOUND:                -0.592
REMARK SMILES Cc1n[nH]c(C)c1CCCOc1cc(C(=O)O)ccc1F
REMARK SMILES IDX 11 1 12 2 14 3 18 4 13 5 19 6 20 7 21 8 15 9 16 10 17 11
REMARK SMILES IDX 10 13 9 14 8 15 7 16 5 17 2 18 4 19 3 20 6 21 1 22
REMARK H PARENT 17 12 4 23
ROOT
ATOM      1  O   UNL     1      -0.278  -0.648 -11.834  1.00  0.00    -0.490 OA
ENDROOT
BRANCH   1   2
ATOM      2  C   UNL     1      -0.678  -1.082 -13.059  1.00  0.00     0.155 A 
ATOM      3  C   UNL     1      -0.437  -1.095 -15.451  1.00  0.00     0.063 A 
ATOM      4  C   UNL     1      -1.506  -1.989 -15.550  1.00  0.00     0.019 A 
ATOM      5  C   UNL     1      -0.026  -0.643 -14.195  1.00  0.00     0.065 A 
ATOM      6  C   UNL     1      -2.147  -2.426 -14.411  1.00  0.00     0.044 A 
ATOM      7  C   UNL     1      -1.735  -1.980 -13.166  1.00  0.00     0.165 A 
ATOM      8  F   UNL     1      -2.367  -2.412 -12.053  1.00  0.00    -0.203 F 
BRANCH   3   9
ATOM      9  C   UNL     1       0.252  -0.625 -16.669  1.00  0.00     0.335 C 
ATOM     10  O   UNL     1      -0.091  -1.037 -17.758  1.00  0.00    -0.246 OA
BRANCH   9  11
ATOM     11  O   UNL     1       1.258   0.266 -16.572  1.00  0.00    -0.478 OA
ATOM     12  H   UNL     1       2.113  -0.068 -16.268  1.00  0.00     0.297 HD
ENDBRANCH   9  11
ENDBRANCH   3   9
ENDBRANCH   1   2
BRANCH   1  13
ATOM     13  C   UNL     1      -0.265   0.766 -11.619  1.00  0.00     0.230 C 
BRANCH  13  14
ATOM     14  C   UNL     1      -0.005   1.053 -10.139  1.00  0.00     0.046 C 
BRANCH  14  15
ATOM     15  C   UNL     1      -0.541  -0.103  -9.293  1.00  0.00     0.043 C 
BRANCH  15  16
ATOM     16  C   UNL     1      -0.442   0.254  -7.833  1.00  0.00    -0.004 A 
ATOM     17  C   UNL     1       0.622   0.029  -7.028  1.00  0.00     0.036 A 
ATOM     18  C   UNL     1      -1.432   0.884  -7.070  1.00  0.00     0.063 A 
ATOM     19  N   UNL     1       0.314   0.493  -5.798  1.00  0.00    -0.282 N 
ATOM     20  N   UNL     1      -0.982   1.021  -5.849  1.00  0.00    -0.181 NA
ATOM     21  C   UNL     1       1.919  -0.624  -7.432  1.00  0.00     0.066 C 
ATOM     22  C   UNL     1      -2.787   1.318  -7.567  1.00  0.00     0.069 C 
ATOM     23  H   UNL     1       0.889   0.465  -5.017  1.00  0.00     0.190 HD
ENDBRANCH  15  16
ENDBRANCH  14  15
ENDBRANCH  13  14
ENDBRANCH   1  13
TORSDOF 7
ENDMDL
