MODEL 1
REMARK VINA RESULT:    -3.359      0.000      0.000
REMARK INTER + INTRA:          -4.139
REMARK INTER:                  -3.850
REMARK INTRA:                  -0.289
REMARK UNBOUND:                -0.289
REMARK SMILES O=C(O)c1ccc2nc(-c3cc(Cl)cc(Cl)c3)oc2c1
REMARK SMILES IDX 5 1 6 2 20 3 8 4 18 5 4 6 9 7 7 8 19 9 2 10 1 11 3 12 10 14
REMARK SMILES IDX 11 15 17 16 12 17 15 18 14 19 13 20 16 21
REMARK H PARENT 3 13
ROOT
ATOM      1  C   UNL     1      -2.160  -9.546  17.669  1.00  0.00     0.018 A 
ATOM      2  C   UNL     1      -3.455  -9.962  17.575  1.00  0.00     0.033 A 
ATOM      3  C   UNL     1      -2.675  -7.569  16.363  1.00  0.00     0.065 A 
ATOM      4  N   UNL     1      -5.705  -9.338  16.612  1.00  0.00    -0.209 NA
ATOM      5  O   UNL     1      -5.089  -7.478  15.666  1.00  0.00    -0.436 OA
ATOM      6  C   UNL     1      -1.754  -8.347  17.068  1.00  0.00     0.063 A 
ATOM      7  C   UNL     1      -6.114  -8.319  15.898  1.00  0.00     0.227 A 
ATOM      8  C   UNL     1      -4.388  -9.191  16.871  1.00  0.00     0.110 A 
ATOM      9  C   UNL     1      -3.988  -7.989  16.261  1.00  0.00     0.156 A 
ENDROOT
BRANCH   6  10
ATOM     10  C   UNL     1      -0.353  -7.905  17.181  1.00  0.00     0.335 C 
ATOM     11  O   UNL     1      -0.086  -6.873  17.765  1.00  0.00    -0.246 OA
BRANCH  10  12
ATOM     12  O   UNL     1       0.634  -8.644  16.636  1.00  0.00    -0.478 OA
ATOM     13  H   UNL     1       0.373  -9.328  16.005  1.00  0.00     0.297 HD
ENDBRANCH  10  12
ENDBRANCH   6  10
BRANCH   7  14
ATOM     14  C   UNL     1      -7.498  -8.122  15.417  1.00  0.00     0.040 A 
ATOM     15  C   UNL     1      -8.534  -8.906  15.924  1.00  0.00     0.034 A 
ATOM     16  C   UNL     1      -7.772  -7.151  14.452  1.00  0.00     0.034 A 
ATOM     17  C   UNL     1      -9.825  -8.717  15.471  1.00  0.00     0.043 A 
ATOM     18  C   UNL     1      -9.067  -6.971  14.007  1.00  0.00     0.043 A 
ATOM     19  C   UNL     1     -10.091  -7.753  14.514  1.00  0.00     0.041 A 
ATOM     20  Cl  UNL     1     -11.116  -9.691  16.101  1.00  0.00    -0.084 Cl
ATOM     21  Cl  UNL     1      -9.410  -5.764  12.807  1.00  0.00    -0.084 Cl
ENDBRANCH   7  14
TORSDOF 3
ENDMDL
MODEL 2
REMARK VINA RESULT:    -3.353      0.028      2.020
REMARK INTER + INTRA:          -4.132
REMARK INTER:                  -3.843
REMARK INTRA:                  -0.289
REMARK UNBOUND:                -0.289
REMARK SMILES O=C(O)c1ccc2nc(-c3cc(Cl)cc(Cl)c3)oc2c1
REMARK SMILES IDX 5 1 6 2 20 3 8 4 18 5 4 6 9 7 7 8 19 9 2 10 1 11 3 12 10 14
REMARK SMILES IDX 11 15 17 16 12 17 15 18 14 19 13 20 16 21
REMARK H PARENT 3 13
ROOT
ATOM      1  C   UNL     1      -2.169  -9.523  17.703  1.00  0.00     0.018 A 
ATOM      2  C   UNL     1      -3.466  -9.934  17.622  1.00  0.00     0.033 A 
ATOM      3  C   UNL     1      -2.678  -7.572  16.355  1.00  0.00     0.065 A 
ATOM      4  N   UNL     1      -5.717  -9.320  16.653  1.00  0.00    -0.209 NA
ATOM      5  O   UNL     1      -5.094  -7.484  15.664  1.00  0.00    -0.436 OA
ATOM      6  C   UNL     1      -1.759  -8.339  17.074  1.00  0.00     0.063 A 
ATOM      7  C   UNL     1      -6.123  -8.315  15.918  1.00  0.00     0.227 A 
ATOM      8  C   UNL     1      -4.398  -9.174  16.905  1.00  0.00     0.110 A 
ATOM      9  C   UNL     1      -3.994  -7.988  16.267  1.00  0.00     0.156 A 
ENDROOT
BRANCH   6  10
ATOM     10  C   UNL     1      -0.355  -7.902  17.173  1.00  0.00     0.335 C 
ATOM     11  O   UNL     1      -0.078  -6.877  17.765  1.00  0.00    -0.246 OA
BRANCH  10  12
ATOM     12  O   UNL     1       0.622  -8.637  16.607  1.00  0.00    -0.478 OA
ATOM     13  H   UNL     1       0.748  -8.540  15.653  1.00  0.00     0.297 HD
ENDBRANCH  10  12
ENDBRANCH   6  10
BRANCH   7  14
ATOM     14  C   UNL     1      -7.507  -8.122  15.437  1.00  0.00     0.040 A 
ATOM     15  C   UNL     1      -7.785  -7.155  14.470  1.00  0.00     0.034 A 
ATOM     16  C   UNL     1      -8.542  -8.907  15.949  1.00  0.00     0.034 A 
ATOM     17  C   UNL     1      -9.080  -6.981  14.024  1.00  0.00     0.043 A 
ATOM     18  C   UNL     1      -9.833  -8.723  15.495  1.00  0.00     0.043 A 
ATOM     19  C   UNL     1     -10.102  -7.762  14.536  1.00  0.00     0.041 A 
ATOM     20  Cl  UNL     1      -9.428  -5.779  12.820  1.00  0.00    -0.084 Cl
ATOM     21  Cl  UNL     1     -11.121  -9.698  16.131  1.00  0.00    -0.084 Cl
ENDBRANCH   7  14
TORSDOF 3
ENDMDL
MODEL 3
REMARK VINA RESULT:    -3.306      4.008      7.139
REMARK INTER + INTRA:          -4.078
REMARK INTER:                  -3.792
REMARK INTRA:                  -0.287
REMARK UNBOUND:                -0.289
REMARK SMILES O=C(O)c1ccc2nc(-c3cc(Cl)cc(Cl)c3)oc2c1
REMARK SMILES IDX 5 1 6 2 20 3 8 4 18 5 4 6 9 7 7 8 19 9 2 10 1 11 3 12 10 14
REMARK SMILES IDX 11 15 17 16 12 17 15 18 14 19 13 20 16 21
REMARK H PARENT 3 13
ROOT
ATOM      1  C   UNL     1      -8.552 -11.790  17.753  1.00  0.00     0.018 A 
ATOM      2  C   UNL     1      -7.211 -11.634  17.573  1.00  0.00     0.033 A 
ATOM      3  C   UNL     1      -8.981  -9.745  16.523  1.00  0.00     0.065 A 
ATOM      4  N   UNL     1      -5.482 -10.113  16.533  1.00  0.00    -0.209 NA
ATOM      5  O   UNL     1      -6.867  -8.644  15.722  1.00  0.00    -0.436 OA
ATOM      6  C   UNL     1      -9.453 -10.852  17.230  1.00  0.00     0.063 A 
ATOM      7  C   UNL     1      -5.575  -8.996  15.855  1.00  0.00     0.227 A 
ATOM      8  C   UNL     1      -6.723 -10.528  16.865  1.00  0.00     0.110 A 
ATOM      9  C   UNL     1      -7.620  -9.580  16.342  1.00  0.00     0.156 A 
ENDROOT
BRANCH   6  10
ATOM     10  C   UNL     1     -10.903 -11.035  17.427  1.00  0.00     0.335 C 
ATOM     11  O   UNL     1     -11.363 -12.153  17.544  1.00  0.00    -0.246 OA
BRANCH  10  12
ATOM     12  O   UNL     1     -11.718  -9.963  17.474  1.00  0.00    -0.478 OA
ATOM     13  H   UNL     1     -11.846  -9.472  16.652  1.00  0.00     0.297 HD
ENDBRANCH  10  12
ENDBRANCH   6  10
BRANCH   7  14
ATOM     14  C   UNL     1      -4.428  -8.235  15.317  1.00  0.00     0.040 A 
ATOM     15  C   UNL     1      -4.285  -8.064  13.939  1.00  0.00     0.034 A 
ATOM     16  C   UNL     1      -3.484  -7.684  16.185  1.00  0.00     0.034 A 
ATOM     17  C   UNL     1      -3.212  -7.351  13.443  1.00  0.00     0.043 A 
ATOM     18  C   UNL     1      -2.415  -6.973  15.676  1.00  0.00     0.043 A 
ATOM     19  C   UNL     1      -2.278  -6.807  14.309  1.00  0.00     0.041 A 
ATOM     20  Cl  UNL     1      -3.031  -7.137  11.730  1.00  0.00    -0.084 Cl
ATOM     21  Cl  UNL     1      -1.239  -6.287  16.755  1.00  0.00    -0.084 Cl
ENDBRANCH   7  14
TORSDOF 3
ENDMDL
MODEL 4
REMARK VINA RESULT:    -3.299      3.998      7.051
REMARK INTER + INTRA:          -4.070
REMARK INTER:                  -3.782
REMARK INTRA:                  -0.288
REMARK UNBOUND:                -0.289
REMARK SMILES O=C(O)c1ccc2nc(-c3cc(Cl)cc(Cl)c3)oc2c1
REMARK SMILES IDX 5 1 6 2 20 3 8 4 18 5 4 6 9 7 7 8 19 9 2 10 1 11 3 12 10 14
REMARK SMILES IDX 11 15 17 16 12 17 15 18 14 19 13 20 16 21
REMARK H PARENT 3 13
ROOT
ATOM      1  C   UNL     1      -8.634 -11.747  17.706  1.00  0.00     0.018 A 
ATOM      2  C   UNL     1      -7.291 -11.611  17.523  1.00  0.00     0.033 A 
ATOM      3  C   UNL     1      -9.032  -9.678  16.506  1.00  0.00     0.065 A 
ATOM      4  N   UNL     1      -5.540 -10.106  16.498  1.00  0.00    -0.209 NA
ATOM      5  O   UNL     1      -6.903  -8.602  15.713  1.00  0.00    -0.436 OA
ATOM      6  C   UNL     1      -9.521 -10.786  17.199  1.00  0.00     0.063 A 
ATOM      7  C   UNL     1      -5.616  -8.978  15.836  1.00  0.00     0.227 A 
ATOM      8  C   UNL     1      -6.787 -10.504  16.829  1.00  0.00     0.110 A 
ATOM      9  C   UNL     1      -7.669  -9.533  16.322  1.00  0.00     0.156 A 
ENDROOT
BRANCH   6  10
ATOM     10  C   UNL     1     -10.972 -10.947  17.399  1.00  0.00     0.335 C 
ATOM     11  O   UNL     1     -11.430 -12.039  17.673  1.00  0.00    -0.246 OA
BRANCH  10  12
ATOM     12  O   UNL     1     -11.792  -9.885  17.275  1.00  0.00    -0.478 OA
ATOM     13  H   UNL     1     -11.672  -9.162  17.905  1.00  0.00     0.297 HD
ENDBRANCH  10  12
ENDBRANCH   6  10
BRANCH   7  14
ATOM     14  C   UNL     1      -4.458  -8.229  15.304  1.00  0.00     0.040 A 
ATOM     15  C   UNL     1      -3.507  -7.696  16.175  1.00  0.00     0.034 A 
ATOM     16  C   UNL     1      -4.313  -8.050  13.927  1.00  0.00     0.034 A 
ATOM     17  C   UNL     1      -2.427  -6.998  15.672  1.00  0.00     0.043 A 
ATOM     18  C   UNL     1      -3.229  -7.350  13.436  1.00  0.00     0.043 A 
ATOM     19  C   UNL     1      -2.289  -6.824  14.305  1.00  0.00     0.041 A 
ATOM     20  Cl  UNL     1      -1.243  -6.336  16.754  1.00  0.00    -0.084 Cl
ATOM     21  Cl  UNL     1      -3.046  -7.126  11.723  1.00  0.00    -0.084 Cl
ENDBRANCH   7  14
TORSDOF 3
ENDMDL
MODEL 5
REMARK VINA RESULT:    -3.296      1.267      2.618
REMARK INTER + INTRA:          -4.067
REMARK INTER:                  -3.782
REMARK INTRA:                  -0.284
REMARK UNBOUND:                -0.289
REMARK SMILES O=C(O)c1ccc2nc(-c3cc(Cl)cc(Cl)c3)oc2c1
REMARK SMILES IDX 5 1 6 2 20 3 8 4 18 5 4 6 9 7 7 8 19 9 2 10 1 11 3 12 10 14
REMARK SMILES IDX 11 15 17 16 12 17 15 18 14 19 13 20 16 21
REMARK H PARENT 3 13
ROOT
ATOM      1  C   UNL     1      -1.725  -7.362  15.161  1.00  0.00     0.018 A 
ATOM      2  C   UNL     1      -2.925  -7.285  14.521  1.00  0.00     0.033 A 
ATOM      3  C   UNL     1      -2.789  -8.386  17.084  1.00  0.00     0.065 A 
ATOM      4  N   UNL     1      -5.382  -7.812  14.778  1.00  0.00    -0.209 NA
ATOM      5  O   UNL     1      -5.269  -8.664  16.777  1.00  0.00    -0.436 OA
ATOM      6  C   UNL     1      -1.640  -7.914  16.447  1.00  0.00     0.063 A 
ATOM      7  C   UNL     1      -6.078  -8.352  15.747  1.00  0.00     0.227 A 
ATOM      8  C   UNL     1      -4.085  -7.755  15.148  1.00  0.00     0.110 A 
ATOM      9  C   UNL     1      -4.010  -8.305  16.440  1.00  0.00     0.156 A 
ENDROOT
BRANCH   6  10
ATOM     10  C   UNL     1      -0.335  -7.997  17.127  1.00  0.00     0.335 C 
ATOM     11  O   UNL     1       0.079  -7.049  17.764  1.00  0.00    -0.246 OA
BRANCH  10  12
ATOM     12  O   UNL     1       0.399  -9.124  17.042  1.00  0.00    -0.478 OA
ATOM     13  H   UNL     1       0.750  -9.355  16.171  1.00  0.00     0.297 HD
ENDBRANCH  10  12
ENDBRANCH   6  10
BRANCH   7  14
ATOM     14  C   UNL     1      -7.537  -8.585  15.715  1.00  0.00     0.040 A 
ATOM     15  C   UNL     1      -8.362  -7.756  14.953  1.00  0.00     0.034 A 
ATOM     16  C   UNL     1      -8.096  -9.634  16.448  1.00  0.00     0.034 A 
ATOM     17  C   UNL     1      -9.725  -7.979  14.926  1.00  0.00     0.043 A 
ATOM     18  C   UNL     1      -9.460  -9.846  16.413  1.00  0.00     0.043 A 
ATOM     19  C   UNL     1     -10.273  -9.021  15.655  1.00  0.00     0.041 A 
ATOM     20  Cl  UNL     1     -10.753  -6.951  13.979  1.00  0.00    -0.084 Cl
ATOM     21  Cl  UNL     1     -10.156 -11.150  17.324  1.00  0.00    -0.084 Cl
ENDBRANCH   7  14
TORSDOF 3
ENDMDL
MODEL 6
REMARK VINA RESULT:    -3.278      1.319      1.839
REMARK INTER + INTRA:          -4.046
REMARK INTER:                  -3.761
REMARK INTRA:                  -0.285
REMARK UNBOUND:                -0.289
REMARK SMILES O=C(O)c1ccc2nc(-c3cc(Cl)cc(Cl)c3)oc2c1
REMARK SMILES IDX 5 1 6 2 20 3 8 4 18 5 4 6 9 7 7 8 19 9 2 10 1 11 3 12 10 14
REMARK SMILES IDX 11 15 17 16 12 17 15 18 14 19 13 20 16 21
REMARK H PARENT 3 13
ROOT
ATOM      1  C   UNL     1      -1.735  -7.337  15.198  1.00  0.00     0.018 A 
ATOM      2  C   UNL     1      -2.950  -7.277  14.584  1.00  0.00     0.033 A 
ATOM      3  C   UNL     1      -2.736  -8.411  17.128  1.00  0.00     0.065 A 
ATOM      4  N   UNL     1      -5.389  -7.862  14.884  1.00  0.00    -0.209 NA
ATOM      5  O   UNL     1      -5.215  -8.739  16.867  1.00  0.00    -0.436 OA
ATOM      6  C   UNL     1      -1.611  -7.905  16.474  1.00  0.00     0.063 A 
ATOM      7  C   UNL     1      -6.053  -8.430  15.860  1.00  0.00     0.227 A 
ATOM      8  C   UNL     1      -4.086  -7.781  15.229  1.00  0.00     0.110 A 
ATOM      9  C   UNL     1      -3.972  -8.348  16.510  1.00  0.00     0.156 A 
ENDROOT
BRANCH   6  10
ATOM     10  C   UNL     1      -0.291  -7.970  17.126  1.00  0.00     0.335 C 
ATOM     11  O   UNL     1       0.118  -7.021  17.765  1.00  0.00    -0.246 OA
BRANCH  10  12
ATOM     12  O   UNL     1       0.464  -9.081  17.012  1.00  0.00    -0.478 OA
ATOM     13  H   UNL     1       0.500  -9.667  17.779  1.00  0.00     0.297 HD
ENDBRANCH  10  12
ENDBRANCH   6  10
BRANCH   7  14
ATOM     14  C   UNL     1      -7.507  -8.694  15.854  1.00  0.00     0.040 A 
ATOM     15  C   UNL     1      -8.032  -9.747  16.605  1.00  0.00     0.034 A 
ATOM     16  C   UNL     1      -8.361  -7.890  15.097  1.00  0.00     0.034 A 
ATOM     17  C   UNL     1      -9.392  -9.987  16.596  1.00  0.00     0.043 A 
ATOM     18  C   UNL     1      -9.719  -8.140  15.096  1.00  0.00     0.043 A 
ATOM     19  C   UNL     1     -10.233  -9.186  15.843  1.00  0.00     0.041 A 
ATOM     20  Cl  UNL     1     -10.047 -11.295  17.529  1.00  0.00    -0.084 Cl
ATOM     21  Cl  UNL     1     -10.783  -7.141  14.155  1.00  0.00    -0.084 Cl
ENDBRANCH   7  14
TORSDOF 3
ENDMDL
MODEL 7
REMARK VINA RESULT:    -3.159      6.965      8.951
REMARK INTER + INTRA:          -3.910
REMARK INTER:                  -3.623
REMARK INTRA:                  -0.287
REMARK UNBOUND:                -0.289
REMARK SMILES O=C(O)c1ccc2nc(-c3cc(Cl)cc(Cl)c3)oc2c1
REMARK SMILES IDX 5 1 6 2 20 3 8 4 18 5 4 6 9 7 7 8 19 9 2 10 1 11 3 12 10 14
REMARK SMILES IDX 11 15 17 16 12 17 15 18 14 19 13 20 16 21
REMARK H PARENT 3 13
ROOT
ATOM      1  C   UNL     1      -4.680  -5.154   6.533  1.00  0.00     0.018 A 
ATOM      2  C   UNL     1      -4.522  -6.242   7.339  1.00  0.00     0.033 A 
ATOM      3  C   UNL     1      -4.653  -3.689   8.465  1.00  0.00     0.065 A 
ATOM      4  N   UNL     1      -4.272  -6.940   9.753  1.00  0.00    -0.209 NA
ATOM      5  O   UNL     1      -4.380  -4.949  10.624  1.00  0.00    -0.436 OA
ATOM      6  C   UNL     1      -4.745  -3.866   7.084  1.00  0.00     0.063 A 
ATOM      7  C   UNL     1      -4.244  -6.265  10.875  1.00  0.00     0.227 A 
ATOM      8  C   UNL     1      -4.428  -6.078   8.726  1.00  0.00     0.110 A 
ATOM      9  C   UNL     1      -4.497  -4.791   9.287  1.00  0.00     0.156 A 
ENDROOT
BRANCH   6  10
ATOM     10  C   UNL     1      -4.910  -2.697   6.202  1.00  0.00     0.335 C 
ATOM     11  O   UNL     1      -4.625  -1.587   6.606  1.00  0.00    -0.246 OA
BRANCH  10  12
ATOM     12  O   UNL     1      -5.377  -2.858   4.948  1.00  0.00    -0.478 OA
ATOM     13  H   UNL     1      -5.096  -2.210   4.288  1.00  0.00     0.297 HD
ENDBRANCH  10  12
ENDBRANCH   6  10
BRANCH   7  14
ATOM     14  C   UNL     1      -4.087  -6.860  12.219  1.00  0.00     0.040 A 
ATOM     15  C   UNL     1      -2.888  -6.712  12.916  1.00  0.00     0.034 A 
ATOM     16  C   UNL     1      -5.140  -7.574  12.795  1.00  0.00     0.034 A 
ATOM     17  C   UNL     1      -2.748  -7.270  14.171  1.00  0.00     0.043 A 
ATOM     18  C   UNL     1      -4.988  -8.127  14.051  1.00  0.00     0.043 A 
ATOM     19  C   UNL     1      -3.795  -7.977  14.737  1.00  0.00     0.041 A 
ATOM     20  Cl  UNL     1      -1.257  -7.086  15.040  1.00  0.00    -0.084 Cl
ATOM     21  Cl  UNL     1      -6.296  -9.015  14.770  1.00  0.00    -0.084 Cl
ENDBRANCH   7  14
TORSDOF 3
ENDMDL
MODEL 8
REMARK VINA RESULT:    -3.132      6.732      8.269
REMARK INTER + INTRA:          -3.879
REMARK INTER:                  -3.592
REMARK INTRA:                  -0.287
REMARK UNBOUND:                -0.289
REMARK SMILES O=C(O)c1ccc2nc(-c3cc(Cl)cc(Cl)c3)oc2c1
REMARK SMILES IDX 5 1 6 2 20 3 8 4 18 5 4 6 9 7 7 8 19 9 2 10 1 11 3 12 10 14
REMARK SMILES IDX 11 15 17 16 12 17 15 18 14 19 13 20 16 21
REMARK H PARENT 3 13
ROOT
ATOM      1  C   UNL     1      -3.521  -3.446   7.687  1.00  0.00     0.018 A 
ATOM      2  C   UNL     1      -4.439  -3.143   8.647  1.00  0.00     0.033 A 
ATOM      3  C   UNL     1      -4.372  -5.713   7.556  1.00  0.00     0.065 A 
ATOM      4  N   UNL     1      -6.340  -4.118   9.997  1.00  0.00    -0.209 NA
ATOM      5  O   UNL     1      -6.278  -6.119   9.145  1.00  0.00    -0.436 OA
ATOM      6  C   UNL     1      -3.477  -4.731   7.128  1.00  0.00     0.063 A 
ATOM      7  C   UNL     1      -6.890  -5.307  10.027  1.00  0.00     0.227 A 
ATOM      8  C   UNL     1      -5.343  -4.119   9.085  1.00  0.00     0.110 A 
ATOM      9  C   UNL     1      -5.302  -5.411   8.533  1.00  0.00     0.156 A 
ENDROOT
BRANCH   6  10
ATOM     10  C   UNL     1      -2.483  -5.046   6.086  1.00  0.00     0.335 C 
ATOM     11  O   UNL     1      -2.606  -6.050   5.413  1.00  0.00    -0.246 OA
BRANCH  10  12
ATOM     12  O   UNL     1      -1.439  -4.220   5.879  1.00  0.00    -0.478 OA
ATOM     13  H   UNL     1      -0.924  -4.357   5.072  1.00  0.00     0.297 HD
ENDBRANCH  10  12
ENDBRANCH   6  10
BRANCH   7  14
ATOM     14  C   UNL     1      -8.015  -5.697  10.901  1.00  0.00     0.040 A 
ATOM     15  C   UNL     1      -9.275  -5.943  10.354  1.00  0.00     0.034 A 
ATOM     16  C   UNL     1      -7.822  -5.821  12.278  1.00  0.00     0.034 A 
ATOM     17  C   UNL     1     -10.323  -6.309  11.176  1.00  0.00     0.043 A 
ATOM     18  C   UNL     1      -8.877  -6.187  13.090  1.00  0.00     0.043 A 
ATOM     19  C   UNL     1     -10.124  -6.430  12.541  1.00  0.00     0.041 A 
ATOM     20  Cl  UNL     1     -11.891  -6.616  10.498  1.00  0.00    -0.084 Cl
ATOM     21  Cl  UNL     1      -8.639  -6.342  14.803  1.00  0.00    -0.084 Cl
ENDBRANCH   7  14
TORSDOF 3
ENDMDL
MODEL 9
REMARK VINA RESULT:    -3.123      6.735      8.206
REMARK INTER + INTRA:          -3.868
REMARK INTER:                  -3.581
REMARK INTRA:                  -0.288
REMARK UNBOUND:                -0.289
REMARK SMILES O=C(O)c1ccc2nc(-c3cc(Cl)cc(Cl)c3)oc2c1
REMARK SMILES IDX 5 1 6 2 20 3 8 4 18 5 4 6 9 7 7 8 19 9 2 10 1 11 3 12 10 14
REMARK SMILES IDX 11 15 17 16 12 17 15 18 14 19 13 20 16 21
REMARK H PARENT 3 13
ROOT
ATOM      1  C   UNL     1      -3.513  -3.448   7.681  1.00  0.00     0.018 A 
ATOM      2  C   UNL     1      -4.423  -3.145   8.649  1.00  0.00     0.033 A 
ATOM      3  C   UNL     1      -4.374  -5.711   7.547  1.00  0.00     0.065 A 
ATOM      4  N   UNL     1      -6.317  -4.117  10.008  1.00  0.00    -0.209 NA
ATOM      5  O   UNL     1      -6.269  -6.115   9.148  1.00  0.00    -0.436 OA
ATOM      6  C   UNL     1      -3.478  -4.731   7.117  1.00  0.00     0.063 A 
ATOM      7  C   UNL     1      -6.872  -5.304  10.038  1.00  0.00     0.227 A 
ATOM      8  C   UNL     1      -5.328  -4.118   9.090  1.00  0.00     0.110 A 
ATOM      9  C   UNL     1      -5.295  -5.409   8.532  1.00  0.00     0.156 A 
ENDROOT
BRANCH   6  10
ATOM     10  C   UNL     1      -2.493  -5.045   6.066  1.00  0.00     0.335 C 
ATOM     11  O   UNL     1      -2.625  -6.045   5.389  1.00  0.00    -0.246 OA
BRANCH  10  12
ATOM     12  O   UNL     1      -1.446  -4.223   5.855  1.00  0.00    -0.478 OA
ATOM     13  H   UNL     1      -0.747  -4.543   5.269  1.00  0.00     0.297 HD
ENDBRANCH  10  12
ENDBRANCH   6  10
BRANCH   7  14
ATOM     14  C   UNL     1      -7.992  -5.694  10.918  1.00  0.00     0.040 A 
ATOM     15  C   UNL     1      -7.786  -5.845  12.290  1.00  0.00     0.034 A 
ATOM     16  C   UNL     1      -9.262  -5.913  10.380  1.00  0.00     0.034 A 
ATOM     17  C   UNL     1      -8.838  -6.208  13.108  1.00  0.00     0.043 A 
ATOM     18  C   UNL     1     -10.306  -6.276  11.208  1.00  0.00     0.043 A 
ATOM     19  C   UNL     1     -10.095  -6.424  12.568  1.00  0.00     0.041 A 
ATOM     20  Cl  UNL     1      -8.584  -6.396  14.815  1.00  0.00    -0.084 Cl
ATOM     21  Cl  UNL     1     -11.886  -6.549  10.541  1.00  0.00    -0.084 Cl
ENDBRANCH   7  14
TORSDOF 3
ENDMDL
