MODEL 1
REMARK VINA RESULT:    -4.387      0.000      0.000
REMARK INTER + INTRA:          -6.460
REMARK INTER:                  -6.055
REMARK INTRA:                  -0.405
REMARK UNBOUND:                -0.405
REMARK SMILES Cc1n[nH]c(C)c1CCCOc1cc(C(=O)O)ccc1F
REMARK SMILES IDX 11 1 12 2 14 3 18 4 13 5 19 6 20 7 21 8 15 9 16 10 17 11
REMARK SMILES IDX 10 13 9 14 8 15 7 16 5 17 2 18 4 19 3 20 6 21 1 22
REMARK H PARENT 17 12 4 23
ROOT
ATOM      1  O   UNL     1      -4.778  -6.264   5.654  1.00  0.00    -0.490 OA
ENDROOT
BRANCH   1   2
ATOM      2  C   UNL     1      -4.168  -5.089   5.346  1.00  0.00     0.155 A 
ATOM      3  C   UNL     1      -4.235  -2.694   5.136  1.00  0.00     0.063 A 
ATOM      4  C   UNL     1      -2.900  -2.697   4.723  1.00  0.00     0.019 A 
ATOM      5  C   UNL     1      -4.867  -3.900   5.448  1.00  0.00     0.065 A 
ATOM      6  C   UNL     1      -2.210  -3.887   4.631  1.00  0.00     0.044 A 
ATOM      7  C   UNL     1      -2.837  -5.081   4.945  1.00  0.00     0.165 A 
ATOM      8  F   UNL     1      -2.155  -6.244   4.852  1.00  0.00    -0.203 F 
BRANCH   3   9
ATOM      9  C   UNL     1      -4.977  -1.422   5.237  1.00  0.00     0.335 C 
ATOM     10  O   UNL     1      -6.188  -1.430   5.320  1.00  0.00    -0.246 OA
BRANCH   9  11
ATOM     11  O   UNL     1      -4.309  -0.252   5.244  1.00  0.00    -0.478 OA
ATOM     12  H   UNL     1      -4.428   0.318   6.016  1.00  0.00     0.297 HD
ENDBRANCH   9  11
ENDBRANCH   3   9
ENDBRANCH   1   2
BRANCH   1  13
ATOM     13  C   UNL     1      -4.200  -7.039   6.707  1.00  0.00     0.230 C 
BRANCH  13  14
ATOM     14  C   UNL     1      -5.125  -7.013   7.925  1.00  0.00     0.046 C 
BRANCH  14  15
ATOM     15  C   UNL     1      -4.738  -5.844   8.834  1.00  0.00     0.043 C 
BRANCH  15  16
ATOM     16  C   UNL     1      -5.278  -6.084  10.220  1.00  0.00    -0.004 A 
ATOM     17  C   UNL     1      -4.592  -6.607  11.263  1.00  0.00     0.036 A 
ATOM     18  C   UNL     1      -6.576  -5.800  10.658  1.00  0.00     0.063 A 
ATOM     19  N   UNL     1      -5.428  -6.658  12.321  1.00  0.00    -0.282 N 
ATOM     20  N   UNL     1      -6.669  -6.150  11.915  1.00  0.00    -0.181 NA
ATOM     21  C   UNL     1      -3.153  -7.052  11.245  1.00  0.00     0.066 C 
ATOM     22  C   UNL     1      -7.680  -5.205   9.823  1.00  0.00     0.069 C 
ATOM     23  H   UNL     1      -5.209  -6.989  13.206  1.00  0.00     0.190 HD
ENDBRANCH  15  16
ENDBRANCH  14  15
ENDBRANCH  13  14
ENDBRANCH   1  13
TORSDOF 7
ENDMDL
MODEL 2
REMARK VINA RESULT:    -4.216      5.049      7.941
REMARK INTER + INTRA:          -6.223
REMARK INTER:                  -5.634
REMARK INTRA:                  -0.588
REMARK UNBOUND:                -0.405
REMARK SMILES Cc1n[nH]c(C)c1CCCOc1cc(C(=O)O)ccc1F
REMARK SMILES IDX 11 1 12 2 14 3 18 4 13 5 19 6 20 7 21 8 15 9 16 10 17 11
REMARK SMILES IDX 10 13 9 14 8 15 7 16 5 17 2 18 4 19 3 20 6 21 1 22
REMARK H PARENT 17 12 4 23
ROOT
ATOM      1  O   UNL     1      -7.396  -4.987  10.267  1.00  0.00    -0.490 OA
ENDROOT
BRANCH   1   2
ATOM      2  C   UNL     1      -8.445  -5.507  10.959  1.00  0.00     0.155 A 
ATOM      3  C   UNL     1      -9.421  -6.240  13.030  1.00  0.00     0.063 A 
ATOM      4  C   UNL     1     -10.601  -6.563  12.355  1.00  0.00     0.019 A 
ATOM      5  C   UNL     1      -8.341  -5.710  12.322  1.00  0.00     0.065 A 
ATOM      6  C   UNL     1     -10.698  -6.352  10.996  1.00  0.00     0.044 A 
ATOM      7  C   UNL     1      -9.626  -5.821  10.297  1.00  0.00     0.165 A 
ATOM      8  F   UNL     1      -9.727  -5.617   8.965  1.00  0.00    -0.203 F 
BRANCH   3   9
ATOM      9  C   UNL     1      -9.315  -6.464  14.486  1.00  0.00     0.335 C 
ATOM     10  O   UNL     1     -10.179  -7.086  15.069  1.00  0.00    -0.246 OA
BRANCH   9  11
ATOM     11  O   UNL     1      -8.255  -5.983  15.165  1.00  0.00    -0.478 OA
ATOM     12  H   UNL     1      -7.786  -5.233  14.773  1.00  0.00     0.297 HD
ENDBRANCH   9  11
ENDBRANCH   3   9
ENDBRANCH   1   2
BRANCH   1  13
ATOM     13  C   UNL     1      -6.183  -5.744  10.260  1.00  0.00     0.230 C 
BRANCH  13  14
ATOM     14  C   UNL     1      -5.085  -4.939   9.564  1.00  0.00     0.046 C 
BRANCH  14  15
ATOM     15  C   UNL     1      -5.522  -4.606   8.136  1.00  0.00     0.043 C 
BRANCH  15  16
ATOM     16  C   UNL     1      -4.306  -4.367   7.280  1.00  0.00    -0.004 A 
ATOM     17  C   UNL     1      -3.767  -5.243   6.400  1.00  0.00     0.036 A 
ATOM     18  C   UNL     1      -3.538  -3.198   7.248  1.00  0.00     0.063 A 
ATOM     19  N   UNL     1      -2.692  -4.652   5.837  1.00  0.00    -0.282 N 
ATOM     20  N   UNL     1      -2.567  -3.370   6.389  1.00  0.00    -0.181 NA
ATOM     21  C   UNL     1      -4.275  -6.629   6.103  1.00  0.00     0.066 C 
ATOM     22  C   UNL     1      -3.781  -1.959   8.071  1.00  0.00     0.069 C 
ATOM     23  H   UNL     1      -2.109  -5.045   5.170  1.00  0.00     0.190 HD
ENDBRANCH  15  16
ENDBRANCH  14  15
ENDBRANCH  13  14
ENDBRANCH   1  13
TORSDOF 7
ENDMDL
MODEL 3
REMARK VINA RESULT:    -4.203      5.046      7.964
REMARK INTER + INTRA:          -6.205
REMARK INTER:                  -5.609
REMARK INTRA:                  -0.596
REMARK UNBOUND:                -0.405
REMARK SMILES Cc1n[nH]c(C)c1CCCOc1cc(C(=O)O)ccc1F
REMARK SMILES IDX 11 1 12 2 14 3 18 4 13 5 19 6 20 7 21 8 15 9 16 10 17 11
REMARK SMILES IDX 10 13 9 14 8 15 7 16 5 17 2 18 4 19 3 20 6 21 1 22
REMARK H PARENT 17 12 4 23
ROOT
ATOM      1  O   UNL     1      -7.380  -5.005  10.263  1.00  0.00    -0.490 OA
ENDROOT
BRANCH   1   2
ATOM      2  C   UNL     1      -8.431  -5.515  10.959  1.00  0.00     0.155 A 
ATOM      3  C   UNL     1      -9.410  -6.232  13.035  1.00  0.00     0.063 A 
ATOM      4  C   UNL     1     -10.594  -6.549  12.363  1.00  0.00     0.019 A 
ATOM      5  C   UNL     1      -8.327  -5.713  12.323  1.00  0.00     0.065 A 
ATOM      6  C   UNL     1     -10.690  -6.343  11.003  1.00  0.00     0.044 A 
ATOM      7  C   UNL     1      -9.616  -5.823  10.300  1.00  0.00     0.165 A 
ATOM      8  F   UNL     1      -9.717  -5.623   8.967  1.00  0.00    -0.203 F 
BRANCH   3   9
ATOM      9  C   UNL     1      -9.304  -6.451  14.490  1.00  0.00     0.335 C 
ATOM     10  O   UNL     1     -10.198  -7.014  15.087  1.00  0.00    -0.246 OA
BRANCH   9  11
ATOM     11  O   UNL     1      -8.209  -6.032  15.156  1.00  0.00    -0.478 OA
ATOM     12  H   UNL     1      -7.387  -5.962  14.650  1.00  0.00     0.297 HD
ENDBRANCH   9  11
ENDBRANCH   3   9
ENDBRANCH   1   2
BRANCH   1  13
ATOM     13  C   UNL     1      -6.168  -5.764  10.271  1.00  0.00     0.230 C 
BRANCH  13  14
ATOM     14  C   UNL     1      -5.063  -4.965   9.576  1.00  0.00     0.046 C 
BRANCH  14  15
ATOM     15  C   UNL     1      -5.522  -4.579   8.168  1.00  0.00     0.043 C 
BRANCH  15  16
ATOM     16  C   UNL     1      -4.318  -4.338   7.295  1.00  0.00    -0.004 A 
ATOM     17  C   UNL     1      -3.576  -3.206   7.257  1.00  0.00     0.036 A 
ATOM     18  C   UNL     1      -3.766  -5.245   6.385  1.00  0.00     0.063 A 
ATOM     19  N   UNL     1      -2.593  -3.389   6.350  1.00  0.00    -0.282 N 
ATOM     20  N   UNL     1      -2.736  -4.675   5.813  1.00  0.00    -0.181 NA
ATOM     21  C   UNL     1      -3.806  -1.966   8.080  1.00  0.00     0.066 C 
ATOM     22  C   UNL     1      -4.276  -6.635   6.103  1.00  0.00     0.069 C 
ATOM     23  H   UNL     1      -1.910  -2.744   6.112  1.00  0.00     0.190 HD
ENDBRANCH  15  16
ENDBRANCH  14  15
ENDBRANCH  13  14
ENDBRANCH   1  13
TORSDOF 7
ENDMDL
MODEL 4
REMARK VINA RESULT:    -4.135      3.296      4.706
REMARK INTER + INTRA:          -6.110
REMARK INTER:                  -5.533
REMARK INTRA:                  -0.578
REMARK UNBOUND:                -0.405
REMARK SMILES Cc1n[nH]c(C)c1CCCOc1cc(C(=O)O)ccc1F
REMARK SMILES IDX 11 1 12 2 14 3 18 4 13 5 19 6 20 7 21 8 15 9 16 10 17 11
REMARK SMILES IDX 10 13 9 14 8 15 7 16 5 17 2 18 4 19 3 20 6 21 1 22
REMARK H PARENT 17 12 4 23
ROOT
ATOM      1  O   UNL     1      -6.058  -5.991  10.046  1.00  0.00    -0.490 OA
ENDROOT
BRANCH   1   2
ATOM      2  C   UNL     1      -5.368  -5.516   8.976  1.00  0.00     0.155 A 
ATOM      3  C   UNL     1      -4.384  -3.679   7.774  1.00  0.00     0.063 A 
ATOM      4  C   UNL     1      -3.947  -4.565   6.786  1.00  0.00     0.019 A 
ATOM      5  C   UNL     1      -5.098  -4.164   8.873  1.00  0.00     0.065 A 
ATOM      6  C   UNL     1      -4.216  -5.913   6.901  1.00  0.00     0.044 A 
ATOM      7  C   UNL     1      -4.919  -6.392   7.994  1.00  0.00     0.165 A 
ATOM      8  F   UNL     1      -5.179  -7.713   8.100  1.00  0.00    -0.203 F 
BRANCH   3   9
ATOM      9  C   UNL     1      -4.098  -2.236   7.655  1.00  0.00     0.335 C 
ATOM     10  O   UNL     1      -4.291  -1.664   6.602  1.00  0.00    -0.246 OA
BRANCH   9  11
ATOM     11  O   UNL     1      -3.629  -1.553   8.717  1.00  0.00    -0.478 OA
ATOM     12  H   UNL     1      -4.128  -0.772   8.993  1.00  0.00     0.297 HD
ENDBRANCH   9  11
ENDBRANCH   3   9
ENDBRANCH   1   2
BRANCH   1  13
ATOM     13  C   UNL     1      -7.043  -5.128  10.619  1.00  0.00     0.230 C 
BRANCH  13  14
ATOM     14  C   UNL     1      -8.403  -5.826  10.605  1.00  0.00     0.046 C 
BRANCH  14  15
ATOM     15  C   UNL     1      -9.266  -5.286  11.748  1.00  0.00     0.043 C 
BRANCH  15  16
ATOM     16  C   UNL     1      -9.945  -6.433  12.451  1.00  0.00    -0.004 A 
ATOM     17  C   UNL     1     -11.084  -7.047  12.056  1.00  0.00     0.036 A 
ATOM     18  C   UNL     1      -9.504  -7.056  13.623  1.00  0.00     0.063 A 
ATOM     19  N   UNL     1     -11.359  -8.019  12.951  1.00  0.00    -0.282 N 
ATOM     20  N   UNL     1     -10.355  -8.002  13.928  1.00  0.00    -0.181 NA
ATOM     21  C   UNL     1     -11.900  -6.706  10.836  1.00  0.00     0.066 C 
ATOM     22  C   UNL     1      -8.270  -6.692  14.408  1.00  0.00     0.069 C 
ATOM     23  H   UNL     1     -12.118  -8.622  12.923  1.00  0.00     0.190 HD
ENDBRANCH  15  16
ENDBRANCH  14  15
ENDBRANCH  13  14
ENDBRANCH   1  13
TORSDOF 7
ENDMDL
MODEL 5
REMARK VINA RESULT:    -4.131      5.047      8.313
REMARK INTER + INTRA:          -6.106
REMARK INTER:                  -5.620
REMARK INTRA:                  -0.486
REMARK UNBOUND:                -0.405
REMARK SMILES Cc1n[nH]c(C)c1CCCOc1cc(C(=O)O)ccc1F
REMARK SMILES IDX 11 1 12 2 14 3 18 4 13 5 19 6 20 7 21 8 15 9 16 10 17 11
REMARK SMILES IDX 10 13 9 14 8 15 7 16 5 17 2 18 4 19 3 20 6 21 1 22
REMARK H PARENT 17 12 4 23
ROOT
ATOM      1  O   UNL     1      -3.567  -6.887  11.492  1.00  0.00    -0.490 OA
ENDROOT
BRANCH   1   2
ATOM      2  C   UNL     1      -3.661  -7.253  12.798  1.00  0.00     0.155 A 
ATOM      3  C   UNL     1      -4.837  -8.371  14.573  1.00  0.00     0.063 A 
ATOM      4  C   UNL     1      -3.830  -8.000  15.468  1.00  0.00     0.019 A 
ATOM      5  C   UNL     1      -4.746  -7.992  13.232  1.00  0.00     0.065 A 
ATOM      6  C   UNL     1      -2.749  -7.267  15.025  1.00  0.00     0.044 A 
ATOM      7  C   UNL     1      -2.658  -6.897  13.693  1.00  0.00     0.165 A 
ATOM      8  F   UNL     1      -1.597  -6.179  13.265  1.00  0.00    -0.203 F 
BRANCH   3   9
ATOM      9  C   UNL     1      -5.995  -9.155  15.044  1.00  0.00     0.335 C 
ATOM     10  O   UNL     1      -5.911  -9.811  16.062  1.00  0.00    -0.246 OA
BRANCH   9  11
ATOM     11  O   UNL     1      -7.148  -9.138  14.347  1.00  0.00    -0.478 OA
ATOM     12  H   UNL     1      -7.084  -8.971  13.397  1.00  0.00     0.297 HD
ENDBRANCH   9  11
ENDBRANCH   3   9
ENDBRANCH   1   2
BRANCH   1  13
ATOM     13  C   UNL     1      -4.648  -6.122  10.953  1.00  0.00     0.230 C 
BRANCH  13  14
ATOM     14  C   UNL     1      -4.423  -5.906   9.456  1.00  0.00     0.046 C 
BRANCH  14  15
ATOM     15  C   UNL     1      -5.440  -4.893   8.927  1.00  0.00     0.043 C 
BRANCH  15  16
ATOM     16  C   UNL     1      -4.724  -3.820   8.149  1.00  0.00    -0.004 A 
ATOM     17  C   UNL     1      -4.259  -3.931   6.882  1.00  0.00     0.036 A 
ATOM     18  C   UNL     1      -4.427  -2.531   8.604  1.00  0.00     0.063 A 
ATOM     19  N   UNL     1      -3.683  -2.756   6.551  1.00  0.00    -0.282 N 
ATOM     20  N   UNL     1      -3.797  -1.895   7.651  1.00  0.00    -0.181 NA
ATOM     21  C   UNL     1      -4.367  -5.147   6.000  1.00  0.00     0.066 C 
ATOM     22  C   UNL     1      -4.763  -1.976   9.965  1.00  0.00     0.069 C 
ATOM     23  H   UNL     1      -3.264  -2.545   5.703  1.00  0.00     0.190 HD
ENDBRANCH  15  16
ENDBRANCH  14  15
ENDBRANCH  13  14
ENDBRANCH   1  13
TORSDOF 7
ENDMDL
MODEL 6
REMARK VINA RESULT:    -4.121      5.036      8.316
REMARK INTER + INTRA:          -6.092
REMARK INTER:                  -5.616
REMARK INTRA:                  -0.477
REMARK UNBOUND:                -0.405
REMARK SMILES Cc1n[nH]c(C)c1CCCOc1cc(C(=O)O)ccc1F
REMARK SMILES IDX 11 1 12 2 14 3 18 4 13 5 19 6 20 7 21 8 15 9 16 10 17 11
REMARK SMILES IDX 10 13 9 14 8 15 7 16 5 17 2 18 4 19 3 20 6 21 1 22
REMARK H PARENT 17 12 4 23
ROOT
ATOM      1  O   UNL     1      -3.562  -6.875  11.472  1.00  0.00    -0.490 OA
ENDROOT
BRANCH   1   2
ATOM      2  C   UNL     1      -3.647  -7.251  12.776  1.00  0.00     0.155 A 
ATOM      3  C   UNL     1      -4.821  -8.365  14.554  1.00  0.00     0.063 A 
ATOM      4  C   UNL     1      -3.798  -8.019  15.441  1.00  0.00     0.019 A 
ATOM      5  C   UNL     1      -4.739  -7.976  13.216  1.00  0.00     0.065 A 
ATOM      6  C   UNL     1      -2.710  -7.301  14.992  1.00  0.00     0.044 A 
ATOM      7  C   UNL     1      -2.628  -6.920  13.662  1.00  0.00     0.165 A 
ATOM      8  F   UNL     1      -1.560  -6.217  13.228  1.00  0.00    -0.203 F 
BRANCH   3   9
ATOM      9  C   UNL     1      -5.986  -9.135  15.032  1.00  0.00     0.335 C 
ATOM     10  O   UNL     1      -5.906  -9.790  16.050  1.00  0.00    -0.246 OA
BRANCH   9  11
ATOM     11  O   UNL     1      -7.143  -9.104  14.340  1.00  0.00    -0.478 OA
ATOM     12  H   UNL     1      -7.752  -9.844  14.471  1.00  0.00     0.297 HD
ENDBRANCH   9  11
ENDBRANCH   3   9
ENDBRANCH   1   2
BRANCH   1  13
ATOM     13  C   UNL     1      -4.634  -6.083  10.954  1.00  0.00     0.230 C 
BRANCH  13  14
ATOM     14  C   UNL     1      -4.460  -5.917   9.443  1.00  0.00     0.046 C 
BRANCH  14  15
ATOM     15  C   UNL     1      -5.443  -4.863   8.929  1.00  0.00     0.043 C 
BRANCH  15  16
ATOM     16  C   UNL     1      -4.691  -3.802   8.170  1.00  0.00    -0.004 A 
ATOM     17  C   UNL     1      -4.406  -2.555   8.614  1.00  0.00     0.036 A 
ATOM     18  C   UNL     1      -4.159  -3.932   6.883  1.00  0.00     0.063 A 
ATOM     19  N   UNL     1      -3.723  -1.918   7.640  1.00  0.00    -0.282 N 
ATOM     20  N   UNL     1      -3.584  -2.801   6.561  1.00  0.00    -0.181 NA
ATOM     21  C   UNL     1      -4.783  -1.983   9.955  1.00  0.00     0.066 C 
ATOM     22  C   UNL     1      -4.243  -5.159   6.011  1.00  0.00     0.069 C 
ATOM     23  H   UNL     1      -3.388  -1.008   7.679  1.00  0.00     0.190 HD
ENDBRANCH  15  16
ENDBRANCH  14  15
ENDBRANCH  13  14
ENDBRANCH   1  13
TORSDOF 7
ENDMDL
MODEL 7
REMARK VINA RESULT:    -4.105      3.512      5.316
REMARK INTER + INTRA:          -6.069
REMARK INTER:                  -5.550
REMARK INTRA:                  -0.519
REMARK UNBOUND:                -0.405
REMARK SMILES Cc1n[nH]c(C)c1CCCOc1cc(C(=O)O)ccc1F
REMARK SMILES IDX 11 1 12 2 14 3 18 4 13 5 19 6 20 7 21 8 15 9 16 10 17 11
REMARK SMILES IDX 10 13 9 14 8 15 7 16 5 17 2 18 4 19 3 20 6 21 1 22
REMARK H PARENT 17 12 4 23
ROOT
ATOM      1  O   UNL     1      -6.025  -5.114  10.251  1.00  0.00    -0.490 OA
ENDROOT
BRANCH   1   2
ATOM      2  C   UNL     1      -5.271  -4.718   9.191  1.00  0.00     0.155 A 
ATOM      3  C   UNL     1      -4.220  -5.197   7.082  1.00  0.00     0.063 A 
ATOM      4  C   UNL     1      -3.737  -3.886   7.029  1.00  0.00     0.019 A 
ATOM      5  C   UNL     1      -4.990  -5.608   8.171  1.00  0.00     0.065 A 
ATOM      6  C   UNL     1      -4.027  -3.004   8.048  1.00  0.00     0.044 A 
ATOM      7  C   UNL     1      -4.795  -3.413   9.126  1.00  0.00     0.165 A 
ATOM      8  F   UNL     1      -5.076  -2.543  10.121  1.00  0.00    -0.203 F 
BRANCH   3   9
ATOM      9  C   UNL     1      -3.911  -6.144   5.993  1.00  0.00     0.335 C 
ATOM     10  O   UNL     1      -2.918  -5.986   5.314  1.00  0.00    -0.246 OA
BRANCH   9  11
ATOM     11  O   UNL     1      -4.730  -7.188   5.757  1.00  0.00    -0.478 OA
ATOM     12  H   UNL     1      -5.221  -7.181   4.923  1.00  0.00     0.297 HD
ENDBRANCH   9  11
ENDBRANCH   3   9
ENDBRANCH   1   2
BRANCH   1  13
ATOM     13  C   UNL     1      -7.432  -4.875  10.171  1.00  0.00     0.230 C 
BRANCH  13  14
ATOM     14  C   UNL     1      -8.178  -5.968  10.938  1.00  0.00     0.046 C 
BRANCH  14  15
ATOM     15  C   UNL     1      -9.210  -5.325  11.867  1.00  0.00     0.043 C 
BRANCH  15  16
ATOM     16  C   UNL     1      -9.983  -6.402  12.584  1.00  0.00    -0.004 A 
ATOM     17  C   UNL     1     -11.114  -6.999  12.142  1.00  0.00     0.036 A 
ATOM     18  C   UNL     1      -9.654  -6.966  13.821  1.00  0.00     0.063 A 
ATOM     19  N   UNL     1     -11.491  -7.904  13.070  1.00  0.00    -0.282 N 
ATOM     20  N   UNL     1     -10.560  -7.861  14.116  1.00  0.00    -0.181 NA
ATOM     21  C   UNL     1     -11.824  -6.706  10.846  1.00  0.00     0.066 C 
ATOM     22  C   UNL     1      -8.466  -6.597  14.673  1.00  0.00     0.069 C 
ATOM     23  H   UNL     1     -12.268  -8.481  13.021  1.00  0.00     0.190 HD
ENDBRANCH  15  16
ENDBRANCH  14  15
ENDBRANCH  13  14
ENDBRANCH   1  13
TORSDOF 7
ENDMDL
MODEL 8
REMARK VINA RESULT:    -4.072      3.090      4.147
REMARK INTER + INTRA:          -6.025
REMARK INTER:                  -5.480
REMARK INTRA:                  -0.545
REMARK UNBOUND:                -0.405
REMARK SMILES Cc1n[nH]c(C)c1CCCOc1cc(C(=O)O)ccc1F
REMARK SMILES IDX 11 1 12 2 14 3 18 4 13 5 19 6 20 7 21 8 15 9 16 10 17 11
REMARK SMILES IDX 10 13 9 14 8 15 7 16 5 17 2 18 4 19 3 20 6 21 1 22
REMARK H PARENT 17 12 4 23
ROOT
ATOM      1  O   UNL     1      -5.041  -6.421   9.959  1.00  0.00    -0.490 OA
ENDROOT
BRANCH   1   2
ATOM      2  C   UNL     1      -4.781  -5.763   8.798  1.00  0.00     0.155 A 
ATOM      3  C   UNL     1      -4.335  -3.721   7.609  1.00  0.00     0.063 A 
ATOM      4  C   UNL     1      -4.240  -4.441   6.415  1.00  0.00     0.019 A 
ATOM      5  C   UNL     1      -4.607  -4.392   8.803  1.00  0.00     0.065 A 
ATOM      6  C   UNL     1      -4.409  -5.809   6.420  1.00  0.00     0.044 A 
ATOM      7  C   UNL     1      -4.673  -6.473   7.607  1.00  0.00     0.165 A 
ATOM      8  F   UNL     1      -4.838  -7.815   7.605  1.00  0.00    -0.203 F 
BRANCH   3   9
ATOM      9  C   UNL     1      -4.155  -2.256   7.608  1.00  0.00     0.335 C 
ATOM     10  O   UNL     1      -4.317  -1.625   6.583  1.00  0.00    -0.246 OA
BRANCH   9  11
ATOM     11  O   UNL     1      -3.816  -1.618   8.745  1.00  0.00    -0.478 OA
ATOM     12  H   UNL     1      -3.970  -2.090   9.576  1.00  0.00     0.297 HD
ENDBRANCH   9  11
ENDBRANCH   3   9
ENDBRANCH   1   2
BRANCH   1  13
ATOM     13  C   UNL     1      -3.957  -6.565  10.880  1.00  0.00     0.230 C 
BRANCH  13  14
ATOM     14  C   UNL     1      -4.511  -6.774  12.290  1.00  0.00     0.046 C 
BRANCH  14  15
ATOM     15  C   UNL     1      -3.840  -7.993  12.926  1.00  0.00     0.043 C 
BRANCH  15  16
ATOM     16  C   UNL     1      -3.956  -7.906  14.426  1.00  0.00    -0.004 A 
ATOM     17  C   UNL     1      -3.030  -7.390  15.268  1.00  0.00     0.036 A 
ATOM     18  C   UNL     1      -5.042  -8.338  15.194  1.00  0.00     0.063 A 
ATOM     19  N   UNL     1      -3.511  -7.498  16.524  1.00  0.00    -0.282 N 
ATOM     20  N   UNL     1      -4.774  -8.101  16.452  1.00  0.00    -0.181 NA
ATOM     21  C   UNL     1      -1.702  -6.800  14.873  1.00  0.00     0.066 C 
ATOM     22  C   UNL     1      -6.300  -8.979  14.664  1.00  0.00     0.069 C 
ATOM     23  H   UNL     1      -3.062  -7.210  17.334  1.00  0.00     0.190 HD
ENDBRANCH  15  16
ENDBRANCH  14  15
ENDBRANCH  13  14
ENDBRANCH   1  13
TORSDOF 7
ENDMDL
MODEL 9
REMARK VINA RESULT:    -4.065      3.097      4.401
REMARK INTER + INTRA:          -6.015
REMARK INTER:                  -5.470
REMARK INTRA:                  -0.545
REMARK UNBOUND:                -0.405
REMARK SMILES Cc1n[nH]c(C)c1CCCOc1cc(C(=O)O)ccc1F
REMARK SMILES IDX 11 1 12 2 14 3 18 4 13 5 19 6 20 7 21 8 15 9 16 10 17 11
REMARK SMILES IDX 10 13 9 14 8 15 7 16 5 17 2 18 4 19 3 20 6 21 1 22
REMARK H PARENT 17 12 4 23
ROOT
ATOM      1  O   UNL     1      -5.055  -6.349  10.001  1.00  0.00    -0.490 OA
ENDROOT
BRANCH   1   2
ATOM      2  C   UNL     1      -4.791  -5.713   8.829  1.00  0.00     0.155 A 
ATOM      3  C   UNL     1      -4.336  -3.694   7.605  1.00  0.00     0.063 A 
ATOM      4  C   UNL     1      -4.244  -4.435   6.424  1.00  0.00     0.019 A 
ATOM      5  C   UNL     1      -4.611  -4.343   8.811  1.00  0.00     0.065 A 
ATOM      6  C   UNL     1      -4.420  -5.802   6.453  1.00  0.00     0.044 A 
ATOM      7  C   UNL     1      -4.688  -6.444   7.650  1.00  0.00     0.165 A 
ATOM      8  F   UNL     1      -4.858  -7.784   7.672  1.00  0.00    -0.203 F 
BRANCH   3   9
ATOM      9  C   UNL     1      -4.148  -2.230   7.578  1.00  0.00     0.335 C 
ATOM     10  O   UNL     1      -4.334  -1.613   6.549  1.00  0.00    -0.246 OA
BRANCH   9  11
ATOM     11  O   UNL     1      -3.777  -1.578   8.697  1.00  0.00    -0.478 OA
ATOM     12  H   UNL     1      -3.153  -2.029   9.282  1.00  0.00     0.297 HD
ENDBRANCH   9  11
ENDBRANCH   3   9
ENDBRANCH   1   2
BRANCH   1  13
ATOM     13  C   UNL     1      -3.940  -6.629  10.852  1.00  0.00     0.230 C 
BRANCH  13  14
ATOM     14  C   UNL     1      -4.420  -6.741  12.300  1.00  0.00     0.046 C 
BRANCH  14  15
ATOM     15  C   UNL     1      -3.835  -8.004  12.935  1.00  0.00     0.043 C 
BRANCH  15  16
ATOM     16  C   UNL     1      -3.968  -7.921  14.434  1.00  0.00    -0.004 A 
ATOM     17  C   UNL     1      -5.035  -8.326  15.162  1.00  0.00     0.036 A 
ATOM     18  C   UNL     1      -3.009  -7.419  15.319  1.00  0.00     0.063 A 
ATOM     19  N   UNL     1      -4.763  -8.082  16.461  1.00  0.00    -0.282 N 
ATOM     20  N   UNL     1      -3.487  -7.509  16.534  1.00  0.00    -0.181 NA
ATOM     21  C   UNL     1      -6.300  -8.939  14.619  1.00  0.00     0.066 C 
ATOM     22  C   UNL     1      -1.662  -6.860  14.939  1.00  0.00     0.069 C 
ATOM     23  H   UNL     1      -5.348  -8.270  17.211  1.00  0.00     0.190 HD
ENDBRANCH  15  16
ENDBRANCH  14  15
ENDBRANCH  13  14
ENDBRANCH   1  13
TORSDOF 7
ENDMDL
