MODEL 1
REMARK VINA RESULT:    -5.135      0.000      0.000
REMARK INTER + INTRA:          -6.181
REMARK INTER:                  -5.885
REMARK INTRA:                  -0.295
REMARK UNBOUND:                -0.295
REMARK SMILES O=C(O)c1ccc2nc(-c3cc(Cl)cc(Cl)c3)oc2c1
REMARK SMILES IDX 5 1 6 2 20 3 8 4 18 5 4 6 9 7 7 8 19 9 2 10 1 11 3 12 10 14
REMARK SMILES IDX 11 15 17 16 12 17 15 18 14 19 13 20 16 21
REMARK H PARENT 3 13
ROOT
ATOM      1  C   UNL     1      -1.883  -1.791   2.578  1.00  0.00     0.018 A 
ATOM      2  C   UNL     1      -2.624  -1.156   1.626  1.00  0.00     0.033 A 
ATOM      3  C   UNL     1       0.162  -1.184   1.425  1.00  0.00     0.065 A 
ATOM      4  N   UNL     1      -2.440   0.169  -0.517  1.00  0.00    -0.209 NA
ATOM      5  O   UNL     1      -0.270   0.138  -0.669  1.00  0.00    -0.436 OA
ATOM      6  C   UNL     1      -0.484  -1.811   2.492  1.00  0.00     0.063 A 
ATOM      7  C   UNL     1      -1.417   0.558  -1.236  1.00  0.00     0.227 A 
ATOM      8  C   UNL     1      -1.988  -0.522   0.551  1.00  0.00     0.110 A 
ATOM      9  C   UNL     1      -0.586  -0.543   0.455  1.00  0.00     0.156 A 
ENDROOT
BRANCH   6  10
ATOM     10  C   UNL     1       0.307  -2.496   3.530  1.00  0.00     0.335 C 
ATOM     11  O   UNL     1       1.408  -2.079   3.828  1.00  0.00    -0.246 OA
BRANCH  10  12
ATOM     12  O   UNL     1      -0.191  -3.585   4.149  1.00  0.00    -0.478 OA
ATOM     13  H   UNL     1      -0.759  -4.166   3.625  1.00  0.00     0.297 HD
ENDBRANCH  10  12
ENDBRANCH   6  10
BRANCH   7  14
ATOM     14  C   UNL     1      -1.508   1.341  -2.486  1.00  0.00     0.040 A 
ATOM     15  C   UNL     1      -0.349   1.714  -3.166  1.00  0.00     0.034 A 
ATOM     16  C   UNL     1      -2.757   1.712  -2.990  1.00  0.00     0.034 A 
ATOM     17  C   UNL     1      -0.441   2.445  -4.334  1.00  0.00     0.043 A 
ATOM     18  C   UNL     1      -2.836   2.443  -4.159  1.00  0.00     0.043 A 
ATOM     19  C   UNL     1      -1.682   2.810  -4.829  1.00  0.00     0.041 A 
ATOM     20  Cl  UNL     1       1.000   2.909  -5.182  1.00  0.00    -0.084 Cl
ATOM     21  Cl  UNL     1      -4.387   2.905  -4.788  1.00  0.00    -0.084 Cl
ENDBRANCH   7  14
TORSDOF 3
ENDMDL
MODEL 2
REMARK VINA RESULT:    -5.120      0.021      2.020
REMARK INTER + INTRA:          -6.164
REMARK INTER:                  -5.869
REMARK INTRA:                  -0.295
REMARK UNBOUND:                -0.295
REMARK SMILES O=C(O)c1ccc2nc(-c3cc(Cl)cc(Cl)c3)oc2c1
REMARK SMILES IDX 5 1 6 2 20 3 8 4 18 5 4 6 9 7 7 8 19 9 2 10 1 11 3 12 10 14
REMARK SMILES IDX 11 15 17 16 12 17 15 18 14 19 13 20 16 21
REMARK H PARENT 3 13
ROOT
ATOM      1  C   UNL     1      -1.890  -1.793   2.597  1.00  0.00     0.018 A 
ATOM      2  C   UNL     1      -2.629  -1.159   1.643  1.00  0.00     0.033 A 
ATOM      3  C   UNL     1       0.157  -1.190   1.445  1.00  0.00     0.065 A 
ATOM      4  N   UNL     1      -2.442   0.161  -0.503  1.00  0.00    -0.209 NA
ATOM      5  O   UNL     1      -0.272   0.128  -0.652  1.00  0.00    -0.436 OA
ATOM      6  C   UNL     1      -0.491  -1.815   2.512  1.00  0.00     0.063 A 
ATOM      7  C   UNL     1      -1.417   0.548  -1.221  1.00  0.00     0.227 A 
ATOM      8  C   UNL     1      -1.992  -0.528   0.568  1.00  0.00     0.110 A 
ATOM      9  C   UNL     1      -0.589  -0.551   0.473  1.00  0.00     0.156 A 
ENDROOT
BRANCH   6  10
ATOM     10  C   UNL     1       0.298  -2.499   3.553  1.00  0.00     0.335 C 
ATOM     11  O   UNL     1       1.395  -2.076   3.859  1.00  0.00    -0.246 OA
BRANCH  10  12
ATOM     12  O   UNL     1      -0.196  -3.594   4.164  1.00  0.00    -0.478 OA
ATOM     13  H   UNL     1      -0.342  -4.375   3.614  1.00  0.00     0.297 HD
ENDBRANCH  10  12
ENDBRANCH   6  10
BRANCH   7  14
ATOM     14  C   UNL     1      -1.507   1.329  -2.473  1.00  0.00     0.040 A 
ATOM     15  C   UNL     1      -2.753   1.696  -2.982  1.00  0.00     0.034 A 
ATOM     16  C   UNL     1      -0.344   1.702  -3.150  1.00  0.00     0.034 A 
ATOM     17  C   UNL     1      -2.830   2.426  -4.152  1.00  0.00     0.043 A 
ATOM     18  C   UNL     1      -0.434   2.432  -4.318  1.00  0.00     0.043 A 
ATOM     19  C   UNL     1      -1.673   2.793  -4.819  1.00  0.00     0.041 A 
ATOM     20  Cl  UNL     1      -4.378   2.885  -4.787  1.00  0.00    -0.084 Cl
ATOM     21  Cl  UNL     1       1.011   2.897  -5.162  1.00  0.00    -0.084 Cl
ENDBRANCH   7  14
TORSDOF 3
ENDMDL
MODEL 3
REMARK VINA RESULT:    -5.110      4.017      7.581
REMARK INTER + INTRA:          -6.152
REMARK INTER:                  -5.858
REMARK INTRA:                  -0.294
REMARK UNBOUND:                -0.295
REMARK SMILES O=C(O)c1ccc2nc(-c3cc(Cl)cc(Cl)c3)oc2c1
REMARK SMILES IDX 5 1 6 2 20 3 8 4 18 5 4 6 9 7 7 8 19 9 2 10 1 11 3 12 10 14
REMARK SMILES IDX 11 15 17 16 12 17 15 18 14 19 13 20 16 21
REMARK H PARENT 3 13
ROOT
ATOM      1  C   UNL     1      -0.949   2.712  -3.299  1.00  0.00     0.018 A 
ATOM      2  C   UNL     1      -0.350   2.419  -2.110  1.00  0.00     0.033 A 
ATOM      3  C   UNL     1      -2.454   0.829  -3.032  1.00  0.00     0.065 A 
ATOM      4  N   UNL     1      -0.405   0.797  -0.173  1.00  0.00    -0.209 NA
ATOM      5  O   UNL     1      -2.041  -0.438  -0.901  1.00  0.00    -0.436 OA
ATOM      6  C   UNL     1      -2.007   1.924  -3.774  1.00  0.00     0.063 A 
ATOM      7  C   UNL     1      -1.151  -0.246   0.091  1.00  0.00     0.227 A 
ATOM      8  C   UNL     1      -0.789   1.323  -1.356  1.00  0.00     0.110 A 
ATOM      9  C   UNL     1      -1.847   0.526  -1.828  1.00  0.00     0.156 A 
ENDROOT
BRANCH   6  10
ATOM     10  C   UNL     1      -2.650   2.255  -5.058  1.00  0.00     0.335 C 
ATOM     11  O   UNL     1      -3.847   2.095  -5.197  1.00  0.00    -0.246 OA
BRANCH  10  12
ATOM     12  O   UNL     1      -1.912   2.733  -6.079  1.00  0.00    -0.478 OA
ATOM     13  H   UNL     1      -1.787   3.690  -6.120  1.00  0.00     0.297 HD
ENDBRANCH  10  12
ENDBRANCH   6  10
BRANCH   7  14
ATOM     14  C   UNL     1      -1.032  -1.088   1.299  1.00  0.00     0.040 A 
ATOM     15  C   UNL     1      -0.019  -0.844   2.228  1.00  0.00     0.034 A 
ATOM     16  C   UNL     1      -1.933  -2.133   1.516  1.00  0.00     0.034 A 
ATOM     17  C   UNL     1       0.086  -1.634   3.355  1.00  0.00     0.043 A 
ATOM     18  C   UNL     1      -1.818  -2.916   2.648  1.00  0.00     0.043 A 
ATOM     19  C   UNL     1      -0.811  -2.668   3.565  1.00  0.00     0.041 A 
ATOM     20  Cl  UNL     1       1.344  -1.332   4.511  1.00  0.00    -0.084 Cl
ATOM     21  Cl  UNL     1      -2.937  -4.215   2.920  1.00  0.00    -0.084 Cl
ENDBRANCH   7  14
TORSDOF 3
ENDMDL
MODEL 4
REMARK VINA RESULT:    -5.025      4.023      7.787
REMARK INTER + INTRA:          -6.055
REMARK INTER:                  -5.758
REMARK INTRA:                  -0.297
REMARK UNBOUND:                -0.295
REMARK SMILES O=C(O)c1ccc2nc(-c3cc(Cl)cc(Cl)c3)oc2c1
REMARK SMILES IDX 5 1 6 2 20 3 8 4 18 5 4 6 9 7 7 8 19 9 2 10 1 11 3 12 10 14
REMARK SMILES IDX 11 15 17 16 12 17 15 18 14 19 13 20 16 21
REMARK H PARENT 3 13
ROOT
ATOM      1  C   UNL     1      -0.846   2.671  -3.284  1.00  0.00     0.018 A 
ATOM      2  C   UNL     1      -0.244   2.359  -2.102  1.00  0.00     0.033 A 
ATOM      3  C   UNL     1      -2.417   0.846  -2.993  1.00  0.00     0.065 A 
ATOM      4  N   UNL     1      -0.334   0.745  -0.160  1.00  0.00    -0.209 NA
ATOM      5  O   UNL     1      -2.024  -0.431  -0.864  1.00  0.00    -0.436 OA
ATOM      6  C   UNL     1      -1.939   1.922  -3.743  1.00  0.00     0.063 A 
ATOM      7  C   UNL     1      -1.115  -0.270   0.116  1.00  0.00     0.227 A 
ATOM      8  C   UNL     1      -0.714   1.282  -1.339  1.00  0.00     0.110 A 
ATOM      9  C   UNL     1      -1.806   0.523  -1.796  1.00  0.00     0.156 A 
ENDROOT
BRANCH   6  10
ATOM     10  C   UNL     1      -2.585   2.273  -5.021  1.00  0.00     0.335 C 
ATOM     11  O   UNL     1      -3.733   1.935  -5.233  1.00  0.00    -0.246 OA
BRANCH  10  12
ATOM     12  O   UNL     1      -1.903   2.967  -5.954  1.00  0.00    -0.478 OA
ATOM     13  H   UNL     1      -1.334   3.682  -5.640  1.00  0.00     0.297 HD
ENDBRANCH  10  12
ENDBRANCH   6  10
BRANCH   7  14
ATOM     14  C   UNL     1      -1.013  -1.113   1.326  1.00  0.00     0.040 A 
ATOM     15  C   UNL     1      -1.906  -2.166   1.524  1.00  0.00     0.034 A 
ATOM     16  C   UNL     1      -0.021  -0.857   2.275  1.00  0.00     0.034 A 
ATOM     17  C   UNL     1      -1.804  -2.951   2.655  1.00  0.00     0.043 A 
ATOM     18  C   UNL     1       0.071  -1.649   3.403  1.00  0.00     0.043 A 
ATOM     19  C   UNL     1      -0.819  -2.693   3.593  1.00  0.00     0.041 A 
ATOM     20  Cl  UNL     1      -2.913  -4.263   2.903  1.00  0.00    -0.084 Cl
ATOM     21  Cl  UNL     1       1.303  -1.333   4.585  1.00  0.00    -0.084 Cl
ENDBRANCH   7  14
TORSDOF 3
ENDMDL
MODEL 5
REMARK VINA RESULT:    -3.939     14.261     14.795
REMARK INTER + INTRA:          -4.810
REMARK INTER:                  -4.525
REMARK INTRA:                  -0.285
REMARK UNBOUND:                -0.295
REMARK SMILES O=C(O)c1ccc2nc(-c3cc(Cl)cc(Cl)c3)oc2c1
REMARK SMILES IDX 5 1 6 2 20 3 8 4 18 5 4 6 9 7 7 8 19 9 2 10 1 11 3 12 10 14
REMARK SMILES IDX 11 15 17 16 12 17 15 18 14 19 13 20 16 21
REMARK H PARENT 3 13
ROOT
ATOM      1  C   UNL     1       7.266 -14.680  -6.566  1.00  0.00     0.018 A 
ATOM      2  C   UNL     1       6.559 -13.883  -7.417  1.00  0.00     0.033 A 
ATOM      3  C   UNL     1       6.331 -13.512  -4.658  1.00  0.00     0.065 A 
ATOM      4  N   UNL     1       4.922 -11.961  -7.483  1.00  0.00    -0.209 NA
ATOM      5  O   UNL     1       4.753 -11.675  -5.333  1.00  0.00    -0.436 OA
ATOM      6  C   UNL     1       7.160 -14.507  -5.179  1.00  0.00     0.063 A 
ATOM      7  C   UNL     1       4.349 -11.249  -6.545  1.00  0.00     0.227 A 
ATOM      8  C   UNL     1       5.724 -12.881  -6.907  1.00  0.00     0.110 A 
ATOM      9  C   UNL     1       5.616 -12.698  -5.518  1.00  0.00     0.156 A 
ENDROOT
BRANCH   6  10
ATOM     10  C   UNL     1       7.924 -15.379  -4.269  1.00  0.00     0.335 C 
ATOM     11  O   UNL     1       7.688 -16.569  -4.228  1.00  0.00    -0.246 OA
BRANCH  10  12
ATOM     12  O   UNL     1       8.884 -14.855  -3.482  1.00  0.00    -0.478 OA
ATOM     13  H   UNL     1       9.403 -14.125  -3.847  1.00  0.00     0.297 HD
ENDBRANCH  10  12
ENDBRANCH   6  10
BRANCH   7  14
ATOM     14  C   UNL     1       3.399 -10.142  -6.782  1.00  0.00     0.040 A 
ATOM     15  C   UNL     1       3.373  -9.044  -5.921  1.00  0.00     0.034 A 
ATOM     16  C   UNL     1       2.523 -10.191  -7.868  1.00  0.00     0.034 A 
ATOM     17  C   UNL     1       2.484  -8.012  -6.149  1.00  0.00     0.043 A 
ATOM     18  C   UNL     1       1.639  -9.153  -8.085  1.00  0.00     0.043 A 
ATOM     19  C   UNL     1       1.618  -8.067  -7.228  1.00  0.00     0.041 A 
ATOM     20  Cl  UNL     1       2.451  -6.645  -5.080  1.00  0.00    -0.084 Cl
ATOM     21  Cl  UNL     1       0.549  -9.212  -9.436  1.00  0.00    -0.084 Cl
ENDBRANCH   7  14
TORSDOF 3
ENDMDL
MODEL 6
REMARK VINA RESULT:    -3.939     14.254     14.828
REMARK INTER + INTRA:          -4.810
REMARK INTER:                  -4.524
REMARK INTRA:                  -0.285
REMARK UNBOUND:                -0.295
REMARK SMILES O=C(O)c1ccc2nc(-c3cc(Cl)cc(Cl)c3)oc2c1
REMARK SMILES IDX 5 1 6 2 20 3 8 4 18 5 4 6 9 7 7 8 19 9 2 10 1 11 3 12 10 14
REMARK SMILES IDX 11 15 17 16 12 17 15 18 14 19 13 20 16 21
REMARK H PARENT 3 13
ROOT
ATOM      1  C   UNL     1       7.268 -14.671  -6.558  1.00  0.00     0.018 A 
ATOM      2  C   UNL     1       6.563 -13.874  -7.410  1.00  0.00     0.033 A 
ATOM      3  C   UNL     1       6.323 -13.508  -4.651  1.00  0.00     0.065 A 
ATOM      4  N   UNL     1       4.922 -11.955  -7.479  1.00  0.00    -0.209 NA
ATOM      5  O   UNL     1       4.745 -11.673  -5.329  1.00  0.00    -0.436 OA
ATOM      6  C   UNL     1       7.156 -14.501  -5.171  1.00  0.00     0.063 A 
ATOM      7  C   UNL     1       4.344 -11.246  -6.541  1.00  0.00     0.227 A 
ATOM      8  C   UNL     1       5.724 -12.875  -6.901  1.00  0.00     0.110 A 
ATOM      9  C   UNL     1       5.611 -12.694  -5.512  1.00  0.00     0.156 A 
ENDROOT
BRANCH   6  10
ATOM     10  C   UNL     1       7.919 -15.372  -4.259  1.00  0.00     0.335 C 
ATOM     11  O   UNL     1       7.654 -16.556  -4.188  1.00  0.00    -0.246 OA
BRANCH  10  12
ATOM     12  O   UNL     1       8.909 -14.857  -3.504  1.00  0.00    -0.478 OA
ATOM     13  H   UNL     1       9.490 -14.209  -3.924  1.00  0.00     0.297 HD
ENDBRANCH  10  12
ENDBRANCH   6  10
BRANCH   7  14
ATOM     14  C   UNL     1       3.393 -10.140  -6.780  1.00  0.00     0.040 A 
ATOM     15  C   UNL     1       2.527 -10.184  -7.873  1.00  0.00     0.034 A 
ATOM     16  C   UNL     1       3.359  -9.046  -5.912  1.00  0.00     0.034 A 
ATOM     17  C   UNL     1       1.640  -9.148  -8.089  1.00  0.00     0.043 A 
ATOM     18  C   UNL     1       2.468  -8.017  -6.139  1.00  0.00     0.043 A 
ATOM     19  C   UNL     1       1.611  -8.066  -7.225  1.00  0.00     0.041 A 
ATOM     20  Cl  UNL     1       0.561  -9.200  -9.448  1.00  0.00    -0.084 Cl
ATOM     21  Cl  UNL     1       2.423  -6.656  -5.062  1.00  0.00    -0.084 Cl
ENDBRANCH   7  14
TORSDOF 3
ENDMDL
MODEL 7
REMARK VINA RESULT:    -3.693     11.027     11.929
REMARK INTER + INTRA:          -4.528
REMARK INTER:                  -4.232
REMARK INTRA:                  -0.296
REMARK UNBOUND:                -0.295
REMARK SMILES O=C(O)c1ccc2nc(-c3cc(Cl)cc(Cl)c3)oc2c1
REMARK SMILES IDX 5 1 6 2 20 3 8 4 18 5 4 6 9 7 7 8 19 9 2 10 1 11 3 12 10 14
REMARK SMILES IDX 11 15 17 16 12 17 15 18 14 19 13 20 16 21
REMARK H PARENT 3 13
ROOT
ATOM      1  C   UNL     1       3.033 -10.959  -8.263  1.00  0.00     0.018 A 
ATOM      2  C   UNL     1       3.346 -10.168  -7.198  1.00  0.00     0.033 A 
ATOM      3  C   UNL     1       1.096  -9.582  -8.746  1.00  0.00     0.065 A 
ATOM      4  N   UNL     1       2.592  -8.127  -5.915  1.00  0.00    -0.209 NA
ATOM      5  O   UNL     1       0.839  -7.680  -7.122  1.00  0.00    -0.436 OA
ATOM      6  C   UNL     1       1.908 -10.676  -9.051  1.00  0.00     0.063 A 
ATOM      7  C   UNL     1       1.581  -7.307  -6.063  1.00  0.00     0.227 A 
ATOM      8  C   UNL     1       2.540  -9.068  -6.882  1.00  0.00     0.110 A 
ATOM      9  C   UNL     1       1.407  -8.781  -7.663  1.00  0.00     0.156 A 
ENDROOT
BRANCH   6  10
ATOM     10  C   UNL     1       1.582 -11.535 -10.204  1.00  0.00     0.335 C 
ATOM     11  O   UNL     1       0.581 -11.321 -10.857  1.00  0.00    -0.246 OA
BRANCH  10  12
ATOM     12  O   UNL     1       2.395 -12.559 -10.533  1.00  0.00    -0.478 OA
ATOM     13  H   UNL     1       2.339 -12.890 -11.439  1.00  0.00     0.297 HD
ENDBRANCH  10  12
ENDBRANCH   6  10
BRANCH   7  14
ATOM     14  C   UNL     1       1.299  -6.145  -5.195  1.00  0.00     0.040 A 
ATOM     15  C   UNL     1      -0.012  -5.693  -5.034  1.00  0.00     0.034 A 
ATOM     16  C   UNL     1       2.342  -5.495  -4.533  1.00  0.00     0.034 A 
ATOM     17  C   UNL     1      -0.269  -4.607  -4.221  1.00  0.00     0.043 A 
ATOM     18  C   UNL     1       2.072  -4.411  -3.723  1.00  0.00     0.043 A 
ATOM     19  C   UNL     1       0.770  -3.967  -3.567  1.00  0.00     0.041 A 
ATOM     20  Cl  UNL     1      -1.898  -4.043  -4.019  1.00  0.00    -0.084 Cl
ATOM     21  Cl  UNL     1       3.368  -3.601  -2.899  1.00  0.00    -0.084 Cl
ENDBRANCH   7  14
TORSDOF 3
ENDMDL
MODEL 8
REMARK VINA RESULT:    -3.690     11.025     11.763
REMARK INTER + INTRA:          -4.524
REMARK INTER:                  -4.228
REMARK INTRA:                  -0.296
REMARK UNBOUND:                -0.295
REMARK SMILES O=C(O)c1ccc2nc(-c3cc(Cl)cc(Cl)c3)oc2c1
REMARK SMILES IDX 5 1 6 2 20 3 8 4 18 5 4 6 9 7 7 8 19 9 2 10 1 11 3 12 10 14
REMARK SMILES IDX 11 15 17 16 12 17 15 18 14 19 13 20 16 21
REMARK H PARENT 3 13
ROOT
ATOM      1  C   UNL     1       3.030 -10.958  -8.264  1.00  0.00     0.018 A 
ATOM      2  C   UNL     1       3.343 -10.168  -7.198  1.00  0.00     0.033 A 
ATOM      3  C   UNL     1       1.094  -9.580  -8.746  1.00  0.00     0.065 A 
ATOM      4  N   UNL     1       2.590  -8.128  -5.914  1.00  0.00    -0.209 NA
ATOM      5  O   UNL     1       0.837  -7.679  -7.121  1.00  0.00    -0.436 OA
ATOM      6  C   UNL     1       1.905 -10.674  -9.052  1.00  0.00     0.063 A 
ATOM      7  C   UNL     1       1.579  -7.307  -6.062  1.00  0.00     0.227 A 
ATOM      8  C   UNL     1       2.537  -9.068  -6.881  1.00  0.00     0.110 A 
ATOM      9  C   UNL     1       1.405  -8.780  -7.663  1.00  0.00     0.156 A 
ENDROOT
BRANCH   6  10
ATOM     10  C   UNL     1       1.580 -11.532 -10.205  1.00  0.00     0.335 C 
ATOM     11  O   UNL     1       0.586 -11.309 -10.867  1.00  0.00    -0.246 OA
BRANCH  10  12
ATOM     12  O   UNL     1       2.385 -12.565 -10.526  1.00  0.00    -0.478 OA
ATOM     13  H   UNL     1       2.084 -13.449 -10.278  1.00  0.00     0.297 HD
ENDBRANCH  10  12
ENDBRANCH   6  10
BRANCH   7  14
ATOM     14  C   UNL     1       1.296  -6.146  -5.193  1.00  0.00     0.040 A 
ATOM     15  C   UNL     1       2.338  -5.497  -4.529  1.00  0.00     0.034 A 
ATOM     16  C   UNL     1      -0.015  -5.694  -5.033  1.00  0.00     0.034 A 
ATOM     17  C   UNL     1       2.067  -4.412  -3.719  1.00  0.00     0.043 A 
ATOM     18  C   UNL     1      -0.273  -4.608  -4.221  1.00  0.00     0.043 A 
ATOM     19  C   UNL     1       0.764  -3.969  -3.565  1.00  0.00     0.041 A 
ATOM     20  Cl  UNL     1       3.361  -3.603  -2.893  1.00  0.00    -0.084 Cl
ATOM     21  Cl  UNL     1      -1.903  -4.044  -4.020  1.00  0.00    -0.084 Cl
ENDBRANCH   7  14
TORSDOF 3
ENDMDL
MODEL 9
REMARK VINA RESULT:    -3.599     10.186     11.105
REMARK INTER + INTRA:          -4.420
REMARK INTER:                  -4.123
REMARK INTRA:                  -0.297
REMARK UNBOUND:                -0.295
REMARK SMILES O=C(O)c1ccc2nc(-c3cc(Cl)cc(Cl)c3)oc2c1
REMARK SMILES IDX 5 1 6 2 20 3 8 4 18 5 4 6 9 7 7 8 19 9 2 10 1 11 3 12 10 14
REMARK SMILES IDX 11 15 17 16 12 17 15 18 14 19 13 20 16 21
REMARK H PARENT 3 13
ROOT
ATOM      1  C   UNL     1       1.575  -4.265  -3.231  1.00  0.00     0.018 A 
ATOM      2  C   UNL     1       2.481  -5.220  -3.584  1.00  0.00     0.033 A 
ATOM      3  C   UNL     1      -0.018  -5.150  -4.831  1.00  0.00     0.065 A 
ATOM      4  N   UNL     1       2.829  -7.197  -5.117  1.00  0.00    -0.209 NA
ATOM      5  O   UNL     1       0.882  -7.133  -6.087  1.00  0.00    -0.436 OA
ATOM      6  C   UNL     1       0.316  -4.218  -3.847  1.00  0.00     0.063 A 
ATOM      7  C   UNL     1       2.066  -7.770  -6.016  1.00  0.00     0.227 A 
ATOM      8  C   UNL     1       2.159  -6.161  -4.570  1.00  0.00     0.110 A 
ATOM      9  C   UNL     1       0.900  -6.118  -5.196  1.00  0.00     0.156 A 
ENDROOT
BRANCH   6  10
ATOM     10  C   UNL     1      -0.657  -3.184  -3.453  1.00  0.00     0.335 C 
ATOM     11  O   UNL     1      -0.380  -2.393  -2.574  1.00  0.00    -0.246 OA
BRANCH  10  12
ATOM     12  O   UNL     1      -1.856  -3.117  -4.066  1.00  0.00    -0.478 OA
ATOM     13  H   UNL     1      -2.293  -2.255  -4.083  1.00  0.00     0.297 HD
ENDBRANCH  10  12
ENDBRANCH   6  10
BRANCH   7  14
ATOM     14  C   UNL     1       2.451  -8.941  -6.831  1.00  0.00     0.040 A 
ATOM     15  C   UNL     1       1.716  -9.275  -7.968  1.00  0.00     0.034 A 
ATOM     16  C   UNL     1       3.552  -9.718  -6.464  1.00  0.00     0.034 A 
ATOM     17  C   UNL     1       2.081 -10.370  -8.726  1.00  0.00     0.043 A 
ATOM     18  C   UNL     1       3.907 -10.811  -7.230  1.00  0.00     0.043 A 
ATOM     19  C   UNL     1       3.173 -11.137  -8.357  1.00  0.00     0.041 A 
ATOM     20  Cl  UNL     1       1.168 -10.788 -10.142  1.00  0.00    -0.084 Cl
ATOM     21  Cl  UNL     1       5.275 -11.778  -6.776  1.00  0.00    -0.084 Cl
ENDBRANCH   7  14
TORSDOF 3
ENDMDL
