MODEL 1
REMARK VINA RESULT:    -5.558      0.000      0.000
REMARK INTER + INTRA:          -8.088
REMARK INTER:                  -7.670
REMARK INTRA:                  -0.418
REMARK UNBOUND:                -0.418
REMARK SMILES Cc1n[nH]c(C)c1CCCOc1cc(C(=O)O)ccc1F
REMARK SMILES IDX 11 1 12 2 14 3 18 4 13 5 19 6 20 7 21 8 15 9 16 10 17 11
REMARK SMILES IDX 10 13 9 14 8 15 7 16 5 17 2 18 4 19 3 20 6 21 1 22
REMARK H PARENT 17 12 4 23
ROOT
ATOM      1  O   UNL     1       2.451  -4.992  -6.557  1.00  0.00    -0.490 OA
ENDROOT
BRANCH   1   2
ATOM      2  C   UNL     1       1.648  -4.794  -5.477  1.00  0.00     0.155 A 
ATOM      3  C   UNL     1      -0.507  -4.948  -4.421  1.00  0.00     0.063 A 
ATOM      4  C   UNL     1       0.028  -4.389  -3.257  1.00  0.00     0.019 A 
ATOM      5  C   UNL     1       0.313  -5.149  -5.533  1.00  0.00     0.065 A 
ATOM      6  C   UNL     1       1.362  -4.043  -3.209  1.00  0.00     0.044 A 
ATOM      7  C   UNL     1       2.174  -4.248  -4.312  1.00  0.00     0.165 A 
ATOM      8  F   UNL     1       3.481  -3.907  -4.258  1.00  0.00    -0.203 F 
BRANCH   3   9
ATOM      9  C   UNL     1      -1.934  -5.320  -4.476  1.00  0.00     0.335 C 
ATOM     10  O   UNL     1      -2.482  -5.470  -5.549  1.00  0.00    -0.246 OA
BRANCH   9  11
ATOM     11  O   UNL     1      -2.627  -5.500  -3.335  1.00  0.00    -0.478 OA
ATOM     12  H   UNL     1      -2.399  -6.272  -2.799  1.00  0.00     0.297 HD
ENDBRANCH   9  11
ENDBRANCH   3   9
ENDBRANCH   1   2
BRANCH   1  13
ATOM     13  C   UNL     1       3.586  -5.841  -6.373  1.00  0.00     0.230 C 
BRANCH  13  14
ATOM     14  C   UNL     1       3.458  -7.066  -7.281  1.00  0.00     0.046 C 
BRANCH  14  15
ATOM     15  C   UNL     1       2.716  -8.178  -6.537  1.00  0.00     0.043 C 
BRANCH  15  16
ATOM     16  C   UNL     1       2.946  -9.492  -7.236  1.00  0.00    -0.004 A 
ATOM     17  C   UNL     1       2.222  -9.983  -8.269  1.00  0.00     0.036 A 
ATOM     18  C   UNL     1       3.951 -10.418  -6.937  1.00  0.00     0.063 A 
ATOM     19  N   UNL     1       2.745 -11.180  -8.607  1.00  0.00    -0.282 N 
ATOM     20  N   UNL     1       3.827 -11.433  -7.753  1.00  0.00    -0.181 NA
ATOM     21  C   UNL     1       1.043  -9.312  -8.924  1.00  0.00     0.066 C 
ATOM     22  C   UNL     1       4.989 -10.277  -5.853  1.00  0.00     0.069 C 
ATOM     23  H   UNL     1       2.428 -11.762  -9.315  1.00  0.00     0.190 HD
ENDBRANCH  15  16
ENDBRANCH  14  15
ENDBRANCH  13  14
ENDBRANCH   1  13
TORSDOF 7
ENDMDL
MODEL 2
REMARK VINA RESULT:    -5.540      2.332      3.951
REMARK INTER + INTRA:          -8.063
REMARK INTER:                  -7.606
REMARK INTRA:                  -0.456
REMARK UNBOUND:                -0.418
REMARK SMILES Cc1n[nH]c(C)c1CCCOc1cc(C(=O)O)ccc1F
REMARK SMILES IDX 11 1 12 2 14 3 18 4 13 5 19 6 20 7 21 8 15 9 16 10 17 11
REMARK SMILES IDX 10 13 9 14 8 15 7 16 5 17 2 18 4 19 3 20 6 21 1 22
REMARK H PARENT 17 12 4 23
ROOT
ATOM      1  O   UNL     1       0.158  -7.844  -3.727  1.00  0.00    -0.490 OA
ENDROOT
BRANCH   1   2
ATOM      2  C   UNL     1       0.359  -6.499  -3.726  1.00  0.00     0.155 A 
ATOM      3  C   UNL     1       1.836  -4.609  -3.567  1.00  0.00     0.063 A 
ATOM      4  C   UNL     1       0.748  -3.749  -3.737  1.00  0.00     0.019 A 
ATOM      5  C   UNL     1       1.633  -5.990  -3.562  1.00  0.00     0.065 A 
ATOM      6  C   UNL     1      -0.520  -4.266  -3.905  1.00  0.00     0.044 A 
ATOM      7  C   UNL     1      -0.717  -5.637  -3.905  1.00  0.00     0.165 A 
ATOM      8  F   UNL     1      -1.961  -6.137  -4.071  1.00  0.00    -0.203 F 
BRANCH   3   9
ATOM      9  C   UNL     1       3.194  -4.058  -3.387  1.00  0.00     0.335 C 
ATOM     10  O   UNL     1       4.066  -4.742  -2.892  1.00  0.00    -0.246 OA
BRANCH   9  11
ATOM     11  O   UNL     1       3.467  -2.798  -3.779  1.00  0.00    -0.478 OA
ATOM     12  H   UNL     1       3.570  -2.646  -4.729  1.00  0.00     0.297 HD
ENDBRANCH   9  11
ENDBRANCH   3   9
ENDBRANCH   1   2
BRANCH   1  13
ATOM     13  C   UNL     1      -0.377  -8.419  -4.921  1.00  0.00     0.230 C 
BRANCH  13  14
ATOM     14  C   UNL     1       0.638  -9.397  -5.515  1.00  0.00     0.046 C 
BRANCH  14  15
ATOM     15  C   UNL     1       1.500  -8.671  -6.550  1.00  0.00     0.043 C 
BRANCH  15  16
ATOM     16  C   UNL     1       2.170  -9.681  -7.445  1.00  0.00    -0.004 A 
ATOM     17  C   UNL     1       3.335 -10.322  -7.190  1.00  0.00     0.036 A 
ATOM     18  C   UNL     1       1.695 -10.128  -8.682  1.00  0.00     0.063 A 
ATOM     19  N   UNL     1       3.591 -11.140  -8.233  1.00  0.00    -0.282 N 
ATOM     20  N   UNL     1       2.549 -10.997  -9.159  1.00  0.00    -0.181 NA
ATOM     21  C   UNL     1       4.192 -10.153  -5.963  1.00  0.00     0.066 C 
ATOM     22  C   UNL     1       0.424  -9.677  -9.356  1.00  0.00     0.069 C 
ATOM     23  H   UNL     1       4.360 -11.723  -8.326  1.00  0.00     0.190 HD
ENDBRANCH  15  16
ENDBRANCH  14  15
ENDBRANCH  13  14
ENDBRANCH   1  13
TORSDOF 7
ENDMDL
MODEL 3
REMARK VINA RESULT:    -5.495      0.160      1.772
REMARK INTER + INTRA:          -8.001
REMARK INTER:                  -7.498
REMARK INTRA:                  -0.503
REMARK UNBOUND:                -0.418
REMARK SMILES Cc1n[nH]c(C)c1CCCOc1cc(C(=O)O)ccc1F
REMARK SMILES IDX 11 1 12 2 14 3 18 4 13 5 19 6 20 7 21 8 15 9 16 10 17 11
REMARK SMILES IDX 10 13 9 14 8 15 7 16 5 17 2 18 4 19 3 20 6 21 1 22
REMARK H PARENT 17 12 4 23
ROOT
ATOM      1  O   UNL     1       2.463  -5.061  -6.503  1.00  0.00    -0.490 OA
ENDROOT
BRANCH   1   2
ATOM      2  C   UNL     1       1.648  -4.825  -5.440  1.00  0.00     0.155 A 
ATOM      3  C   UNL     1      -0.519  -4.940  -4.405  1.00  0.00     0.063 A 
ATOM      4  C   UNL     1       0.003  -4.345  -3.254  1.00  0.00     0.019 A 
ATOM      5  C   UNL     1       0.313  -5.179  -5.501  1.00  0.00     0.065 A 
ATOM      6  C   UNL     1       1.337  -4.001  -3.201  1.00  0.00     0.044 A 
ATOM      7  C   UNL     1       2.162  -4.243  -4.287  1.00  0.00     0.165 A 
ATOM      8  F   UNL     1       3.469  -3.904  -4.228  1.00  0.00    -0.203 F 
BRANCH   3   9
ATOM      9  C   UNL     1      -1.947  -5.310  -4.466  1.00  0.00     0.335 C 
ATOM     10  O   UNL     1      -2.491  -5.461  -5.541  1.00  0.00    -0.246 OA
BRANCH   9  11
ATOM     11  O   UNL     1      -2.646  -5.486  -3.327  1.00  0.00    -0.478 OA
ATOM     12  H   UNL     1      -3.559  -5.166  -3.317  1.00  0.00     0.297 HD
ENDBRANCH   9  11
ENDBRANCH   3   9
ENDBRANCH   1   2
BRANCH   1  13
ATOM     13  C   UNL     1       3.537  -5.983  -6.304  1.00  0.00     0.230 C 
BRANCH  13  14
ATOM     14  C   UNL     1       3.378  -7.164  -7.264  1.00  0.00     0.046 C 
BRANCH  14  15
ATOM     15  C   UNL     1       2.697  -8.325  -6.536  1.00  0.00     0.043 C 
BRANCH  15  16
ATOM     16  C   UNL     1       3.062  -9.623  -7.208  1.00  0.00    -0.004 A 
ATOM     17  C   UNL     1       4.075 -10.448  -6.851  1.00  0.00     0.036 A 
ATOM     18  C   UNL     1       2.411 -10.193  -8.307  1.00  0.00     0.063 A 
ATOM     19  N   UNL     1       4.068 -11.498  -7.698  1.00  0.00    -0.282 N 
ATOM     20  N   UNL     1       3.017 -11.313  -8.605  1.00  0.00    -0.181 NA
ATOM     21  C   UNL     1       5.036 -10.231  -5.711  1.00  0.00     0.066 C 
ATOM     22  C   UNL     1       1.223  -9.611  -9.030  1.00  0.00     0.069 C 
ATOM     23  H   UNL     1       4.683 -12.248  -7.681  1.00  0.00     0.190 HD
ENDBRANCH  15  16
ENDBRANCH  14  15
ENDBRANCH  13  14
ENDBRANCH   1  13
TORSDOF 7
ENDMDL
MODEL 4
REMARK VINA RESULT:    -4.863      9.619     10.712
REMARK INTER + INTRA:          -7.129
REMARK INTER:                  -6.794
REMARK INTRA:                  -0.336
REMARK UNBOUND:                -0.418
REMARK SMILES Cc1n[nH]c(C)c1CCCOc1cc(C(=O)O)ccc1F
REMARK SMILES IDX 11 1 12 2 14 3 18 4 13 5 19 6 20 7 21 8 15 9 16 10 17 11
REMARK SMILES IDX 10 13 9 14 8 15 7 16 5 17 2 18 4 19 3 20 6 21 1 22
REMARK H PARENT 17 12 4 23
ROOT
ATOM      1  O   UNL     1      -0.990  -1.211  -0.497  1.00  0.00    -0.490 OA
ENDROOT
BRANCH   1   2
ATOM      2  C   UNL     1      -0.738  -1.572   0.789  1.00  0.00     0.155 A 
ATOM      3  C   UNL     1      -1.403  -2.687   2.813  1.00  0.00     0.063 A 
ATOM      4  C   UNL     1      -0.198  -2.308   3.413  1.00  0.00     0.019 A 
ATOM      5  C   UNL     1      -1.667  -2.313   1.494  1.00  0.00     0.065 A 
ATOM      6  C   UNL     1       0.726  -1.574   2.700  1.00  0.00     0.044 A 
ATOM      7  C   UNL     1       0.463  -1.209   1.390  1.00  0.00     0.165 A 
ATOM      8  F   UNL     1       1.373  -0.489   0.696  1.00  0.00    -0.203 F 
BRANCH   3   9
ATOM      9  C   UNL     1      -2.394  -3.473   3.573  1.00  0.00     0.335 C 
ATOM     10  O   UNL     1      -2.885  -3.016   4.585  1.00  0.00    -0.246 OA
BRANCH   9  11
ATOM     11  O   UNL     1      -2.758  -4.696   3.141  1.00  0.00    -0.478 OA
ATOM     12  H   UNL     1      -3.540  -4.747   2.573  1.00  0.00     0.297 HD
ENDBRANCH   9  11
ENDBRANCH   3   9
ENDBRANCH   1   2
BRANCH   1  13
ATOM     13  C   UNL     1      -1.314   0.162  -0.734  1.00  0.00     0.230 C 
BRANCH  13  14
ATOM     14  C   UNL     1      -1.242   0.450  -2.234  1.00  0.00     0.046 C 
BRANCH  14  15
ATOM     15  C   UNL     1      -1.007   1.946  -2.456  1.00  0.00     0.043 C 
BRANCH  15  16
ATOM     16  C   UNL     1      -1.488   2.333  -3.830  1.00  0.00    -0.004 A 
ATOM     17  C   UNL     1      -0.706   2.628  -4.894  1.00  0.00     0.036 A 
ATOM     18  C   UNL     1      -2.823   2.446  -4.233  1.00  0.00     0.063 A 
ATOM     19  N   UNL     1      -1.517   2.922  -5.932  1.00  0.00    -0.282 N 
ATOM     20  N   UNL     1      -2.842   2.806  -5.491  1.00  0.00    -0.181 NA
ATOM     21  C   UNL     1       0.800   2.626  -4.916  1.00  0.00     0.066 C 
ATOM     22  C   UNL     1      -4.032   2.206  -3.365  1.00  0.00     0.069 C 
ATOM     23  H   UNL     1      -1.233   3.172  -6.825  1.00  0.00     0.190 HD
ENDBRANCH  15  16
ENDBRANCH  14  15
ENDBRANCH  13  14
ENDBRANCH   1  13
TORSDOF 7
ENDMDL
MODEL 5
REMARK VINA RESULT:    -4.650      3.746      6.469
REMARK INTER + INTRA:          -6.835
REMARK INTER:                  -5.997
REMARK INTRA:                  -0.838
REMARK UNBOUND:                -0.418
REMARK SMILES Cc1n[nH]c(C)c1CCCOc1cc(C(=O)O)ccc1F
REMARK SMILES IDX 11 1 12 2 14 3 18 4 13 5 19 6 20 7 21 8 15 9 16 10 17 11
REMARK SMILES IDX 10 13 9 14 8 15 7 16 5 17 2 18 4 19 3 20 6 21 1 22
REMARK H PARENT 17 12 4 23
ROOT
ATOM      1  O   UNL     1       2.827  -7.567  -5.453  1.00  0.00    -0.490 OA
ENDROOT
BRANCH   1   2
ATOM      2  C   UNL     1       2.803  -8.578  -6.363  1.00  0.00     0.155 A 
ATOM      3  C   UNL     1       1.862  -9.598  -8.326  1.00  0.00     0.063 A 
ATOM      4  C   UNL     1       2.777 -10.647  -8.215  1.00  0.00     0.019 A 
ATOM      5  C   UNL     1       1.880  -8.560  -7.391  1.00  0.00     0.065 A 
ATOM      6  C   UNL     1       3.698 -10.653  -7.189  1.00  0.00     0.044 A 
ATOM      7  C   UNL     1       3.718  -9.621  -6.266  1.00  0.00     0.165 A 
ATOM      8  F   UNL     1       4.623  -9.632  -5.263  1.00  0.00    -0.203 F 
BRANCH   3   9
ATOM      9  C   UNL     1       0.875  -9.588  -9.424  1.00  0.00     0.335 C 
ATOM     10  O   UNL     1      -0.222 -10.082  -9.259  1.00  0.00    -0.246 OA
BRANCH   9  11
ATOM     11  O   UNL     1       1.189  -9.025 -10.607  1.00  0.00    -0.478 OA
ATOM     12  H   UNL     1       0.918  -9.499 -11.405  1.00  0.00     0.297 HD
ENDBRANCH   9  11
ENDBRANCH   3   9
ENDBRANCH   1   2
BRANCH   1  13
ATOM     13  C   UNL     1       2.600  -6.245  -5.947  1.00  0.00     0.230 C 
BRANCH  13  14
ATOM     14  C   UNL     1       2.404  -5.288  -4.770  1.00  0.00     0.046 C 
BRANCH  14  15
ATOM     15  C   UNL     1       1.686  -6.019  -3.633  1.00  0.00     0.043 C 
BRANCH  15  16
ATOM     16  C   UNL     1       0.197  -5.835  -3.778  1.00  0.00    -0.004 A 
ATOM     17  C   UNL     1      -0.478  -4.670  -3.642  1.00  0.00     0.036 A 
ATOM     18  C   UNL     1      -0.730  -6.837  -4.083  1.00  0.00     0.063 A 
ATOM     19  N   UNL     1      -1.787  -4.927  -3.847  1.00  0.00    -0.282 N 
ATOM     20  N   UNL     1      -1.920  -6.295  -4.118  1.00  0.00    -0.181 NA
ATOM     21  C   UNL     1       0.123  -3.327  -3.319  1.00  0.00     0.066 C 
ATOM     22  C   UNL     1      -0.414  -8.292  -4.319  1.00  0.00     0.069 C 
ATOM     23  H   UNL     1      -2.508  -4.280  -3.812  1.00  0.00     0.190 HD
ENDBRANCH  15  16
ENDBRANCH  14  15
ENDBRANCH  13  14
ENDBRANCH   1  13
TORSDOF 7
ENDMDL
MODEL 6
REMARK VINA RESULT:    -4.592      3.897      6.984
REMARK INTER + INTRA:          -6.754
REMARK INTER:                  -5.948
REMARK INTRA:                  -0.806
REMARK UNBOUND:                -0.418
REMARK SMILES Cc1n[nH]c(C)c1CCCOc1cc(C(=O)O)ccc1F
REMARK SMILES IDX 11 1 12 2 14 3 18 4 13 5 19 6 20 7 21 8 15 9 16 10 17 11
REMARK SMILES IDX 10 13 9 14 8 15 7 16 5 17 2 18 4 19 3 20 6 21 1 22
REMARK H PARENT 17 12 4 23
ROOT
ATOM      1  O   UNL     1       0.859  -7.546  -6.502  1.00  0.00    -0.490 OA
ENDROOT
BRANCH   1   2
ATOM      2  C   UNL     1       1.619  -8.576  -6.959  1.00  0.00     0.155 A 
ATOM      3  C   UNL     1       3.490 -10.065  -6.702  1.00  0.00     0.063 A 
ATOM      4  C   UNL     1       3.154 -10.690  -7.905  1.00  0.00     0.019 A 
ATOM      5  C   UNL     1       2.715  -9.003  -6.232  1.00  0.00     0.065 A 
ATOM      6  C   UNL     1       2.055 -10.261  -8.621  1.00  0.00     0.044 A 
ATOM      7  C   UNL     1       1.285  -9.211  -8.150  1.00  0.00     0.165 A 
ATOM      8  F   UNL     1       0.210  -8.796  -8.856  1.00  0.00    -0.203 F 
BRANCH   3   9
ATOM      9  C   UNL     1       4.665 -10.521  -5.933  1.00  0.00     0.335 C 
ATOM     10  O   UNL     1       5.747 -10.000  -6.111  1.00  0.00    -0.246 OA
BRANCH   9  11
ATOM     11  O   UNL     1       4.535 -11.512  -5.030  1.00  0.00    -0.478 OA
ATOM     12  H   UNL     1       4.251 -12.375  -5.362  1.00  0.00     0.297 HD
ENDBRANCH   9  11
ENDBRANCH   3   9
ENDBRANCH   1   2
BRANCH   1  13
ATOM     13  C   UNL     1       0.406  -7.625  -5.148  1.00  0.00     0.230 C 
BRANCH  13  14
ATOM     14  C   UNL     1      -0.260  -6.305  -4.756  1.00  0.00     0.046 C 
BRANCH  14  15
ATOM     15  C   UNL     1       0.376  -5.158  -5.545  1.00  0.00     0.043 C 
BRANCH  15  16
ATOM     16  C   UNL     1       1.531  -4.590  -4.763  1.00  0.00    -0.004 A 
ATOM     17  C   UNL     1       2.836  -4.641  -5.120  1.00  0.00     0.036 A 
ATOM     18  C   UNL     1       1.444  -3.910  -3.544  1.00  0.00     0.063 A 
ATOM     19  N   UNL     1       3.550  -4.021  -4.156  1.00  0.00    -0.282 N 
ATOM     20  N   UNL     1       2.654  -3.574  -3.176  1.00  0.00    -0.181 NA
ATOM     21  C   UNL     1       3.391  -5.275  -6.368  1.00  0.00     0.066 C 
ATOM     22  C   UNL     1       0.177  -3.623  -2.780  1.00  0.00     0.069 C 
ATOM     23  H   UNL     1       4.512  -3.906  -4.145  1.00  0.00     0.190 HD
ENDBRANCH  15  16
ENDBRANCH  14  15
ENDBRANCH  13  14
ENDBRANCH   1  13
TORSDOF 7
ENDMDL
MODEL 7
REMARK VINA RESULT:    -4.527      4.981      7.936
REMARK INTER + INTRA:          -6.665
REMARK INTER:                  -5.977
REMARK INTRA:                  -0.688
REMARK UNBOUND:                -0.418
REMARK SMILES Cc1n[nH]c(C)c1CCCOc1cc(C(=O)O)ccc1F
REMARK SMILES IDX 11 1 12 2 14 3 18 4 13 5 19 6 20 7 21 8 15 9 16 10 17 11
REMARK SMILES IDX 10 13 9 14 8 15 7 16 5 17 2 18 4 19 3 20 6 21 1 22
REMARK H PARENT 17 12 4 23
ROOT
ATOM      1  O   UNL     1       1.145  -9.738  -8.375  1.00  0.00    -0.490 OA
ENDROOT
BRANCH   1   2
ATOM      2  C   UNL     1       1.145 -10.307  -9.610  1.00  0.00     0.155 A 
ATOM      3  C   UNL     1       1.555 -12.197 -11.038  1.00  0.00     0.063 A 
ATOM      4  C   UNL     1       1.126 -11.453 -12.140  1.00  0.00     0.019 A 
ATOM      5  C   UNL     1       1.562 -11.615  -9.769  1.00  0.00     0.065 A 
ATOM      6  C   UNL     1       0.705 -10.150 -11.971  1.00  0.00     0.044 A 
ATOM      7  C   UNL     1       0.708  -9.577 -10.710  1.00  0.00     0.165 A 
ATOM      8  F   UNL     1       0.295  -8.300 -10.551  1.00  0.00    -0.203 F 
BRANCH   3   9
ATOM      9  C   UNL     1       2.006 -13.591 -11.216  1.00  0.00     0.335 C 
ATOM     10  O   UNL     1       2.048 -14.079 -12.327  1.00  0.00    -0.246 OA
BRANCH   9  11
ATOM     11  O   UNL     1       2.375 -14.321 -10.145  1.00  0.00    -0.478 OA
ATOM     12  H   UNL     1       3.175 -14.858 -10.235  1.00  0.00     0.297 HD
ENDBRANCH   9  11
ENDBRANCH   3   9
ENDBRANCH   1   2
BRANCH   1  13
ATOM     13  C   UNL     1       2.420  -9.455  -7.792  1.00  0.00     0.230 C 
BRANCH  13  14
ATOM     14  C   UNL     1       2.220  -8.779  -6.434  1.00  0.00     0.046 C 
BRANCH  14  15
ATOM     15  C   UNL     1       1.266  -7.593  -6.590  1.00  0.00     0.043 C 
BRANCH  15  16
ATOM     16  C   UNL     1       1.351  -6.715  -5.369  1.00  0.00    -0.004 A 
ATOM     17  C   UNL     1       2.153  -5.634  -5.219  1.00  0.00     0.036 A 
ATOM     18  C   UNL     1       0.612  -6.868  -4.191  1.00  0.00     0.063 A 
ATOM     19  N   UNL     1       1.933  -5.126  -3.988  1.00  0.00    -0.282 N 
ATOM     20  N   UNL     1       0.965  -5.921  -3.361  1.00  0.00    -0.181 NA
ATOM     21  C   UNL     1       3.117  -5.096  -6.244  1.00  0.00     0.066 C 
ATOM     22  C   UNL     1      -0.406  -7.946  -3.921  1.00  0.00     0.069 C 
ATOM     23  H   UNL     1       2.369  -4.349  -3.606  1.00  0.00     0.190 HD
ENDBRANCH  15  16
ENDBRANCH  14  15
ENDBRANCH  13  14
ENDBRANCH   1  13
TORSDOF 7
ENDMDL
MODEL 8
REMARK VINA RESULT:    -4.517      4.746      8.180
REMARK INTER + INTRA:          -6.651
REMARK INTER:                  -6.005
REMARK INTRA:                  -0.647
REMARK UNBOUND:                -0.418
REMARK SMILES Cc1n[nH]c(C)c1CCCOc1cc(C(=O)O)ccc1F
REMARK SMILES IDX 11 1 12 2 14 3 18 4 13 5 19 6 20 7 21 8 15 9 16 10 17 11
REMARK SMILES IDX 10 13 9 14 8 15 7 16 5 17 2 18 4 19 3 20 6 21 1 22
REMARK H PARENT 17 12 4 23
ROOT
ATOM      1  O   UNL     1       4.197  -9.884  -6.457  1.00  0.00    -0.490 OA
ENDROOT
BRANCH   1   2
ATOM      2  C   UNL     1       4.870 -11.066  -6.472  1.00  0.00     0.155 A 
ATOM      3  C   UNL     1       5.907 -12.861  -7.690  1.00  0.00     0.063 A 
ATOM      4  C   UNL     1       6.253 -13.475  -6.483  1.00  0.00     0.019 A 
ATOM      5  C   UNL     1       5.212 -11.650  -7.677  1.00  0.00     0.065 A 
ATOM      6  C   UNL     1       5.913 -12.881  -5.285  1.00  0.00     0.044 A 
ATOM      7  C   UNL     1       5.228 -11.677  -5.276  1.00  0.00     0.165 A 
ATOM      8  F   UNL     1       4.897 -11.100  -4.099  1.00  0.00    -0.203 F 
BRANCH   3   9
ATOM      9  C   UNL     1       6.270 -13.494  -8.973  1.00  0.00     0.335 C 
ATOM     10  O   UNL     1       6.876 -14.546  -8.982  1.00  0.00    -0.246 OA
BRANCH   9  11
ATOM     11  O   UNL     1       5.923 -12.907 -10.135  1.00  0.00    -0.478 OA
ATOM     12  H   UNL     1       5.386 -12.104 -10.078  1.00  0.00     0.297 HD
ENDBRANCH   9  11
ENDBRANCH   3   9
ENDBRANCH   1   2
BRANCH   1  13
ATOM     13  C   UNL     1       2.858  -9.893  -6.958  1.00  0.00     0.230 C 
BRANCH  13  14
ATOM     14  C   UNL     1       2.288  -8.475  -6.913  1.00  0.00     0.046 C 
BRANCH  14  15
ATOM     15  C   UNL     1       2.476  -7.894  -5.509  1.00  0.00     0.043 C 
BRANCH  15  16
ATOM     16  C   UNL     1       1.563  -6.710  -5.328  1.00  0.00    -0.004 A 
ATOM     17  C   UNL     1       1.822  -5.438  -5.711  1.00  0.00     0.036 A 
ATOM     18  C   UNL     1       0.293  -6.732  -4.740  1.00  0.00     0.063 A 
ATOM     19  N   UNL     1       0.757  -4.681  -5.371  1.00  0.00    -0.282 N 
ATOM     20  N   UNL     1      -0.187  -5.516  -4.759  1.00  0.00    -0.181 NA
ATOM     21  C   UNL     1       3.074  -4.954  -6.394  1.00  0.00     0.066 C 
ATOM     22  C   UNL     1      -0.396  -7.946  -4.171  1.00  0.00     0.069 C 
ATOM     23  H   UNL     1       0.663  -3.728  -5.522  1.00  0.00     0.190 HD
ENDBRANCH  15  16
ENDBRANCH  14  15
ENDBRANCH  13  14
ENDBRANCH   1  13
TORSDOF 7
ENDMDL
MODEL 9
REMARK VINA RESULT:    -4.266      3.774      6.530
REMARK INTER + INTRA:          -6.304
REMARK INTER:                  -5.730
REMARK INTRA:                  -0.575
REMARK UNBOUND:                -0.418
REMARK SMILES Cc1n[nH]c(C)c1CCCOc1cc(C(=O)O)ccc1F
REMARK SMILES IDX 11 1 12 2 14 3 18 4 13 5 19 6 20 7 21 8 15 9 16 10 17 11
REMARK SMILES IDX 10 13 9 14 8 15 7 16 5 17 2 18 4 19 3 20 6 21 1 22
REMARK H PARENT 17 12 4 23
ROOT
ATOM      1  O   UNL     1       1.533  -7.893  -5.346  1.00  0.00    -0.490 OA
ENDROOT
BRANCH   1   2
ATOM      2  C   UNL     1       1.886  -8.730  -6.358  1.00  0.00     0.155 A 
ATOM      3  C   UNL     1       1.439  -9.712  -8.507  1.00  0.00     0.063 A 
ATOM      4  C   UNL     1       2.631 -10.437  -8.419  1.00  0.00     0.019 A 
ATOM      5  C   UNL     1       1.071  -8.855  -7.468  1.00  0.00     0.065 A 
ATOM      6  C   UNL     1       3.440 -10.301  -7.312  1.00  0.00     0.044 A 
ATOM      7  C   UNL     1       3.075  -9.447  -6.284  1.00  0.00     0.165 A 
ATOM      8  F   UNL     1       3.873  -9.318  -5.201  1.00  0.00    -0.203 F 
BRANCH   3   9
ATOM      9  C   UNL     1       0.571  -9.855  -9.692  1.00  0.00     0.335 C 
ATOM     10  O   UNL     1       0.709 -10.804 -10.436  1.00  0.00    -0.246 OA
BRANCH   9  11
ATOM     11  O   UNL     1      -0.381  -8.935  -9.944  1.00  0.00    -0.478 OA
ATOM     12  H   UNL     1      -0.281  -8.409 -10.750  1.00  0.00     0.297 HD
ENDBRANCH   9  11
ENDBRANCH   3   9
ENDBRANCH   1   2
BRANCH   1  13
ATOM     13  C   UNL     1       0.148  -7.848  -4.996  1.00  0.00     0.230 C 
BRANCH  13  14
ATOM     14  C   UNL     1      -0.223  -6.427  -4.568  1.00  0.00     0.046 C 
BRANCH  14  15
ATOM     15  C   UNL     1       0.429  -5.421  -5.520  1.00  0.00     0.043 C 
BRANCH  15  16
ATOM     16  C   UNL     1       1.557  -4.717  -4.813  1.00  0.00    -0.004 A 
ATOM     17  C   UNL     1       2.854  -4.704  -5.198  1.00  0.00     0.036 A 
ATOM     18  C   UNL     1       1.448  -3.955  -3.645  1.00  0.00     0.063 A 
ATOM     19  N   UNL     1       3.542  -3.966  -4.302  1.00  0.00    -0.282 N 
ATOM     20  N   UNL     1       2.638  -3.510  -3.334  1.00  0.00    -0.181 NA
ATOM     21  C   UNL     1       3.427  -5.391  -6.411  1.00  0.00     0.066 C 
ATOM     22  C   UNL     1       0.179  -3.700  -2.871  1.00  0.00     0.069 C 
ATOM     23  H   UNL     1       4.494  -3.784  -4.324  1.00  0.00     0.190 HD
ENDBRANCH  15  16
ENDBRANCH  14  15
ENDBRANCH  13  14
ENDBRANCH   1  13
TORSDOF 7
ENDMDL
