MODEL 1
REMARK VINA RESULT:    -5.218      0.000      0.000
REMARK INTER + INTRA:          -6.277
REMARK INTER:                  -5.981
REMARK INTRA:                  -0.296
REMARK UNBOUND:                -0.296
REMARK SMILES O=C(O)c1ccc2nc(-c3cc(Cl)cc(Cl)c3)oc2c1
REMARK SMILES IDX 5 1 6 2 20 3 8 4 18 5 4 6 9 7 7 8 19 9 2 10 1 11 3 12 10 14
REMARK SMILES IDX 11 15 17 16 12 17 15 18 14 19 13 20 16 21
REMARK H PARENT 3 13
ROOT
ATOM      1  C   UNL     1      -2.383  -0.176   3.535  1.00  0.00     0.018 A 
ATOM      2  C   UNL     1      -1.065  -0.521   3.502  1.00  0.00     0.033 A 
ATOM      3  C   UNL     1      -2.555  -0.507   1.139  1.00  0.00     0.065 A 
ATOM      4  N   UNL     1       0.791  -1.239   1.945  1.00  0.00    -0.209 NA
ATOM      5  O   UNL     1      -0.375  -1.221   0.109  1.00  0.00    -0.436 OA
ATOM      6  C   UNL     1      -3.144  -0.167   2.358  1.00  0.00     0.063 A 
ATOM      7  C   UNL     1       0.834  -1.450   0.653  1.00  0.00     0.227 A 
ATOM      8  C   UNL     1      -0.461  -0.864   2.286  1.00  0.00     0.110 A 
ATOM      9  C   UNL     1      -1.216  -0.852   1.100  1.00  0.00     0.156 A 
ENDROOT
BRANCH   6  10
ATOM     10  C   UNL     1      -4.571   0.202   2.407  1.00  0.00     0.335 C 
ATOM     11  O   UNL     1      -5.336  -0.221   1.564  1.00  0.00    -0.246 OA
BRANCH  10  12
ATOM     12  O   UNL     1      -5.025   1.008   3.387  1.00  0.00    -0.478 OA
ATOM     13  H   UNL     1      -5.972   1.201   3.392  1.00  0.00     0.297 HD
ENDBRANCH  10  12
ENDBRANCH   6  10
BRANCH   7  14
ATOM     14  C   UNL     1       2.035  -1.874  -0.095  1.00  0.00     0.040 A 
ATOM     15  C   UNL     1       1.969  -2.071  -1.475  1.00  0.00     0.034 A 
ATOM     16  C   UNL     1       3.242  -2.082   0.576  1.00  0.00     0.034 A 
ATOM     17  C   UNL     1       3.095  -2.467  -2.169  1.00  0.00     0.043 A 
ATOM     18  C   UNL     1       4.361  -2.478  -0.129  1.00  0.00     0.043 A 
ATOM     19  C   UNL     1       4.288  -2.671  -1.498  1.00  0.00     0.041 A 
ATOM     20  Cl  UNL     1       3.014  -2.711  -3.886  1.00  0.00    -0.084 Cl
ATOM     21  Cl  UNL     1       5.863  -2.736   0.704  1.00  0.00    -0.084 Cl
ENDBRANCH   7  14
TORSDOF 3
ENDMDL
MODEL 2
REMARK VINA RESULT:    -5.215      0.002      2.019
REMARK INTER + INTRA:          -6.273
REMARK INTER:                  -5.977
REMARK INTRA:                  -0.296
REMARK UNBOUND:                -0.296
REMARK SMILES O=C(O)c1ccc2nc(-c3cc(Cl)cc(Cl)c3)oc2c1
REMARK SMILES IDX 5 1 6 2 20 3 8 4 18 5 4 6 9 7 7 8 19 9 2 10 1 11 3 12 10 14
REMARK SMILES IDX 11 15 17 16 12 17 15 18 14 19 13 20 16 21
REMARK H PARENT 3 13
ROOT
ATOM      1  C   UNL     1      -2.383  -0.177   3.537  1.00  0.00     0.018 A 
ATOM      2  C   UNL     1      -1.065  -0.522   3.504  1.00  0.00     0.033 A 
ATOM      3  C   UNL     1      -2.555  -0.507   1.141  1.00  0.00     0.065 A 
ATOM      4  N   UNL     1       0.790  -1.239   1.947  1.00  0.00    -0.209 NA
ATOM      5  O   UNL     1      -0.375  -1.220   0.110  1.00  0.00    -0.436 OA
ATOM      6  C   UNL     1      -3.144  -0.167   2.360  1.00  0.00     0.063 A 
ATOM      7  C   UNL     1       0.834  -1.449   0.655  1.00  0.00     0.227 A 
ATOM      8  C   UNL     1      -0.461  -0.864   2.288  1.00  0.00     0.110 A 
ATOM      9  C   UNL     1      -1.216  -0.852   1.102  1.00  0.00     0.156 A 
ENDROOT
BRANCH   6  10
ATOM     10  C   UNL     1      -4.571   0.201   2.409  1.00  0.00     0.335 C 
ATOM     11  O   UNL     1      -5.337  -0.222   1.566  1.00  0.00    -0.246 OA
BRANCH  10  12
ATOM     12  O   UNL     1      -5.025   1.009   3.388  1.00  0.00    -0.478 OA
ATOM     13  H   UNL     1      -5.966   0.952   3.602  1.00  0.00     0.297 HD
ENDBRANCH  10  12
ENDBRANCH   6  10
BRANCH   7  14
ATOM     14  C   UNL     1       2.036  -1.873  -0.094  1.00  0.00     0.040 A 
ATOM     15  C   UNL     1       3.242  -2.080   0.576  1.00  0.00     0.034 A 
ATOM     16  C   UNL     1       1.967  -2.068  -1.475  1.00  0.00     0.034 A 
ATOM     17  C   UNL     1       4.361  -2.478  -0.130  1.00  0.00     0.043 A 
ATOM     18  C   UNL     1       3.093  -2.466  -2.169  1.00  0.00     0.043 A 
ATOM     19  C   UNL     1       4.287  -2.669  -1.499  1.00  0.00     0.041 A 
ATOM     20  Cl  UNL     1       5.863  -2.736   0.701  1.00  0.00    -0.084 Cl
ATOM     21  Cl  UNL     1       3.010  -2.709  -3.886  1.00  0.00    -0.084 Cl
ENDBRANCH   7  14
TORSDOF 3
ENDMDL
MODEL 3
REMARK VINA RESULT:    -4.481      3.883      7.407
REMARK INTER + INTRA:          -5.432
REMARK INTER:                  -5.134
REMARK INTRA:                  -0.297
REMARK UNBOUND:                -0.296
REMARK SMILES O=C(O)c1ccc2nc(-c3cc(Cl)cc(Cl)c3)oc2c1
REMARK SMILES IDX 5 1 6 2 20 3 8 4 18 5 4 6 9 7 7 8 19 9 2 10 1 11 3 12 10 14
REMARK SMILES IDX 11 15 17 16 12 17 15 18 14 19 13 20 16 21
REMARK H PARENT 3 13
ROOT
ATOM      1  C   UNL     1       3.829  -1.568  -0.205  1.00  0.00     0.018 A 
ATOM      2  C   UNL     1       3.173  -0.986   0.838  1.00  0.00     0.033 A 
ATOM      3  C   UNL     1       1.716  -2.187  -1.220  1.00  0.00     0.065 A 
ATOM      4  N   UNL     1       0.867  -0.511   1.754  1.00  0.00    -0.209 NA
ATOM      5  O   UNL     1      -0.261  -1.453   0.150  1.00  0.00    -0.436 OA
ATOM      6  C   UNL     1       3.112  -2.173  -1.246  1.00  0.00     0.063 A 
ATOM      7  C   UNL     1      -0.337  -0.787   1.317  1.00  0.00     0.227 A 
ATOM      8  C   UNL     1       1.773  -0.993   0.877  1.00  0.00     0.110 A 
ATOM      9  C   UNL     1       1.046  -1.602  -0.161  1.00  0.00     0.156 A 
ENDROOT
BRANCH   6  10
ATOM     10  C   UNL     1       3.832  -2.794  -2.372  1.00  0.00     0.335 C 
ATOM     11  O   UNL     1       3.240  -3.064  -3.397  1.00  0.00    -0.246 OA
BRANCH  10  12
ATOM     12  O   UNL     1       5.148  -3.064  -2.263  1.00  0.00    -0.478 OA
ATOM     13  H   UNL     1       5.746  -2.310  -2.182  1.00  0.00     0.297 HD
ENDBRANCH  10  12
ENDBRANCH   6  10
BRANCH   7  14
ATOM     14  C   UNL     1      -1.592  -0.420   2.005  1.00  0.00     0.040 A 
ATOM     15  C   UNL     1      -2.807  -0.959   1.579  1.00  0.00     0.034 A 
ATOM     16  C   UNL     1      -1.567   0.467   3.082  1.00  0.00     0.034 A 
ATOM     17  C   UNL     1      -3.977  -0.613   2.227  1.00  0.00     0.043 A 
ATOM     18  C   UNL     1      -2.743   0.805   3.722  1.00  0.00     0.043 A 
ATOM     19  C   UNL     1      -3.945   0.267   3.295  1.00  0.00     0.041 A 
ATOM     20  Cl  UNL     1      -5.490  -1.282   1.700  1.00  0.00    -0.084 Cl
ATOM     21  Cl  UNL     1      -2.714   1.908   5.062  1.00  0.00    -0.084 Cl
ENDBRANCH   7  14
TORSDOF 3
ENDMDL
MODEL 4
REMARK VINA RESULT:    -4.090     14.286     14.778
REMARK INTER + INTRA:          -4.984
REMARK INTER:                  -4.700
REMARK INTRA:                  -0.283
REMARK UNBOUND:                -0.296
REMARK SMILES O=C(O)c1ccc2nc(-c3cc(Cl)cc(Cl)c3)oc2c1
REMARK SMILES IDX 5 1 6 2 20 3 8 4 18 5 4 6 9 7 7 8 19 9 2 10 1 11 3 12 10 14
REMARK SMILES IDX 11 15 17 16 12 17 15 18 14 19 13 20 16 21
REMARK H PARENT 3 13
ROOT
ATOM      1  C   UNL     1      -3.231  14.705  -6.863  1.00  0.00     0.018 A 
ATOM      2  C   UNL     1      -1.997  14.131  -6.937  1.00  0.00     0.033 A 
ATOM      3  C   UNL     1      -3.871  13.160  -5.107  1.00  0.00     0.065 A 
ATOM      4  N   UNL     1      -0.563  12.303  -5.944  1.00  0.00    -0.209 NA
ATOM      5  O   UNL     1      -2.030  11.550  -4.524  1.00  0.00    -0.436 OA
ATOM      6  C   UNL     1      -4.181  14.230  -5.948  1.00  0.00     0.063 A 
ATOM      7  C   UNL     1      -0.781  11.412  -5.009  1.00  0.00     0.227 A 
ATOM      8  C   UNL     1      -1.673  13.057  -6.098  1.00  0.00     0.110 A 
ATOM      9  C   UNL     1      -2.622  12.572  -5.182  1.00  0.00     0.156 A 
ENDROOT
BRANCH   6  10
ATOM     10  C   UNL     1      -5.511  14.862  -5.874  1.00  0.00     0.335 C 
ATOM     11  O   UNL     1      -5.723  15.734  -5.055  1.00  0.00    -0.246 OA
BRANCH  10  12
ATOM     12  O   UNL     1      -6.491  14.473  -6.713  1.00  0.00    -0.478 OA
ATOM     13  H   UNL     1      -6.876  13.600  -6.563  1.00  0.00     0.297 HD
ENDBRANCH  10  12
ENDBRANCH   6  10
BRANCH   7  14
ATOM     14  C   UNL     1       0.199  10.404  -4.554  1.00  0.00     0.040 A 
ATOM     15  C   UNL     1      -0.230   9.133  -4.170  1.00  0.00     0.034 A 
ATOM     16  C   UNL     1       1.558  10.721  -4.506  1.00  0.00     0.034 A 
ATOM     17  C   UNL     1       0.691   8.195  -3.747  1.00  0.00     0.043 A 
ATOM     18  C   UNL     1       2.469   9.775  -4.082  1.00  0.00     0.043 A 
ATOM     19  C   UNL     1       2.038   8.515  -3.702  1.00  0.00     0.041 A 
ATOM     20  Cl  UNL     1       0.161   6.613  -3.270  1.00  0.00    -0.084 Cl
ATOM     21  Cl  UNL     1       4.160  10.166  -4.022  1.00  0.00    -0.084 Cl
ENDBRANCH   7  14
TORSDOF 3
ENDMDL
MODEL 5
REMARK VINA RESULT:    -4.081     14.283     14.813
REMARK INTER + INTRA:          -4.974
REMARK INTER:                  -4.690
REMARK INTRA:                  -0.283
REMARK UNBOUND:                -0.296
REMARK SMILES O=C(O)c1ccc2nc(-c3cc(Cl)cc(Cl)c3)oc2c1
REMARK SMILES IDX 5 1 6 2 20 3 8 4 18 5 4 6 9 7 7 8 19 9 2 10 1 11 3 12 10 14
REMARK SMILES IDX 11 15 17 16 12 17 15 18 14 19 13 20 16 21
REMARK H PARENT 3 13
ROOT
ATOM      1  C   UNL     1      -3.233  14.704  -6.862  1.00  0.00     0.018 A 
ATOM      2  C   UNL     1      -2.000  14.129  -6.935  1.00  0.00     0.033 A 
ATOM      3  C   UNL     1      -3.876  13.161  -5.105  1.00  0.00     0.065 A 
ATOM      4  N   UNL     1      -0.568  12.300  -5.940  1.00  0.00    -0.209 NA
ATOM      5  O   UNL     1      -2.037  11.549  -4.521  1.00  0.00    -0.436 OA
ATOM      6  C   UNL     1      -4.184  14.230  -5.948  1.00  0.00     0.063 A 
ATOM      7  C   UNL     1      -0.788  11.410  -5.004  1.00  0.00     0.227 A 
ATOM      8  C   UNL     1      -1.677  13.055  -6.096  1.00  0.00     0.110 A 
ATOM      9  C   UNL     1      -2.627  12.571  -5.179  1.00  0.00     0.156 A 
ENDROOT
BRANCH   6  10
ATOM     10  C   UNL     1      -5.513  14.864  -5.874  1.00  0.00     0.335 C 
ATOM     11  O   UNL     1      -5.726  15.735  -5.054  1.00  0.00    -0.246 OA
BRANCH  10  12
ATOM     12  O   UNL     1      -6.493  14.477  -6.715  1.00  0.00    -0.478 OA
ATOM     13  H   UNL     1      -7.289  14.102  -6.318  1.00  0.00     0.297 HD
ENDBRANCH  10  12
ENDBRANCH   6  10
BRANCH   7  14
ATOM     14  C   UNL     1       0.191  10.401  -4.549  1.00  0.00     0.040 A 
ATOM     15  C   UNL     1       1.550  10.715  -4.500  1.00  0.00     0.034 A 
ATOM     16  C   UNL     1      -0.241   9.129  -4.166  1.00  0.00     0.034 A 
ATOM     17  C   UNL     1       2.459   9.768  -4.072  1.00  0.00     0.043 A 
ATOM     18  C   UNL     1       0.678   8.191  -3.740  1.00  0.00     0.043 A 
ATOM     19  C   UNL     1       2.025   8.509  -3.694  1.00  0.00     0.041 A 
ATOM     20  Cl  UNL     1       4.150  10.156  -4.009  1.00  0.00    -0.084 Cl
ATOM     21  Cl  UNL     1       0.144   6.609  -3.264  1.00  0.00    -0.084 Cl
ENDBRANCH   7  14
TORSDOF 3
ENDMDL
MODEL 6
REMARK VINA RESULT:    -3.803     10.135     10.748
REMARK INTER + INTRA:          -4.655
REMARK INTER:                  -4.357
REMARK INTRA:                  -0.298
REMARK UNBOUND:                -0.296
REMARK SMILES O=C(O)c1ccc2nc(-c3cc(Cl)cc(Cl)c3)oc2c1
REMARK SMILES IDX 5 1 6 2 20 3 8 4 18 5 4 6 9 7 7 8 19 9 2 10 1 11 3 12 10 14
REMARK SMILES IDX 11 15 17 16 12 17 15 18 14 19 13 20 16 21
REMARK H PARENT 3 13
ROOT
ATOM      1  C   UNL     1       1.705   4.030  -0.982  1.00  0.00     0.018 A 
ATOM      2  C   UNL     1       2.385   5.172  -1.281  1.00  0.00     0.033 A 
ATOM      3  C   UNL     1      -0.220   4.820  -2.227  1.00  0.00     0.065 A 
ATOM      4  N   UNL     1       2.185   7.372  -2.507  1.00  0.00    -0.209 NA
ATOM      5  O   UNL     1       0.154   7.093  -3.235  1.00  0.00    -0.436 OA
ATOM      6  C   UNL     1       0.398   3.838  -1.451  1.00  0.00     0.063 A 
ATOM      7  C   UNL     1       1.219   7.916  -3.205  1.00  0.00     0.227 A 
ATOM      8  C   UNL     1       1.777   6.166  -2.058  1.00  0.00     0.110 A 
ATOM      9  C   UNL     1       0.464   5.984  -2.528  1.00  0.00     0.156 A 
ENDROOT
BRANCH   6  10
ATOM     10  C   UNL     1      -0.325   2.595  -1.126  1.00  0.00     0.335 C 
ATOM     11  O   UNL     1       0.170   1.785  -0.369  1.00  0.00    -0.246 OA
BRANCH  10  12
ATOM     12  O   UNL     1      -1.535   2.357  -1.670  1.00  0.00    -0.478 OA
ATOM     13  H   UNL     1      -1.560   1.793  -2.455  1.00  0.00     0.297 HD
ENDBRANCH  10  12
ENDBRANCH   6  10
BRANCH   7  14
ATOM     14  C   UNL     1       1.288   9.239  -3.860  1.00  0.00     0.040 A 
ATOM     15  C   UNL     1       0.150   9.788  -4.452  1.00  0.00     0.034 A 
ATOM     16  C   UNL     1       2.493   9.944  -3.889  1.00  0.00     0.034 A 
ATOM     17  C   UNL     1       0.221  11.025  -5.062  1.00  0.00     0.043 A 
ATOM     18  C   UNL     1       2.551  11.180  -4.502  1.00  0.00     0.043 A 
ATOM     19  C   UNL     1       1.419  11.719  -5.088  1.00  0.00     0.041 A 
ATOM     20  Cl  UNL     1      -1.193  11.710  -5.799  1.00  0.00    -0.084 Cl
ATOM     21  Cl  UNL     1       4.048  12.058  -4.539  1.00  0.00    -0.084 Cl
ENDBRANCH   7  14
TORSDOF 3
ENDMDL
MODEL 7
REMARK VINA RESULT:    -3.784     11.014     11.626
REMARK INTER + INTRA:          -4.633
REMARK INTER:                  -4.337
REMARK INTRA:                  -0.296
REMARK UNBOUND:                -0.296
REMARK SMILES O=C(O)c1ccc2nc(-c3cc(Cl)cc(Cl)c3)oc2c1
REMARK SMILES IDX 5 1 6 2 20 3 8 4 18 5 4 6 9 7 7 8 19 9 2 10 1 11 3 12 10 14
REMARK SMILES IDX 11 15 17 16 12 17 15 18 14 19 13 20 16 21
REMARK H PARENT 3 13
ROOT
ATOM      1  C   UNL     1       1.407  11.583  -5.077  1.00  0.00     0.018 A 
ATOM      2  C   UNL     1       2.070  10.642  -4.348  1.00  0.00     0.033 A 
ATOM      3  C   UNL     1      -0.630  10.272  -4.961  1.00  0.00     0.065 A 
ATOM      4  N   UNL     1       1.778   8.415  -3.191  1.00  0.00    -0.209 NA
ATOM      5  O   UNL     1      -0.324   8.132  -3.677  1.00  0.00    -0.436 OA
ATOM      6  C   UNL     1       0.051  11.412  -5.391  1.00  0.00     0.063 A 
ATOM      7  C   UNL     1       0.752   7.612  -3.056  1.00  0.00     0.227 A 
ATOM      8  C   UNL     1       1.399   9.494  -3.910  1.00  0.00     0.110 A 
ATOM      9  C   UNL     1       0.041   9.312  -4.225  1.00  0.00     0.156 A 
ENDROOT
BRANCH   6  10
ATOM     10  C   UNL     1      -0.657  12.439  -6.175  1.00  0.00     0.335 C 
ATOM     11  O   UNL     1      -1.814  12.263  -6.502  1.00  0.00    -0.246 OA
BRANCH  10  12
ATOM     12  O   UNL     1      -0.022  13.574  -6.531  1.00  0.00    -0.478 OA
ATOM     13  H   UNL     1       0.631  13.924  -5.911  1.00  0.00     0.297 HD
ENDBRANCH  10  12
ENDBRANCH   6  10
BRANCH   7  14
ATOM     14  C   UNL     1       0.773   6.326  -2.330  1.00  0.00     0.040 A 
ATOM     15  C   UNL     1       1.667   6.130  -1.277  1.00  0.00     0.034 A 
ATOM     16  C   UNL     1      -0.102   5.300  -2.696  1.00  0.00     0.034 A 
ATOM     17  C   UNL     1       1.681   4.925  -0.601  1.00  0.00     0.043 A 
ATOM     18  C   UNL     1      -0.078   4.101  -2.013  1.00  0.00     0.043 A 
ATOM     19  C   UNL     1       0.811   3.913  -0.969  1.00  0.00     0.041 A 
ATOM     20  Cl  UNL     1       2.792   4.680   0.710  1.00  0.00    -0.084 Cl
ATOM     21  Cl  UNL     1      -1.165   2.825  -2.466  1.00  0.00    -0.084 Cl
ENDBRANCH   7  14
TORSDOF 3
ENDMDL
MODEL 8
REMARK VINA RESULT:    -3.780     11.022     11.477
REMARK INTER + INTRA:          -4.629
REMARK INTER:                  -4.333
REMARK INTRA:                  -0.296
REMARK UNBOUND:                -0.296
REMARK SMILES O=C(O)c1ccc2nc(-c3cc(Cl)cc(Cl)c3)oc2c1
REMARK SMILES IDX 5 1 6 2 20 3 8 4 18 5 4 6 9 7 7 8 19 9 2 10 1 11 3 12 10 14
REMARK SMILES IDX 11 15 17 16 12 17 15 18 14 19 13 20 16 21
REMARK H PARENT 3 13
ROOT
ATOM      1  C   UNL     1       1.388  11.591  -5.083  1.00  0.00     0.018 A 
ATOM      2  C   UNL     1       2.053  10.646  -4.361  1.00  0.00     0.033 A 
ATOM      3  C   UNL     1      -0.653  10.288  -4.956  1.00  0.00     0.065 A 
ATOM      4  N   UNL     1       1.760   8.418  -3.207  1.00  0.00    -0.209 NA
ATOM      5  O   UNL     1      -0.346   8.144  -3.679  1.00  0.00    -0.436 OA
ATOM      6  C   UNL     1       0.030  11.426  -5.388  1.00  0.00     0.063 A 
ATOM      7  C   UNL     1       0.731   7.619  -3.066  1.00  0.00     0.227 A 
ATOM      8  C   UNL     1       1.380   9.499  -3.921  1.00  0.00     0.110 A 
ATOM      9  C   UNL     1       0.019   9.324  -4.227  1.00  0.00     0.156 A 
ENDROOT
BRANCH   6  10
ATOM     10  C   UNL     1      -0.680  12.458  -6.165  1.00  0.00     0.335 C 
ATOM     11  O   UNL     1      -1.842  12.291  -6.478  1.00  0.00    -0.246 OA
BRANCH  10  12
ATOM     12  O   UNL     1      -0.040  13.587  -6.530  1.00  0.00    -0.478 OA
ATOM     13  H   UNL     1       0.632  13.926  -5.925  1.00  0.00     0.297 HD
ENDBRANCH  10  12
ENDBRANCH   6  10
BRANCH   7  14
ATOM     14  C   UNL     1       0.752   6.331  -2.343  1.00  0.00     0.040 A 
ATOM     15  C   UNL     1      -0.124   5.308  -2.706  1.00  0.00     0.034 A 
ATOM     16  C   UNL     1       1.650   6.133  -1.291  1.00  0.00     0.034 A 
ATOM     17  C   UNL     1      -0.099   4.106  -2.027  1.00  0.00     0.043 A 
ATOM     18  C   UNL     1       1.665   4.927  -0.619  1.00  0.00     0.043 A 
ATOM     19  C   UNL     1       0.793   3.916  -0.985  1.00  0.00     0.041 A 
ATOM     20  Cl  UNL     1      -1.188   2.832  -2.478  1.00  0.00    -0.084 Cl
ATOM     21  Cl  UNL     1       2.780   4.678   0.688  1.00  0.00    -0.084 Cl
ENDBRANCH   7  14
TORSDOF 3
ENDMDL
