MODEL 1
REMARK VINA RESULT:    -5.599      0.000      0.000
REMARK INTER + INTRA:          -8.212
REMARK INTER:                  -7.727
REMARK INTRA:                  -0.484
REMARK UNBOUND:                -0.484
REMARK SMILES Cc1n[nH]c(C)c1CCCOc1cc(C(=O)O)ccc1F
REMARK SMILES IDX 11 1 12 2 14 3 18 4 13 5 19 6 20 7 21 8 15 9 16 10 17 11
REMARK SMILES IDX 10 13 9 14 8 15 7 16 5 17 2 18 4 19 3 20 6 21 1 22
REMARK H PARENT 17 12 4 23
ROOT
ATOM      1  O   UNL     1       0.142   7.350  -0.664  1.00  0.00    -0.490 OA
ENDROOT
BRANCH   1   2
ATOM      2  C   UNL     1       0.312   6.053  -1.034  1.00  0.00     0.155 A 
ATOM      3  C   UNL     1      -0.257   4.194  -2.449  1.00  0.00     0.063 A 
ATOM      4  C   UNL     1       0.682   3.403  -1.781  1.00  0.00     0.019 A 
ATOM      5  C   UNL     1      -0.438   5.525  -2.069  1.00  0.00     0.065 A 
ATOM      6  C   UNL     1       1.430   3.940  -0.754  1.00  0.00     0.044 A 
ATOM      7  C   UNL     1       1.252   5.262  -0.382  1.00  0.00     0.165 A 
ATOM      8  F   UNL     1       1.987   5.782   0.625  1.00  0.00    -0.203 F 
BRANCH   3   9
ATOM      9  C   UNL     1      -1.058   3.622  -3.549  1.00  0.00     0.335 C 
ATOM     10  O   UNL     1      -2.108   4.141  -3.869  1.00  0.00    -0.246 OA
BRANCH   9  11
ATOM     11  O   UNL     1      -0.621   2.527  -4.202  1.00  0.00    -0.478 OA
ATOM     12  H   UNL     1      -0.406   1.752  -3.665  1.00  0.00     0.297 HD
ENDBRANCH   9  11
ENDBRANCH   3   9
ENDBRANCH   1   2
BRANCH   1  13
ATOM     13  C   UNL     1       1.263   8.223  -0.826  1.00  0.00     0.230 C 
BRANCH  13  14
ATOM     14  C   UNL     1       0.898   9.347  -1.796  1.00  0.00     0.046 C 
BRANCH  14  15
ATOM     15  C   UNL     1       1.283   8.937  -3.220  1.00  0.00     0.043 C 
BRANCH  15  16
ATOM     16  C   UNL     1       1.403  10.167  -4.082  1.00  0.00    -0.004 A 
ATOM     17  C   UNL     1       0.400  10.752  -4.778  1.00  0.00     0.036 A 
ATOM     18  C   UNL     1       2.568  10.909  -4.300  1.00  0.00     0.063 A 
ATOM     19  N   UNL     1       0.915  11.823  -5.419  1.00  0.00    -0.282 N 
ATOM     20  N   UNL     1       2.279  11.897  -5.107  1.00  0.00    -0.181 NA
ATOM     21  C   UNL     1      -1.033  10.291  -4.828  1.00  0.00     0.066 C 
ATOM     22  C   UNL     1       3.926  10.613  -3.716  1.00  0.00     0.069 C 
ATOM     23  H   UNL     1       0.428  12.432  -5.995  1.00  0.00     0.190 HD
ENDBRANCH  15  16
ENDBRANCH  14  15
ENDBRANCH  13  14
ENDBRANCH   1  13
TORSDOF 7
ENDMDL
MODEL 2
REMARK VINA RESULT:    -5.585      2.307      3.930
REMARK INTER + INTRA:          -8.191
REMARK INTER:                  -7.694
REMARK INTRA:                  -0.497
REMARK UNBOUND:                -0.484
REMARK SMILES Cc1n[nH]c(C)c1CCCOc1cc(C(=O)O)ccc1F
REMARK SMILES IDX 11 1 12 2 14 3 18 4 13 5 19 6 20 7 21 8 15 9 16 10 17 11
REMARK SMILES IDX 10 13 9 14 8 15 7 16 5 17 2 18 4 19 3 20 6 21 1 22
REMARK H PARENT 17 12 4 23
ROOT
ATOM      1  O   UNL     1       1.639   5.312  -4.573  1.00  0.00    -0.490 OA
ENDROOT
BRANCH   1   2
ATOM      2  C   UNL     1       1.296   4.839  -3.345  1.00  0.00     0.155 A 
ATOM      3  C   UNL     1       1.693   4.697  -0.978  1.00  0.00     0.063 A 
ATOM      4  C   UNL     1       0.573   3.872  -0.844  1.00  0.00     0.019 A 
ATOM      5  C   UNL     1       2.051   5.179  -2.238  1.00  0.00     0.065 A 
ATOM      6  C   UNL     1      -0.178   3.543  -1.953  1.00  0.00     0.044 A 
ATOM      7  C   UNL     1       0.177   4.027  -3.201  1.00  0.00     0.165 A 
ATOM      8  F   UNL     1      -0.563   3.702  -4.284  1.00  0.00    -0.203 F 
BRANCH   3   9
ATOM      9  C   UNL     1       2.498   5.051   0.207  1.00  0.00     0.335 C 
ATOM     10  O   UNL     1       3.609   5.519   0.069  1.00  0.00    -0.246 OA
BRANCH   9  11
ATOM     11  O   UNL     1       1.996   4.860   1.443  1.00  0.00    -0.478 OA
ATOM     12  H   UNL     1       1.749   5.651   1.944  1.00  0.00     0.297 HD
ENDBRANCH   9  11
ENDBRANCH   3   9
ENDBRANCH   1   2
BRANCH   1  13
ATOM     13  C   UNL     1       0.710   6.189  -5.213  1.00  0.00     0.230 C 
BRANCH  13  14
ATOM     14  C   UNL     1       1.338   7.575  -5.364  1.00  0.00     0.046 C 
BRANCH  14  15
ATOM     15  C   UNL     1       0.946   8.446  -4.168  1.00  0.00     0.043 C 
BRANCH  15  16
ATOM     16  C   UNL     1       1.071   9.900  -4.542  1.00  0.00    -0.004 A 
ATOM     17  C   UNL     1       2.192  10.654  -4.446  1.00  0.00     0.036 A 
ATOM     18  C   UNL     1       0.052  10.709  -5.055  1.00  0.00     0.063 A 
ATOM     19  N   UNL     1       1.890  11.896  -4.877  1.00  0.00    -0.282 N 
ATOM     20  N   UNL     1       0.539  11.907  -5.250  1.00  0.00    -0.181 NA
ATOM     21  C   UNL     1       3.535  10.188  -3.947  1.00  0.00     0.066 C 
ATOM     22  C   UNL     1      -1.367  10.277  -5.326  1.00  0.00     0.069 C 
ATOM     23  H   UNL     1       2.500  12.649  -4.920  1.00  0.00     0.190 HD
ENDBRANCH  15  16
ENDBRANCH  14  15
ENDBRANCH  13  14
ENDBRANCH   1  13
TORSDOF 7
ENDMDL
MODEL 3
REMARK VINA RESULT:    -5.488      0.082      1.770
REMARK INTER + INTRA:          -8.058
REMARK INTER:                  -7.492
REMARK INTRA:                  -0.566
REMARK UNBOUND:                -0.484
REMARK SMILES Cc1n[nH]c(C)c1CCCOc1cc(C(=O)O)ccc1F
REMARK SMILES IDX 11 1 12 2 14 3 18 4 13 5 19 6 20 7 21 8 15 9 16 10 17 11
REMARK SMILES IDX 10 13 9 14 8 15 7 16 5 17 2 18 4 19 3 20 6 21 1 22
REMARK H PARENT 17 12 4 23
ROOT
ATOM      1  O   UNL     1       0.214   7.324  -0.617  1.00  0.00    -0.490 OA
ENDROOT
BRANCH   1   2
ATOM      2  C   UNL     1       0.373   6.030  -1.004  1.00  0.00     0.155 A 
ATOM      3  C   UNL     1      -0.222   4.190  -2.433  1.00  0.00     0.063 A 
ATOM      4  C   UNL     1       0.721   3.387  -1.785  1.00  0.00     0.019 A 
ATOM      5  C   UNL     1      -0.392   5.518  -2.035  1.00  0.00     0.065 A 
ATOM      6  C   UNL     1       1.484   3.909  -0.762  1.00  0.00     0.044 A 
ATOM      7  C   UNL     1       1.317   5.228  -0.372  1.00  0.00     0.165 A 
ATOM      8  F   UNL     1       2.067   5.733   0.632  1.00  0.00    -0.203 F 
BRANCH   3   9
ATOM      9  C   UNL     1      -1.039   3.635  -3.529  1.00  0.00     0.335 C 
ATOM     10  O   UNL     1      -2.087   4.166  -3.835  1.00  0.00    -0.246 OA
BRANCH   9  11
ATOM     11  O   UNL     1      -0.619   2.542  -4.195  1.00  0.00    -0.478 OA
ATOM     12  H   UNL     1      -0.755   2.532  -5.153  1.00  0.00     0.297 HD
ENDBRANCH   9  11
ENDBRANCH   3   9
ENDBRANCH   1   2
BRANCH   1  13
ATOM     13  C   UNL     1       1.293   8.221  -0.893  1.00  0.00     0.230 C 
BRANCH  13  14
ATOM     14  C   UNL     1       0.825   9.291  -1.881  1.00  0.00     0.046 C 
BRANCH  14  15
ATOM     15  C   UNL     1       1.352   8.959  -3.279  1.00  0.00     0.043 C 
BRANCH  15  16
ATOM     16  C   UNL     1       1.422  10.218  -4.102  1.00  0.00    -0.004 A 
ATOM     17  C   UNL     1       2.524  10.980  -4.301  1.00  0.00     0.036 A 
ATOM     18  C   UNL     1       0.363  10.804  -4.802  1.00  0.00     0.063 A 
ATOM     19  N   UNL     1       2.171  12.014  -5.093  1.00  0.00    -0.282 N 
ATOM     20  N   UNL     1       0.808  11.884  -5.391  1.00  0.00    -0.181 NA
ATOM     21  C   UNL     1       3.897  10.719  -3.739  1.00  0.00     0.066 C 
ATOM     22  C   UNL     1      -1.052  10.287  -4.859  1.00  0.00     0.069 C 
ATOM     23  H   UNL     1       2.758  12.723  -5.400  1.00  0.00     0.190 HD
ENDBRANCH  15  16
ENDBRANCH  14  15
ENDBRANCH  13  14
ENDBRANCH   1  13
TORSDOF 7
ENDMDL
MODEL 4
REMARK VINA RESULT:    -5.393      2.169      3.345
REMARK INTER + INTRA:          -7.927
REMARK INTER:                  -7.296
REMARK INTRA:                  -0.630
REMARK UNBOUND:                -0.484
REMARK SMILES Cc1n[nH]c(C)c1CCCOc1cc(C(=O)O)ccc1F
REMARK SMILES IDX 11 1 12 2 14 3 18 4 13 5 19 6 20 7 21 8 15 9 16 10 17 11
REMARK SMILES IDX 10 13 9 14 8 15 7 16 5 17 2 18 4 19 3 20 6 21 1 22
REMARK H PARENT 17 12 4 23
ROOT
ATOM      1  O   UNL     1       0.136   6.372  -3.712  1.00  0.00    -0.490 OA
ENDROOT
BRANCH   1   2
ATOM      2  C   UNL     1       0.396   5.438  -2.758  1.00  0.00     0.155 A 
ATOM      3  C   UNL     1       1.529   4.769  -0.746  1.00  0.00     0.063 A 
ATOM      4  C   UNL     1       0.905   3.521  -0.814  1.00  0.00     0.019 A 
ATOM      5  C   UNL     1       1.269   5.729  -1.727  1.00  0.00     0.065 A 
ATOM      6  C   UNL     1       0.031   3.242  -1.844  1.00  0.00     0.044 A 
ATOM      7  C   UNL     1      -0.230   4.197  -2.812  1.00  0.00     0.165 A 
ATOM      8  F   UNL     1      -1.087   3.918  -3.819  1.00  0.00    -0.203 F 
BRANCH   3   9
ATOM      9  C   UNL     1       2.465   5.071   0.355  1.00  0.00     0.335 C 
ATOM     10  O   UNL     1       3.591   5.451   0.108  1.00  0.00    -0.246 OA
BRANCH   9  11
ATOM     11  O   UNL     1       2.067   4.930   1.634  1.00  0.00    -0.478 OA
ATOM     12  H   UNL     1       1.546   4.143   1.848  1.00  0.00     0.297 HD
ENDBRANCH   9  11
ENDBRANCH   3   9
ENDBRANCH   1   2
BRANCH   1  13
ATOM     13  C   UNL     1       0.978   6.370  -4.868  1.00  0.00     0.230 C 
BRANCH  13  14
ATOM     14  C   UNL     1       1.274   7.812  -5.284  1.00  0.00     0.046 C 
BRANCH  14  15
ATOM     15  C   UNL     1       0.889   8.761  -4.147  1.00  0.00     0.043 C 
BRANCH  15  16
ATOM     16  C   UNL     1       0.947  10.184  -4.637  1.00  0.00    -0.004 A 
ATOM     17  C   UNL     1      -0.087  10.894  -5.145  1.00  0.00     0.036 A 
ATOM     18  C   UNL     1       2.078  11.007  -4.643  1.00  0.00     0.063 A 
ATOM     19  N   UNL     1       0.375  12.121  -5.466  1.00  0.00    -0.282 N 
ATOM     20  N   UNL     1       1.738  12.166  -5.146  1.00  0.00    -0.181 NA
ATOM     21  C   UNL     1      -1.501  10.403  -5.319  1.00  0.00     0.066 C 
ATOM     22  C   UNL     1       3.454  10.621  -4.164  1.00  0.00     0.069 C 
ATOM     23  H   UNL     1      -0.145  12.843  -5.851  1.00  0.00     0.190 HD
ENDBRANCH  15  16
ENDBRANCH  14  15
ENDBRANCH  13  14
ENDBRANCH   1  13
TORSDOF 7
ENDMDL
MODEL 5
REMARK VINA RESULT:    -5.081     10.250     11.413
REMARK INTER + INTRA:          -7.496
REMARK INTER:                  -7.140
REMARK INTRA:                  -0.356
REMARK UNBOUND:                -0.484
REMARK SMILES Cc1n[nH]c(C)c1CCCOc1cc(C(=O)O)ccc1F
REMARK SMILES IDX 11 1 12 2 14 3 18 4 13 5 19 6 20 7 21 8 15 9 16 10 17 11
REMARK SMILES IDX 10 13 9 14 8 15 7 16 5 17 2 18 4 19 3 20 6 21 1 22
REMARK H PARENT 17 12 4 23
ROOT
ATOM      1  O   UNL     1       0.819  -2.337   1.082  1.00  0.00    -0.490 OA
ENDROOT
BRANCH   1   2
ATOM      2  C   UNL     1       1.788  -2.500   0.143  1.00  0.00     0.155 A 
ATOM      3  C   UNL     1       4.113  -2.551  -0.471  1.00  0.00     0.063 A 
ATOM      4  C   UNL     1       3.754  -2.846  -1.789  1.00  0.00     0.019 A 
ATOM      5  C   UNL     1       3.120  -2.378   0.495  1.00  0.00     0.065 A 
ATOM      6  C   UNL     1       2.424  -2.971  -2.130  1.00  0.00     0.044 A 
ATOM      7  C   UNL     1       1.441  -2.804  -1.169  1.00  0.00     0.165 A 
ATOM      8  F   UNL     1       0.139  -2.928  -1.509  1.00  0.00    -0.203 F 
BRANCH   3   9
ATOM      9  C   UNL     1       5.536  -2.417  -0.103  1.00  0.00     0.335 C 
ATOM     10  O   UNL     1       6.273  -1.720  -0.769  1.00  0.00    -0.246 OA
BRANCH   9  11
ATOM     11  O   UNL     1       6.015  -3.065   0.977  1.00  0.00    -0.478 OA
ATOM     12  H   UNL     1       6.884  -2.791   1.304  1.00  0.00     0.297 HD
ENDBRANCH   9  11
ENDBRANCH   3   9
ENDBRANCH   1   2
BRANCH   1  13
ATOM     13  C   UNL     1       0.074  -1.117   1.041  1.00  0.00     0.230 C 
BRANCH  13  14
ATOM     14  C   UNL     1      -1.141  -1.231   1.962  1.00  0.00     0.046 C 
BRANCH  14  15
ATOM     15  C   UNL     1      -2.194  -0.200   1.548  1.00  0.00     0.043 C 
BRANCH  15  16
ATOM     16  C   UNL     1      -3.129   0.055   2.702  1.00  0.00    -0.004 A 
ATOM     17  C   UNL     1      -2.856   0.801   3.798  1.00  0.00     0.036 A 
ATOM     18  C   UNL     1      -4.435  -0.431   2.826  1.00  0.00     0.063 A 
ATOM     19  N   UNL     1      -3.949   0.781   4.591  1.00  0.00    -0.282 N 
ATOM     20  N   UNL     1      -4.924  -0.002   3.961  1.00  0.00    -0.181 NA
ATOM     21  C   UNL     1      -1.566   1.523   4.082  1.00  0.00     0.066 C 
ATOM     22  C   UNL     1      -5.149  -1.308   1.830  1.00  0.00     0.069 C 
ATOM     23  H   UNL     1      -4.041   1.230   5.446  1.00  0.00     0.190 HD
ENDBRANCH  15  16
ENDBRANCH  14  15
ENDBRANCH  13  14
ENDBRANCH   1  13
TORSDOF 7
ENDMDL
MODEL 6
REMARK VINA RESULT:    -4.729      1.729      2.723
REMARK INTER + INTRA:          -7.010
REMARK INTER:                  -6.363
REMARK INTRA:                  -0.647
REMARK UNBOUND:                -0.484
REMARK SMILES Cc1n[nH]c(C)c1CCCOc1cc(C(=O)O)ccc1F
REMARK SMILES IDX 11 1 12 2 14 3 18 4 13 5 19 6 20 7 21 8 15 9 16 10 17 11
REMARK SMILES IDX 10 13 9 14 8 15 7 16 5 17 2 18 4 19 3 20 6 21 1 22
REMARK H PARENT 17 12 4 23
ROOT
ATOM      1  O   UNL     1       1.939   6.276  -4.022  1.00  0.00    -0.490 OA
ENDROOT
BRANCH   1   2
ATOM      2  C   UNL     1       1.417   5.361  -3.163  1.00  0.00     0.155 A 
ATOM      3  C   UNL     1      -0.278   3.748  -2.608  1.00  0.00     0.063 A 
ATOM      4  C   UNL     1       0.371   3.489  -1.397  1.00  0.00     0.019 A 
ATOM      5  C   UNL     1       0.253   4.690  -3.491  1.00  0.00     0.065 A 
ATOM      6  C   UNL     1       1.534   4.159  -1.082  1.00  0.00     0.044 A 
ATOM      7  C   UNL     1       2.061   5.089  -1.961  1.00  0.00     0.165 A 
ATOM      8  F   UNL     1       3.202   5.742  -1.646  1.00  0.00    -0.203 F 
BRANCH   3   9
ATOM      9  C   UNL     1      -1.523   3.033  -2.949  1.00  0.00     0.335 C 
ATOM     10  O   UNL     1      -2.008   2.248  -2.160  1.00  0.00    -0.246 OA
BRANCH   9  11
ATOM     11  O   UNL     1      -2.125   3.256  -4.134  1.00  0.00    -0.478 OA
ATOM     12  H   UNL     1      -1.576   3.617  -4.844  1.00  0.00     0.297 HD
ENDBRANCH   9  11
ENDBRANCH   3   9
ENDBRANCH   1   2
BRANCH   1  13
ATOM     13  C   UNL     1       1.359   6.346  -5.327  1.00  0.00     0.230 C 
BRANCH  13  14
ATOM     14  C   UNL     1       1.074   7.807  -5.680  1.00  0.00     0.046 C 
BRANCH  14  15
ATOM     15  C   UNL     1       0.863   8.610  -4.395  1.00  0.00     0.043 C 
BRANCH  15  16
ATOM     16  C   UNL     1       1.088  10.074  -4.674  1.00  0.00    -0.004 A 
ATOM     17  C   UNL     1       2.254  10.744  -4.522  1.00  0.00     0.036 A 
ATOM     18  C   UNL     1       0.130  10.979  -5.143  1.00  0.00     0.063 A 
ATOM     19  N   UNL     1       2.039  12.028  -4.876  1.00  0.00    -0.282 N 
ATOM     20  N   UNL     1       0.697  12.152  -5.258  1.00  0.00    -0.181 NA
ATOM     21  C   UNL     1       3.557  10.160  -4.044  1.00  0.00     0.066 C 
ATOM     22  C   UNL     1      -1.311  10.660  -5.452  1.00  0.00     0.069 C 
ATOM     23  H   UNL     1       2.697  12.740  -4.866  1.00  0.00     0.190 HD
ENDBRANCH  15  16
ENDBRANCH  14  15
ENDBRANCH  13  14
ENDBRANCH   1  13
TORSDOF 7
ENDMDL
MODEL 7
REMARK VINA RESULT:    -4.597      3.925      7.004
REMARK INTER + INTRA:          -6.828
REMARK INTER:                  -5.998
REMARK INTRA:                  -0.830
REMARK UNBOUND:                -0.484
REMARK SMILES Cc1n[nH]c(C)c1CCCOc1cc(C(=O)O)ccc1F
REMARK SMILES IDX 11 1 12 2 14 3 18 4 13 5 19 6 20 7 21 8 15 9 16 10 17 11
REMARK SMILES IDX 10 13 9 14 8 15 7 16 5 17 2 18 4 19 3 20 6 21 1 22
REMARK H PARENT 17 12 4 23
ROOT
ATOM      1  O   UNL     1       0.068   7.666  -3.746  1.00  0.00    -0.490 OA
ENDROOT
BRANCH   1   2
ATOM      2  C   UNL     1       0.602   8.867  -4.094  1.00  0.00     0.155 A 
ATOM      3  C   UNL     1       2.498  10.336  -4.272  1.00  0.00     0.063 A 
ATOM      4  C   UNL     1       1.676  11.324  -4.821  1.00  0.00     0.019 A 
ATOM      5  C   UNL     1       1.952   9.103  -3.908  1.00  0.00     0.065 A 
ATOM      6  C   UNL     1       0.333  11.077  -5.008  1.00  0.00     0.044 A 
ATOM      7  C   UNL     1      -0.206   9.852  -4.652  1.00  0.00     0.165 A 
ATOM      8  F   UNL     1      -1.523   9.616  -4.838  1.00  0.00    -0.203 F 
BRANCH   3   9
ATOM      9  C   UNL     1       3.937  10.597  -4.070  1.00  0.00     0.335 C 
ATOM     10  O   UNL     1       4.340  10.980  -2.991  1.00  0.00    -0.246 OA
BRANCH   9  11
ATOM     11  O   UNL     1       4.804  10.403  -5.083  1.00  0.00    -0.478 OA
ATOM     12  H   UNL     1       5.680  10.063  -4.853  1.00  0.00     0.297 HD
ENDBRANCH   9  11
ENDBRANCH   3   9
ENDBRANCH   1   2
BRANCH   1  13
ATOM     13  C   UNL     1       0.855   6.504  -4.015  1.00  0.00     0.230 C 
BRANCH  13  14
ATOM     14  C   UNL     1       0.150   5.269  -3.450  1.00  0.00     0.046 C 
BRANCH  14  15
ATOM     15  C   UNL     1      -0.465   5.611  -2.091  1.00  0.00     0.043 C 
BRANCH  15  16
ATOM     16  C   UNL     1       0.568   5.427  -1.010  1.00  0.00    -0.004 A 
ATOM     17  C   UNL     1       1.104   4.249  -0.614  1.00  0.00     0.036 A 
ATOM     18  C   UNL     1       1.147   6.443  -0.243  1.00  0.00     0.063 A 
ATOM     19  N   UNL     1       1.986   4.511   0.374  1.00  0.00    -0.282 N 
ATOM     20  N   UNL     1       1.992   5.895   0.592  1.00  0.00    -0.181 NA
ATOM     21  C   UNL     1       0.776   2.891  -1.175  1.00  0.00     0.066 C 
ATOM     22  C   UNL     1       0.840   7.915  -0.350  1.00  0.00     0.069 C 
ATOM     23  H   UNL     1       2.521   3.856   0.850  1.00  0.00     0.190 HD
ENDBRANCH  15  16
ENDBRANCH  14  15
ENDBRANCH  13  14
ENDBRANCH   1  13
TORSDOF 7
ENDMDL
MODEL 8
REMARK VINA RESULT:    -4.536      3.931      7.051
REMARK INTER + INTRA:          -6.744
REMARK INTER:                  -5.869
REMARK INTRA:                  -0.876
REMARK UNBOUND:                -0.484
REMARK SMILES Cc1n[nH]c(C)c1CCCOc1cc(C(=O)O)ccc1F
REMARK SMILES IDX 11 1 12 2 14 3 18 4 13 5 19 6 20 7 21 8 15 9 16 10 17 11
REMARK SMILES IDX 10 13 9 14 8 15 7 16 5 17 2 18 4 19 3 20 6 21 1 22
REMARK H PARENT 17 12 4 23
ROOT
ATOM      1  O   UNL     1       0.043   7.626  -3.761  1.00  0.00    -0.490 OA
ENDROOT
BRANCH   1   2
ATOM      2  C   UNL     1       0.558   8.838  -4.100  1.00  0.00     0.155 A 
ATOM      3  C   UNL     1       2.436  10.325  -4.303  1.00  0.00     0.063 A 
ATOM      4  C   UNL     1       1.591  11.317  -4.808  1.00  0.00     0.019 A 
ATOM      5  C   UNL     1       1.910   9.081  -3.949  1.00  0.00     0.065 A 
ATOM      6  C   UNL     1       0.245  11.063  -4.960  1.00  0.00     0.044 A 
ATOM      7  C   UNL     1      -0.274   9.827  -4.613  1.00  0.00     0.165 A 
ATOM      8  F   UNL     1      -1.595   9.585  -4.764  1.00  0.00    -0.203 F 
BRANCH   3   9
ATOM      9  C   UNL     1       3.879  10.593  -4.140  1.00  0.00     0.335 C 
ATOM     10  O   UNL     1       4.594   9.768  -3.610  1.00  0.00    -0.246 OA
BRANCH   9  11
ATOM     11  O   UNL     1       4.403  11.752  -4.585  1.00  0.00    -0.478 OA
ATOM     12  H   UNL     1       5.202  12.071  -4.144  1.00  0.00     0.297 HD
ENDBRANCH   9  11
ENDBRANCH   3   9
ENDBRANCH   1   2
BRANCH   1  13
ATOM     13  C   UNL     1       0.865   6.481  -4.001  1.00  0.00     0.230 C 
BRANCH  13  14
ATOM     14  C   UNL     1       0.193   5.239  -3.415  1.00  0.00     0.046 C 
BRANCH  14  15
ATOM     15  C   UNL     1      -0.396   5.576  -2.044  1.00  0.00     0.043 C 
BRANCH  15  16
ATOM     16  C   UNL     1       0.663   5.407  -0.986  1.00  0.00    -0.004 A 
ATOM     17  C   UNL     1       1.233   6.399  -0.263  1.00  0.00     0.036 A 
ATOM     18  C   UNL     1       1.228   4.195  -0.572  1.00  0.00     0.063 A 
ATOM     19  N   UNL     1       2.130   5.836   0.573  1.00  0.00    -0.282 N 
ATOM     20  N   UNL     1       2.112   4.452   0.357  1.00  0.00    -0.181 NA
ATOM     21  C   UNL     1       0.920   7.868  -0.372  1.00  0.00     0.066 C 
ATOM     22  C   UNL     1       0.885   2.830  -1.114  1.00  0.00     0.069 C 
ATOM     23  H   UNL     1       2.690   6.306   1.210  1.00  0.00     0.190 HD
ENDBRANCH  15  16
ENDBRANCH  14  15
ENDBRANCH  13  14
ENDBRANCH   1  13
TORSDOF 7
ENDMDL
MODEL 9
REMARK VINA RESULT:    -4.484      4.703      8.111
REMARK INTER + INTRA:          -6.673
REMARK INTER:                  -5.992
REMARK INTRA:                  -0.681
REMARK UNBOUND:                -0.484
REMARK SMILES Cc1n[nH]c(C)c1CCCOc1cc(C(=O)O)ccc1F
REMARK SMILES IDX 11 1 12 2 14 3 18 4 13 5 19 6 20 7 21 8 15 9 16 10 17 11
REMARK SMILES IDX 10 13 9 14 8 15 7 16 5 17 2 18 4 19 3 20 6 21 1 22
REMARK H PARENT 17 12 4 23
ROOT
ATOM      1  O   UNL     1       2.870  10.277  -3.774  1.00  0.00    -0.490 OA
ENDROOT
BRANCH   1   2
ATOM      2  C   UNL     1       3.709  11.186  -4.337  1.00  0.00     0.155 A 
ATOM      3  C   UNL     1       4.156  13.420  -5.104  1.00  0.00     0.063 A 
ATOM      4  C   UNL     1       5.444  13.030  -5.479  1.00  0.00     0.019 A 
ATOM      5  C   UNL     1       3.289  12.488  -4.531  1.00  0.00     0.065 A 
ATOM      6  C   UNL     1       5.857  11.730  -5.276  1.00  0.00     0.044 A 
ATOM      7  C   UNL     1       4.997  10.809  -4.702  1.00  0.00     0.165 A 
ATOM      8  F   UNL     1       5.408   9.537  -4.506  1.00  0.00    -0.203 F 
BRANCH   3   9
ATOM      9  C   UNL     1       3.711  14.811  -5.320  1.00  0.00     0.335 C 
ATOM     10  O   UNL     1       4.401  15.577  -5.961  1.00  0.00    -0.246 OA
BRANCH   9  11
ATOM     11  O   UNL     1       2.535  15.228  -4.811  1.00  0.00    -0.478 OA
ATOM     12  H   UNL     1       1.861  14.553  -4.650  1.00  0.00     0.297 HD
ENDBRANCH   9  11
ENDBRANCH   3   9
ENDBRANCH   1   2
BRANCH   1  13
ATOM     13  C   UNL     1       1.563  10.162  -4.342  1.00  0.00     0.230 C 
BRANCH  13  14
ATOM     14  C   UNL     1       0.793   9.049  -3.629  1.00  0.00     0.046 C 
BRANCH  14  15
ATOM     15  C   UNL     1       1.776   7.980  -3.143  1.00  0.00     0.043 C 
BRANCH  15  16
ATOM     16  C   UNL     1       1.013   6.756  -2.710  1.00  0.00    -0.004 A 
ATOM     17  C   UNL     1       0.485   6.539  -1.482  1.00  0.00     0.036 A 
ATOM     18  C   UNL     1       0.719   5.644  -3.507  1.00  0.00     0.063 A 
ATOM     19  N   UNL     1      -0.115   5.330  -1.500  1.00  0.00    -0.282 N 
ATOM     20  N   UNL     1       0.049   4.786  -2.781  1.00  0.00    -0.181 NA
ATOM     21  C   UNL     1       0.555   7.479  -0.307  1.00  0.00     0.066 C 
ATOM     22  C   UNL     1       1.117   5.461  -4.949  1.00  0.00     0.069 C 
ATOM     23  H   UNL     1      -0.577   4.912  -0.757  1.00  0.00     0.190 HD
ENDBRANCH  15  16
ENDBRANCH  14  15
ENDBRANCH  13  14
ENDBRANCH   1  13
TORSDOF 7
ENDMDL
