MODEL 1
REMARK VINA RESULT:    -4.360      0.000      0.000
REMARK INTER + INTRA:          -5.283
REMARK INTER:                  -4.997
REMARK INTRA:                  -0.286
REMARK UNBOUND:                -0.286
REMARK SMILES O=C(O)c1ccc2nc(-c3cc(Cl)cc(Cl)c3)oc2c1
REMARK SMILES IDX 5 1 6 2 20 3 8 4 18 5 4 6 9 7 7 8 19 9 2 10 1 11 3 12 10 14
REMARK SMILES IDX 11 15 17 16 12 17 15 18 14 19 13 20 16 21
REMARK H PARENT 3 13
ROOT
ATOM      1  C   UNL     1      -3.960  -4.426  -1.147  1.00  0.00     0.018 A 
ATOM      2  C   UNL     1      -4.019  -5.672  -1.695  1.00  0.00     0.033 A 
ATOM      3  C   UNL     1      -5.359  -5.146   0.699  1.00  0.00     0.065 A 
ATOM      4  N   UNL     1      -4.987  -7.981  -1.352  1.00  0.00    -0.209 NA
ATOM      5  O   UNL     1      -6.032  -7.561   0.510  1.00  0.00    -0.436 OA
ATOM      6  C   UNL     1      -4.626  -4.148   0.055  1.00  0.00     0.063 A 
ATOM      7  C   UNL     1      -5.747  -8.495  -0.417  1.00  0.00     0.227 A 
ATOM      8  C   UNL     1      -4.750  -6.684  -1.059  1.00  0.00     0.110 A 
ATOM      9  C   UNL     1      -5.424  -6.411   0.144  1.00  0.00     0.156 A 
ENDROOT
BRANCH   6  10
ATOM     10  C   UNL     1      -4.551  -2.797   0.642  1.00  0.00     0.335 C 
ATOM     11  O   UNL     1      -4.111  -1.874  -0.014  1.00  0.00    -0.246 OA
BRANCH  10  12
ATOM     12  O   UNL     1      -4.968  -2.587   1.906  1.00  0.00    -0.478 OA
ATOM     13  H   UNL     1      -5.637  -3.192   2.254  1.00  0.00     0.297 HD
ENDBRANCH  10  12
ENDBRANCH   6  10
BRANCH   7  14
ATOM     14  C   UNL     1      -6.222  -9.894  -0.386  1.00  0.00     0.040 A 
ATOM     15  C   UNL     1      -5.413 -10.897   0.150  1.00  0.00     0.034 A 
ATOM     16  C   UNL     1      -7.481 -10.217  -0.895  1.00  0.00     0.034 A 
ATOM     17  C   UNL     1      -5.863 -12.202   0.177  1.00  0.00     0.043 A 
ATOM     18  C   UNL     1      -7.920 -11.526  -0.863  1.00  0.00     0.043 A 
ATOM     19  C   UNL     1      -7.113 -12.516  -0.329  1.00  0.00     0.041 A 
ATOM     20  Cl  UNL     1      -4.860 -13.452   0.844  1.00  0.00    -0.084 Cl
ATOM     21  Cl  UNL     1      -9.486 -11.930  -1.495  1.00  0.00    -0.084 Cl
ENDBRANCH   7  14
TORSDOF 3
ENDMDL
MODEL 2
REMARK VINA RESULT:    -4.283      3.961      7.681
REMARK INTER + INTRA:          -5.195
REMARK INTER:                  -4.900
REMARK INTRA:                  -0.295
REMARK UNBOUND:                -0.286
REMARK SMILES O=C(O)c1ccc2nc(-c3cc(Cl)cc(Cl)c3)oc2c1
REMARK SMILES IDX 5 1 6 2 20 3 8 4 18 5 4 6 9 7 7 8 19 9 2 10 1 11 3 12 10 14
REMARK SMILES IDX 11 15 17 16 12 17 15 18 14 19 13 20 16 21
REMARK H PARENT 3 13
ROOT
ATOM      1  C   UNL     1      -8.438 -10.646  -1.186  1.00  0.00     0.018 A 
ATOM      2  C   UNL     1      -8.265  -9.294  -1.191  1.00  0.00     0.033 A 
ATOM      3  C   UNL     1      -6.134 -10.962  -0.501  1.00  0.00     0.065 A 
ATOM      4  N   UNL     1      -6.557  -7.480  -0.771  1.00  0.00    -0.209 NA
ATOM      5  O   UNL     1      -4.901  -8.787  -0.239  1.00  0.00    -0.436 OA
ATOM      6  C   UNL     1      -7.378 -11.496  -0.840  1.00  0.00     0.063 A 
ATOM      7  C   UNL     1      -5.300  -7.512  -0.406  1.00  0.00     0.227 A 
ATOM      8  C   UNL     1      -7.022  -8.746  -0.853  1.00  0.00     0.110 A 
ATOM      9  C   UNL     1      -5.952  -9.592  -0.510  1.00  0.00     0.156 A 
ENDROOT
BRANCH   6  10
ATOM     10  C   UNL     1      -7.579 -12.956  -0.831  1.00  0.00     0.335 C 
ATOM     11  O   UNL     1      -8.704 -13.414  -0.852  1.00  0.00    -0.246 OA
BRANCH  10  12
ATOM     12  O   UNL     1      -6.516 -13.783  -0.800  1.00  0.00    -0.478 OA
ATOM     13  H   UNL     1      -5.644 -13.374  -0.716  1.00  0.00     0.297 HD
ENDBRANCH  10  12
ENDBRANCH   6  10
BRANCH   7  14
ATOM     14  C   UNL     1      -4.445  -6.323  -0.207  1.00  0.00     0.040 A 
ATOM     15  C   UNL     1      -5.018  -5.096   0.129  1.00  0.00     0.034 A 
ATOM     16  C   UNL     1      -3.060  -6.423  -0.357  1.00  0.00     0.034 A 
ATOM     17  C   UNL     1      -4.214  -3.989   0.314  1.00  0.00     0.043 A 
ATOM     18  C   UNL     1      -2.267  -5.308  -0.169  1.00  0.00     0.043 A 
ATOM     19  C   UNL     1      -2.842  -4.094   0.164  1.00  0.00     0.041 A 
ATOM     20  Cl  UNL     1      -4.925  -2.461   0.733  1.00  0.00    -0.084 Cl
ATOM     21  Cl  UNL     1      -0.545  -5.430  -0.354  1.00  0.00    -0.084 Cl
ENDBRANCH   7  14
TORSDOF 3
ENDMDL
MODEL 3
REMARK VINA RESULT:    -4.281      4.064      7.137
REMARK INTER + INTRA:          -5.192
REMARK INTER:                  -4.908
REMARK INTRA:                  -0.284
REMARK UNBOUND:                -0.286
REMARK SMILES O=C(O)c1ccc2nc(-c3cc(Cl)cc(Cl)c3)oc2c1
REMARK SMILES IDX 5 1 6 2 20 3 8 4 18 5 4 6 9 7 7 8 19 9 2 10 1 11 3 12 10 14
REMARK SMILES IDX 11 15 17 16 12 17 15 18 14 19 13 20 16 21
REMARK H PARENT 3 13
ROOT
ATOM      1  C   UNL     1      -8.705 -10.544  -1.182  1.00  0.00     0.018 A 
ATOM      2  C   UNL     1      -7.389 -10.339  -0.893  1.00  0.00     0.033 A 
ATOM      3  C   UNL     1      -9.007  -8.175  -1.602  1.00  0.00     0.065 A 
ATOM      4  N   UNL     1      -5.620  -8.544  -0.724  1.00  0.00    -0.209 NA
ATOM      5  O   UNL     1      -6.888  -6.863  -1.273  1.00  0.00    -0.436 OA
ATOM      6  C   UNL     1      -9.529  -9.469  -1.541  1.00  0.00     0.063 A 
ATOM      7  C   UNL     1      -5.648  -7.248  -0.918  1.00  0.00     0.227 A 
ATOM      8  C   UNL     1      -6.852  -9.047  -0.950  1.00  0.00     0.110 A 
ATOM      9  C   UNL     1      -7.673  -7.962  -1.305  1.00  0.00     0.156 A 
ENDROOT
BRANCH   6  10
ATOM     10  C   UNL     1     -10.949  -9.704  -1.858  1.00  0.00     0.335 C 
ATOM     11  O   UNL     1     -11.787  -9.626  -0.982  1.00  0.00    -0.246 OA
BRANCH  10  12
ATOM     12  O   UNL     1     -11.318 -10.005  -3.118  1.00  0.00    -0.478 OA
ATOM     13  H   UNL     1     -12.205 -10.369  -3.241  1.00  0.00     0.297 HD
ENDBRANCH  10  12
ENDBRANCH   6  10
BRANCH   7  14
ATOM     14  C   UNL     1      -4.488  -6.345  -0.768  1.00  0.00     0.040 A 
ATOM     15  C   UNL     1      -3.197  -6.816  -1.005  1.00  0.00     0.034 A 
ATOM     16  C   UNL     1      -4.682  -5.015  -0.387  1.00  0.00     0.034 A 
ATOM     17  C   UNL     1      -2.118  -5.966  -0.864  1.00  0.00     0.043 A 
ATOM     18  C   UNL     1      -3.595  -4.175  -0.250  1.00  0.00     0.043 A 
ATOM     19  C   UNL     1      -2.316  -4.649  -0.486  1.00  0.00     0.041 A 
ATOM     20  Cl  UNL     1      -0.510  -6.550  -1.159  1.00  0.00    -0.084 Cl
ATOM     21  Cl  UNL     1      -3.833  -2.521   0.223  1.00  0.00    -0.084 Cl
ENDBRANCH   7  14
TORSDOF 3
ENDMDL
MODEL 4
REMARK VINA RESULT:    -4.278      3.961      7.475
REMARK INTER + INTRA:          -5.189
REMARK INTER:                  -4.894
REMARK INTRA:                  -0.295
REMARK UNBOUND:                -0.286
REMARK SMILES O=C(O)c1ccc2nc(-c3cc(Cl)cc(Cl)c3)oc2c1
REMARK SMILES IDX 5 1 6 2 20 3 8 4 18 5 4 6 9 7 7 8 19 9 2 10 1 11 3 12 10 14
REMARK SMILES IDX 11 15 17 16 12 17 15 18 14 19 13 20 16 21
REMARK H PARENT 3 13
ROOT
ATOM      1  C   UNL     1      -8.439 -10.647  -1.185  1.00  0.00     0.018 A 
ATOM      2  C   UNL     1      -8.265  -9.295  -1.192  1.00  0.00     0.033 A 
ATOM      3  C   UNL     1      -6.136 -10.963  -0.495  1.00  0.00     0.065 A 
ATOM      4  N   UNL     1      -6.557  -7.482  -0.771  1.00  0.00    -0.209 NA
ATOM      5  O   UNL     1      -4.902  -8.788  -0.234  1.00  0.00    -0.436 OA
ATOM      6  C   UNL     1      -7.380 -11.497  -0.835  1.00  0.00     0.063 A 
ATOM      7  C   UNL     1      -5.300  -7.513  -0.404  1.00  0.00     0.227 A 
ATOM      8  C   UNL     1      -7.022  -8.747  -0.853  1.00  0.00     0.110 A 
ATOM      9  C   UNL     1      -5.954  -9.593  -0.506  1.00  0.00     0.156 A 
ENDROOT
BRANCH   6  10
ATOM     10  C   UNL     1      -7.582 -12.957  -0.825  1.00  0.00     0.335 C 
ATOM     11  O   UNL     1      -8.707 -13.415  -0.847  1.00  0.00    -0.246 OA
BRANCH  10  12
ATOM     12  O   UNL     1      -6.518 -13.784  -0.791  1.00  0.00    -0.478 OA
ATOM     13  H   UNL     1      -5.703 -13.437  -0.406  1.00  0.00     0.297 HD
ENDBRANCH  10  12
ENDBRANCH   6  10
BRANCH   7  14
ATOM     14  C   UNL     1      -4.446  -6.324  -0.205  1.00  0.00     0.040 A 
ATOM     15  C   UNL     1      -3.062  -6.422  -0.355  1.00  0.00     0.034 A 
ATOM     16  C   UNL     1      -5.020  -5.097   0.133  1.00  0.00     0.034 A 
ATOM     17  C   UNL     1      -2.269  -5.307  -0.169  1.00  0.00     0.043 A 
ATOM     18  C   UNL     1      -4.217  -3.990   0.316  1.00  0.00     0.043 A 
ATOM     19  C   UNL     1      -2.845  -4.094   0.167  1.00  0.00     0.041 A 
ATOM     20  Cl  UNL     1      -0.547  -5.427  -0.355  1.00  0.00    -0.084 Cl
ATOM     21  Cl  UNL     1      -4.930  -2.463   0.737  1.00  0.00    -0.084 Cl
ENDBRANCH   7  14
TORSDOF 3
ENDMDL
MODEL 5
REMARK VINA RESULT:    -4.276      4.063      7.313
REMARK INTER + INTRA:          -5.187
REMARK INTER:                  -4.902
REMARK INTRA:                  -0.284
REMARK UNBOUND:                -0.286
REMARK SMILES O=C(O)c1ccc2nc(-c3cc(Cl)cc(Cl)c3)oc2c1
REMARK SMILES IDX 5 1 6 2 20 3 8 4 18 5 4 6 9 7 7 8 19 9 2 10 1 11 3 12 10 14
REMARK SMILES IDX 11 15 17 16 12 17 15 18 14 19 13 20 16 21
REMARK H PARENT 3 13
ROOT
ATOM      1  C   UNL     1      -8.704 -10.546  -1.181  1.00  0.00     0.018 A 
ATOM      2  C   UNL     1      -7.388 -10.341  -0.893  1.00  0.00     0.033 A 
ATOM      3  C   UNL     1      -9.007  -8.177  -1.600  1.00  0.00     0.065 A 
ATOM      4  N   UNL     1      -5.620  -8.545  -0.724  1.00  0.00    -0.209 NA
ATOM      5  O   UNL     1      -6.888  -6.864  -1.271  1.00  0.00    -0.436 OA
ATOM      6  C   UNL     1      -9.529  -9.470  -1.539  1.00  0.00     0.063 A 
ATOM      7  C   UNL     1      -5.648  -7.250  -0.917  1.00  0.00     0.227 A 
ATOM      8  C   UNL     1      -6.852  -9.049  -0.949  1.00  0.00     0.110 A 
ATOM      9  C   UNL     1      -7.673  -7.964  -1.303  1.00  0.00     0.156 A 
ENDROOT
BRANCH   6  10
ATOM     10  C   UNL     1     -10.949  -9.706  -1.855  1.00  0.00     0.335 C 
ATOM     11  O   UNL     1     -11.786  -9.632  -0.978  1.00  0.00    -0.246 OA
BRANCH  10  12
ATOM     12  O   UNL     1     -11.320 -10.003  -3.116  1.00  0.00    -0.478 OA
ATOM     13  H   UNL     1     -12.095 -10.570  -3.224  1.00  0.00     0.297 HD
ENDBRANCH  10  12
ENDBRANCH   6  10
BRANCH   7  14
ATOM     14  C   UNL     1      -4.489  -6.346  -0.767  1.00  0.00     0.040 A 
ATOM     15  C   UNL     1      -4.680  -5.016  -0.389  1.00  0.00     0.034 A 
ATOM     16  C   UNL     1      -3.196  -6.819  -1.004  1.00  0.00     0.034 A 
ATOM     17  C   UNL     1      -3.593  -4.177  -0.250  1.00  0.00     0.043 A 
ATOM     18  C   UNL     1      -2.117  -5.970  -0.861  1.00  0.00     0.043 A 
ATOM     19  C   UNL     1      -2.314  -4.652  -0.486  1.00  0.00     0.041 A 
ATOM     20  Cl  UNL     1      -3.829  -2.523   0.221  1.00  0.00    -0.084 Cl
ATOM     21  Cl  UNL     1      -0.509  -6.556  -1.155  1.00  0.00    -0.084 Cl
ENDBRANCH   7  14
TORSDOF 3
ENDMDL
MODEL 6
REMARK VINA RESULT:    -4.214      1.712      2.027
REMARK INTER + INTRA:          -5.116
REMARK INTER:                  -4.818
REMARK INTRA:                  -0.298
REMARK UNBOUND:                -0.286
REMARK SMILES O=C(O)c1ccc2nc(-c3cc(Cl)cc(Cl)c3)oc2c1
REMARK SMILES IDX 5 1 6 2 20 3 8 4 18 5 4 6 9 7 7 8 19 9 2 10 1 11 3 12 10 14
REMARK SMILES IDX 11 15 17 16 12 17 15 18 14 19 13 20 16 21
REMARK H PARENT 3 13
ROOT
ATOM      1  C   UNL     1      -2.022  -5.286  -0.131  1.00  0.00     0.018 A 
ATOM      2  C   UNL     1      -2.394  -6.595  -0.199  1.00  0.00     0.033 A 
ATOM      3  C   UNL     1      -4.320  -4.590  -0.467  1.00  0.00     0.065 A 
ATOM      4  N   UNL     1      -4.394  -8.107  -0.515  1.00  0.00    -0.209 NA
ATOM      5  O   UNL     1      -5.887  -6.539  -0.728  1.00  0.00    -0.436 OA
ATOM      6  C   UNL     1      -2.977  -4.268  -0.261  1.00  0.00     0.063 A 
ATOM      7  C   UNL     1      -5.667  -7.867  -0.705  1.00  0.00     0.227 A 
ATOM      8  C   UNL     1      -3.738  -6.931  -0.405  1.00  0.00     0.110 A 
ATOM      9  C   UNL     1      -4.702  -5.917  -0.542  1.00  0.00     0.156 A 
ENDROOT
BRANCH   6  10
ATOM     10  C   UNL     1      -2.564  -2.856  -0.180  1.00  0.00     0.335 C 
ATOM     11  O   UNL     1      -1.387  -2.573  -0.074  1.00  0.00    -0.246 OA
BRANCH  10  12
ATOM     12  O   UNL     1      -3.490  -1.878  -0.221  1.00  0.00    -0.478 OA
ATOM     13  H   UNL     1      -4.406  -2.147  -0.377  1.00  0.00     0.297 HD
ENDBRANCH  10  12
ENDBRANCH   6  10
BRANCH   7  14
ATOM     14  C   UNL     1      -6.708  -8.902  -0.872  1.00  0.00     0.040 A 
ATOM     15  C   UNL     1      -6.408 -10.244  -0.635  1.00  0.00     0.034 A 
ATOM     16  C   UNL     1      -7.997  -8.541  -1.270  1.00  0.00     0.034 A 
ATOM     17  C   UNL     1      -7.385 -11.206  -0.791  1.00  0.00     0.043 A 
ATOM     18  C   UNL     1      -8.966  -9.512  -1.424  1.00  0.00     0.043 A 
ATOM     19  C   UNL     1      -8.662 -10.842  -1.186  1.00  0.00     0.041 A 
ATOM     20  Cl  UNL     1      -7.014 -12.875  -0.495  1.00  0.00    -0.084 Cl
ATOM     21  Cl  UNL     1     -10.570  -9.066  -1.918  1.00  0.00    -0.084 Cl
ENDBRANCH   7  14
TORSDOF 3
ENDMDL
MODEL 7
REMARK VINA RESULT:    -4.213      1.697      2.758
REMARK INTER + INTRA:          -5.114
REMARK INTER:                  -4.817
REMARK INTRA:                  -0.298
REMARK UNBOUND:                -0.286
REMARK SMILES O=C(O)c1ccc2nc(-c3cc(Cl)cc(Cl)c3)oc2c1
REMARK SMILES IDX 5 1 6 2 20 3 8 4 18 5 4 6 9 7 7 8 19 9 2 10 1 11 3 12 10 14
REMARK SMILES IDX 11 15 17 16 12 17 15 18 14 19 13 20 16 21
REMARK H PARENT 3 13
ROOT
ATOM      1  C   UNL     1      -2.037  -5.283  -0.102  1.00  0.00     0.018 A 
ATOM      2  C   UNL     1      -2.403  -6.594  -0.163  1.00  0.00     0.033 A 
ATOM      3  C   UNL     1      -4.334  -4.599  -0.469  1.00  0.00     0.065 A 
ATOM      4  N   UNL     1      -4.393  -8.117  -0.486  1.00  0.00    -0.209 NA
ATOM      5  O   UNL     1      -5.890  -6.557  -0.729  1.00  0.00    -0.436 OA
ATOM      6  C   UNL     1      -2.995  -4.271  -0.252  1.00  0.00     0.063 A 
ATOM      7  C   UNL     1      -5.665  -7.884  -0.692  1.00  0.00     0.227 A 
ATOM      8  C   UNL     1      -3.743  -6.938  -0.380  1.00  0.00     0.110 A 
ATOM      9  C   UNL     1      -4.709  -5.928  -0.536  1.00  0.00     0.156 A 
ENDROOT
BRANCH   6  10
ATOM     10  C   UNL     1      -2.588  -2.856  -0.179  1.00  0.00     0.335 C 
ATOM     11  O   UNL     1      -1.411  -2.566  -0.096  1.00  0.00    -0.246 OA
BRANCH  10  12
ATOM     12  O   UNL     1      -3.521  -1.883  -0.204  1.00  0.00    -0.478 OA
ATOM     13  H   UNL     1      -4.041  -1.754   0.600  1.00  0.00     0.297 HD
ENDBRANCH  10  12
ENDBRANCH   6  10
BRANCH   7  14
ATOM     14  C   UNL     1      -6.701  -8.925  -0.861  1.00  0.00     0.040 A 
ATOM     15  C   UNL     1      -7.990  -8.573  -1.260  1.00  0.00     0.034 A 
ATOM     16  C   UNL     1      -6.392 -10.265  -0.620  1.00  0.00     0.034 A 
ATOM     17  C   UNL     1      -8.953  -9.551  -1.417  1.00  0.00     0.043 A 
ATOM     18  C   UNL     1      -7.362 -11.233  -0.780  1.00  0.00     0.043 A 
ATOM     19  C   UNL     1      -8.640 -10.878  -1.176  1.00  0.00     0.041 A 
ATOM     20  Cl  UNL     1     -10.558  -9.115  -1.915  1.00  0.00    -0.084 Cl
ATOM     21  Cl  UNL     1      -6.980 -12.901  -0.481  1.00  0.00    -0.084 Cl
ENDBRANCH   7  14
TORSDOF 3
ENDMDL
MODEL 8
REMARK VINA RESULT:    -4.146      2.825      4.682
REMARK INTER + INTRA:          -5.038
REMARK INTER:                  -4.760
REMARK INTRA:                  -0.279
REMARK UNBOUND:                -0.286
REMARK SMILES O=C(O)c1ccc2nc(-c3cc(Cl)cc(Cl)c3)oc2c1
REMARK SMILES IDX 5 1 6 2 20 3 8 4 18 5 4 6 9 7 7 8 19 9 2 10 1 11 3 12 10 14
REMARK SMILES IDX 11 15 17 16 12 17 15 18 14 19 13 20 16 21
REMARK H PARENT 3 13
ROOT
ATOM      1  C   UNL     1      -7.467  -7.966  -1.139  1.00  0.00     0.018 A 
ATOM      2  C   UNL     1      -8.169  -9.133  -1.190  1.00  0.00     0.033 A 
ATOM      3  C   UNL     1      -5.462  -9.172  -0.501  1.00  0.00     0.065 A 
ATOM      4  N   UNL     1      -7.954 -11.629  -0.863  1.00  0.00    -0.209 NA
ATOM      5  O   UNL     1      -5.847 -11.650  -0.322  1.00  0.00    -0.436 OA
ATOM      6  C   UNL     1      -6.107  -7.970  -0.796  1.00  0.00     0.063 A 
ATOM      7  C   UNL     1      -6.949 -12.397  -0.522  1.00  0.00     0.227 A 
ATOM      8  C   UNL     1      -7.534 -10.346  -0.896  1.00  0.00     0.110 A 
ATOM      9  C   UNL     1      -6.172 -10.358  -0.547  1.00  0.00     0.156 A 
ENDROOT
BRANCH   6  10
ATOM     10  C   UNL     1      -5.357  -6.702  -0.750  1.00  0.00     0.335 C 
ATOM     11  O   UNL     1      -4.637  -6.388  -1.677  1.00  0.00    -0.246 OA
BRANCH  10  12
ATOM     12  O   UNL     1      -5.469  -5.891   0.321  1.00  0.00    -0.478 OA
ATOM     13  H   UNL     1      -6.223  -6.039   0.907  1.00  0.00     0.297 HD
ENDBRANCH  10  12
ENDBRANCH   6  10
BRANCH   7  14
ATOM     14  C   UNL     1      -7.016 -13.866  -0.379  1.00  0.00     0.040 A 
ATOM     15  C   UNL     1      -7.377 -14.661  -1.467  1.00  0.00     0.034 A 
ATOM     16  C   UNL     1      -6.719 -14.464   0.848  1.00  0.00     0.034 A 
ATOM     17  C   UNL     1      -7.437 -16.034  -1.327  1.00  0.00     0.043 A 
ATOM     18  C   UNL     1      -6.783 -15.837   0.976  1.00  0.00     0.043 A 
ATOM     19  C   UNL     1      -7.141 -16.621  -0.108  1.00  0.00     0.041 A 
ATOM     20  Cl  UNL     1      -7.884 -17.025  -2.680  1.00  0.00    -0.084 Cl
ATOM     21  Cl  UNL     1      -6.415 -16.583   2.500  1.00  0.00    -0.084 Cl
ENDBRANCH   7  14
TORSDOF 3
ENDMDL
MODEL 9
REMARK VINA RESULT:    -1.845      2.888      4.509
REMARK INTER + INTRA:          -2.401
REMARK INTER:                  -2.122
REMARK INTRA:                  -0.279
REMARK UNBOUND:                -0.286
REMARK SMILES O=C(O)c1ccc2nc(-c3cc(Cl)cc(Cl)c3)oc2c1
REMARK SMILES IDX 5 1 6 2 20 3 8 4 18 5 4 6 9 7 7 8 19 9 2 10 1 11 3 12 10 14
REMARK SMILES IDX 11 15 17 16 12 17 15 18 14 19 13 20 16 21
REMARK H PARENT 3 13
ROOT
ATOM      1  C   UNL     1      -7.422  -8.086  -1.138  1.00  0.00     0.018 A 
ATOM      2  C   UNL     1      -8.137  -9.244  -1.202  1.00  0.00     0.033 A 
ATOM      3  C   UNL     1      -5.438  -9.318  -0.486  1.00  0.00     0.065 A 
ATOM      4  N   UNL     1      -7.954 -11.744  -0.885  1.00  0.00    -0.209 NA
ATOM      5  O   UNL     1      -5.852 -11.792  -0.323  1.00  0.00    -0.436 OA
ATOM      6  C   UNL     1      -6.066  -8.107  -0.782  1.00  0.00     0.063 A 
ATOM      7  C   UNL     1      -6.961 -12.525  -0.539  1.00  0.00     0.227 A 
ATOM      8  C   UNL     1      -7.519 -10.466  -0.908  1.00  0.00     0.110 A 
ATOM      9  C   UNL     1      -6.161 -10.495  -0.545  1.00  0.00     0.156 A 
ENDROOT
BRANCH   6  10
ATOM     10  C   UNL     1      -5.302  -6.848  -0.721  1.00  0.00     0.335 C 
ATOM     11  O   UNL     1      -4.597  -6.520  -1.655  1.00  0.00    -0.246 OA
BRANCH  10  12
ATOM     12  O   UNL     1      -5.384  -6.061   0.370  1.00  0.00    -0.478 OA
ATOM     13  H   UNL     1      -4.928  -5.210   0.333  1.00  0.00     0.297 HD
ENDBRANCH  10  12
ENDBRANCH   6  10
BRANCH   7  14
ATOM     14  C   UNL     1      -7.047 -13.994  -0.403  1.00  0.00     0.040 A 
ATOM     15  C   UNL     1      -6.751 -14.604   0.816  1.00  0.00     0.034 A 
ATOM     16  C   UNL     1      -7.423 -14.777  -1.496  1.00  0.00     0.034 A 
ATOM     17  C   UNL     1      -6.834 -15.977   0.936  1.00  0.00     0.043 A 
ATOM     18  C   UNL     1      -7.502 -16.149  -1.364  1.00  0.00     0.043 A 
ATOM     19  C   UNL     1      -7.208 -16.748  -0.151  1.00  0.00     0.041 A 
ATOM     20  Cl  UNL     1      -6.467 -16.739   2.453  1.00  0.00    -0.084 Cl
ATOM     21  Cl  UNL     1      -7.971 -17.125  -2.722  1.00  0.00    -0.084 Cl
ENDBRANCH   7  14
TORSDOF 3
ENDMDL
