MODEL 1
REMARK VINA RESULT:    -5.610      0.000      0.000
REMARK INTER + INTRA:          -8.176
REMARK INTER:                  -7.742
REMARK INTRA:                  -0.434
REMARK UNBOUND:                -0.434
REMARK SMILES Cc1n[nH]c(C)c1CCCOc1cc(C(=O)O)ccc1F
REMARK SMILES IDX 11 1 12 2 14 3 18 4 13 5 19 6 20 7 21 8 15 9 16 10 17 11
REMARK SMILES IDX 10 13 9 14 8 15 7 16 5 17 2 18 4 19 3 20 6 21 1 22
REMARK H PARENT 17 12 4 23
ROOT
ATOM      1  O   UNL     1       3.650  -5.707   5.188  1.00  0.00    -0.490 OA
ENDROOT
BRANCH   1   2
ATOM      2  C   UNL     1       2.778  -5.198   4.276  1.00  0.00     0.155 A 
ATOM      3  C   UNL     1       1.756  -5.266   2.101  1.00  0.00     0.063 A 
ATOM      4  C   UNL     1       0.985  -4.148   2.433  1.00  0.00     0.019 A 
ATOM      5  C   UNL     1       2.656  -5.788   3.032  1.00  0.00     0.065 A 
ATOM      6  C   UNL     1       1.110  -3.570   3.678  1.00  0.00     0.044 A 
ATOM      7  C   UNL     1       2.000  -4.093   4.602  1.00  0.00     0.165 A 
ATOM      8  F   UNL     1       2.117  -3.522   5.821  1.00  0.00    -0.203 F 
BRANCH   3   9
ATOM      9  C   UNL     1       1.625  -5.887   0.769  1.00  0.00     0.335 C 
ATOM     10  O   UNL     1       2.498  -6.620   0.351  1.00  0.00    -0.246 OA
BRANCH   9  11
ATOM     11  O   UNL     1       0.531  -5.647   0.019  1.00  0.00    -0.478 OA
ATOM     12  H   UNL     1       0.570  -5.909  -0.912  1.00  0.00     0.297 HD
ENDBRANCH   9  11
ENDBRANCH   3   9
ENDBRANCH   1   2
BRANCH   1  13
ATOM     13  C   UNL     1       3.100  -6.165   6.426  1.00  0.00     0.230 C 
BRANCH  13  14
ATOM     14  C   UNL     1       3.332  -7.671   6.560  1.00  0.00     0.046 C 
BRANCH  14  15
ATOM     15  C   UNL     1       2.132  -8.426   5.984  1.00  0.00     0.043 C 
BRANCH  15  16
ATOM     16  C   UNL     1       2.125  -9.837   6.512  1.00  0.00    -0.004 A 
ATOM     17  C   UNL     1       2.799 -10.887   5.988  1.00  0.00     0.036 A 
ATOM     18  C   UNL     1       1.425 -10.292   7.634  1.00  0.00     0.063 A 
ATOM     19  N   UNL     1       2.530 -11.969   6.748  1.00  0.00    -0.282 N 
ATOM     20  N   UNL     1       1.661 -11.571   7.773  1.00  0.00    -0.181 NA
ATOM     21  C   UNL     1       3.691 -10.853   4.775  1.00  0.00     0.066 C 
ATOM     22  C   UNL     1       0.540  -9.456   8.524  1.00  0.00     0.069 C 
ATOM     23  H   UNL     1       2.876 -12.864   6.609  1.00  0.00     0.190 HD
ENDBRANCH  15  16
ENDBRANCH  14  15
ENDBRANCH  13  14
ENDBRANCH   1  13
TORSDOF 7
ENDMDL
MODEL 2
REMARK VINA RESULT:    -5.533      2.186      3.800
REMARK INTER + INTRA:          -8.069
REMARK INTER:                  -7.466
REMARK INTRA:                  -0.602
REMARK UNBOUND:                -0.434
REMARK SMILES Cc1n[nH]c(C)c1CCCOc1cc(C(=O)O)ccc1F
REMARK SMILES IDX 11 1 12 2 14 3 18 4 13 5 19 6 20 7 21 8 15 9 16 10 17 11
REMARK SMILES IDX 10 13 9 14 8 15 7 16 5 17 2 18 4 19 3 20 6 21 1 22
REMARK H PARENT 17 12 4 23
ROOT
ATOM      1  O   UNL     1       1.655  -7.454   3.113  1.00  0.00    -0.490 OA
ENDROOT
BRANCH   1   2
ATOM      2  C   UNL     1       1.540  -6.100   3.072  1.00  0.00     0.155 A 
ATOM      3  C   UNL     1       1.378  -3.983   4.200  1.00  0.00     0.063 A 
ATOM      4  C   UNL     1       1.314  -3.333   2.964  1.00  0.00     0.019 A 
ATOM      5  C   UNL     1       1.492  -5.374   4.247  1.00  0.00     0.065 A 
ATOM      6  C   UNL     1       1.369  -4.066   1.797  1.00  0.00     0.044 A 
ATOM      7  C   UNL     1       1.487  -5.445   1.846  1.00  0.00     0.165 A 
ATOM      8  F   UNL     1       1.540  -6.157   0.699  1.00  0.00    -0.203 F 
BRANCH   3   9
ATOM      9  C   UNL     1       1.320  -3.202   5.451  1.00  0.00     0.335 C 
ATOM     10  O   UNL     1       0.495  -3.473   6.299  1.00  0.00    -0.246 OA
BRANCH   9  11
ATOM     11  O   UNL     1       2.189  -2.192   5.655  1.00  0.00    -0.478 OA
ATOM     12  H   UNL     1       1.846  -1.398   6.089  1.00  0.00     0.297 HD
ENDBRANCH   9  11
ENDBRANCH   3   9
ENDBRANCH   1   2
BRANCH   1  13
ATOM     13  C   UNL     1       0.444  -8.205   3.232  1.00  0.00     0.230 C 
BRANCH  13  14
ATOM     14  C   UNL     1       0.662  -9.375   4.193  1.00  0.00     0.046 C 
BRANCH  14  15
ATOM     15  C   UNL     1       1.819  -9.047   5.141  1.00  0.00     0.043 C 
BRANCH  15  16
ATOM     16  C   UNL     1       2.108 -10.242   6.012  1.00  0.00    -0.004 A 
ATOM     17  C   UNL     1       1.574 -10.487   7.231  1.00  0.00     0.036 A 
ATOM     18  C   UNL     1       2.973 -11.297   5.701  1.00  0.00     0.063 A 
ATOM     19  N   UNL     1       2.087 -11.652   7.678  1.00  0.00    -0.282 N 
ATOM     20  N   UNL     1       2.966 -12.139   6.702  1.00  0.00    -0.181 NA
ATOM     21  C   UNL     1       0.583  -9.615   7.957  1.00  0.00     0.066 C 
ATOM     22  C   UNL     1       3.782 -11.433   4.437  1.00  0.00     0.069 C 
ATOM     23  H   UNL     1       1.884 -12.077   8.526  1.00  0.00     0.190 HD
ENDBRANCH  15  16
ENDBRANCH  14  15
ENDBRANCH  13  14
ENDBRANCH   1  13
TORSDOF 7
ENDMDL
MODEL 3
REMARK VINA RESULT:    -4.964     10.230     11.010
REMARK INTER + INTRA:          -7.284
REMARK INTER:                  -6.983
REMARK INTRA:                  -0.301
REMARK UNBOUND:                -0.434
REMARK SMILES Cc1n[nH]c(C)c1CCCOc1cc(C(=O)O)ccc1F
REMARK SMILES IDX 11 1 12 2 14 3 18 4 13 5 19 6 20 7 21 8 15 9 16 10 17 11
REMARK SMILES IDX 10 13 9 14 8 15 7 16 5 17 2 18 4 19 3 20 6 21 1 22
REMARK H PARENT 17 12 4 23
ROOT
ATOM      1  O   UNL     1       1.404   1.701  -0.597  1.00  0.00    -0.490 OA
ENDROOT
BRANCH   1   2
ATOM      2  C   UNL     1       2.741   1.583  -0.379  1.00  0.00     0.155 A 
ATOM      3  C   UNL     1       4.929   0.926  -1.129  1.00  0.00     0.063 A 
ATOM      4  C   UNL     1       5.472   1.362   0.083  1.00  0.00     0.019 A 
ATOM      5  C   UNL     1       3.556   1.040  -1.355  1.00  0.00     0.065 A 
ATOM      6  C   UNL     1       4.652   1.908   1.048  1.00  0.00     0.044 A 
ATOM      7  C   UNL     1       3.291   2.025   0.820  1.00  0.00     0.165 A 
ATOM      8  F   UNL     1       2.493   2.560   1.770  1.00  0.00    -0.203 F 
BRANCH   3   9
ATOM      9  C   UNL     1       5.804   0.342  -2.165  1.00  0.00     0.335 C 
ATOM     10  O   UNL     1       6.654  -0.468  -1.856  1.00  0.00    -0.246 OA
BRANCH   9  11
ATOM     11  O   UNL     1       5.654   0.703  -3.454  1.00  0.00    -0.478 OA
ATOM     12  H   UNL     1       6.106   0.162  -4.117  1.00  0.00     0.297 HD
ENDBRANCH   9  11
ENDBRANCH   3   9
ENDBRANCH   1   2
BRANCH   1  13
ATOM     13  C   UNL     1       0.556   0.744   0.043  1.00  0.00     0.230 C 
BRANCH  13  14
ATOM     14  C   UNL     1      -0.903   1.176  -0.107  1.00  0.00     0.046 C 
BRANCH  14  15
ATOM     15  C   UNL     1      -1.711   0.671   1.091  1.00  0.00     0.043 C 
BRANCH  15  16
ATOM     16  C   UNL     1      -3.159   0.533   0.699  1.00  0.00    -0.004 A 
ATOM     17  C   UNL     1      -4.181   1.299   1.145  1.00  0.00     0.036 A 
ATOM     18  C   UNL     1      -3.684  -0.407  -0.195  1.00  0.00     0.063 A 
ATOM     19  N   UNL     1      -5.313   0.856   0.559  1.00  0.00    -0.282 N 
ATOM     20  N   UNL     1      -4.976  -0.218  -0.274  1.00  0.00    -0.181 NA
ATOM     21  C   UNL     1      -4.074   2.443   2.120  1.00  0.00     0.066 C 
ATOM     22  C   UNL     1      -2.898  -1.462  -0.930  1.00  0.00     0.069 C 
ATOM     23  H   UNL     1      -6.204   1.217   0.692  1.00  0.00     0.190 HD
ENDBRANCH  15  16
ENDBRANCH  14  15
ENDBRANCH  13  14
ENDBRANCH   1  13
TORSDOF 7
ENDMDL
MODEL 4
REMARK VINA RESULT:    -4.943     10.222     11.426
REMARK INTER + INTRA:          -7.256
REMARK INTER:                  -6.970
REMARK INTRA:                  -0.286
REMARK UNBOUND:                -0.434
REMARK SMILES Cc1n[nH]c(C)c1CCCOc1cc(C(=O)O)ccc1F
REMARK SMILES IDX 11 1 12 2 14 3 18 4 13 5 19 6 20 7 21 8 15 9 16 10 17 11
REMARK SMILES IDX 10 13 9 14 8 15 7 16 5 17 2 18 4 19 3 20 6 21 1 22
REMARK H PARENT 17 12 4 23
ROOT
ATOM      1  O   UNL     1      -0.147   1.645  -0.226  1.00  0.00    -0.490 OA
ENDROOT
BRANCH   1   2
ATOM      2  C   UNL     1      -1.413   1.162  -0.117  1.00  0.00     0.155 A 
ATOM      3  C   UNL     1      -3.517   1.063   1.044  1.00  0.00     0.063 A 
ATOM      4  C   UNL     1      -4.001   0.172   0.083  1.00  0.00     0.019 A 
ATOM      5  C   UNL     1      -2.215   1.557   0.938  1.00  0.00     0.065 A 
ATOM      6  C   UNL     1      -3.195  -0.212  -0.969  1.00  0.00     0.044 A 
ATOM      7  C   UNL     1      -1.906   0.283  -1.075  1.00  0.00     0.165 A 
ATOM      8  F   UNL     1      -1.122  -0.097  -2.108  1.00  0.00    -0.203 F 
BRANCH   3   9
ATOM      9  C   UNL     1      -4.376   1.476   2.171  1.00  0.00     0.335 C 
ATOM     10  O   UNL     1      -5.023   0.648   2.777  1.00  0.00    -0.246 OA
BRANCH   9  11
ATOM     11  O   UNL     1      -4.437   2.774   2.530  1.00  0.00    -0.478 OA
ATOM     12  H   UNL     1      -5.244   3.069   2.976  1.00  0.00     0.297 HD
ENDBRANCH   9  11
ENDBRANCH   3   9
ENDBRANCH   1   2
BRANCH   1  13
ATOM     13  C   UNL     1       0.920   0.739   0.064  1.00  0.00     0.230 C 
BRANCH  13  14
ATOM     14  C   UNL     1       2.251   1.368  -0.353  1.00  0.00     0.046 C 
BRANCH  14  15
ATOM     15  C   UNL     1       3.295   0.268  -0.553  1.00  0.00     0.043 C 
BRANCH  15  16
ATOM     16  C   UNL     1       4.676   0.857  -0.429  1.00  0.00    -0.004 A 
ATOM     17  C   UNL     1       5.270   1.260   0.718  1.00  0.00     0.036 A 
ATOM     18  C   UNL     1       5.575   1.077  -1.479  1.00  0.00     0.063 A 
ATOM     19  N   UNL     1       6.498   1.726   0.405  1.00  0.00    -0.282 N 
ATOM     20  N   UNL     1       6.664   1.604  -0.981  1.00  0.00    -0.181 NA
ATOM     21  C   UNL     1       4.669   1.201   2.098  1.00  0.00     0.066 C 
ATOM     22  C   UNL     1       5.326   0.771  -2.934  1.00  0.00     0.069 C 
ATOM     23  H   UNL     1       7.149   2.082   1.028  1.00  0.00     0.190 HD
ENDBRANCH  15  16
ENDBRANCH  14  15
ENDBRANCH  13  14
ENDBRANCH   1  13
TORSDOF 7
ENDMDL
MODEL 5
REMARK VINA RESULT:    -4.658      9.154     11.509
REMARK INTER + INTRA:          -6.861
REMARK INTER:                  -4.736
REMARK INTRA:                  -2.125
REMARK UNBOUND:                -0.434
REMARK SMILES Cc1n[nH]c(C)c1CCCOc1cc(C(=O)O)ccc1F
REMARK SMILES IDX 11 1 12 2 14 3 18 4 13 5 19 6 20 7 21 8 15 9 16 10 17 11
REMARK SMILES IDX 10 13 9 14 8 15 7 16 5 17 2 18 4 19 3 20 6 21 1 22
REMARK H PARENT 17 12 4 23
ROOT
ATOM      1  O   UNL     1      -1.450 -15.036  13.371  1.00  0.00    -0.490 OA
ENDROOT
BRANCH   1   2
ATOM      2  C   UNL     1      -0.756 -15.347  12.244  1.00  0.00     0.155 A 
ATOM      3  C   UNL     1       1.009 -14.873  10.681  1.00  0.00     0.063 A 
ATOM      4  C   UNL     1       0.656 -16.007   9.944  1.00  0.00     0.019 A 
ATOM      5  C   UNL     1       0.295 -14.547  11.836  1.00  0.00     0.065 A 
ATOM      6  C   UNL     1      -0.391 -16.802  10.362  1.00  0.00     0.044 A 
ATOM      7  C   UNL     1      -1.094 -16.479  11.511  1.00  0.00     0.165 A 
ATOM      8  F   UNL     1      -2.118 -17.263  11.915  1.00  0.00    -0.203 F 
BRANCH   3   9
ATOM      9  C   UNL     1       2.129 -14.020  10.237  1.00  0.00     0.335 C 
ATOM     10  O   UNL     1       2.361 -13.891   9.052  1.00  0.00    -0.246 OA
BRANCH   9  11
ATOM     11  O   UNL     1       2.889 -13.380  11.146  1.00  0.00    -0.478 OA
ATOM     12  H   UNL     1       3.304 -13.922  11.832  1.00  0.00     0.297 HD
ENDBRANCH   9  11
ENDBRANCH   3   9
ENDBRANCH   1   2
BRANCH   1  13
ATOM     13  C   UNL     1      -2.079 -13.753  13.411  1.00  0.00     0.230 C 
BRANCH  13  14
ATOM     14  C   UNL     1      -3.574 -13.909  13.127  1.00  0.00     0.046 C 
BRANCH  14  15
ATOM     15  C   UNL     1      -3.989 -12.932  12.025  1.00  0.00     0.043 C 
BRANCH  15  16
ATOM     16  C   UNL     1      -3.602 -13.495  10.682  1.00  0.00    -0.004 A 
ATOM     17  C   UNL     1      -4.124 -14.600  10.101  1.00  0.00     0.036 A 
ATOM     18  C   UNL     1      -2.644 -12.963   9.812  1.00  0.00     0.063 A 
ATOM     19  N   UNL     1      -3.513 -14.766   8.909  1.00  0.00    -0.282 N 
ATOM     20  N   UNL     1      -2.585 -13.728   8.753  1.00  0.00    -0.181 NA
ATOM     21  C   UNL     1      -5.195 -15.486  10.681  1.00  0.00     0.066 C 
ATOM     22  C   UNL     1      -1.814 -11.729  10.059  1.00  0.00     0.069 C 
ATOM     23  H   UNL     1      -3.685 -15.478   8.274  1.00  0.00     0.190 HD
ENDBRANCH  15  16
ENDBRANCH  14  15
ENDBRANCH  13  14
ENDBRANCH   1  13
TORSDOF 7
ENDMDL
MODEL 6
REMARK VINA RESULT:    -4.596      4.970      7.916
REMARK INTER + INTRA:          -6.777
REMARK INTER:                  -6.105
REMARK INTRA:                  -0.672
REMARK UNBOUND:                -0.434
REMARK SMILES Cc1n[nH]c(C)c1CCCOc1cc(C(=O)O)ccc1F
REMARK SMILES IDX 11 1 12 2 14 3 18 4 13 5 19 6 20 7 21 8 15 9 16 10 17 11
REMARK SMILES IDX 10 13 9 14 8 15 7 16 5 17 2 18 4 19 3 20 6 21 1 22
REMARK H PARENT 17 12 4 23
ROOT
ATOM      1  O   UNL     1       3.020 -10.877   4.884  1.00  0.00    -0.490 OA
ENDROOT
BRANCH   1   2
ATOM      2  C   UNL     1       3.827 -11.949   5.104  1.00  0.00     0.155 A 
ATOM      3  C   UNL     1       4.155 -14.177   5.946  1.00  0.00     0.063 A 
ATOM      4  C   UNL     1       5.490 -14.132   5.535  1.00  0.00     0.019 A 
ATOM      5  C   UNL     1       3.325 -13.076   5.727  1.00  0.00     0.065 A 
ATOM      6  C   UNL     1       5.981 -13.005   4.910  1.00  0.00     0.044 A 
ATOM      7  C   UNL     1       5.154 -11.916   4.689  1.00  0.00     0.165 A 
ATOM      8  F   UNL     1       5.640 -10.815   4.075  1.00  0.00    -0.203 F 
BRANCH   3   9
ATOM      9  C   UNL     1       3.627 -15.382   6.615  1.00  0.00     0.335 C 
ATOM     10  O   UNL     1       4.381 -16.274   6.944  1.00  0.00    -0.246 OA
BRANCH   9  11
ATOM     11  O   UNL     1       2.307 -15.488   6.867  1.00  0.00    -0.478 OA
ATOM     12  H   UNL     1       1.864 -16.290   6.555  1.00  0.00     0.297 HD
ENDBRANCH   9  11
ENDBRANCH   3   9
ENDBRANCH   1   2
BRANCH   1  13
ATOM     13  C   UNL     1       2.525 -10.190   6.037  1.00  0.00     0.230 C 
BRANCH  13  14
ATOM     14  C   UNL     1       1.670  -9.002   5.594  1.00  0.00     0.046 C 
BRANCH  14  15
ATOM     15  C   UNL     1       2.405  -8.226   4.498  1.00  0.00     0.043 C 
BRANCH  15  16
ATOM     16  C   UNL     1       1.753  -6.881   4.311  1.00  0.00    -0.004 A 
ATOM     17  C   UNL     1       2.154  -5.716   4.872  1.00  0.00     0.036 A 
ATOM     18  C   UNL     1       0.629  -6.613   3.521  1.00  0.00     0.063 A 
ATOM     19  N   UNL     1       1.311  -4.748   4.458  1.00  0.00    -0.282 N 
ATOM     20  N   UNL     1       0.359  -5.336   3.614  1.00  0.00    -0.181 NA
ATOM     21  C   UNL     1       3.331  -5.535   5.794  1.00  0.00     0.066 C 
ATOM     22  C   UNL     1      -0.144  -7.623   2.713  1.00  0.00     0.069 C 
ATOM     23  H   UNL     1       1.354  -3.810   4.702  1.00  0.00     0.190 HD
ENDBRANCH  15  16
ENDBRANCH  14  15
ENDBRANCH  13  14
ENDBRANCH   1  13
TORSDOF 7
ENDMDL
MODEL 7
REMARK VINA RESULT:    -4.586      8.373     10.709
REMARK INTER + INTRA:          -6.763
REMARK INTER:                  -4.758
REMARK INTRA:                  -2.005
REMARK UNBOUND:                -0.434
REMARK SMILES Cc1n[nH]c(C)c1CCCOc1cc(C(=O)O)ccc1F
REMARK SMILES IDX 11 1 12 2 14 3 18 4 13 5 19 6 20 7 21 8 15 9 16 10 17 11
REMARK SMILES IDX 10 13 9 14 8 15 7 16 5 17 2 18 4 19 3 20 6 21 1 22
REMARK H PARENT 17 12 4 23
ROOT
ATOM      1  O   UNL     1      -1.923 -13.711  13.151  1.00  0.00    -0.490 OA
ENDROOT
BRANCH   1   2
ATOM      2  C   UNL     1      -1.422 -13.091  12.049  1.00  0.00     0.155 A 
ATOM      3  C   UNL     1       0.395 -12.682  10.529  1.00  0.00     0.063 A 
ATOM      4  C   UNL     1      -0.422 -11.823   9.789  1.00  0.00     0.019 A 
ATOM      5  C   UNL     1      -0.114 -13.316  11.664  1.00  0.00     0.065 A 
ATOM      6  C   UNL     1      -1.727 -11.609  10.177  1.00  0.00     0.044 A 
ATOM      7  C   UNL     1      -2.232 -12.243  11.301  1.00  0.00     0.165 A 
ATOM      8  F   UNL     1      -3.512 -12.030  11.676  1.00  0.00    -0.203 F 
BRANCH   3   9
ATOM      9  C   UNL     1       1.793 -12.913  10.116  1.00  0.00     0.335 C 
ATOM     10  O   UNL     1       2.075 -12.980   8.937  1.00  0.00    -0.246 OA
BRANCH   9  11
ATOM     11  O   UNL     1       2.758 -13.044  11.048  1.00  0.00    -0.478 OA
ATOM     12  H   UNL     1       2.514 -13.485  11.874  1.00  0.00     0.297 HD
ENDBRANCH   9  11
ENDBRANCH   3   9
ENDBRANCH   1   2
BRANCH   1  13
ATOM     13  C   UNL     1      -1.791 -15.133  13.212  1.00  0.00     0.230 C 
BRANCH  13  14
ATOM     14  C   UNL     1      -3.169 -15.780  13.060  1.00  0.00     0.046 C 
BRANCH  14  15
ATOM     15  C   UNL     1      -3.142 -16.768  11.891  1.00  0.00     0.043 C 
BRANCH  15  16
ATOM     16  C   UNL     1      -3.049 -16.010  10.593  1.00  0.00    -0.004 A 
ATOM     17  C   UNL     1      -4.003 -15.204  10.071  1.00  0.00     0.036 A 
ATOM     18  C   UNL     1      -1.959 -16.008   9.717  1.00  0.00     0.063 A 
ATOM     19  N   UNL     1      -3.536 -14.716   8.903  1.00  0.00    -0.282 N 
ATOM     20  N   UNL     1      -2.252 -15.239   8.700  1.00  0.00    -0.181 NA
ATOM     21  C   UNL     1      -5.346 -14.906  10.684  1.00  0.00     0.066 C 
ATOM     22  C   UNL     1      -0.672 -16.772   9.905  1.00  0.00     0.069 C 
ATOM     23  H   UNL     1      -4.006 -14.111   8.308  1.00  0.00     0.190 HD
ENDBRANCH  15  16
ENDBRANCH  14  15
ENDBRANCH  13  14
ENDBRANCH   1  13
TORSDOF 7
ENDMDL
MODEL 8
REMARK VINA RESULT:    -4.545      4.657      8.035
REMARK INTER + INTRA:          -6.706
REMARK INTER:                  -5.999
REMARK INTRA:                  -0.707
REMARK UNBOUND:                -0.434
REMARK SMILES Cc1n[nH]c(C)c1CCCOc1cc(C(=O)O)ccc1F
REMARK SMILES IDX 11 1 12 2 14 3 18 4 13 5 19 6 20 7 21 8 15 9 16 10 17 11
REMARK SMILES IDX 10 13 9 14 8 15 7 16 5 17 2 18 4 19 3 20 6 21 1 22
REMARK H PARENT 17 12 4 23
ROOT
ATOM      1  O   UNL     1       1.369  -9.482   7.494  1.00  0.00    -0.490 OA
ENDROOT
BRANCH   1   2
ATOM      2  C   UNL     1       0.779 -10.309   8.398  1.00  0.00     0.155 A 
ATOM      3  C   UNL     1       0.900 -12.172   9.913  1.00  0.00     0.063 A 
ATOM      4  C   UNL     1      -0.442 -11.980  10.251  1.00  0.00     0.019 A 
ATOM      5  C   UNL     1       1.508 -11.328   8.981  1.00  0.00     0.065 A 
ATOM      6  C   UNL     1      -1.160 -10.957   9.668  1.00  0.00     0.044 A 
ATOM      7  C   UNL     1      -0.553 -10.118   8.748  1.00  0.00     0.165 A 
ATOM      8  F   UNL     1      -1.262  -9.118   8.180  1.00  0.00    -0.203 F 
BRANCH   3   9
ATOM      9  C   UNL     1       1.672 -13.266  10.536  1.00  0.00     0.335 C 
ATOM     10  O   UNL     1       1.093 -14.186  11.076  1.00  0.00    -0.246 OA
BRANCH   9  11
ATOM     11  O   UNL     1       3.018 -13.246  10.498  1.00  0.00    -0.478 OA
ATOM     12  H   UNL     1       3.468 -12.688  11.147  1.00  0.00     0.297 HD
ENDBRANCH   9  11
ENDBRANCH   3   9
ENDBRANCH   1   2
BRANCH   1  13
ATOM     13  C   UNL     1       2.099 -10.099   6.431  1.00  0.00     0.230 C 
BRANCH  13  14
ATOM     14  C   UNL     1       2.237  -9.114   5.269  1.00  0.00     0.046 C 
BRANCH  14  15
ATOM     15  C   UNL     1       1.422  -7.855   5.568  1.00  0.00     0.043 C 
BRANCH  15  16
ATOM     16  C   UNL     1       1.693  -6.816   4.511  1.00  0.00    -0.004 A 
ATOM     17  C   UNL     1       2.589  -5.806   4.599  1.00  0.00     0.036 A 
ATOM     18  C   UNL     1       1.069  -6.730   3.262  1.00  0.00     0.063 A 
ATOM     19  N   UNL     1       2.529  -5.101   3.450  1.00  0.00    -0.282 N 
ATOM     20  N   UNL     1       1.564  -5.698   2.628  1.00  0.00    -0.181 NA
ATOM     21  C   UNL     1       3.492  -5.519   5.771  1.00  0.00     0.066 C 
ATOM     22  C   UNL     1       0.002  -7.658   2.742  1.00  0.00     0.069 C 
ATOM     23  H   UNL     1       3.059  -4.319   3.232  1.00  0.00     0.190 HD
ENDBRANCH  15  16
ENDBRANCH  14  15
ENDBRANCH  13  14
ENDBRANCH   1  13
TORSDOF 7
ENDMDL
MODEL 9
REMARK VINA RESULT:    -4.478      8.958     10.825
REMARK INTER + INTRA:          -6.614
REMARK INTER:                  -5.308
REMARK INTRA:                  -1.306
REMARK UNBOUND:                -0.434
REMARK SMILES Cc1n[nH]c(C)c1CCCOc1cc(C(=O)O)ccc1F
REMARK SMILES IDX 11 1 12 2 14 3 18 4 13 5 19 6 20 7 21 8 15 9 16 10 17 11
REMARK SMILES IDX 10 13 9 14 8 15 7 16 5 17 2 18 4 19 3 20 6 21 1 22
REMARK H PARENT 17 12 4 23
ROOT
ATOM      1  O   UNL     1      -1.033 -12.771   9.798  1.00  0.00    -0.490 OA
ENDROOT
BRANCH   1   2
ATOM      2  C   UNL     1      -2.217 -13.096  10.382  1.00  0.00     0.155 A 
ATOM      3  C   UNL     1      -3.851 -12.764  12.114  1.00  0.00     0.063 A 
ATOM      4  C   UNL     1      -4.644 -13.769  11.553  1.00  0.00     0.019 A 
ATOM      5  C   UNL     1      -2.632 -12.431  11.520  1.00  0.00     0.065 A 
ATOM      6  C   UNL     1      -4.224 -14.423  10.414  1.00  0.00     0.044 A 
ATOM      7  C   UNL     1      -3.017 -14.087   9.824  1.00  0.00     0.165 A 
ATOM      8  F   UNL     1      -2.612 -14.731   8.707  1.00  0.00    -0.203 F 
BRANCH   3   9
ATOM      9  C   UNL     1      -4.297 -12.062  13.333  1.00  0.00     0.335 C 
ATOM     10  O   UNL     1      -4.702 -12.696  14.286  1.00  0.00    -0.246 OA
BRANCH   9  11
ATOM     11  O   UNL     1      -4.249 -10.717  13.391  1.00  0.00    -0.478 OA
ATOM     12  H   UNL     1      -3.381 -10.303  13.284  1.00  0.00     0.297 HD
ENDBRANCH   9  11
ENDBRANCH   3   9
ENDBRANCH   1   2
BRANCH   1  13
ATOM     13  C   UNL     1       0.025 -12.354  10.665  1.00  0.00     0.230 C 
BRANCH  13  14
ATOM     14  C   UNL     1       1.358 -12.885  10.133  1.00  0.00     0.046 C 
BRANCH  14  15
ATOM     15  C   UNL     1       1.844 -14.028  11.026  1.00  0.00     0.043 C 
BRANCH  15  16
ATOM     16  C   UNL     1       1.377 -15.343  10.458  1.00  0.00    -0.004 A 
ATOM     17  C   UNL     1       1.885 -15.966   9.369  1.00  0.00     0.036 A 
ATOM     18  C   UNL     1       0.345 -16.140  10.966  1.00  0.00     0.063 A 
ATOM     19  N   UNL     1       1.195 -17.112   9.191  1.00  0.00    -0.282 N 
ATOM     20  N   UNL     1       0.231 -17.197  10.204  1.00  0.00    -0.181 NA
ATOM     21  C   UNL     1       3.019 -15.469   8.511  1.00  0.00     0.066 C 
ATOM     22  C   UNL     1      -0.499 -15.827  12.176  1.00  0.00     0.069 C 
ATOM     23  H   UNL     1       1.341 -17.762   8.486  1.00  0.00     0.190 HD
ENDBRANCH  15  16
ENDBRANCH  14  15
ENDBRANCH  13  14
ENDBRANCH   1  13
TORSDOF 7
ENDMDL
