MODEL 1
REMARK VINA RESULT:    -5.862      0.000      0.000
REMARK INTER + INTRA:          -8.655
REMARK INTER:                  -8.089
REMARK INTRA:                  -0.566
REMARK UNBOUND:                -0.566
REMARK SMILES Cc1n[nH]c(C)c1CCCOc1cc(C(=O)O)ccc1F
REMARK SMILES IDX 11 1 12 2 14 3 18 4 13 5 19 6 20 7 21 8 15 9 16 10 17 11
REMARK SMILES IDX 10 13 9 14 8 15 7 16 5 17 2 18 4 19 3 20 6 21 1 22
REMARK H PARENT 17 12 4 23
ROOT
ATOM      1  O   UNL     1      -5.058  -6.301   1.793  1.00  0.00    -0.490 OA
ENDROOT
BRANCH   1   2
ATOM      2  C   UNL     1      -4.145  -5.645   1.029  1.00  0.00     0.155 A 
ATOM      3  C   UNL     1      -2.175  -5.667  -0.351  1.00  0.00     0.063 A 
ATOM      4  C   UNL     1      -2.295  -4.288  -0.537  1.00  0.00     0.019 A 
ATOM      5  C   UNL     1      -3.109  -6.344   0.438  1.00  0.00     0.065 A 
ATOM      6  C   UNL     1      -3.335  -3.600   0.052  1.00  0.00     0.044 A 
ATOM      7  C   UNL     1      -4.262  -4.274   0.829  1.00  0.00     0.165 A 
ATOM      8  F   UNL     1      -5.279  -3.594   1.403  1.00  0.00    -0.203 F 
BRANCH   3   9
ATOM      9  C   UNL     1      -1.063  -6.406  -0.980  1.00  0.00     0.335 C 
ATOM     10  O   UNL     1      -0.743  -7.498  -0.557  1.00  0.00    -0.246 OA
BRANCH   9  11
ATOM     11  O   UNL     1      -0.408  -5.872  -2.029  1.00  0.00    -0.478 OA
ATOM     12  H   UNL     1      -0.720  -6.114  -2.912  1.00  0.00     0.297 HD
ENDBRANCH   9  11
ENDBRANCH   3   9
ENDBRANCH   1   2
BRANCH   1  13
ATOM     13  C   UNL     1      -6.379  -6.428   1.260  1.00  0.00     0.230 C 
BRANCH  13  14
ATOM     14  C   UNL     1      -6.685  -7.905   1.006  1.00  0.00     0.046 C 
BRANCH  14  15
ATOM     15  C   UNL     1      -6.581  -8.197  -0.492  1.00  0.00     0.043 C 
BRANCH  15  16
ATOM     16  C   UNL     1      -7.481  -9.353  -0.843  1.00  0.00    -0.004 A 
ATOM     17  C   UNL     1      -7.185 -10.666  -0.700  1.00  0.00     0.036 A 
ATOM     18  C   UNL     1      -8.775  -9.259  -1.368  1.00  0.00     0.063 A 
ATOM     19  N   UNL     1      -8.250 -11.377  -1.126  1.00  0.00    -0.282 N 
ATOM     20  N   UNL     1      -9.233 -10.471  -1.545  1.00  0.00    -0.181 NA
ATOM     21  C   UNL     1      -5.897 -11.231  -0.161  1.00  0.00     0.066 C 
ATOM     22  C   UNL     1      -9.508  -7.981  -1.688  1.00  0.00     0.069 C 
ATOM     23  H   UNL     1      -8.321 -12.344  -1.140  1.00  0.00     0.190 HD
ENDBRANCH  15  16
ENDBRANCH  14  15
ENDBRANCH  13  14
ENDBRANCH   1  13
TORSDOF 7
ENDMDL
MODEL 2
REMARK VINA RESULT:    -5.815      2.142      3.762
REMARK INTER + INTRA:          -8.591
REMARK INTER:                  -7.929
REMARK INTRA:                  -0.662
REMARK UNBOUND:                -0.566
REMARK SMILES Cc1n[nH]c(C)c1CCCOc1cc(C(=O)O)ccc1F
REMARK SMILES IDX 11 1 12 2 14 3 18 4 13 5 19 6 20 7 21 8 15 9 16 10 17 11
REMARK SMILES IDX 10 13 9 14 8 15 7 16 5 17 2 18 4 19 3 20 6 21 1 22
REMARK H PARENT 17 12 4 23
ROOT
ATOM      1  O   UNL     1      -3.729  -7.489  -1.106  1.00  0.00    -0.490 OA
ENDROOT
BRANCH   1   2
ATOM      2  C   UNL     1      -3.372  -6.239  -0.707  1.00  0.00     0.155 A 
ATOM      3  C   UNL     1      -3.957  -4.089   0.196  1.00  0.00     0.063 A 
ATOM      4  C   UNL     1      -2.619  -3.694   0.112  1.00  0.00     0.019 A 
ATOM      5  C   UNL     1      -4.329  -5.370  -0.218  1.00  0.00     0.065 A 
ATOM      6  C   UNL     1      -1.671  -4.570  -0.372  1.00  0.00     0.044 A 
ATOM      7  C   UNL     1      -2.041  -5.841  -0.777  1.00  0.00     0.165 A 
ATOM      8  F   UNL     1      -1.107  -6.695  -1.251  1.00  0.00    -0.203 F 
BRANCH   3   9
ATOM      9  C   UNL     1      -4.975  -3.154   0.714  1.00  0.00     0.335 C 
ATOM     10  O   UNL     1      -5.971  -2.918   0.063  1.00  0.00    -0.246 OA
BRANCH   9  11
ATOM     11  O   UNL     1      -4.800  -2.566   1.914  1.00  0.00    -0.478 OA
ATOM     12  H   UNL     1      -5.527  -2.021   2.246  1.00  0.00     0.297 HD
ENDBRANCH   9  11
ENDBRANCH   3   9
ENDBRANCH   1   2
BRANCH   1  13
ATOM     13  C   UNL     1      -4.353  -7.607  -2.387  1.00  0.00     0.230 C 
BRANCH  13  14
ATOM     14  C   UNL     1      -5.357  -8.761  -2.360  1.00  0.00     0.046 C 
BRANCH  14  15
ATOM     15  C   UNL     1      -6.028  -8.820  -0.986  1.00  0.00     0.043 C 
BRANCH  15  16
ATOM     16  C   UNL     1      -7.154  -9.821  -1.018  1.00  0.00    -0.004 A 
ATOM     17  C   UNL     1      -8.443  -9.559  -1.336  1.00  0.00     0.036 A 
ATOM     18  C   UNL     1      -7.050 -11.186  -0.732  1.00  0.00     0.063 A 
ATOM     19  N   UNL     1      -9.132 -10.717  -1.247  1.00  0.00    -0.282 N 
ATOM     20  N   UNL     1      -8.236 -11.723  -0.862  1.00  0.00    -0.181 NA
ATOM     21  C   UNL     1      -9.008  -8.217  -1.721  1.00  0.00     0.066 C 
ATOM     22  C   UNL     1      -5.791 -11.912  -0.329  1.00  0.00     0.069 C 
ATOM     23  H   UNL     1     -10.079 -10.832  -1.419  1.00  0.00     0.190 HD
ENDBRANCH  15  16
ENDBRANCH  14  15
ENDBRANCH  13  14
ENDBRANCH   1  13
TORSDOF 7
ENDMDL
MODEL 3
REMARK VINA RESULT:    -5.753      0.195      1.776
REMARK INTER + INTRA:          -8.505
REMARK INTER:                  -7.906
REMARK INTRA:                  -0.599
REMARK UNBOUND:                -0.566
REMARK SMILES Cc1n[nH]c(C)c1CCCOc1cc(C(=O)O)ccc1F
REMARK SMILES IDX 11 1 12 2 14 3 18 4 13 5 19 6 20 7 21 8 15 9 16 10 17 11
REMARK SMILES IDX 10 13 9 14 8 15 7 16 5 17 2 18 4 19 3 20 6 21 1 22
REMARK H PARENT 17 12 4 23
ROOT
ATOM      1  O   UNL     1      -5.107  -6.336   1.705  1.00  0.00    -0.490 OA
ENDROOT
BRANCH   1   2
ATOM      2  C   UNL     1      -4.174  -5.675   0.969  1.00  0.00     0.155 A 
ATOM      3  C   UNL     1      -2.183  -5.690  -0.379  1.00  0.00     0.063 A 
ATOM      4  C   UNL     1      -2.285  -4.306  -0.540  1.00  0.00     0.019 A 
ATOM      5  C   UNL     1      -3.136  -6.372   0.381  1.00  0.00     0.065 A 
ATOM      6  C   UNL     1      -3.328  -3.619   0.046  1.00  0.00     0.044 A 
ATOM      7  C   UNL     1      -4.275  -4.299   0.795  1.00  0.00     0.165 A 
ATOM      8  F   UNL     1      -5.294  -3.620   1.366  1.00  0.00    -0.203 F 
BRANCH   3   9
ATOM      9  C   UNL     1      -1.068  -6.428  -1.005  1.00  0.00     0.335 C 
ATOM     10  O   UNL     1      -0.752  -7.522  -0.584  1.00  0.00    -0.246 OA
BRANCH   9  11
ATOM     11  O   UNL     1      -0.406  -5.890  -2.047  1.00  0.00    -0.478 OA
ATOM     12  H   UNL     1       0.391  -6.351  -2.347  1.00  0.00     0.297 HD
ENDBRANCH   9  11
ENDBRANCH   3   9
ENDBRANCH   1   2
BRANCH   1  13
ATOM     13  C   UNL     1      -6.387  -6.537   1.101  1.00  0.00     0.230 C 
BRANCH  13  14
ATOM     14  C   UNL     1      -6.593  -8.028   0.829  1.00  0.00     0.046 C 
BRANCH  14  15
ATOM     15  C   UNL     1      -6.656  -8.267  -0.681  1.00  0.00     0.043 C 
BRANCH  15  16
ATOM     16  C   UNL     1      -7.672  -9.339  -0.979  1.00  0.00    -0.004 A 
ATOM     17  C   UNL     1      -8.931  -9.139  -1.435  1.00  0.00     0.036 A 
ATOM     18  C   UNL     1      -7.480 -10.717  -0.839  1.00  0.00     0.063 A 
ATOM     19  N   UNL     1      -9.516 -10.347  -1.572  1.00  0.00    -0.282 N 
ATOM     20  N   UNL     1      -8.586 -11.322  -1.187  1.00  0.00    -0.181 NA
ATOM     21  C   UNL     1      -9.564  -7.806  -1.736  1.00  0.00     0.066 C 
ATOM     22  C   UNL     1      -6.219 -11.389  -0.357  1.00  0.00     0.069 C 
ATOM     23  H   UNL     1     -10.420 -10.511  -1.881  1.00  0.00     0.190 HD
ENDBRANCH  15  16
ENDBRANCH  14  15
ENDBRANCH  13  14
ENDBRANCH   1  13
TORSDOF 7
ENDMDL
MODEL 4
REMARK VINA RESULT:    -4.839      3.950      7.034
REMARK INTER + INTRA:          -7.243
REMARK INTER:                  -6.413
REMARK INTRA:                  -0.830
REMARK UNBOUND:                -0.566
REMARK SMILES Cc1n[nH]c(C)c1CCCOc1cc(C(=O)O)ccc1F
REMARK SMILES IDX 11 1 12 2 14 3 18 4 13 5 19 6 20 7 21 8 15 9 16 10 17 11
REMARK SMILES IDX 10 13 9 14 8 15 7 16 5 17 2 18 4 19 3 20 6 21 1 22
REMARK H PARENT 17 12 4 23
ROOT
ATOM      1  O   UNL     1      -4.737  -8.313  -0.682  1.00  0.00    -0.490 OA
ENDROOT
BRANCH   1   2
ATOM      2  C   UNL     1      -5.925  -8.958  -0.829  1.00  0.00     0.155 A 
ATOM      3  C   UNL     1      -8.248  -8.939  -1.447  1.00  0.00     0.063 A 
ATOM      4  C   UNL     1      -8.339 -10.297  -1.132  1.00  0.00     0.019 A 
ATOM      5  C   UNL     1      -7.032  -8.271  -1.292  1.00  0.00     0.065 A 
ATOM      6  C   UNL     1      -7.228 -10.975  -0.676  1.00  0.00     0.044 A 
ATOM      7  C   UNL     1      -6.021 -10.312  -0.528  1.00  0.00     0.165 A 
ATOM      8  F   UNL     1      -4.936 -10.982  -0.081  1.00  0.00    -0.203 F 
BRANCH   3   9
ATOM      9  C   UNL     1      -9.436  -8.211  -1.935  1.00  0.00     0.335 C 
ATOM     10  O   UNL     1     -10.185  -7.672  -1.147  1.00  0.00    -0.246 OA
BRANCH   9  11
ATOM     11  O   UNL     1      -9.684  -8.138  -3.258  1.00  0.00    -0.478 OA
ATOM     12  H   UNL     1     -10.597  -7.960  -3.525  1.00  0.00     0.297 HD
ENDBRANCH   9  11
ENDBRANCH   3   9
ENDBRANCH   1   2
BRANCH   1  13
ATOM     13  C   UNL     1      -4.370  -7.388  -1.709  1.00  0.00     0.230 C 
BRANCH  13  14
ATOM     14  C   UNL     1      -3.141  -6.593  -1.263  1.00  0.00     0.046 C 
BRANCH  14  15
ATOM     15  C   UNL     1      -3.146  -6.460   0.262  1.00  0.00     0.043 C 
BRANCH  15  16
ATOM     16  C   UNL     1      -3.819  -5.170   0.652  1.00  0.00    -0.004 A 
ATOM     17  C   UNL     1      -3.342  -3.923   0.428  1.00  0.00     0.036 A 
ATOM     18  C   UNL     1      -5.050  -5.048   1.305  1.00  0.00     0.063 A 
ATOM     19  N   UNL     1      -4.237  -3.044   0.926  1.00  0.00    -0.282 N 
ATOM     20  N   UNL     1      -5.298  -3.775   1.476  1.00  0.00    -0.181 NA
ATOM     21  C   UNL     1      -2.045  -3.578  -0.257  1.00  0.00     0.066 C 
ATOM     22  C   UNL     1      -5.933  -6.187   1.746  1.00  0.00     0.069 C 
ATOM     23  H   UNL     1      -4.158  -2.078   0.909  1.00  0.00     0.190 HD
ENDBRANCH  15  16
ENDBRANCH  14  15
ENDBRANCH  13  14
ENDBRANCH   1  13
TORSDOF 7
ENDMDL
MODEL 5
REMARK VINA RESULT:    -4.819      3.815      6.562
REMARK INTER + INTRA:          -7.216
REMARK INTER:                  -6.383
REMARK INTRA:                  -0.833
REMARK UNBOUND:                -0.566
REMARK SMILES Cc1n[nH]c(C)c1CCCOc1cc(C(=O)O)ccc1F
REMARK SMILES IDX 11 1 12 2 14 3 18 4 13 5 19 6 20 7 21 8 15 9 16 10 17 11
REMARK SMILES IDX 10 13 9 14 8 15 7 16 5 17 2 18 4 19 3 20 6 21 1 22
REMARK H PARENT 17 12 4 23
ROOT
ATOM      1  O   UNL     1      -6.376  -6.902  -0.706  1.00  0.00    -0.490 OA
ENDROOT
BRANCH   1   2
ATOM      2  C   UNL     1      -6.878  -8.161  -0.805  1.00  0.00     0.155 A 
ATOM      3  C   UNL     1      -6.643 -10.533  -0.490  1.00  0.00     0.063 A 
ATOM      4  C   UNL     1      -7.927 -10.725  -1.007  1.00  0.00     0.019 A 
ATOM      5  C   UNL     1      -6.121  -9.242  -0.392  1.00  0.00     0.065 A 
ATOM      6  C   UNL     1      -8.676  -9.641  -1.412  1.00  0.00     0.044 A 
ATOM      7  C   UNL     1      -8.159  -8.360  -1.308  1.00  0.00     0.165 A 
ATOM      8  F   UNL     1      -8.899  -7.302  -1.706  1.00  0.00    -0.203 F 
BRANCH   3   9
ATOM      9  C   UNL     1      -5.838 -11.692  -0.056  1.00  0.00     0.335 C 
ATOM     10  O   UNL     1      -5.087 -12.238  -0.838  1.00  0.00    -0.246 OA
BRANCH   9  11
ATOM     11  O   UNL     1      -5.933 -12.140   1.211  1.00  0.00    -0.478 OA
ATOM     12  H   UNL     1      -6.799 -12.458   1.502  1.00  0.00     0.297 HD
ENDBRANCH   9  11
ENDBRANCH   3   9
ENDBRANCH   1   2
BRANCH   1  13
ATOM     13  C   UNL     1      -5.615  -6.597   0.466  1.00  0.00     0.230 C 
BRANCH  13  14
ATOM     14  C   UNL     1      -5.033  -5.188   0.343  1.00  0.00     0.046 C 
BRANCH  14  15
ATOM     15  C   UNL     1      -4.551  -4.958  -1.091  1.00  0.00     0.043 C 
BRANCH  15  16
ATOM     16  C   UNL     1      -3.144  -5.474  -1.237  1.00  0.00    -0.004 A 
ATOM     17  C   UNL     1      -2.763  -6.557  -1.955  1.00  0.00     0.036 A 
ATOM     18  C   UNL     1      -1.998  -4.916  -0.661  1.00  0.00     0.063 A 
ATOM     19  N   UNL     1      -1.425  -6.683  -1.832  1.00  0.00    -0.282 N 
ATOM     20  N   UNL     1      -0.968  -5.643  -1.011  1.00  0.00    -0.181 NA
ATOM     21  C   UNL     1      -3.670  -7.459  -2.750  1.00  0.00     0.066 C 
ATOM     22  C   UNL     1      -1.958  -3.694   0.221  1.00  0.00     0.069 C 
ATOM     23  H   UNL     1      -0.876  -7.371  -2.239  1.00  0.00     0.190 HD
ENDBRANCH  15  16
ENDBRANCH  14  15
ENDBRANCH  13  14
ENDBRANCH   1  13
TORSDOF 7
ENDMDL
MODEL 6
REMARK VINA RESULT:    -4.766      3.648      5.383
REMARK INTER + INTRA:          -7.143
REMARK INTER:                  -6.564
REMARK INTRA:                  -0.579
REMARK UNBOUND:                -0.566
REMARK SMILES Cc1n[nH]c(C)c1CCCOc1cc(C(=O)O)ccc1F
REMARK SMILES IDX 11 1 12 2 14 3 18 4 13 5 19 6 20 7 21 8 15 9 16 10 17 11
REMARK SMILES IDX 10 13 9 14 8 15 7 16 5 17 2 18 4 19 3 20 6 21 1 22
REMARK H PARENT 17 12 4 23
ROOT
ATOM      1  O   UNL     1      -6.572 -10.019  -1.000  1.00  0.00    -0.490 OA
ENDROOT
BRANCH   1   2
ATOM      2  C   UNL     1      -5.938  -8.819  -0.920  1.00  0.00     0.155 A 
ATOM      3  C   UNL     1      -5.449  -6.792   0.276  1.00  0.00     0.063 A 
ATOM      4  C   UNL     1      -4.626  -6.375  -0.774  1.00  0.00     0.019 A 
ATOM      5  C   UNL     1      -6.106  -8.021   0.196  1.00  0.00     0.065 A 
ATOM      6  C   UNL     1      -4.460  -7.181  -1.881  1.00  0.00     0.044 A 
ATOM      7  C   UNL     1      -5.109  -8.402  -1.956  1.00  0.00     0.165 A 
ATOM      8  F   UNL     1      -4.942  -9.187  -3.043  1.00  0.00    -0.203 F 
BRANCH   3   9
ATOM      9  C   UNL     1      -5.628  -5.932   1.463  1.00  0.00     0.335 C 
ATOM     10  O   UNL     1      -5.175  -4.806   1.471  1.00  0.00    -0.246 OA
BRANCH   9  11
ATOM     11  O   UNL     1      -6.302  -6.396   2.534  1.00  0.00    -0.478 OA
ATOM     12  H   UNL     1      -7.064  -5.879   2.831  1.00  0.00     0.297 HD
ENDBRANCH   9  11
ENDBRANCH   3   9
ENDBRANCH   1   2
BRANCH   1  13
ATOM     13  C   UNL     1      -6.192 -11.018  -0.050  1.00  0.00     0.230 C 
BRANCH  13  14
ATOM     14  C   UNL     1      -6.059 -12.368  -0.756  1.00  0.00     0.046 C 
BRANCH  14  15
ATOM     15  C   UNL     1      -7.350 -13.170  -0.571  1.00  0.00     0.043 C 
BRANCH  15  16
ATOM     16  C   UNL     1      -7.010 -14.598  -0.231  1.00  0.00    -0.004 A 
ATOM     17  C   UNL     1      -6.645 -15.061   0.987  1.00  0.00     0.036 A 
ATOM     18  C   UNL     1      -7.024 -15.680  -1.116  1.00  0.00     0.063 A 
ATOM     19  N   UNL     1      -6.428 -16.389   0.874  1.00  0.00    -0.282 N 
ATOM     20  N   UNL     1      -6.668 -16.753  -0.457  1.00  0.00    -0.181 NA
ATOM     21  C   UNL     1      -6.505 -14.242   2.244  1.00  0.00     0.066 C 
ATOM     22  C   UNL     1      -7.375 -15.620  -2.581  1.00  0.00     0.069 C 
ATOM     23  H   UNL     1      -6.154 -16.985   1.588  1.00  0.00     0.190 HD
ENDBRANCH  15  16
ENDBRANCH  14  15
ENDBRANCH  13  14
ENDBRANCH   1  13
TORSDOF 7
ENDMDL
MODEL 7
REMARK VINA RESULT:    -4.713      3.684      5.122
REMARK INTER + INTRA:          -7.069
REMARK INTER:                  -6.475
REMARK INTRA:                  -0.595
REMARK UNBOUND:                -0.566
REMARK SMILES Cc1n[nH]c(C)c1CCCOc1cc(C(=O)O)ccc1F
REMARK SMILES IDX 11 1 12 2 14 3 18 4 13 5 19 6 20 7 21 8 15 9 16 10 17 11
REMARK SMILES IDX 10 13 9 14 8 15 7 16 5 17 2 18 4 19 3 20 6 21 1 22
REMARK H PARENT 17 12 4 23
ROOT
ATOM      1  O   UNL     1      -6.882 -10.284  -0.501  1.00  0.00    -0.490 OA
ENDROOT
BRANCH   1   2
ATOM      2  C   UNL     1      -6.258  -9.079  -0.581  1.00  0.00     0.155 A 
ATOM      3  C   UNL     1      -4.715  -7.596  -1.678  1.00  0.00     0.063 A 
ATOM      4  C   UNL     1      -5.001  -6.606  -0.733  1.00  0.00     0.019 A 
ATOM      5  C   UNL     1      -5.351  -8.837  -1.595  1.00  0.00     0.065 A 
ATOM      6  C   UNL     1      -5.913  -6.855   0.271  1.00  0.00     0.044 A 
ATOM      7  C   UNL     1      -6.545  -8.085   0.348  1.00  0.00     0.165 A 
ATOM      8  F   UNL     1      -7.437  -8.322   1.335  1.00  0.00    -0.203 F 
BRANCH   3   9
ATOM      9  C   UNL     1      -3.741  -7.332  -2.754  1.00  0.00     0.335 C 
ATOM     10  O   UNL     1      -2.878  -6.493  -2.601  1.00  0.00    -0.246 OA
BRANCH   9  11
ATOM     11  O   UNL     1      -3.805  -8.030  -3.906  1.00  0.00    -0.478 OA
ATOM     12  H   UNL     1      -4.603  -8.555  -4.057  1.00  0.00     0.297 HD
ENDBRANCH   9  11
ENDBRANCH   3   9
ENDBRANCH   1   2
BRANCH   1  13
ATOM     13  C   UNL     1      -6.166 -11.344   0.137  1.00  0.00     0.230 C 
BRANCH  13  14
ATOM     14  C   UNL     1      -6.150 -12.570  -0.777  1.00  0.00     0.046 C 
BRANCH  14  15
ATOM     15  C   UNL     1      -7.429 -13.383  -0.562  1.00  0.00     0.043 C 
BRANCH  15  16
ATOM     16  C   UNL     1      -7.070 -14.813  -0.252  1.00  0.00    -0.004 A 
ATOM     17  C   UNL     1      -7.042 -15.837  -1.136  1.00  0.00     0.036 A 
ATOM     18  C   UNL     1      -6.700 -15.316   1.000  1.00  0.00     0.063 A 
ATOM     19  N   UNL     1      -6.674 -16.950  -0.466  1.00  0.00    -0.282 N 
ATOM     20  N   UNL     1      -6.469 -16.597   0.874  1.00  0.00    -0.181 NA
ATOM     21  C   UNL     1      -7.364 -15.751  -2.605  1.00  0.00     0.066 C 
ATOM     22  C   UNL     1      -6.597 -14.520   2.276  1.00  0.00     0.069 C 
ATOM     23  H   UNL     1      -6.571 -17.836  -0.845  1.00  0.00     0.190 HD
ENDBRANCH  15  16
ENDBRANCH  14  15
ENDBRANCH  13  14
ENDBRANCH   1  13
TORSDOF 7
ENDMDL
MODEL 8
REMARK VINA RESULT:    -4.565      3.865      6.655
REMARK INTER + INTRA:          -6.866
REMARK INTER:                  -5.989
REMARK INTRA:                  -0.877
REMARK UNBOUND:                -0.566
REMARK SMILES Cc1n[nH]c(C)c1CCCOc1cc(C(=O)O)ccc1F
REMARK SMILES IDX 11 1 12 2 14 3 18 4 13 5 19 6 20 7 21 8 15 9 16 10 17 11
REMARK SMILES IDX 10 13 9 14 8 15 7 16 5 17 2 18 4 19 3 20 6 21 1 22
REMARK H PARENT 17 12 4 23
ROOT
ATOM      1  O   UNL     1      -5.551  -7.457  -1.461  1.00  0.00    -0.490 OA
ENDROOT
BRANCH   1   2
ATOM      2  C   UNL     1      -6.253  -8.598  -1.227  1.00  0.00     0.155 A 
ATOM      3  C   UNL     1      -6.327 -10.895  -0.521  1.00  0.00     0.063 A 
ATOM      4  C   UNL     1      -7.706 -10.916  -0.746  1.00  0.00     0.019 A 
ATOM      5  C   UNL     1      -5.602  -9.727  -0.765  1.00  0.00     0.065 A 
ATOM      6  C   UNL     1      -8.347  -9.783  -1.202  1.00  0.00     0.044 A 
ATOM      7  C   UNL     1      -7.627  -8.624  -1.439  1.00  0.00     0.165 A 
ATOM      8  F   UNL     1      -8.261  -7.518  -1.885  1.00  0.00    -0.203 F 
BRANCH   3   9
ATOM      9  C   UNL     1      -5.638 -12.106  -0.032  1.00  0.00     0.335 C 
ATOM     10  O   UNL     1      -4.510 -12.027   0.409  1.00  0.00    -0.246 OA
BRANCH   9  11
ATOM     11  O   UNL     1      -6.264 -13.299  -0.070  1.00  0.00    -0.478 OA
ATOM     12  H   UNL     1      -5.712 -14.088   0.023  1.00  0.00     0.297 HD
ENDBRANCH   9  11
ENDBRANCH   3   9
ENDBRANCH   1   2
BRANCH   1  13
ATOM     13  C   UNL     1      -4.220  -7.605  -1.961  1.00  0.00     0.230 C 
BRANCH  13  14
ATOM     14  C   UNL     1      -3.378  -6.403  -1.532  1.00  0.00     0.046 C 
BRANCH  14  15
ATOM     15  C   UNL     1      -3.257  -6.383  -0.006  1.00  0.00     0.043 C 
BRANCH  15  16
ATOM     16  C   UNL     1      -3.890  -5.127   0.533  1.00  0.00    -0.004 A 
ATOM     17  C   UNL     1      -3.406  -3.870   0.397  1.00  0.00     0.036 A 
ATOM     18  C   UNL     1      -5.084  -5.052   1.257  1.00  0.00     0.063 A 
ATOM     19  N   UNL     1      -4.261  -3.031   1.018  1.00  0.00    -0.282 N 
ATOM     20  N   UNL     1      -5.304  -3.798   1.555  1.00  0.00    -0.181 NA
ATOM     21  C   UNL     1      -2.141  -3.478  -0.321  1.00  0.00     0.066 C 
ATOM     22  C   UNL     1      -5.960  -6.218   1.640  1.00  0.00     0.069 C 
ATOM     23  H   UNL     1      -4.169  -2.068   1.083  1.00  0.00     0.190 HD
ENDBRANCH  15  16
ENDBRANCH  14  15
ENDBRANCH  13  14
ENDBRANCH   1  13
TORSDOF 7
ENDMDL
MODEL 9
REMARK VINA RESULT:    -4.402      4.976      7.930
REMARK INTER + INTRA:          -6.641
REMARK INTER:                  -5.935
REMARK INTRA:                  -0.706
REMARK UNBOUND:                -0.566
REMARK SMILES Cc1n[nH]c(C)c1CCCOc1cc(C(=O)O)ccc1F
REMARK SMILES IDX 11 1 12 2 14 3 18 4 13 5 19 6 20 7 21 8 15 9 16 10 17 11
REMARK SMILES IDX 10 13 9 14 8 15 7 16 5 17 2 18 4 19 3 20 6 21 1 22
REMARK H PARENT 17 12 4 23
ROOT
ATOM      1  O   UNL     1      -6.142 -10.780  -0.776  1.00  0.00    -0.490 OA
ENDROOT
BRANCH   1   2
ATOM      2  C   UNL     1      -6.451 -12.054  -0.415  1.00  0.00     0.155 A 
ATOM      3  C   UNL     1      -7.692 -14.083  -0.772  1.00  0.00     0.063 A 
ATOM      4  C   UNL     1      -7.060 -14.659   0.333  1.00  0.00     0.019 A 
ATOM      5  C   UNL     1      -7.381 -12.773  -1.143  1.00  0.00     0.065 A 
ATOM      6  C   UNL     1      -6.129 -13.937   1.049  1.00  0.00     0.044 A 
ATOM      7  C   UNL     1      -5.818 -12.639   0.677  1.00  0.00     0.165 A 
ATOM      8  F   UNL     1      -4.905 -11.937   1.382  1.00  0.00    -0.203 F 
BRANCH   3   9
ATOM      9  C   UNL     1      -8.689 -14.853  -1.541  1.00  0.00     0.335 C 
ATOM     10  O   UNL     1      -8.966 -15.988  -1.211  1.00  0.00    -0.246 OA
BRANCH   9  11
ATOM     11  O   UNL     1      -9.296 -14.294  -2.606  1.00  0.00    -0.478 OA
ATOM     12  H   UNL     1     -10.259 -14.208  -2.567  1.00  0.00     0.297 HD
ENDBRANCH   9  11
ENDBRANCH   3   9
ENDBRANCH   1   2
BRANCH   1  13
ATOM     13  C   UNL     1      -7.200  -9.820  -0.735  1.00  0.00     0.230 C 
BRANCH  13  14
ATOM     14  C   UNL     1      -6.637  -8.428  -1.029  1.00  0.00     0.046 C 
BRANCH  14  15
ATOM     15  C   UNL     1      -5.229  -8.313  -0.440  1.00  0.00     0.043 C 
BRANCH  15  16
ATOM     16  C   UNL     1      -4.762  -6.884  -0.529  1.00  0.00    -0.004 A 
ATOM     17  C   UNL     1      -4.082  -6.331  -1.561  1.00  0.00     0.036 A 
ATOM     18  C   UNL     1      -4.959  -5.891   0.437  1.00  0.00     0.063 A 
ATOM     19  N   UNL     1      -3.852  -5.037  -1.256  1.00  0.00    -0.282 N 
ATOM     20  N   UNL     1      -4.408  -4.786   0.005  1.00  0.00    -0.181 NA
ATOM     21  C   UNL     1      -3.659  -7.035  -2.824  1.00  0.00     0.066 C 
ATOM     22  C   UNL     1      -5.672  -6.068   1.753  1.00  0.00     0.069 C 
ATOM     23  H   UNL     1      -3.383  -4.394  -1.811  1.00  0.00     0.190 HD
ENDBRANCH  15  16
ENDBRANCH  14  15
ENDBRANCH  13  14
ENDBRANCH   1  13
TORSDOF 7
ENDMDL
