MODEL 1
REMARK VINA RESULT:    -4.333      0.000      0.000
REMARK INTER + INTRA:          -5.247
REMARK INTER:                  -4.966
REMARK INTRA:                  -0.281
REMARK UNBOUND:                -0.281
REMARK SMILES O=C(O)c1ccc2nc(-c3cc(Cl)cc(Cl)c3)oc2c1
REMARK SMILES IDX 5 1 6 2 20 3 8 4 18 5 4 6 9 7 7 8 19 9 2 10 1 11 3 12 10 14
REMARK SMILES IDX 11 15 17 16 12 17 15 18 14 19 13 20 16 21
REMARK H PARENT 3 13
ROOT
ATOM      1  C   UNL     1      -4.772 -12.177 -13.441  1.00  0.00     0.018 A 
ATOM      2  C   UNL     1      -5.580 -11.692 -12.458  1.00  0.00     0.033 A 
ATOM      3  C   UNL     1      -2.806 -11.558 -12.164  1.00  0.00     0.065 A 
ATOM      4  N   UNL     1      -5.548 -10.577 -10.191  1.00  0.00    -0.209 NA
ATOM      5  O   UNL     1      -3.386 -10.472  -9.972  1.00  0.00    -0.436 OA
ATOM      6  C   UNL     1      -3.377 -12.119 -13.307  1.00  0.00     0.063 A 
ATOM      7  C   UNL     1      -4.574 -10.192  -9.404  1.00  0.00     0.227 A 
ATOM      8  C   UNL     1      -5.020 -11.127 -11.305  1.00  0.00     0.110 A 
ATOM      9  C   UNL     1      -3.623 -11.060 -11.166  1.00  0.00     0.156 A 
ENDROOT
BRANCH   6  10
ATOM     10  C   UNL     1      -2.513 -12.652 -14.375  1.00  0.00     0.335 C 
ATOM     11  O   UNL     1      -2.078 -13.784 -14.296  1.00  0.00    -0.246 OA
BRANCH  10  12
ATOM     12  O   UNL     1      -2.203 -11.885 -15.439  1.00  0.00    -0.478 OA
ATOM     13  H   UNL     1      -2.935 -11.598 -16.001  1.00  0.00     0.297 HD
ENDBRANCH  10  12
ENDBRANCH   6  10
BRANCH   7  14
ATOM     14  C   UNL     1      -4.754  -9.544  -8.088  1.00  0.00     0.040 A 
ATOM     15  C   UNL     1      -5.689 -10.046  -7.182  1.00  0.00     0.034 A 
ATOM     16  C   UNL     1      -3.989  -8.427  -7.747  1.00  0.00     0.034 A 
ATOM     17  C   UNL     1      -5.852  -9.436  -5.953  1.00  0.00     0.043 A 
ATOM     18  C   UNL     1      -4.161  -7.826  -6.516  1.00  0.00     0.043 A 
ATOM     19  C   UNL     1      -5.091  -8.329  -5.621  1.00  0.00     0.041 A 
ATOM     20  Cl  UNL     1      -7.014 -10.059  -4.824  1.00  0.00    -0.084 Cl
ATOM     21  Cl  UNL     1      -3.211  -6.437  -6.090  1.00  0.00    -0.084 Cl
ENDBRANCH   7  14
TORSDOF 3
ENDMDL
MODEL 2
REMARK VINA RESULT:    -4.308      0.095      2.021
REMARK INTER + INTRA:          -5.219
REMARK INTER:                  -4.936
REMARK INTRA:                  -0.282
REMARK UNBOUND:                -0.281
REMARK SMILES O=C(O)c1ccc2nc(-c3cc(Cl)cc(Cl)c3)oc2c1
REMARK SMILES IDX 5 1 6 2 20 3 8 4 18 5 4 6 9 7 7 8 19 9 2 10 1 11 3 12 10 14
REMARK SMILES IDX 11 15 17 16 12 17 15 18 14 19 13 20 16 21
REMARK H PARENT 3 13
ROOT
ATOM      1  C   UNL     1      -4.774 -12.288 -13.461  1.00  0.00     0.018 A 
ATOM      2  C   UNL     1      -5.580 -11.834 -12.460  1.00  0.00     0.033 A 
ATOM      3  C   UNL     1      -2.809 -11.549 -12.247  1.00  0.00     0.065 A 
ATOM      4  N   UNL     1      -5.544 -10.689 -10.208  1.00  0.00    -0.209 NA
ATOM      5  O   UNL     1      -3.386 -10.467 -10.052  1.00  0.00    -0.436 OA
ATOM      6  C   UNL     1      -3.382 -12.154 -13.367  1.00  0.00     0.063 A 
ATOM      7  C   UNL     1      -4.571 -10.242  -9.454  1.00  0.00     0.227 A 
ATOM      8  C   UNL     1      -5.019 -11.224 -11.331  1.00  0.00     0.110 A 
ATOM      9  C   UNL     1      -3.624 -11.082 -11.232  1.00  0.00     0.156 A 
ENDROOT
BRANCH   6  10
ATOM     10  C   UNL     1      -2.520 -12.655 -14.453  1.00  0.00     0.335 C 
ATOM     11  O   UNL     1      -1.981 -13.739 -14.350  1.00  0.00    -0.246 OA
BRANCH  10  12
ATOM     12  O   UNL     1      -2.329 -11.911 -15.561  1.00  0.00    -0.478 OA
ATOM     13  H   UNL     1      -1.424 -11.634 -15.752  1.00  0.00     0.297 HD
ENDBRANCH  10  12
ENDBRANCH   6  10
BRANCH   7  14
ATOM     14  C   UNL     1      -4.748  -9.588  -8.141  1.00  0.00     0.040 A 
ATOM     15  C   UNL     1      -3.968  -8.483  -7.797  1.00  0.00     0.034 A 
ATOM     16  C   UNL     1      -5.697 -10.074  -7.239  1.00  0.00     0.034 A 
ATOM     17  C   UNL     1      -4.140  -7.876  -6.569  1.00  0.00     0.043 A 
ATOM     18  C   UNL     1      -5.859  -9.458  -6.015  1.00  0.00     0.043 A 
ATOM     19  C   UNL     1      -5.082  -8.362  -5.679  1.00  0.00     0.041 A 
ATOM     20  Cl  UNL     1      -3.171  -6.501  -6.139  1.00  0.00    -0.084 Cl
ATOM     21  Cl  UNL     1      -7.039 -10.060  -4.891  1.00  0.00    -0.084 Cl
ENDBRANCH   7  14
TORSDOF 3
ENDMDL
MODEL 3
REMARK VINA RESULT:    -3.897      3.831      7.608
REMARK INTER + INTRA:          -4.748
REMARK INTER:                  -4.468
REMARK INTRA:                  -0.280
REMARK UNBOUND:                -0.281
REMARK SMILES O=C(O)c1ccc2nc(-c3cc(Cl)cc(Cl)c3)oc2c1
REMARK SMILES IDX 5 1 6 2 20 3 8 4 18 5 4 6 9 7 7 8 19 9 2 10 1 11 3 12 10 14
REMARK SMILES IDX 11 15 17 16 12 17 15 18 14 19 13 20 16 21
REMARK H PARENT 3 13
ROOT
ATOM      1  C   UNL     1      -5.240  -8.825  -5.465  1.00  0.00     0.018 A 
ATOM      2  C   UNL     1      -5.708  -9.805  -6.289  1.00  0.00     0.033 A 
ATOM      3  C   UNL     1      -3.974  -7.859  -7.294  1.00  0.00     0.065 A 
ATOM      4  N   UNL     1      -5.606 -10.658  -8.665  1.00  0.00    -0.209 NA
ATOM      5  O   UNL     1      -4.251  -9.141  -9.439  1.00  0.00    -0.436 OA
ATOM      6  C   UNL     1      -4.371  -7.841  -5.956  1.00  0.00     0.063 A 
ATOM      7  C   UNL     1      -4.971 -10.240  -9.732  1.00  0.00     0.227 A 
ATOM      8  C   UNL     1      -5.318  -9.835  -7.634  1.00  0.00     0.110 A 
ATOM      9  C   UNL     1      -4.442  -8.854  -8.132  1.00  0.00     0.156 A 
ENDROOT
BRANCH   6  10
ATOM     10  C   UNL     1      -3.876  -6.782  -5.056  1.00  0.00     0.335 C 
ATOM     11  O   UNL     1      -3.077  -7.053  -4.182  1.00  0.00    -0.246 OA
BRANCH  10  12
ATOM     12  O   UNL     1      -4.312  -5.515  -5.203  1.00  0.00    -0.478 OA
ATOM     13  H   UNL     1      -3.950  -5.009  -5.942  1.00  0.00     0.297 HD
ENDBRANCH  10  12
ENDBRANCH   6  10
BRANCH   7  14
ATOM     14  C   UNL     1      -5.036 -10.882 -11.061  1.00  0.00     0.040 A 
ATOM     15  C   UNL     1      -3.880 -11.401 -11.646  1.00  0.00     0.034 A 
ATOM     16  C   UNL     1      -6.254 -10.971 -11.738  1.00  0.00     0.034 A 
ATOM     17  C   UNL     1      -3.947 -12.001 -12.888  1.00  0.00     0.043 A 
ATOM     18  C   UNL     1      -6.308 -11.573 -12.979  1.00  0.00     0.043 A 
ATOM     19  C   UNL     1      -5.158 -12.086 -13.554  1.00  0.00     0.041 A 
ATOM     20  Cl  UNL     1      -2.510 -12.648 -13.617  1.00  0.00    -0.084 Cl
ATOM     21  Cl  UNL     1      -7.822 -11.685 -13.822  1.00  0.00    -0.084 Cl
ENDBRANCH   7  14
TORSDOF 3
ENDMDL
MODEL 4
REMARK VINA RESULT:    -3.895      3.831      7.454
REMARK INTER + INTRA:          -4.745
REMARK INTER:                  -4.466
REMARK INTRA:                  -0.280
REMARK UNBOUND:                -0.281
REMARK SMILES O=C(O)c1ccc2nc(-c3cc(Cl)cc(Cl)c3)oc2c1
REMARK SMILES IDX 5 1 6 2 20 3 8 4 18 5 4 6 9 7 7 8 19 9 2 10 1 11 3 12 10 14
REMARK SMILES IDX 11 15 17 16 12 17 15 18 14 19 13 20 16 21
REMARK H PARENT 3 13
ROOT
ATOM      1  C   UNL     1      -5.233  -8.828  -5.464  1.00  0.00     0.018 A 
ATOM      2  C   UNL     1      -5.702  -9.807  -6.288  1.00  0.00     0.033 A 
ATOM      3  C   UNL     1      -3.969  -7.861  -7.294  1.00  0.00     0.065 A 
ATOM      4  N   UNL     1      -5.603 -10.659  -8.664  1.00  0.00    -0.209 NA
ATOM      5  O   UNL     1      -4.249  -9.142  -9.439  1.00  0.00    -0.436 OA
ATOM      6  C   UNL     1      -4.365  -7.843  -5.955  1.00  0.00     0.063 A 
ATOM      7  C   UNL     1      -4.970 -10.241  -9.732  1.00  0.00     0.227 A 
ATOM      8  C   UNL     1      -5.314  -9.837  -7.633  1.00  0.00     0.110 A 
ATOM      9  C   UNL     1      -4.439  -8.855  -8.132  1.00  0.00     0.156 A 
ENDROOT
BRANCH   6  10
ATOM     10  C   UNL     1      -3.869  -6.785  -5.056  1.00  0.00     0.335 C 
ATOM     11  O   UNL     1      -3.070  -7.056  -4.181  1.00  0.00    -0.246 OA
BRANCH  10  12
ATOM     12  O   UNL     1      -4.302  -5.517  -5.203  1.00  0.00    -0.478 OA
ATOM     13  H   UNL     1      -4.059  -4.887  -4.512  1.00  0.00     0.297 HD
ENDBRANCH  10  12
ENDBRANCH   6  10
BRANCH   7  14
ATOM     14  C   UNL     1      -5.036 -10.883 -11.061  1.00  0.00     0.040 A 
ATOM     15  C   UNL     1      -6.254 -10.975 -11.735  1.00  0.00     0.034 A 
ATOM     16  C   UNL     1      -3.879 -11.400 -11.647  1.00  0.00     0.034 A 
ATOM     17  C   UNL     1      -6.309 -11.575 -12.978  1.00  0.00     0.043 A 
ATOM     18  C   UNL     1      -3.946 -11.998 -12.890  1.00  0.00     0.043 A 
ATOM     19  C   UNL     1      -5.158 -12.086 -13.554  1.00  0.00     0.041 A 
ATOM     20  Cl  UNL     1      -7.823 -11.690 -13.819  1.00  0.00    -0.084 Cl
ATOM     21  Cl  UNL     1      -2.509 -12.642 -13.621  1.00  0.00    -0.084 Cl
ENDBRANCH   7  14
TORSDOF 3
ENDMDL
MODEL 5
REMARK VINA RESULT:    -3.802      3.216      4.919
REMARK INTER + INTRA:          -4.639
REMARK INTER:                  -4.355
REMARK INTRA:                  -0.284
REMARK UNBOUND:                -0.281
REMARK SMILES O=C(O)c1ccc2nc(-c3cc(Cl)cc(Cl)c3)oc2c1
REMARK SMILES IDX 5 1 6 2 20 3 8 4 18 5 4 6 9 7 7 8 19 9 2 10 1 11 3 12 10 14
REMARK SMILES IDX 11 15 17 16 12 17 15 18 14 19 13 20 16 21
REMARK H PARENT 3 13
ROOT
ATOM      1  C   UNL     1      -5.994 -10.631  -8.402  1.00  0.00     0.018 A 
ATOM      2  C   UNL     1      -5.876 -10.106  -7.150  1.00  0.00     0.033 A 
ATOM      3  C   UNL     1      -4.176  -9.231  -9.186  1.00  0.00     0.065 A 
ATOM      4  N   UNL     1      -4.558  -8.442  -5.779  1.00  0.00    -0.209 NA
ATOM      5  O   UNL     1      -3.241  -7.763  -7.372  1.00  0.00    -0.436 OA
ATOM      6  C   UNL     1      -5.146 -10.203  -9.433  1.00  0.00     0.063 A 
ATOM      7  C   UNL     1      -3.570  -7.634  -6.073  1.00  0.00     0.227 A 
ATOM      8  C   UNL     1      -4.906  -9.130  -6.888  1.00  0.00     0.110 A 
ATOM      9  C   UNL     1      -4.056  -8.692  -7.918  1.00  0.00     0.156 A 
ENDROOT
BRANCH   6  10
ATOM     10  C   UNL     1      -5.280 -10.782 -10.782  1.00  0.00     0.335 C 
ATOM     11  O   UNL     1      -4.572 -11.712 -11.117  1.00  0.00    -0.246 OA
BRANCH  10  12
ATOM     12  O   UNL     1      -6.185 -10.281 -11.645  1.00  0.00    -0.478 OA
ATOM     13  H   UNL     1      -7.094 -10.197 -11.328  1.00  0.00     0.297 HD
ENDBRANCH  10  12
ENDBRANCH   6  10
BRANCH   7  14
ATOM     14  C   UNL     1      -2.915  -6.716  -5.118  1.00  0.00     0.040 A 
ATOM     15  C   UNL     1      -2.808  -7.064  -3.771  1.00  0.00     0.034 A 
ATOM     16  C   UNL     1      -2.401  -5.495  -5.561  1.00  0.00     0.034 A 
ATOM     17  C   UNL     1      -2.193  -6.202  -2.885  1.00  0.00     0.043 A 
ATOM     18  C   UNL     1      -1.789  -4.642  -4.665  1.00  0.00     0.043 A 
ATOM     19  C   UNL     1      -1.686  -4.993  -3.330  1.00  0.00     0.041 A 
ATOM     20  Cl  UNL     1      -2.058  -6.633  -1.209  1.00  0.00    -0.084 Cl
ATOM     21  Cl  UNL     1      -1.149  -3.123  -5.214  1.00  0.00    -0.084 Cl
ENDBRANCH   7  14
TORSDOF 3
ENDMDL
MODEL 6
REMARK VINA RESULT:    -3.796      5.189      8.970
REMARK INTER + INTRA:          -4.633
REMARK INTER:                  -4.335
REMARK INTRA:                  -0.298
REMARK UNBOUND:                -0.281
REMARK SMILES O=C(O)c1ccc2nc(-c3cc(Cl)cc(Cl)c3)oc2c1
REMARK SMILES IDX 5 1 6 2 20 3 8 4 18 5 4 6 9 7 7 8 19 9 2 10 1 11 3 12 10 14
REMARK SMILES IDX 11 15 17 16 12 17 15 18 14 19 13 20 16 21
REMARK H PARENT 3 13
ROOT
ATOM      1  C   UNL     1      -1.676  -4.176  -4.712  1.00  0.00     0.018 A 
ATOM      2  C   UNL     1      -2.058  -4.821  -5.851  1.00  0.00     0.033 A 
ATOM      3  C   UNL     1      -2.900  -5.779  -3.366  1.00  0.00     0.065 A 
ATOM      4  N   UNL     1      -3.399  -6.786  -6.699  1.00  0.00    -0.209 NA
ATOM      5  O   UNL     1      -4.055  -7.523  -4.760  1.00  0.00    -0.436 OA
ATOM      6  C   UNL     1      -2.089  -4.647  -3.458  1.00  0.00     0.063 A 
ATOM      7  C   UNL     1      -4.099  -7.712  -6.092  1.00  0.00     0.227 A 
ATOM      8  C   UNL     1      -2.872  -5.957  -5.773  1.00  0.00     0.110 A 
ATOM      9  C   UNL     1      -3.294  -6.432  -4.519  1.00  0.00     0.156 A 
ENDROOT
BRANCH   6  10
ATOM     10  C   UNL     1      -1.664  -3.945  -2.233  1.00  0.00     0.335 C 
ATOM     11  O   UNL     1      -0.957  -2.960  -2.312  1.00  0.00    -0.246 OA
BRANCH  10  12
ATOM     12  O   UNL     1      -2.058  -4.396  -1.026  1.00  0.00    -0.478 OA
ATOM     13  H   UNL     1      -1.373  -4.511  -0.354  1.00  0.00     0.297 HD
ENDBRANCH  10  12
ENDBRANCH   6  10
BRANCH   7  14
ATOM     14  C   UNL     1      -4.830  -8.803  -6.771  1.00  0.00     0.040 A 
ATOM     15  C   UNL     1      -4.570  -9.093  -8.111  1.00  0.00     0.034 A 
ATOM     16  C   UNL     1      -5.784  -9.546  -6.073  1.00  0.00     0.034 A 
ATOM     17  C   UNL     1      -5.255 -10.114  -8.739  1.00  0.00     0.043 A 
ATOM     18  C   UNL     1      -6.462 -10.565  -6.712  1.00  0.00     0.043 A 
ATOM     19  C   UNL     1      -6.200 -10.848  -8.042  1.00  0.00     0.041 A 
ATOM     20  Cl  UNL     1      -4.934 -10.477 -10.405  1.00  0.00    -0.084 Cl
ATOM     21  Cl  UNL     1      -7.649 -11.491  -5.846  1.00  0.00    -0.084 Cl
ENDBRANCH   7  14
TORSDOF 3
ENDMDL
MODEL 7
REMARK VINA RESULT:    -3.794      3.234      5.222
REMARK INTER + INTRA:          -4.630
REMARK INTER:                  -4.346
REMARK INTRA:                  -0.284
REMARK UNBOUND:                -0.281
REMARK SMILES O=C(O)c1ccc2nc(-c3cc(Cl)cc(Cl)c3)oc2c1
REMARK SMILES IDX 5 1 6 2 20 3 8 4 18 5 4 6 9 7 7 8 19 9 2 10 1 11 3 12 10 14
REMARK SMILES IDX 11 15 17 16 12 17 15 18 14 19 13 20 16 21
REMARK H PARENT 3 13
ROOT
ATOM      1  C   UNL     1      -5.998 -10.642  -8.381  1.00  0.00     0.018 A 
ATOM      2  C   UNL     1      -5.870 -10.124  -7.127  1.00  0.00     0.033 A 
ATOM      3  C   UNL     1      -4.205  -9.218  -9.179  1.00  0.00     0.065 A 
ATOM      4  N   UNL     1      -4.552  -8.456  -5.762  1.00  0.00    -0.209 NA
ATOM      5  O   UNL     1      -3.263  -7.752  -7.367  1.00  0.00    -0.436 OA
ATOM      6  C   UNL     1      -5.169 -10.198  -9.421  1.00  0.00     0.063 A 
ATOM      7  C   UNL     1      -3.577  -7.635  -6.063  1.00  0.00     0.227 A 
ATOM      8  C   UNL     1      -4.907  -9.140  -6.871  1.00  0.00     0.110 A 
ATOM      9  C   UNL     1      -4.075  -8.687  -7.909  1.00  0.00     0.156 A 
ENDROOT
BRANCH   6  10
ATOM     10  C   UNL     1      -5.313 -10.770 -10.772  1.00  0.00     0.335 C 
ATOM     11  O   UNL     1      -4.651 -11.735 -11.097  1.00  0.00    -0.246 OA
BRANCH  10  12
ATOM     12  O   UNL     1      -6.179 -10.222 -11.647  1.00  0.00    -0.478 OA
ATOM     13  H   UNL     1      -6.829 -10.813 -12.051  1.00  0.00     0.297 HD
ENDBRANCH  10  12
ENDBRANCH   6  10
BRANCH   7  14
ATOM     14  C   UNL     1      -2.919  -6.717  -5.111  1.00  0.00     0.040 A 
ATOM     15  C   UNL     1      -2.401  -5.499  -5.555  1.00  0.00     0.034 A 
ATOM     16  C   UNL     1      -2.812  -7.064  -3.762  1.00  0.00     0.034 A 
ATOM     17  C   UNL     1      -1.788  -4.645  -4.660  1.00  0.00     0.043 A 
ATOM     18  C   UNL     1      -2.198  -6.201  -2.877  1.00  0.00     0.043 A 
ATOM     19  C   UNL     1      -1.686  -4.995  -3.324  1.00  0.00     0.041 A 
ATOM     20  Cl  UNL     1      -1.144  -3.130  -5.210  1.00  0.00    -0.084 Cl
ATOM     21  Cl  UNL     1      -2.064  -6.631  -1.200  1.00  0.00    -0.084 Cl
ENDBRANCH   7  14
TORSDOF 3
ENDMDL
MODEL 8
REMARK VINA RESULT:    -3.793      5.403      6.798
REMARK INTER + INTRA:          -4.629
REMARK INTER:                  -4.344
REMARK INTRA:                  -0.284
REMARK UNBOUND:                -0.281
REMARK SMILES O=C(O)c1ccc2nc(-c3cc(Cl)cc(Cl)c3)oc2c1
REMARK SMILES IDX 5 1 6 2 20 3 8 4 18 5 4 6 9 7 7 8 19 9 2 10 1 11 3 12 10 14
REMARK SMILES IDX 11 15 17 16 12 17 15 18 14 19 13 20 16 21
REMARK H PARENT 3 13
ROOT
ATOM      1  C   UNL     1      -6.382 -10.910  -7.644  1.00  0.00     0.018 A 
ATOM      2  C   UNL     1      -5.463  -9.924  -7.846  1.00  0.00     0.033 A 
ATOM      3  C   UNL     1      -6.646 -10.225  -5.333  1.00  0.00     0.065 A 
ATOM      4  N   UNL     1      -4.259  -8.027  -6.691  1.00  0.00    -0.209 NA
ATOM      5  O   UNL     1      -5.180  -8.271  -4.736  1.00  0.00    -0.436 OA
ATOM      6  C   UNL     1      -6.986 -11.072  -6.389  1.00  0.00     0.063 A 
ATOM      7  C   UNL     1      -4.304  -7.559  -5.469  1.00  0.00     0.227 A 
ATOM      8  C   UNL     1      -5.113  -9.067  -6.795  1.00  0.00     0.110 A 
ATOM      9  C   UNL     1      -5.710  -9.227  -5.532  1.00  0.00     0.156 A 
ENDROOT
BRANCH   6  10
ATOM     10  C   UNL     1      -7.983 -12.138  -6.185  1.00  0.00     0.335 C 
ATOM     11  O   UNL     1      -7.630 -13.233  -5.794  1.00  0.00    -0.246 OA
BRANCH  10  12
ATOM     12  O   UNL     1      -9.286 -11.899  -6.433  1.00  0.00    -0.478 OA
ATOM     13  H   UNL     1      -9.794 -12.614  -6.840  1.00  0.00     0.297 HD
ENDBRANCH  10  12
ENDBRANCH   6  10
BRANCH   7  14
ATOM     14  C   UNL     1      -3.508  -6.419  -4.968  1.00  0.00     0.040 A 
ATOM     15  C   UNL     1      -3.138  -5.389  -5.834  1.00  0.00     0.034 A 
ATOM     16  C   UNL     1      -3.124  -6.368  -3.627  1.00  0.00     0.034 A 
ATOM     17  C   UNL     1      -2.395  -4.325  -5.359  1.00  0.00     0.043 A 
ATOM     18  C   UNL     1      -2.382  -5.300  -3.164  1.00  0.00     0.043 A 
ATOM     19  C   UNL     1      -2.018  -4.281  -4.028  1.00  0.00     0.041 A 
ATOM     20  Cl  UNL     1      -1.934  -3.043  -6.434  1.00  0.00    -0.084 Cl
ATOM     21  Cl  UNL     1      -1.904  -5.234  -1.497  1.00  0.00    -0.084 Cl
ENDBRANCH   7  14
TORSDOF 3
ENDMDL
MODEL 9
REMARK VINA RESULT:    -3.790      5.193      8.808
REMARK INTER + INTRA:          -4.625
REMARK INTER:                  -4.328
REMARK INTRA:                  -0.298
REMARK UNBOUND:                -0.281
REMARK SMILES O=C(O)c1ccc2nc(-c3cc(Cl)cc(Cl)c3)oc2c1
REMARK SMILES IDX 5 1 6 2 20 3 8 4 18 5 4 6 9 7 7 8 19 9 2 10 1 11 3 12 10 14
REMARK SMILES IDX 11 15 17 16 12 17 15 18 14 19 13 20 16 21
REMARK H PARENT 3 13
ROOT
ATOM      1  C   UNL     1      -1.658  -4.184  -4.731  1.00  0.00     0.018 A 
ATOM      2  C   UNL     1      -2.043  -4.832  -5.866  1.00  0.00     0.033 A 
ATOM      3  C   UNL     1      -2.892  -5.772  -3.376  1.00  0.00     0.065 A 
ATOM      4  N   UNL     1      -3.395  -6.795  -6.705  1.00  0.00    -0.209 NA
ATOM      5  O   UNL     1      -4.056  -7.518  -4.762  1.00  0.00    -0.436 OA
ATOM      6  C   UNL     1      -2.075  -4.645  -3.474  1.00  0.00     0.063 A 
ATOM      7  C   UNL     1      -4.100  -7.714  -6.093  1.00  0.00     0.227 A 
ATOM      8  C   UNL     1      -2.863  -5.964  -5.782  1.00  0.00     0.110 A 
ATOM      9  C   UNL     1      -3.289  -6.430  -4.526  1.00  0.00     0.156 A 
ENDROOT
BRANCH   6  10
ATOM     10  C   UNL     1      -1.647  -3.939  -2.253  1.00  0.00     0.335 C 
ATOM     11  O   UNL     1      -0.927  -2.964  -2.336  1.00  0.00    -0.246 OA
BRANCH  10  12
ATOM     12  O   UNL     1      -2.053  -4.376  -1.044  1.00  0.00    -0.478 OA
ATOM     13  H   UNL     1      -1.916  -5.312  -0.847  1.00  0.00     0.297 HD
ENDBRANCH  10  12
ENDBRANCH   6  10
BRANCH   7  14
ATOM     14  C   UNL     1      -4.836  -8.804  -6.766  1.00  0.00     0.040 A 
ATOM     15  C   UNL     1      -5.787  -9.546  -6.064  1.00  0.00     0.034 A 
ATOM     16  C   UNL     1      -4.582  -9.096  -8.108  1.00  0.00     0.034 A 
ATOM     17  C   UNL     1      -6.472 -10.563  -6.699  1.00  0.00     0.043 A 
ATOM     18  C   UNL     1      -5.274 -10.115  -8.732  1.00  0.00     0.043 A 
ATOM     19  C   UNL     1      -6.216 -10.848  -8.030  1.00  0.00     0.041 A 
ATOM     20  Cl  UNL     1      -7.656 -11.487  -5.828  1.00  0.00    -0.084 Cl
ATOM     21  Cl  UNL     1      -4.960 -10.480 -10.400  1.00  0.00    -0.084 Cl
ENDBRANCH   7  14
TORSDOF 3
ENDMDL
