MODEL 1
REMARK VINA RESULT:    -5.454      0.000      0.000
REMARK INTER + INTRA:          -8.072
REMARK INTER:                  -7.527
REMARK INTRA:                  -0.545
REMARK UNBOUND:                -0.545
REMARK SMILES Cc1n[nH]c(C)c1CCCOc1cc(C(=O)O)ccc1F
REMARK SMILES IDX 11 1 12 2 14 3 18 4 13 5 19 6 20 7 21 8 15 9 16 10 17 11
REMARK SMILES IDX 10 13 9 14 8 15 7 16 5 17 2 18 4 19 3 20 6 21 1 22
REMARK H PARENT 17 12 4 23
ROOT
ATOM      1  O   UNL     1      -4.880  -5.068  -5.462  1.00  0.00    -0.490 OA
ENDROOT
BRANCH   1   2
ATOM      2  C   UNL     1      -3.733  -4.981  -4.738  1.00  0.00     0.155 A 
ATOM      3  C   UNL     1      -2.370  -5.697  -2.891  1.00  0.00     0.063 A 
ATOM      4  C   UNL     1      -1.376  -4.794  -3.279  1.00  0.00     0.019 A 
ATOM      5  C   UNL     1      -3.552  -5.786  -3.629  1.00  0.00     0.065 A 
ATOM      6  C   UNL     1      -1.563  -3.999  -4.391  1.00  0.00     0.044 A 
ATOM      7  C   UNL     1      -2.735  -4.093  -5.124  1.00  0.00     0.165 A 
ATOM      8  F   UNL     1      -2.912  -3.311  -6.212  1.00  0.00    -0.203 F 
BRANCH   3   9
ATOM      9  C   UNL     1      -2.173  -6.549  -1.702  1.00  0.00     0.335 C 
ATOM     10  O   UNL     1      -3.130  -7.044  -1.144  1.00  0.00    -0.246 OA
BRANCH   9  11
ATOM     11  O   UNL     1      -0.929  -6.783  -1.240  1.00  0.00    -0.478 OA
ATOM     12  H   UNL     1      -0.219  -6.835  -1.896  1.00  0.00     0.297 HD
ENDBRANCH   9  11
ENDBRANCH   3   9
ENDBRANCH   1   2
BRANCH   1  13
ATOM     13  C   UNL     1      -4.773  -5.593  -6.788  1.00  0.00     0.230 C 
BRANCH  13  14
ATOM     14  C   UNL     1      -5.584  -6.886  -6.892  1.00  0.00     0.046 C 
BRANCH  14  15
ATOM     15  C   UNL     1      -4.657  -8.087  -6.691  1.00  0.00     0.043 C 
BRANCH  15  16
ATOM     16  C   UNL     1      -5.268  -9.306  -7.332  1.00  0.00    -0.004 A 
ATOM     17  C   UNL     1      -6.161 -10.144  -6.757  1.00  0.00     0.036 A 
ATOM     18  C   UNL     1      -5.016  -9.768  -8.628  1.00  0.00     0.063 A 
ATOM     19  N   UNL     1      -6.460 -11.106  -7.656  1.00  0.00    -0.282 N 
ATOM     20  N   UNL     1      -5.725 -10.851  -8.821  1.00  0.00    -0.181 NA
ATOM     21  C   UNL     1      -6.723 -10.025  -5.365  1.00  0.00     0.066 C 
ATOM     22  C   UNL     1      -4.081  -9.134  -9.626  1.00  0.00     0.069 C 
ATOM     23  H   UNL     1      -7.073 -11.844  -7.519  1.00  0.00     0.190 HD
ENDBRANCH  15  16
ENDBRANCH  14  15
ENDBRANCH  13  14
ENDBRANCH   1  13
TORSDOF 7
ENDMDL
MODEL 2
REMARK VINA RESULT:    -5.443      2.301      3.929
REMARK INTER + INTRA:          -8.057
REMARK INTER:                  -7.681
REMARK INTRA:                  -0.376
REMARK UNBOUND:                -0.545
REMARK SMILES Cc1n[nH]c(C)c1CCCOc1cc(C(=O)O)ccc1F
REMARK SMILES IDX 11 1 12 2 14 3 18 4 13 5 19 6 20 7 21 8 15 9 16 10 17 11
REMARK SMILES IDX 10 13 9 14 8 15 7 16 5 17 2 18 4 19 3 20 6 21 1 22
REMARK H PARENT 17 12 4 23
ROOT
ATOM      1  O   UNL     1      -1.541  -8.055  -4.776  1.00  0.00    -0.490 OA
ENDROOT
BRANCH   1   2
ATOM      2  C   UNL     1      -1.697  -6.742  -4.458  1.00  0.00     0.155 A 
ATOM      3  C   UNL     1      -1.960  -4.448  -5.129  1.00  0.00     0.063 A 
ATOM      4  C   UNL     1      -2.024  -4.066  -3.786  1.00  0.00     0.019 A 
ATOM      5  C   UNL     1      -1.796  -5.795  -5.460  1.00  0.00     0.065 A 
ATOM      6  C   UNL     1      -1.930  -5.019  -2.794  1.00  0.00     0.044 A 
ATOM      7  C   UNL     1      -1.772  -6.355  -3.124  1.00  0.00     0.165 A 
ATOM      8  F   UNL     1      -1.681  -7.283  -2.147  1.00  0.00    -0.203 F 
BRANCH   3   9
ATOM      9  C   UNL     1      -2.061  -3.431  -6.194  1.00  0.00     0.335 C 
ATOM     10  O   UNL     1      -1.628  -3.668  -7.303  1.00  0.00    -0.246 OA
BRANCH   9  11
ATOM     11  O   UNL     1      -2.638  -2.241  -5.936  1.00  0.00    -0.478 OA
ATOM     12  H   UNL     1      -3.179  -1.854  -6.639  1.00  0.00     0.297 HD
ENDBRANCH   9  11
ENDBRANCH   3   9
ENDBRANCH   1   2
BRANCH   1  13
ATOM     13  C   UNL     1      -2.518  -8.966  -4.265  1.00  0.00     0.230 C 
BRANCH  13  14
ATOM     14  C   UNL     1      -3.200  -9.686  -5.430  1.00  0.00     0.046 C 
BRANCH  14  15
ATOM     15  C   UNL     1      -4.389  -8.856  -5.917  1.00  0.00     0.043 C 
BRANCH  15  16
ATOM     16  C   UNL     1      -5.260  -9.701  -6.810  1.00  0.00    -0.004 A 
ATOM     17  C   UNL     1      -5.114  -9.862  -8.146  1.00  0.00     0.036 A 
ATOM     18  C   UNL     1      -6.360 -10.464  -6.403  1.00  0.00     0.063 A 
ATOM     19  N   UNL     1      -6.090 -10.691  -8.570  1.00  0.00    -0.282 N 
ATOM     20  N   UNL     1      -6.863 -11.052  -7.458  1.00  0.00    -0.181 NA
ATOM     21  C   UNL     1      -4.051  -9.228  -9.004  1.00  0.00     0.066 C 
ATOM     22  C   UNL     1      -6.884 -10.578  -4.994  1.00  0.00     0.069 C 
ATOM     23  H   UNL     1      -6.233 -10.984  -9.483  1.00  0.00     0.190 HD
ENDBRANCH  15  16
ENDBRANCH  14  15
ENDBRANCH  13  14
ENDBRANCH   1  13
TORSDOF 7
ENDMDL
MODEL 3
REMARK VINA RESULT:    -4.953      8.504     10.825
REMARK INTER + INTRA:          -7.380
REMARK INTER:                  -5.341
REMARK INTRA:                  -2.039
REMARK UNBOUND:                -0.545
REMARK SMILES Cc1n[nH]c(C)c1CCCOc1cc(C(=O)O)ccc1F
REMARK SMILES IDX 11 1 12 2 14 3 18 4 13 5 19 6 20 7 21 8 15 9 16 10 17 11
REMARK SMILES IDX 10 13 9 14 8 15 7 16 5 17 2 18 4 19 3 20 6 21 1 22
REMARK H PARENT 17 12 4 23
ROOT
ATOM      1  O   UNL     1      -4.395 -13.211 -15.160  1.00  0.00    -0.490 OA
ENDROOT
BRANCH   1   2
ATOM      2  C   UNL     1      -4.407 -12.622 -13.934  1.00  0.00     0.155 A 
ATOM      3  C   UNL     1      -5.608 -11.866 -11.993  1.00  0.00     0.063 A 
ATOM      4  C   UNL     1      -4.408 -11.426 -11.427  1.00  0.00     0.019 A 
ATOM      5  C   UNL     1      -5.600 -12.466 -13.254  1.00  0.00     0.065 A 
ATOM      6  C   UNL     1      -3.222 -11.591 -12.111  1.00  0.00     0.044 A 
ATOM      7  C   UNL     1      -3.216 -12.191 -13.359  1.00  0.00     0.165 A 
ATOM      8  F   UNL     1      -2.051 -12.350 -14.024  1.00  0.00    -0.203 F 
BRANCH   3   9
ATOM      9  C   UNL     1      -6.879 -11.691 -11.264  1.00  0.00     0.335 C 
ATOM     10  O   UNL     1      -6.929 -11.905 -10.070  1.00  0.00    -0.246 OA
BRANCH   9  11
ATOM     11  O   UNL     1      -7.983 -11.286 -11.922  1.00  0.00    -0.478 OA
ATOM     12  H   UNL     1      -7.859 -10.641 -12.632  1.00  0.00     0.297 HD
ENDBRANCH   9  11
ENDBRANCH   3   9
ENDBRANCH   1   2
BRANCH   1  13
ATOM     13  C   UNL     1      -4.985 -14.509 -15.261  1.00  0.00     0.230 C 
BRANCH  13  14
ATOM     14  C   UNL     1      -3.890 -15.550 -15.501  1.00  0.00     0.046 C 
BRANCH  14  15
ATOM     15  C   UNL     1      -3.979 -16.641 -14.432  1.00  0.00     0.043 C 
BRANCH  15  16
ATOM     16  C   UNL     1      -3.501 -16.093 -13.113  1.00  0.00    -0.004 A 
ATOM     17  C   UNL     1      -2.232 -15.729 -12.814  1.00  0.00     0.036 A 
ATOM     18  C   UNL     1      -4.291 -15.863 -11.982  1.00  0.00     0.063 A 
ATOM     19  N   UNL     1      -2.219 -15.292 -11.538  1.00  0.00    -0.282 N 
ATOM     20  N   UNL     1      -3.523 -15.390 -11.035  1.00  0.00    -0.181 NA
ATOM     21  C   UNL     1      -1.047 -15.800 -13.741  1.00  0.00     0.066 C 
ATOM     22  C   UNL     1      -5.771 -16.128 -11.869  1.00  0.00     0.069 C 
ATOM     23  H   UNL     1      -1.443 -14.968 -11.053  1.00  0.00     0.190 HD
ENDBRANCH  15  16
ENDBRANCH  14  15
ENDBRANCH  13  14
ENDBRANCH   1  13
TORSDOF 7
ENDMDL
MODEL 4
REMARK VINA RESULT:    -4.558      3.034      4.313
REMARK INTER + INTRA:          -6.836
REMARK INTER:                  -6.339
REMARK INTRA:                  -0.497
REMARK UNBOUND:                -0.545
REMARK SMILES Cc1n[nH]c(C)c1CCCOc1cc(C(=O)O)ccc1F
REMARK SMILES IDX 11 1 12 2 14 3 18 4 13 5 19 6 20 7 21 8 15 9 16 10 17 11
REMARK SMILES IDX 10 13 9 14 8 15 7 16 5 17 2 18 4 19 3 20 6 21 1 22
REMARK H PARENT 17 12 4 23
ROOT
ATOM      1  O   UNL     1      -5.099  -8.470  -7.661  1.00  0.00    -0.490 OA
ENDROOT
BRANCH   1   2
ATOM      2  C   UNL     1      -4.534  -7.717  -6.679  1.00  0.00     0.155 A 
ATOM      3  C   UNL     1      -3.015  -7.498  -4.829  1.00  0.00     0.063 A 
ATOM      4  C   UNL     1      -3.385  -6.158  -4.688  1.00  0.00     0.019 A 
ATOM      5  C   UNL     1      -3.596  -8.276  -5.832  1.00  0.00     0.065 A 
ATOM      6  C   UNL     1      -4.318  -5.608  -5.542  1.00  0.00     0.044 A 
ATOM      7  C   UNL     1      -4.889  -6.380  -6.539  1.00  0.00     0.165 A 
ATOM      8  F   UNL     1      -5.802  -5.834  -7.372  1.00  0.00    -0.203 F 
BRANCH   3   9
ATOM      9  C   UNL     1      -2.017  -8.090  -3.917  1.00  0.00     0.335 C 
ATOM     10  O   UNL     1      -1.686  -7.498  -2.910  1.00  0.00    -0.246 OA
BRANCH   9  11
ATOM     11  O   UNL     1      -1.477  -9.293  -4.199  1.00  0.00    -0.478 OA
ATOM     12  H   UNL     1      -1.759 -10.040  -3.653  1.00  0.00     0.297 HD
ENDBRANCH   9  11
ENDBRANCH   3   9
ENDBRANCH   1   2
BRANCH   1  13
ATOM     13  C   UNL     1      -4.221  -9.292  -8.434  1.00  0.00     0.230 C 
BRANCH  13  14
ATOM     14  C   UNL     1      -4.708  -9.335  -9.883  1.00  0.00     0.046 C 
BRANCH  14  15
ATOM     15  C   UNL     1      -5.300 -10.715 -10.181  1.00  0.00     0.043 C 
BRANCH  15  16
ATOM     16  C   UNL     1      -4.952 -11.117 -11.591  1.00  0.00    -0.004 A 
ATOM     17  C   UNL     1      -3.751 -11.577 -12.014  1.00  0.00     0.036 A 
ATOM     18  C   UNL     1      -5.814 -11.089 -12.692  1.00  0.00     0.063 A 
ATOM     19  N   UNL     1      -3.849 -11.823 -13.338  1.00  0.00    -0.282 N 
ATOM     20  N   UNL     1      -5.152 -11.505 -13.741  1.00  0.00    -0.181 NA
ATOM     21  C   UNL     1      -2.526 -11.777 -11.161  1.00  0.00     0.066 C 
ATOM     22  C   UNL     1      -7.254 -10.643 -12.675  1.00  0.00     0.069 C 
ATOM     23  H   UNL     1      -3.141 -12.160 -13.909  1.00  0.00     0.190 HD
ENDBRANCH  15  16
ENDBRANCH  14  15
ENDBRANCH  13  14
ENDBRANCH   1  13
TORSDOF 7
ENDMDL
MODEL 5
REMARK VINA RESULT:    -4.547      3.941      7.043
REMARK INTER + INTRA:          -6.820
REMARK INTER:                  -5.977
REMARK INTRA:                  -0.843
REMARK UNBOUND:                -0.545
REMARK SMILES Cc1n[nH]c(C)c1CCCOc1cc(C(=O)O)ccc1F
REMARK SMILES IDX 11 1 12 2 14 3 18 4 13 5 19 6 20 7 21 8 15 9 16 10 17 11
REMARK SMILES IDX 10 13 9 14 8 15 7 16 5 17 2 18 4 19 3 20 6 21 1 22
REMARK H PARENT 17 12 4 23
ROOT
ATOM      1  O   UNL     1      -4.337  -8.097  -4.955  1.00  0.00    -0.490 OA
ENDROOT
BRANCH   1   2
ATOM      2  C   UNL     1      -4.814  -8.843  -5.988  1.00  0.00     0.155 A 
ATOM      3  C   UNL     1      -4.693  -9.552  -8.282  1.00  0.00     0.063 A 
ATOM      4  C   UNL     1      -5.798 -10.382  -8.080  1.00  0.00     0.019 A 
ATOM      5  C   UNL     1      -4.203  -8.781  -7.226  1.00  0.00     0.065 A 
ATOM      6  C   UNL     1      -6.398 -10.442  -6.840  1.00  0.00     0.044 A 
ATOM      7  C   UNL     1      -5.908  -9.680  -5.792  1.00  0.00     0.165 A 
ATOM      8  F   UNL     1      -6.500  -9.743  -4.579  1.00  0.00    -0.203 F 
BRANCH   3   9
ATOM      9  C   UNL     1      -4.048  -9.486  -9.608  1.00  0.00     0.335 C 
ATOM     10  O   UNL     1      -3.107  -8.742  -9.790  1.00  0.00    -0.246 OA
BRANCH   9  11
ATOM     11  O   UNL     1      -4.501 -10.258 -10.616  1.00  0.00    -0.478 OA
ATOM     12  H   UNL     1      -3.939 -10.332 -11.400  1.00  0.00     0.297 HD
ENDBRANCH   9  11
ENDBRANCH   3   9
ENDBRANCH   1   2
BRANCH   1  13
ATOM     13  C   UNL     1      -2.916  -8.010  -4.821  1.00  0.00     0.230 C 
BRANCH  13  14
ATOM     14  C   UNL     1      -2.570  -7.013  -3.714  1.00  0.00     0.046 C 
BRANCH  14  15
ATOM     15  C   UNL     1      -3.601  -5.882  -3.705  1.00  0.00     0.043 C 
BRANCH  15  16
ATOM     16  C   UNL     1      -3.146  -4.779  -4.624  1.00  0.00    -0.004 A 
ATOM     17  C   UNL     1      -2.075  -3.973  -4.432  1.00  0.00     0.036 A 
ATOM     18  C   UNL     1      -3.751  -4.409  -5.830  1.00  0.00     0.063 A 
ATOM     19  N   UNL     1      -2.009  -3.120  -5.476  1.00  0.00    -0.282 N 
ATOM     20  N   UNL     1      -3.075  -3.411  -6.338  1.00  0.00    -0.181 NA
ATOM     21  C   UNL     1      -1.127  -4.021  -3.262  1.00  0.00     0.066 C 
ATOM     22  C   UNL     1      -4.978  -5.044  -6.434  1.00  0.00     0.069 C 
ATOM     23  H   UNL     1      -1.343  -2.428  -5.606  1.00  0.00     0.190 HD
ENDBRANCH  15  16
ENDBRANCH  14  15
ENDBRANCH  13  14
ENDBRANCH   1  13
TORSDOF 7
ENDMDL
MODEL 6
REMARK VINA RESULT:    -4.519      2.973      4.165
REMARK INTER + INTRA:          -6.782
REMARK INTER:                  -6.311
REMARK INTRA:                  -0.470
REMARK UNBOUND:                -0.545
REMARK SMILES Cc1n[nH]c(C)c1CCCOc1cc(C(=O)O)ccc1F
REMARK SMILES IDX 11 1 12 2 14 3 18 4 13 5 19 6 20 7 21 8 15 9 16 10 17 11
REMARK SMILES IDX 10 13 9 14 8 15 7 16 5 17 2 18 4 19 3 20 6 21 1 22
REMARK H PARENT 17 12 4 23
ROOT
ATOM      1  O   UNL     1      -5.095  -8.221  -7.707  1.00  0.00    -0.490 OA
ENDROOT
BRANCH   1   2
ATOM      2  C   UNL     1      -4.527  -7.532  -6.681  1.00  0.00     0.155 A 
ATOM      3  C   UNL     1      -3.018  -7.440  -4.811  1.00  0.00     0.063 A 
ATOM      4  C   UNL     1      -3.371  -6.104  -4.597  1.00  0.00     0.019 A 
ATOM      5  C   UNL     1      -3.603  -8.152  -5.860  1.00  0.00     0.065 A 
ATOM      6  C   UNL     1      -4.289  -5.493  -5.425  1.00  0.00     0.044 A 
ATOM      7  C   UNL     1      -4.864  -6.200  -6.468  1.00  0.00     0.165 A 
ATOM      8  F   UNL     1      -5.763  -5.595  -7.276  1.00  0.00    -0.203 F 
BRANCH   3   9
ATOM      9  C   UNL     1      -2.036  -8.097  -3.927  1.00  0.00     0.335 C 
ATOM     10  O   UNL     1      -1.648  -7.533  -2.924  1.00  0.00    -0.246 OA
BRANCH   9  11
ATOM     11  O   UNL     1      -1.574  -9.326  -4.230  1.00  0.00    -0.478 OA
ATOM     12  H   UNL     1      -0.932  -9.389  -4.950  1.00  0.00     0.297 HD
ENDBRANCH   9  11
ENDBRANCH   3   9
ENDBRANCH   1   2
BRANCH   1  13
ATOM     13  C   UNL     1      -4.310  -9.254  -8.307  1.00  0.00     0.230 C 
BRANCH  13  14
ATOM     14  C   UNL     1      -4.630  -9.333  -9.801  1.00  0.00     0.046 C 
BRANCH  14  15
ATOM     15  C   UNL     1      -5.279 -10.683 -10.113  1.00  0.00     0.043 C 
BRANCH  15  16
ATOM     16  C   UNL     1      -4.949 -11.086 -11.527  1.00  0.00    -0.004 A 
ATOM     17  C   UNL     1      -5.792 -11.044 -12.585  1.00  0.00     0.036 A 
ATOM     18  C   UNL     1      -3.714 -11.563 -11.979  1.00  0.00     0.063 A 
ATOM     19  N   UNL     1      -5.116 -11.485 -13.667  1.00  0.00    -0.282 N 
ATOM     20  N   UNL     1      -3.815 -11.809 -13.260  1.00  0.00    -0.181 NA
ATOM     21  C   UNL     1      -7.226 -10.586 -12.559  1.00  0.00     0.066 C 
ATOM     22  C   UNL     1      -2.483 -11.770 -11.134  1.00  0.00     0.069 C 
ATOM     23  H   UNL     1      -5.469 -11.565 -14.566  1.00  0.00     0.190 HD
ENDBRANCH  15  16
ENDBRANCH  14  15
ENDBRANCH  13  14
ENDBRANCH   1  13
TORSDOF 7
ENDMDL
MODEL 7
REMARK VINA RESULT:    -4.510      8.884     10.707
REMARK INTER + INTRA:          -6.769
REMARK INTER:                  -4.303
REMARK INTRA:                  -2.466
REMARK UNBOUND:                -0.545
REMARK SMILES Cc1n[nH]c(C)c1CCCOc1cc(C(=O)O)ccc1F
REMARK SMILES IDX 11 1 12 2 14 3 18 4 13 5 19 6 20 7 21 8 15 9 16 10 17 11
REMARK SMILES IDX 10 13 9 14 8 15 7 16 5 17 2 18 4 19 3 20 6 21 1 22
REMARK H PARENT 17 12 4 23
ROOT
ATOM      1  O   UNL     1      -8.669 -12.830 -14.389  1.00  0.00    -0.490 OA
ENDROOT
BRANCH   1   2
ATOM      2  C   UNL     1      -8.103 -12.512 -13.194  1.00  0.00     0.155 A 
ATOM      3  C   UNL     1      -7.837 -12.911 -10.838  1.00  0.00     0.063 A 
ATOM      4  C   UNL     1      -6.928 -11.852 -10.765  1.00  0.00     0.019 A 
ATOM      5  C   UNL     1      -8.424 -13.238 -12.062  1.00  0.00     0.065 A 
ATOM      6  C   UNL     1      -6.610 -11.138 -11.901  1.00  0.00     0.044 A 
ATOM      7  C   UNL     1      -7.189 -11.467 -13.115  1.00  0.00     0.165 A 
ATOM      8  F   UNL     1      -6.873 -10.763 -14.224  1.00  0.00    -0.203 F 
BRANCH   3   9
ATOM      9  C   UNL     1      -8.180 -13.678  -9.624  1.00  0.00     0.335 C 
ATOM     10  O   UNL     1      -9.071 -13.294  -8.894  1.00  0.00    -0.246 OA
BRANCH   9  11
ATOM     11  O   UNL     1      -7.509 -14.809  -9.330  1.00  0.00    -0.478 OA
ATOM     12  H   UNL     1      -8.016 -15.530  -8.931  1.00  0.00     0.297 HD
ENDBRANCH   9  11
ENDBRANCH   3   9
ENDBRANCH   1   2
BRANCH   1  13
ATOM     13  C   UNL     1      -8.476 -14.166 -14.863  1.00  0.00     0.230 C 
BRANCH  13  14
ATOM     14  C   UNL     1      -7.033 -14.333 -15.340  1.00  0.00     0.046 C 
BRANCH  14  15
ATOM     15  C   UNL     1      -6.503 -15.699 -14.895  1.00  0.00     0.043 C 
BRANCH  15  16
ATOM     16  C   UNL     1      -6.015 -15.610 -13.473  1.00  0.00    -0.004 A 
ATOM     17  C   UNL     1      -6.527 -16.276 -12.412  1.00  0.00     0.036 A 
ATOM     18  C   UNL     1      -4.947 -14.830 -13.016  1.00  0.00     0.063 A 
ATOM     19  N   UNL     1      -5.813 -15.924 -11.322  1.00  0.00    -0.282 N 
ATOM     20  N   UNL     1      -4.830 -15.012 -11.726  1.00  0.00    -0.181 NA
ATOM     21  C   UNL     1      -7.687 -17.237 -12.442  1.00  0.00     0.066 C 
ATOM     22  C   UNL     1      -4.088 -13.926 -13.863  1.00  0.00     0.069 C 
ATOM     23  H   UNL     1      -5.957 -16.245 -10.418  1.00  0.00     0.190 HD
ENDBRANCH  15  16
ENDBRANCH  14  15
ENDBRANCH  13  14
ENDBRANCH   1  13
TORSDOF 7
ENDMDL
MODEL 8
REMARK VINA RESULT:    -4.459      3.521      5.069
REMARK INTER + INTRA:          -6.699
REMARK INTER:                  -6.218
REMARK INTRA:                  -0.481
REMARK UNBOUND:                -0.545
REMARK SMILES Cc1n[nH]c(C)c1CCCOc1cc(C(=O)O)ccc1F
REMARK SMILES IDX 11 1 12 2 14 3 18 4 13 5 19 6 20 7 21 8 15 9 16 10 17 11
REMARK SMILES IDX 10 13 9 14 8 15 7 16 5 17 2 18 4 19 3 20 6 21 1 22
REMARK H PARENT 17 12 4 23
ROOT
ATOM      1  O   UNL     1      -4.825  -9.901  -5.997  1.00  0.00    -0.490 OA
ENDROOT
BRANCH   1   2
ATOM      2  C   UNL     1      -4.045  -8.854  -5.616  1.00  0.00     0.155 A 
ATOM      3  C   UNL     1      -3.630  -6.488  -5.515  1.00  0.00     0.063 A 
ATOM      4  C   UNL     1      -2.442  -6.730  -4.820  1.00  0.00     0.019 A 
ATOM      5  C   UNL     1      -4.431  -7.561  -5.912  1.00  0.00     0.065 A 
ATOM      6  C   UNL     1      -2.068  -8.024  -4.524  1.00  0.00     0.044 A 
ATOM      7  C   UNL     1      -2.867  -9.086  -4.915  1.00  0.00     0.165 A 
ATOM      8  F   UNL     1      -2.495 -10.351  -4.622  1.00  0.00    -0.203 F 
BRANCH   3   9
ATOM      9  C   UNL     1      -4.033  -5.104  -5.833  1.00  0.00     0.335 C 
ATOM     10  O   UNL     1      -5.178  -4.865  -6.157  1.00  0.00    -0.246 OA
BRANCH   9  11
ATOM     11  O   UNL     1      -3.131  -4.106  -5.757  1.00  0.00    -0.478 OA
ATOM     12  H   UNL     1      -2.577  -3.955  -6.535  1.00  0.00     0.297 HD
ENDBRANCH   9  11
ENDBRANCH   3   9
ENDBRANCH   1   2
BRANCH   1  13
ATOM     13  C   UNL     1      -6.237  -9.754  -5.823  1.00  0.00     0.230 C 
BRANCH  13  14
ATOM     14  C   UNL     1      -6.829 -11.077  -5.334  1.00  0.00     0.046 C 
BRANCH  14  15
ATOM     15  C   UNL     1      -7.634 -11.724  -6.464  1.00  0.00     0.043 C 
BRANCH  15  16
ATOM     16  C   UNL     1      -8.804 -12.475  -5.882  1.00  0.00    -0.004 A 
ATOM     17  C   UNL     1      -9.944 -11.926  -5.402  1.00  0.00     0.036 A 
ATOM     18  C   UNL     1      -8.906 -13.864  -5.749  1.00  0.00     0.063 A 
ATOM     19  N   UNL     1     -10.736 -12.931  -4.974  1.00  0.00    -0.282 N 
ATOM     20  N   UNL     1     -10.060 -14.138  -5.198  1.00  0.00    -0.181 NA
ATOM     21  C   UNL     1     -10.270 -10.456  -5.354  1.00  0.00     0.066 C 
ATOM     22  C   UNL     1      -7.860 -14.870  -6.158  1.00  0.00     0.069 C 
ATOM     23  H   UNL     1     -11.616 -12.835  -4.579  1.00  0.00     0.190 HD
ENDBRANCH  15  16
ENDBRANCH  14  15
ENDBRANCH  13  14
ENDBRANCH   1  13
TORSDOF 7
ENDMDL
MODEL 9
REMARK VINA RESULT:    -4.430      3.550      5.340
REMARK INTER + INTRA:          -6.659
REMARK INTER:                  -6.075
REMARK INTRA:                  -0.583
REMARK UNBOUND:                -0.545
REMARK SMILES Cc1n[nH]c(C)c1CCCOc1cc(C(=O)O)ccc1F
REMARK SMILES IDX 11 1 12 2 14 3 18 4 13 5 19 6 20 7 21 8 15 9 16 10 17 11
REMARK SMILES IDX 10 13 9 14 8 15 7 16 5 17 2 18 4 19 3 20 6 21 1 22
REMARK H PARENT 17 12 4 23
ROOT
ATOM      1  O   UNL     1      -4.715  -9.504  -7.768  1.00  0.00    -0.490 OA
ENDROOT
BRANCH   1   2
ATOM      2  C   UNL     1      -4.345  -8.601  -6.821  1.00  0.00     0.155 A 
ATOM      3  C   UNL     1      -4.305  -6.345  -5.991  1.00  0.00     0.063 A 
ATOM      4  C   UNL     1      -3.589  -6.774  -4.870  1.00  0.00     0.019 A 
ATOM      5  C   UNL     1      -4.682  -7.269  -6.968  1.00  0.00     0.065 A 
ATOM      6  C   UNL     1      -3.263  -8.107  -4.729  1.00  0.00     0.044 A 
ATOM      7  C   UNL     1      -3.642  -9.022  -5.697  1.00  0.00     0.165 A 
ATOM      8  F   UNL     1      -3.320 -10.326  -5.554  1.00  0.00    -0.203 F 
BRANCH   3   9
ATOM      9  C   UNL     1      -4.656  -4.920  -6.144  1.00  0.00     0.335 C 
ATOM     10  O   UNL     1      -3.866  -4.060  -5.813  1.00  0.00    -0.246 OA
BRANCH   9  11
ATOM     11  O   UNL     1      -5.853  -4.573  -6.657  1.00  0.00    -0.478 OA
ATOM     12  H   UNL     1      -6.488  -5.286  -6.813  1.00  0.00     0.297 HD
ENDBRANCH   9  11
ENDBRANCH   3   9
ENDBRANCH   1   2
BRANCH   1  13
ATOM     13  C   UNL     1      -3.943  -9.534  -8.972  1.00  0.00     0.230 C 
BRANCH  13  14
ATOM     14  C   UNL     1      -4.883  -9.529 -10.179  1.00  0.00     0.046 C 
BRANCH  14  15
ATOM     15  C   UNL     1      -5.358 -10.955 -10.462  1.00  0.00     0.043 C 
BRANCH  15  16
ATOM     16  C   UNL     1      -5.055 -11.312 -11.894  1.00  0.00    -0.004 A 
ATOM     17  C   UNL     1      -3.877 -11.785 -12.365  1.00  0.00     0.036 A 
ATOM     18  C   UNL     1      -5.942 -11.219 -12.971  1.00  0.00     0.063 A 
ATOM     19  N   UNL     1      -4.013 -11.978 -13.693  1.00  0.00    -0.282 N 
ATOM     20  N   UNL     1      -5.317 -11.611 -14.051  1.00  0.00    -0.181 NA
ATOM     21  C   UNL     1      -2.638 -12.049 -11.551  1.00  0.00     0.066 C 
ATOM     22  C   UNL     1      -7.369 -10.738 -12.902  1.00  0.00     0.069 C 
ATOM     23  H   UNL     1      -3.329 -12.310 -14.295  1.00  0.00     0.190 HD
ENDBRANCH  15  16
ENDBRANCH  14  15
ENDBRANCH  13  14
ENDBRANCH   1  13
TORSDOF 7
ENDMDL
