MODEL 1
REMARK VINA RESULT:    -5.687      0.000      0.000
REMARK INTER + INTRA:          -8.398
REMARK INTER:                  -7.848
REMARK INTRA:                  -0.549
REMARK UNBOUND:                -0.549
REMARK SMILES Cc1n[nH]c(C)c1CCCOc1cc(C(=O)O)ccc1F
REMARK SMILES IDX 11 1 12 2 14 3 18 4 13 5 19 6 20 7 21 8 15 9 16 10 17 11
REMARK SMILES IDX 10 13 9 14 8 15 7 16 5 17 2 18 4 19 3 20 6 21 1 22
REMARK H PARENT 17 12 4 23
ROOT
ATOM      1  O   UNL     1       4.580   2.890  -7.359  1.00  0.00    -0.490 OA
ENDROOT
BRANCH   1   2
ATOM      2  C   UNL     1       4.368   3.370  -6.104  1.00  0.00     0.155 A 
ATOM      3  C   UNL     1       5.210   4.014  -3.946  1.00  0.00     0.063 A 
ATOM      4  C   UNL     1       3.916   4.363  -3.549  1.00  0.00     0.019 A 
ATOM      5  C   UNL     1       5.430   3.516  -5.231  1.00  0.00     0.065 A 
ATOM      6  C   UNL     1       2.864   4.220  -4.429  1.00  0.00     0.044 A 
ATOM      7  C   UNL     1       3.086   3.730  -5.705  1.00  0.00     0.165 A 
ATOM      8  F   UNL     1       2.050   3.593  -6.562  1.00  0.00    -0.203 F 
BRANCH   3   9
ATOM      9  C   UNL     1       6.339   4.166  -3.007  1.00  0.00     0.335 C 
ATOM     10  O   UNL     1       7.354   3.521  -3.168  1.00  0.00    -0.246 OA
BRANCH   9  11
ATOM     11  O   UNL     1       6.244   5.026  -1.973  1.00  0.00    -0.478 OA
ATOM     12  H   UNL     1       5.372   5.407  -1.798  1.00  0.00     0.297 HD
ENDBRANCH   9  11
ENDBRANCH   3   9
ENDBRANCH   1   2
BRANCH   1  13
ATOM     13  C   UNL     1       4.365   3.796  -8.444  1.00  0.00     0.230 C 
BRANCH  13  14
ATOM     14  C   UNL     1       5.666   3.964  -9.232  1.00  0.00     0.046 C 
BRANCH  14  15
ATOM     15  C   UNL     1       6.418   5.194  -8.718  1.00  0.00     0.043 C 
BRANCH  15  16
ATOM     16  C   UNL     1       7.298   5.738  -9.813  1.00  0.00    -0.004 A 
ATOM     17  C   UNL     1       8.589   5.399 -10.039  1.00  0.00     0.036 A 
ATOM     18  C   UNL     1       6.925   6.678 -10.779  1.00  0.00     0.063 A 
ATOM     19  N   UNL     1       9.019   6.105 -11.107  1.00  0.00    -0.282 N 
ATOM     20  N   UNL     1       7.957   6.904 -11.551  1.00  0.00    -0.181 NA
ATOM     21  C   UNL     1       9.400   4.411  -9.243  1.00  0.00     0.066 C 
ATOM     22  C   UNL     1       5.571   7.329 -10.902  1.00  0.00     0.069 C 
ATOM     23  H   UNL     1       9.906   6.066 -11.497  1.00  0.00     0.190 HD
ENDBRANCH  15  16
ENDBRANCH  14  15
ENDBRANCH  13  14
ENDBRANCH   1  13
TORSDOF 7
ENDMDL
MODEL 2
REMARK VINA RESULT:    -5.597      0.200      1.778
REMARK INTER + INTRA:          -8.274
REMARK INTER:                  -7.672
REMARK INTRA:                  -0.602
REMARK UNBOUND:                -0.549
REMARK SMILES Cc1n[nH]c(C)c1CCCOc1cc(C(=O)O)ccc1F
REMARK SMILES IDX 11 1 12 2 14 3 18 4 13 5 19 6 20 7 21 8 15 9 16 10 17 11
REMARK SMILES IDX 10 13 9 14 8 15 7 16 5 17 2 18 4 19 3 20 6 21 1 22
REMARK H PARENT 17 12 4 23
ROOT
ATOM      1  O   UNL     1       4.528   2.913  -7.373  1.00  0.00    -0.490 OA
ENDROOT
BRANCH   1   2
ATOM      2  C   UNL     1       4.330   3.377  -6.110  1.00  0.00     0.155 A 
ATOM      3  C   UNL     1       5.195   4.002  -3.956  1.00  0.00     0.063 A 
ATOM      4  C   UNL     1       3.904   4.337  -3.539  1.00  0.00     0.019 A 
ATOM      5  C   UNL     1       5.402   3.520  -5.250  1.00  0.00     0.065 A 
ATOM      6  C   UNL     1       2.841   4.197  -4.406  1.00  0.00     0.044 A 
ATOM      7  C   UNL     1       3.050   3.723  -5.691  1.00  0.00     0.165 A 
ATOM      8  F   UNL     1       2.004   3.588  -6.536  1.00  0.00    -0.203 F 
BRANCH   3   9
ATOM      9  C   UNL     1       6.335   4.151  -3.030  1.00  0.00     0.335 C 
ATOM     10  O   UNL     1       7.356   3.522  -3.217  1.00  0.00    -0.246 OA
BRANCH   9  11
ATOM     11  O   UNL     1       6.244   4.992  -1.980  1.00  0.00    -0.478 OA
ATOM     12  H   UNL     1       6.810   4.806  -1.218  1.00  0.00     0.297 HD
ENDBRANCH   9  11
ENDBRANCH   3   9
ENDBRANCH   1   2
BRANCH   1  13
ATOM     13  C   UNL     1       4.425   3.862  -8.437  1.00  0.00     0.230 C 
BRANCH  13  14
ATOM     14  C   UNL     1       5.793   4.040  -9.096  1.00  0.00     0.046 C 
BRANCH  14  15
ATOM     15  C   UNL     1       6.341   5.430  -8.767  1.00  0.00     0.043 C 
BRANCH  15  16
ATOM     16  C   UNL     1       7.136   5.947  -9.938  1.00  0.00    -0.004 A 
ATOM     17  C   UNL     1       6.698   6.821 -10.874  1.00  0.00     0.036 A 
ATOM     18  C   UNL     1       8.459   5.615 -10.246  1.00  0.00     0.063 A 
ATOM     19  N   UNL     1       7.706   7.029 -11.747  1.00  0.00    -0.282 N 
ATOM     20  N   UNL     1       8.800   6.257 -11.334  1.00  0.00    -0.181 NA
ATOM     21  C   UNL     1       5.330   7.450 -10.931  1.00  0.00     0.066 C 
ATOM     22  C   UNL     1       9.338   4.670  -9.466  1.00  0.00     0.069 C 
ATOM     23  H   UNL     1       7.678   7.609 -12.524  1.00  0.00     0.190 HD
ENDBRANCH  15  16
ENDBRANCH  14  15
ENDBRANCH  13  14
ENDBRANCH   1  13
TORSDOF 7
ENDMDL
MODEL 3
REMARK VINA RESULT:    -5.556      2.169      3.769
REMARK INTER + INTRA:          -8.216
REMARK INTER:                  -7.607
REMARK INTRA:                  -0.609
REMARK UNBOUND:                -0.549
REMARK SMILES Cc1n[nH]c(C)c1CCCOc1cc(C(=O)O)ccc1F
REMARK SMILES IDX 11 1 12 2 14 3 18 4 13 5 19 6 20 7 21 8 15 9 16 10 17 11
REMARK SMILES IDX 10 13 9 14 8 15 7 16 5 17 2 18 4 19 3 20 6 21 1 22
REMARK H PARENT 17 12 4 23
ROOT
ATOM      1  O   UNL     1       6.720   5.039  -5.546  1.00  0.00    -0.490 OA
ENDROOT
BRANCH   1   2
ATOM      2  C   UNL     1       5.566   4.645  -4.946  1.00  0.00     0.155 A 
ATOM      3  C   UNL     1       3.208   4.184  -5.053  1.00  0.00     0.063 A 
ATOM      4  C   UNL     1       3.221   3.826  -3.702  1.00  0.00     0.019 A 
ATOM      5  C   UNL     1       4.391   4.594  -5.672  1.00  0.00     0.065 A 
ATOM      6  C   UNL     1       4.399   3.874  -2.987  1.00  0.00     0.044 A 
ATOM      7  C   UNL     1       5.571   4.277  -3.605  1.00  0.00     0.165 A 
ATOM      8  F   UNL     1       6.722   4.321  -2.899  1.00  0.00    -0.203 F 
BRANCH   3   9
ATOM      9  C   UNL     1       1.949   4.133  -5.821  1.00  0.00     0.335 C 
ATOM     10  O   UNL     1       1.621   5.075  -6.514  1.00  0.00    -0.246 OA
BRANCH   9  11
ATOM     11  O   UNL     1       1.166   3.039  -5.759  1.00  0.00    -0.478 OA
ATOM     12  H   UNL     1       0.963   2.693  -4.878  1.00  0.00     0.297 HD
ENDBRANCH   9  11
ENDBRANCH   3   9
ENDBRANCH   1   2
BRANCH   1  13
ATOM     13  C   UNL     1       6.872   6.438  -5.804  1.00  0.00     0.230 C 
BRANCH  13  14
ATOM     14  C   UNL     1       7.570   6.634  -7.150  1.00  0.00     0.046 C 
BRANCH  14  15
ATOM     15  C   UNL     1       7.154   5.516  -8.109  1.00  0.00     0.043 C 
BRANCH  15  16
ATOM     16  C   UNL     1       7.792   5.744  -9.454  1.00  0.00    -0.004 A 
ATOM     17  C   UNL     1       7.280   6.486 -10.464  1.00  0.00     0.036 A 
ATOM     18  C   UNL     1       9.022   5.231  -9.880  1.00  0.00     0.063 A 
ATOM     19  N   UNL     1       8.152   6.438 -11.493  1.00  0.00    -0.282 N 
ATOM     20  N   UNL     1       9.235   5.641 -11.103  1.00  0.00    -0.181 NA
ATOM     21  C   UNL     1       5.971   7.231 -10.442  1.00  0.00     0.066 C 
ATOM     22  C   UNL     1       9.938   4.348  -9.071  1.00  0.00     0.069 C 
ATOM     23  H   UNL     1       8.046   6.878 -12.351  1.00  0.00     0.190 HD
ENDBRANCH  15  16
ENDBRANCH  14  15
ENDBRANCH  13  14
ENDBRANCH   1  13
TORSDOF 7
ENDMDL
MODEL 4
REMARK VINA RESULT:    -5.421      2.177      3.332
REMARK INTER + INTRA:          -8.030
REMARK INTER:                  -7.397
REMARK INTRA:                  -0.633
REMARK UNBOUND:                -0.549
REMARK SMILES Cc1n[nH]c(C)c1CCCOc1cc(C(=O)O)ccc1F
REMARK SMILES IDX 11 1 12 2 14 3 18 4 13 5 19 6 20 7 21 8 15 9 16 10 17 11
REMARK SMILES IDX 10 13 9 14 8 15 7 16 5 17 2 18 4 19 3 20 6 21 1 22
REMARK H PARENT 17 12 4 23
ROOT
ATOM      1  O   UNL     1       6.744   5.060  -5.570  1.00  0.00    -0.490 OA
ENDROOT
BRANCH   1   2
ATOM      2  C   UNL     1       5.594   4.661  -4.965  1.00  0.00     0.155 A 
ATOM      3  C   UNL     1       3.236   4.197  -5.062  1.00  0.00     0.063 A 
ATOM      4  C   UNL     1       3.257   3.832  -3.713  1.00  0.00     0.019 A 
ATOM      5  C   UNL     1       4.414   4.612  -5.685  1.00  0.00     0.065 A 
ATOM      6  C   UNL     1       4.439   3.878  -3.004  1.00  0.00     0.044 A 
ATOM      7  C   UNL     1       5.607   4.286  -3.626  1.00  0.00     0.165 A 
ATOM      8  F   UNL     1       6.762   4.328  -2.927  1.00  0.00    -0.203 F 
BRANCH   3   9
ATOM      9  C   UNL     1       1.972   4.149  -5.823  1.00  0.00     0.335 C 
ATOM     10  O   UNL     1       1.648   5.086  -6.522  1.00  0.00    -0.246 OA
BRANCH   9  11
ATOM     11  O   UNL     1       1.182   3.060  -5.746  1.00  0.00    -0.478 OA
ATOM     12  H   UNL     1       0.307   3.123  -6.155  1.00  0.00     0.297 HD
ENDBRANCH   9  11
ENDBRANCH   3   9
ENDBRANCH   1   2
BRANCH   1  13
ATOM     13  C   UNL     1       6.880   6.456  -5.848  1.00  0.00     0.230 C 
BRANCH  13  14
ATOM     14  C   UNL     1       7.609   6.642  -7.180  1.00  0.00     0.046 C 
BRANCH  14  15
ATOM     15  C   UNL     1       7.188   5.536  -8.150  1.00  0.00     0.043 C 
BRANCH  15  16
ATOM     16  C   UNL     1       7.901   5.721  -9.464  1.00  0.00    -0.004 A 
ATOM     17  C   UNL     1       9.095   5.183  -9.805  1.00  0.00     0.036 A 
ATOM     18  C   UNL     1       7.444   6.475 -10.550  1.00  0.00     0.063 A 
ATOM     19  N   UNL     1       9.386   5.587 -11.060  1.00  0.00    -0.282 N 
ATOM     20  N   UNL     1       8.336   6.401 -11.504  1.00  0.00    -0.181 NA
ATOM     21  C   UNL     1       9.947   4.291  -8.940  1.00  0.00     0.066 C 
ATOM     22  C   UNL     1       6.152   7.250 -10.607  1.00  0.00     0.069 C 
ATOM     23  H   UNL     1      10.181   5.356 -11.564  1.00  0.00     0.190 HD
ENDBRANCH  15  16
ENDBRANCH  14  15
ENDBRANCH  13  14
ENDBRANCH   1  13
TORSDOF 7
ENDMDL
MODEL 5
REMARK VINA RESULT:    -4.607      9.009     11.388
REMARK INTER + INTRA:          -6.907
REMARK INTER:                  -4.701
REMARK INTRA:                  -2.206
REMARK UNBOUND:                -0.549
REMARK SMILES Cc1n[nH]c(C)c1CCCOc1cc(C(=O)O)ccc1F
REMARK SMILES IDX 11 1 12 2 14 3 18 4 13 5 19 6 20 7 21 8 15 9 16 10 17 11
REMARK SMILES IDX 10 13 9 14 8 15 7 16 5 17 2 18 4 19 3 20 6 21 1 22
REMARK H PARENT 17 12 4 23
ROOT
ATOM      1  O   UNL     1       6.826  11.371 -17.005  1.00  0.00    -0.490 OA
ENDROOT
BRANCH   1   2
ATOM      2  C   UNL     1       7.874  10.815 -16.340  1.00  0.00     0.155 A 
ATOM      3  C   UNL     1       8.829   8.988 -15.104  1.00  0.00     0.063 A 
ATOM      4  C   UNL     1      10.029   9.694 -14.994  1.00  0.00     0.019 A 
ATOM      5  C   UNL     1       7.749   9.557 -15.781  1.00  0.00     0.065 A 
ATOM      6  C   UNL     1      10.146  10.946 -15.559  1.00  0.00     0.044 A 
ATOM      7  C   UNL     1       9.075  11.507 -16.235  1.00  0.00     0.165 A 
ATOM      8  F   UNL     1       9.196  12.735 -16.787  1.00  0.00    -0.203 F 
BRANCH   3   9
ATOM      9  C   UNL     1       8.701   7.647 -14.500  1.00  0.00     0.335 C 
ATOM     10  O   UNL     1       8.175   7.517 -13.413  1.00  0.00    -0.246 OA
BRANCH   9  11
ATOM     11  O   UNL     1       9.161   6.565 -15.159  1.00  0.00    -0.478 OA
ATOM     12  H   UNL     1       9.236   6.635 -16.121  1.00  0.00     0.297 HD
ENDBRANCH   9  11
ENDBRANCH   3   9
ENDBRANCH   1   2
BRANCH   1  13
ATOM     13  C   UNL     1       5.685  11.739 -16.226  1.00  0.00     0.230 C 
BRANCH  13  14
ATOM     14  C   UNL     1       5.846  13.178 -15.734  1.00  0.00     0.046 C 
BRANCH  14  15
ATOM     15  C   UNL     1       5.490  13.252 -14.248  1.00  0.00     0.043 C 
BRANCH  15  16
ATOM     16  C   UNL     1       6.698  12.893 -13.422  1.00  0.00    -0.004 A 
ATOM     17  C   UNL     1       7.815  13.644 -13.278  1.00  0.00     0.036 A 
ATOM     18  C   UNL     1       6.861  11.729 -12.664  1.00  0.00     0.063 A 
ATOM     19  N   UNL     1       8.657  12.974 -12.463  1.00  0.00    -0.282 N 
ATOM     20  N   UNL     1       8.037  11.773 -12.094  1.00  0.00    -0.181 NA
ATOM     21  C   UNL     1       8.072  14.985 -13.913  1.00  0.00     0.066 C 
ATOM     22  C   UNL     1       5.858  10.610 -12.536  1.00  0.00     0.069 C 
ATOM     23  H   UNL     1       9.537  13.272 -12.182  1.00  0.00     0.190 HD
ENDBRANCH  15  16
ENDBRANCH  14  15
ENDBRANCH  13  14
ENDBRANCH   1  13
TORSDOF 7
ENDMDL
MODEL 6
REMARK VINA RESULT:    -4.548      3.790      6.520
REMARK INTER + INTRA:          -6.826
REMARK INTER:                  -5.996
REMARK INTRA:                  -0.830
REMARK UNBOUND:                -0.549
REMARK SMILES Cc1n[nH]c(C)c1CCCOc1cc(C(=O)O)ccc1F
REMARK SMILES IDX 11 1 12 2 14 3 18 4 13 5 19 6 20 7 21 8 15 9 16 10 17 11
REMARK SMILES IDX 10 13 9 14 8 15 7 16 5 17 2 18 4 19 3 20 6 21 1 22
REMARK H PARENT 17 12 4 23
ROOT
ATOM      1  O   UNL     1       5.116   5.528  -8.059  1.00  0.00    -0.490 OA
ENDROOT
BRANCH   1   2
ATOM      2  C   UNL     1       6.158   5.708  -8.914  1.00  0.00     0.155 A 
ATOM      3  C   UNL     1       8.399   5.185  -9.613  1.00  0.00     0.063 A 
ATOM      4  C   UNL     1       8.272   6.081 -10.677  1.00  0.00     0.019 A 
ATOM      5  C   UNL     1       7.333   5.002  -8.730  1.00  0.00     0.065 A 
ATOM      6  C   UNL     1       7.094   6.776 -10.856  1.00  0.00     0.044 A 
ATOM      7  C   UNL     1       6.036   6.589  -9.982  1.00  0.00     0.165 A 
ATOM      8  F   UNL     1       4.885   7.274 -10.162  1.00  0.00    -0.203 F 
BRANCH   3   9
ATOM      9  C   UNL     1       9.658   4.439  -9.419  1.00  0.00     0.335 C 
ATOM     10  O   UNL     1       9.750   3.292  -9.806  1.00  0.00    -0.246 OA
BRANCH   9  11
ATOM     11  O   UNL     1      10.707   5.034  -8.818  1.00  0.00    -0.478 OA
ATOM     12  H   UNL     1      10.530   5.506  -7.992  1.00  0.00     0.297 HD
ENDBRANCH   9  11
ENDBRANCH   3   9
ENDBRANCH   1   2
BRANCH   1  13
ATOM     13  C   UNL     1       4.790   4.181  -7.707  1.00  0.00     0.230 C 
BRANCH  13  14
ATOM     14  C   UNL     1       3.796   4.185  -6.545  1.00  0.00     0.046 C 
BRANCH  14  15
ATOM     15  C   UNL     1       3.992   5.452  -5.710  1.00  0.00     0.043 C 
BRANCH  15  16
ATOM     16  C   UNL     1       4.897   5.151  -4.543  1.00  0.00    -0.004 A 
ATOM     17  C   UNL     1       4.605   4.347  -3.495  1.00  0.00     0.036 A 
ATOM     18  C   UNL     1       6.191   5.649  -4.356  1.00  0.00     0.063 A 
ATOM     19  N   UNL     1       5.673   4.341  -2.670  1.00  0.00    -0.282 N 
ATOM     20  N   UNL     1       6.655   5.170  -3.230  1.00  0.00    -0.181 NA
ATOM     21  C   UNL     1       3.318   3.593  -3.287  1.00  0.00     0.066 C 
ATOM     22  C   UNL     1       6.921   6.586  -5.284  1.00  0.00     0.069 C 
ATOM     23  H   UNL     1       5.748   3.851  -1.837  1.00  0.00     0.190 HD
ENDBRANCH  15  16
ENDBRANCH  14  15
ENDBRANCH  13  14
ENDBRANCH   1  13
TORSDOF 7
ENDMDL
MODEL 7
REMARK VINA RESULT:    -4.527      3.941      7.086
REMARK INTER + INTRA:          -6.797
REMARK INTER:                  -6.038
REMARK INTRA:                  -0.760
REMARK UNBOUND:                -0.549
REMARK SMILES Cc1n[nH]c(C)c1CCCOc1cc(C(=O)O)ccc1F
REMARK SMILES IDX 11 1 12 2 14 3 18 4 13 5 19 6 20 7 21 8 15 9 16 10 17 11
REMARK SMILES IDX 10 13 9 14 8 15 7 16 5 17 2 18 4 19 3 20 6 21 1 22
REMARK H PARENT 17 12 4 23
ROOT
ATOM      1  O   UNL     1       6.862   4.806  -7.183  1.00  0.00    -0.490 OA
ENDROOT
BRANCH   1   2
ATOM      2  C   UNL     1       7.200   5.300  -8.404  1.00  0.00     0.155 A 
ATOM      3  C   UNL     1       6.685   6.652 -10.324  1.00  0.00     0.063 A 
ATOM      4  C   UNL     1       7.914   6.306 -10.893  1.00  0.00     0.019 A 
ATOM      5  C   UNL     1       6.332   6.143  -9.073  1.00  0.00     0.065 A 
ATOM      6  C   UNL     1       8.775   5.469 -10.216  1.00  0.00     0.044 A 
ATOM      7  C   UNL     1       8.425   4.969  -8.972  1.00  0.00     0.165 A 
ATOM      8  F   UNL     1       9.274   4.149  -8.313  1.00  0.00    -0.203 F 
BRANCH   3   9
ATOM      9  C   UNL     1       5.761   7.548 -11.047  1.00  0.00     0.335 C 
ATOM     10  O   UNL     1       4.763   7.964 -10.495  1.00  0.00    -0.246 OA
BRANCH   9  11
ATOM     11  O   UNL     1       6.029   7.910 -12.317  1.00  0.00    -0.478 OA
ATOM     12  H   UNL     1       5.382   7.658 -12.991  1.00  0.00     0.297 HD
ENDBRANCH   9  11
ENDBRANCH   3   9
ENDBRANCH   1   2
BRANCH   1  13
ATOM     13  C   UNL     1       6.520   5.756  -6.171  1.00  0.00     0.230 C 
BRANCH  13  14
ATOM     14  C   UNL     1       6.037   5.018  -4.922  1.00  0.00     0.046 C 
BRANCH  14  15
ATOM     15  C   UNL     1       5.566   3.614  -5.309  1.00  0.00     0.043 C 
BRANCH  15  16
ATOM     16  C   UNL     1       4.077   3.627  -5.536  1.00  0.00    -0.004 A 
ATOM     17  C   UNL     1       3.129   3.820  -4.590  1.00  0.00     0.036 A 
ATOM     18  C   UNL     1       3.430   3.447  -6.763  1.00  0.00     0.063 A 
ATOM     19  N   UNL     1       1.925   3.759  -5.196  1.00  0.00    -0.282 N 
ATOM     20  N   UNL     1       2.140   3.519  -6.559  1.00  0.00    -0.181 NA
ATOM     21  C   UNL     1       3.374   4.061  -3.123  1.00  0.00     0.066 C 
ATOM     22  C   UNL     1       4.103   3.201  -8.089  1.00  0.00     0.069 C 
ATOM     23  H   UNL     1       1.062   3.861  -4.764  1.00  0.00     0.190 HD
ENDBRANCH  15  16
ENDBRANCH  14  15
ENDBRANCH  13  14
ENDBRANCH   1  13
TORSDOF 7
ENDMDL
MODEL 8
REMARK VINA RESULT:    -4.426      4.727      8.133
REMARK INTER + INTRA:          -6.657
REMARK INTER:                  -5.975
REMARK INTRA:                  -0.682
REMARK UNBOUND:                -0.549
REMARK SMILES Cc1n[nH]c(C)c1CCCOc1cc(C(=O)O)ccc1F
REMARK SMILES IDX 11 1 12 2 14 3 18 4 13 5 19 6 20 7 21 8 15 9 16 10 17 11
REMARK SMILES IDX 10 13 9 14 8 15 7 16 5 17 2 18 4 19 3 20 6 21 1 22
REMARK H PARENT 17 12 4 23
ROOT
ATOM      1  O   UNL     1       6.104   6.555 -10.462  1.00  0.00    -0.490 OA
ENDROOT
BRANCH   1   2
ATOM      2  C   UNL     1       6.278   7.475 -11.447  1.00  0.00     0.155 A 
ATOM      3  C   UNL     1       7.236   8.119 -13.557  1.00  0.00     0.063 A 
ATOM      4  C   UNL     1       6.611   9.365 -13.455  1.00  0.00     0.019 A 
ATOM      5  C   UNL     1       7.064   7.174 -12.544  1.00  0.00     0.065 A 
ATOM      6  C   UNL     1       5.823   9.654 -12.361  1.00  0.00     0.044 A 
ATOM      7  C   UNL     1       5.651   8.713 -11.360  1.00  0.00     0.165 A 
ATOM      8  F   UNL     1       4.878   9.002 -10.290  1.00  0.00    -0.203 F 
BRANCH   3   9
ATOM      9  C   UNL     1       8.079   7.807 -14.727  1.00  0.00     0.335 C 
ATOM     10  O   UNL     1       8.322   8.667 -15.548  1.00  0.00    -0.246 OA
BRANCH   9  11
ATOM     11  O   UNL     1       8.584   6.567 -14.881  1.00  0.00    -0.478 OA
ATOM     12  H   UNL     1       8.536   6.179 -15.766  1.00  0.00     0.297 HD
ENDBRANCH   9  11
ENDBRANCH   3   9
ENDBRANCH   1   2
BRANCH   1  13
ATOM     13  C   UNL     1       7.278   6.109  -9.777  1.00  0.00     0.230 C 
BRANCH  13  14
ATOM     14  C   UNL     1       6.880   5.132  -8.669  1.00  0.00     0.046 C 
BRANCH  14  15
ATOM     15  C   UNL     1       5.645   5.662  -7.939  1.00  0.00     0.043 C 
BRANCH  15  16
ATOM     16  C   UNL     1       5.446   4.892  -6.660  1.00  0.00    -0.004 A 
ATOM     17  C   UNL     1       5.882   5.261  -5.433  1.00  0.00     0.036 A 
ATOM     18  C   UNL     1       4.774   3.673  -6.529  1.00  0.00     0.063 A 
ATOM     19  N   UNL     1       5.504   4.305  -4.558  1.00  0.00    -0.282 N 
ATOM     20  N   UNL     1       4.814   3.317  -5.271  1.00  0.00    -0.181 NA
ATOM     21  C   UNL     1       6.651   6.514  -5.103  1.00  0.00     0.066 C 
ATOM     22  C   UNL     1       4.125   2.896  -7.647  1.00  0.00     0.069 C 
ATOM     23  H   UNL     1       5.681   4.303  -3.604  1.00  0.00     0.190 HD
ENDBRANCH  15  16
ENDBRANCH  14  15
ENDBRANCH  13  14
ENDBRANCH   1  13
TORSDOF 7
ENDMDL
MODEL 9
REMARK VINA RESULT:    -4.394      4.927      7.945
REMARK INTER + INTRA:          -6.613
REMARK INTER:                  -5.930
REMARK INTRA:                  -0.683
REMARK UNBOUND:                -0.549
REMARK SMILES Cc1n[nH]c(C)c1CCCOc1cc(C(=O)O)ccc1F
REMARK SMILES IDX 11 1 12 2 14 3 18 4 13 5 19 6 20 7 21 8 15 9 16 10 17 11
REMARK SMILES IDX 10 13 9 14 8 15 7 16 5 17 2 18 4 19 3 20 6 21 1 22
REMARK H PARENT 17 12 4 23
ROOT
ATOM      1  O   UNL     1       8.925   5.133  -9.097  1.00  0.00    -0.490 OA
ENDROOT
BRANCH   1   2
ATOM      2  C   UNL     1       9.927   4.776  -9.944  1.00  0.00     0.155 A 
ATOM      3  C   UNL     1      11.448   5.320 -11.724  1.00  0.00     0.063 A 
ATOM      4  C   UNL     1      11.981   4.029 -11.658  1.00  0.00     0.019 A 
ATOM      5  C   UNL     1      10.416   5.688 -10.860  1.00  0.00     0.065 A 
ATOM      6  C   UNL     1      11.490   3.128 -10.737  1.00  0.00     0.044 A 
ATOM      7  C   UNL     1      10.470   3.497  -9.877  1.00  0.00     0.165 A 
ATOM      8  F   UNL     1       9.993   2.609  -8.977  1.00  0.00    -0.203 F 
BRANCH   3   9
ATOM      9  C   UNL     1      11.971   6.287 -12.709  1.00  0.00     0.335 C 
ATOM     10  O   UNL     1      12.719   5.914 -13.589  1.00  0.00    -0.246 OA
BRANCH   9  11
ATOM     11  O   UNL     1      11.613   7.584 -12.634  1.00  0.00    -0.478 OA
ATOM     12  H   UNL     1      12.247   8.192 -12.229  1.00  0.00     0.297 HD
ENDBRANCH   9  11
ENDBRANCH   3   9
ENDBRANCH   1   2
BRANCH   1  13
ATOM     13  C   UNL     1       7.680   5.513  -9.688  1.00  0.00     0.230 C 
BRANCH  13  14
ATOM     14  C   UNL     1       6.664   5.819  -8.586  1.00  0.00     0.046 C 
BRANCH  14  15
ATOM     15  C   UNL     1       6.788   4.774  -7.475  1.00  0.00     0.043 C 
BRANCH  15  16
ATOM     16  C   UNL     1       5.586   4.856  -6.571  1.00  0.00    -0.004 A 
ATOM     17  C   UNL     1       5.453   5.663  -5.493  1.00  0.00     0.036 A 
ATOM     18  C   UNL     1       4.406   4.115  -6.701  1.00  0.00     0.063 A 
ATOM     19  N   UNL     1       4.235   5.437  -4.956  1.00  0.00    -0.282 N 
ATOM     20  N   UNL     1       3.599   4.457  -5.730  1.00  0.00    -0.181 NA
ATOM     21  C   UNL     1       6.480   6.640  -4.984  1.00  0.00     0.066 C 
ATOM     22  C   UNL     1       4.119   3.090  -7.769  1.00  0.00     0.069 C 
ATOM     23  H   UNL     1       3.867   5.874  -4.173  1.00  0.00     0.190 HD
ENDBRANCH  15  16
ENDBRANCH  14  15
ENDBRANCH  13  14
ENDBRANCH   1  13
TORSDOF 7
ENDMDL
