MODEL 1
REMARK VINA RESULT:    -4.825      0.000      0.000
REMARK INTER + INTRA:          -5.824
REMARK INTER:                  -5.530
REMARK INTRA:                  -0.295
REMARK UNBOUND:                -0.295
REMARK SMILES O=C(O)c1ccc2nc(-c3cc(Cl)cc(Cl)c3)oc2c1
REMARK SMILES IDX 5 1 6 2 20 3 8 4 18 5 4 6 9 7 7 8 19 9 2 10 1 11 3 12 10 14
REMARK SMILES IDX 11 15 17 16 12 17 15 18 14 19 13 20 16 21
REMARK H PARENT 3 13
ROOT
ATOM      1  C   UNL     1      -0.404   6.179   0.202  1.00  0.00     0.018 A 
ATOM      2  C   UNL     1      -0.476   5.002  -0.481  1.00  0.00     0.033 A 
ATOM      3  C   UNL     1       1.042   5.157   1.858  1.00  0.00     0.065 A 
ATOM      4  N   UNL     1       0.324   2.606  -0.455  1.00  0.00    -0.209 NA
ATOM      5  O   UNL     1       1.500   2.733   1.371  1.00  0.00    -0.436 OA
ATOM      6  C   UNL     1       0.355   6.273   1.377  1.00  0.00     0.063 A 
ATOM      7  C   UNL     1       1.091   1.934   0.367  1.00  0.00     0.227 A 
ATOM      8  C   UNL     1       0.207   3.875  -0.009  1.00  0.00     0.110 A 
ATOM      9  C   UNL     1       0.967   3.959   1.171  1.00  0.00     0.156 A 
ENDROOT
BRANCH   6  10
ATOM     10  C   UNL     1       0.431   7.553   2.104  1.00  0.00     0.335 C 
ATOM     11  O   UNL     1       1.457   7.869   2.672  1.00  0.00    -0.246 OA
BRANCH  10  12
ATOM     12  O   UNL     1      -0.639   8.372   2.139  1.00  0.00    -0.478 OA
ATOM     13  H   UNL     1      -1.508   7.957   2.219  1.00  0.00     0.297 HD
ENDBRANCH  10  12
ENDBRANCH   6  10
BRANCH   7  14
ATOM     14  C   UNL     1       1.454   0.510   0.214  1.00  0.00     0.040 A 
ATOM     15  C   UNL     1       0.920  -0.241  -0.833  1.00  0.00     0.034 A 
ATOM     16  C   UNL     1       2.333  -0.089   1.119  1.00  0.00     0.034 A 
ATOM     17  C   UNL     1       1.264  -1.571  -0.971  1.00  0.00     0.043 A 
ATOM     18  C   UNL     1       2.669  -1.420   0.971  1.00  0.00     0.043 A 
ATOM     19  C   UNL     1       2.136  -2.160  -0.070  1.00  0.00     0.041 A 
ATOM     20  Cl  UNL     1       0.602  -2.508  -2.274  1.00  0.00    -0.084 Cl
ATOM     21  Cl  UNL     1       3.761  -2.168   2.095  1.00  0.00    -0.084 Cl
ENDBRANCH   7  14
TORSDOF 3
ENDMDL
MODEL 2
REMARK VINA RESULT:    -4.819      0.012      2.019
REMARK INTER + INTRA:          -5.819
REMARK INTER:                  -5.524
REMARK INTRA:                  -0.295
REMARK UNBOUND:                -0.295
REMARK SMILES O=C(O)c1ccc2nc(-c3cc(Cl)cc(Cl)c3)oc2c1
REMARK SMILES IDX 5 1 6 2 20 3 8 4 18 5 4 6 9 7 7 8 19 9 2 10 1 11 3 12 10 14
REMARK SMILES IDX 11 15 17 16 12 17 15 18 14 19 13 20 16 21
REMARK H PARENT 3 13
ROOT
ATOM      1  C   UNL     1      -0.407   6.169   0.208  1.00  0.00     0.018 A 
ATOM      2  C   UNL     1      -0.479   4.991  -0.473  1.00  0.00     0.033 A 
ATOM      3  C   UNL     1       1.044   5.151   1.863  1.00  0.00     0.065 A 
ATOM      4  N   UNL     1       0.324   2.596  -0.446  1.00  0.00    -0.209 NA
ATOM      5  O   UNL     1       1.504   2.728   1.377  1.00  0.00    -0.436 OA
ATOM      6  C   UNL     1       0.355   6.265   1.381  1.00  0.00     0.063 A 
ATOM      7  C   UNL     1       1.095   1.927   0.375  1.00  0.00     0.227 A 
ATOM      8  C   UNL     1       0.207   3.866  -0.001  1.00  0.00     0.110 A 
ATOM      9  C   UNL     1       0.969   3.953   1.177  1.00  0.00     0.156 A 
ENDROOT
BRANCH   6  10
ATOM     10  C   UNL     1       0.430   7.546   2.106  1.00  0.00     0.335 C 
ATOM     11  O   UNL     1       1.459   7.867   2.667  1.00  0.00    -0.246 OA
BRANCH  10  12
ATOM     12  O   UNL     1      -0.643   8.361   2.149  1.00  0.00    -0.478 OA
ATOM     13  H   UNL     1      -0.635   9.064   2.812  1.00  0.00     0.297 HD
ENDBRANCH  10  12
ENDBRANCH   6  10
BRANCH   7  14
ATOM     14  C   UNL     1       1.459   0.503   0.224  1.00  0.00     0.040 A 
ATOM     15  C   UNL     1       2.341  -0.095   1.125  1.00  0.00     0.034 A 
ATOM     16  C   UNL     1       0.923  -0.250  -0.823  1.00  0.00     0.034 A 
ATOM     17  C   UNL     1       2.677  -1.426   0.979  1.00  0.00     0.043 A 
ATOM     18  C   UNL     1       1.266  -1.580  -0.959  1.00  0.00     0.043 A 
ATOM     19  C   UNL     1       2.142  -2.167  -0.062  1.00  0.00     0.041 A 
ATOM     20  Cl  UNL     1       3.773  -2.172   2.099  1.00  0.00    -0.084 Cl
ATOM     21  Cl  UNL     1       0.600  -2.518  -2.260  1.00  0.00    -0.084 Cl
ENDBRANCH   7  14
TORSDOF 3
ENDMDL
MODEL 3
REMARK VINA RESULT:    -4.112     14.238     14.894
REMARK INTER + INTRA:          -5.008
REMARK INTER:                  -4.725
REMARK INTRA:                  -0.283
REMARK UNBOUND:                -0.295
REMARK SMILES O=C(O)c1ccc2nc(-c3cc(Cl)cc(Cl)c3)oc2c1
REMARK SMILES IDX 5 1 6 2 20 3 8 4 18 5 4 6 9 7 7 8 19 9 2 10 1 11 3 12 10 14
REMARK SMILES IDX 11 15 17 16 12 17 15 18 14 19 13 20 16 21
REMARK H PARENT 3 13
ROOT
ATOM      1  C   UNL     1       6.492  10.400 -14.757  1.00  0.00     0.018 A 
ATOM      2  C   UNL     1       6.988   9.189 -14.379  1.00  0.00     0.033 A 
ATOM      3  C   UNL     1       5.547  10.729 -12.548  1.00  0.00     0.065 A 
ATOM      4  N   UNL     1       7.131   7.591 -12.428  1.00  0.00    -0.209 NA
ATOM      5  O   UNL     1       6.003   8.794 -11.009  1.00  0.00    -0.436 OA
ATOM      6  C   UNL     1       5.768  11.186 -13.849  1.00  0.00     0.063 A 
ATOM      7  C   UNL     1       6.672   7.642 -11.202  1.00  0.00     0.227 A 
ATOM      8  C   UNL     1       6.774   8.719 -13.077  1.00  0.00     0.110 A 
ATOM      9  C   UNL     1       6.045   9.499 -12.162  1.00  0.00     0.156 A 
ENDROOT
BRANCH   6  10
ATOM     10  C   UNL     1       5.241  12.497 -14.267  1.00  0.00     0.335 C 
ATOM     11  O   UNL     1       4.149  12.572 -14.795  1.00  0.00    -0.246 OA
BRANCH  10  12
ATOM     12  O   UNL     1       5.970  13.613 -14.066  1.00  0.00    -0.478 OA
ATOM     13  H   UNL     1       5.507  14.380 -13.703  1.00  0.00     0.297 HD
ENDBRANCH  10  12
ENDBRANCH   6  10
BRANCH   7  14
ATOM     14  C   UNL     1       6.860   6.589 -10.182  1.00  0.00     0.040 A 
ATOM     15  C   UNL     1       8.051   5.865 -10.134  1.00  0.00     0.034 A 
ATOM     16  C   UNL     1       5.844   6.314  -9.264  1.00  0.00     0.034 A 
ATOM     17  C   UNL     1       8.221   4.883  -9.178  1.00  0.00     0.043 A 
ATOM     18  C   UNL     1       6.025   5.330  -8.313  1.00  0.00     0.043 A 
ATOM     19  C   UNL     1       7.210   4.615  -8.270  1.00  0.00     0.041 A 
ATOM     20  Cl  UNL     1       9.703   3.981  -9.115  1.00  0.00    -0.084 Cl
ATOM     21  Cl  UNL     1       4.764   4.987  -7.170  1.00  0.00    -0.084 Cl
ENDBRANCH   7  14
TORSDOF 3
ENDMDL
MODEL 4
REMARK VINA RESULT:    -4.112     14.240     14.865
REMARK INTER + INTRA:          -5.007
REMARK INTER:                  -4.724
REMARK INTRA:                  -0.283
REMARK UNBOUND:                -0.295
REMARK SMILES O=C(O)c1ccc2nc(-c3cc(Cl)cc(Cl)c3)oc2c1
REMARK SMILES IDX 5 1 6 2 20 3 8 4 18 5 4 6 9 7 7 8 19 9 2 10 1 11 3 12 10 14
REMARK SMILES IDX 11 15 17 16 12 17 15 18 14 19 13 20 16 21
REMARK H PARENT 3 13
ROOT
ATOM      1  C   UNL     1       6.496  10.407 -14.757  1.00  0.00     0.018 A 
ATOM      2  C   UNL     1       6.992   9.196 -14.378  1.00  0.00     0.033 A 
ATOM      3  C   UNL     1       5.546  10.735 -12.550  1.00  0.00     0.065 A 
ATOM      4  N   UNL     1       7.131   7.597 -12.427  1.00  0.00    -0.209 NA
ATOM      5  O   UNL     1       6.000   8.800 -11.010  1.00  0.00    -0.436 OA
ATOM      6  C   UNL     1       5.770  11.192 -13.850  1.00  0.00     0.063 A 
ATOM      7  C   UNL     1       6.669   7.648 -11.202  1.00  0.00     0.227 A 
ATOM      8  C   UNL     1       6.775   8.725 -13.077  1.00  0.00     0.110 A 
ATOM      9  C   UNL     1       6.044   9.505 -12.163  1.00  0.00     0.156 A 
ENDROOT
BRANCH   6  10
ATOM     10  C   UNL     1       5.244  12.503 -14.269  1.00  0.00     0.335 C 
ATOM     11  O   UNL     1       4.138  12.583 -14.766  1.00  0.00    -0.246 OA
BRANCH  10  12
ATOM     12  O   UNL     1       5.989  13.614 -14.103  1.00  0.00    -0.478 OA
ATOM     13  H   UNL     1       6.934  13.541 -14.292  1.00  0.00     0.297 HD
ENDBRANCH  10  12
ENDBRANCH   6  10
BRANCH   7  14
ATOM     14  C   UNL     1       6.855   6.595 -10.182  1.00  0.00     0.040 A 
ATOM     15  C   UNL     1       5.840   6.321  -9.264  1.00  0.00     0.034 A 
ATOM     16  C   UNL     1       8.047   5.870 -10.133  1.00  0.00     0.034 A 
ATOM     17  C   UNL     1       6.020   5.335  -8.314  1.00  0.00     0.043 A 
ATOM     18  C   UNL     1       8.215   4.887  -9.179  1.00  0.00     0.043 A 
ATOM     19  C   UNL     1       7.204   4.620  -8.271  1.00  0.00     0.041 A 
ATOM     20  Cl  UNL     1       4.759   4.992  -7.172  1.00  0.00    -0.084 Cl
ATOM     21  Cl  UNL     1       9.697   3.984  -9.116  1.00  0.00    -0.084 Cl
ENDBRANCH   7  14
TORSDOF 3
ENDMDL
MODEL 5
REMARK VINA RESULT:    -4.057     10.928     11.750
REMARK INTER + INTRA:          -4.944
REMARK INTER:                  -4.648
REMARK INTRA:                  -0.296
REMARK UNBOUND:                -0.295
REMARK SMILES O=C(O)c1ccc2nc(-c3cc(Cl)cc(Cl)c3)oc2c1
REMARK SMILES IDX 5 1 6 2 20 3 8 4 18 5 4 6 9 7 7 8 19 9 2 10 1 11 3 12 10 14
REMARK SMILES IDX 11 15 17 16 12 17 15 18 14 19 13 20 16 21
REMARK H PARENT 3 13
ROOT
ATOM      1  C   UNL     1       8.323   6.145 -10.990  1.00  0.00     0.018 A 
ATOM      2  C   UNL     1       8.380   5.493  -9.795  1.00  0.00     0.033 A 
ATOM      3  C   UNL     1       6.060   6.874 -10.511  1.00  0.00     0.065 A 
ATOM      4  N   UNL     1       7.041   4.978  -7.715  1.00  0.00    -0.209 NA
ATOM      5  O   UNL     1       5.236   6.052  -8.283  1.00  0.00    -0.436 OA
ATOM      6  C   UNL     1       7.166   6.844 -11.363  1.00  0.00     0.063 A 
ATOM      7  C   UNL     1       5.829   5.300  -7.336  1.00  0.00     0.227 A 
ATOM      8  C   UNL     1       7.278   5.515  -8.931  1.00  0.00     0.110 A 
ATOM      9  C   UNL     1       6.112   6.209  -9.300  1.00  0.00     0.156 A 
ENDROOT
BRANCH   6  10
ATOM     10  C   UNL     1       7.119   7.551 -12.655  1.00  0.00     0.335 C 
ATOM     11  O   UNL     1       6.089   8.084 -13.018  1.00  0.00    -0.246 OA
BRANCH  10  12
ATOM     12  O   UNL     1       8.216   7.604 -13.436  1.00  0.00    -0.478 OA
ATOM     13  H   UNL     1       9.057   7.358 -13.028  1.00  0.00     0.297 HD
ENDBRANCH  10  12
ENDBRANCH   6  10
BRANCH   7  14
ATOM     14  C   UNL     1       5.206   4.898  -6.059  1.00  0.00     0.040 A 
ATOM     15  C   UNL     1       6.002   4.622  -4.946  1.00  0.00     0.034 A 
ATOM     16  C   UNL     1       3.817   4.791  -5.960  1.00  0.00     0.034 A 
ATOM     17  C   UNL     1       5.413   4.248  -3.755  1.00  0.00     0.043 A 
ATOM     18  C   UNL     1       3.240   4.415  -4.763  1.00  0.00     0.043 A 
ATOM     19  C   UNL     1       4.036   4.143  -3.663  1.00  0.00     0.041 A 
ATOM     20  Cl  UNL     1       6.402   3.905  -2.370  1.00  0.00    -0.084 Cl
ATOM     21  Cl  UNL     1       1.514   4.282  -4.638  1.00  0.00    -0.084 Cl
ENDBRANCH   7  14
TORSDOF 3
ENDMDL
MODEL 6
REMARK VINA RESULT:    -4.051     10.928     11.598
REMARK INTER + INTRA:          -4.938
REMARK INTER:                  -4.642
REMARK INTRA:                  -0.296
REMARK UNBOUND:                -0.295
REMARK SMILES O=C(O)c1ccc2nc(-c3cc(Cl)cc(Cl)c3)oc2c1
REMARK SMILES IDX 5 1 6 2 20 3 8 4 18 5 4 6 9 7 7 8 19 9 2 10 1 11 3 12 10 14
REMARK SMILES IDX 11 15 17 16 12 17 15 18 14 19 13 20 16 21
REMARK H PARENT 3 13
ROOT
ATOM      1  C   UNL     1       8.322   6.148 -10.989  1.00  0.00     0.018 A 
ATOM      2  C   UNL     1       8.381   5.496  -9.794  1.00  0.00     0.033 A 
ATOM      3  C   UNL     1       6.060   6.877 -10.508  1.00  0.00     0.065 A 
ATOM      4  N   UNL     1       7.044   4.982  -7.713  1.00  0.00    -0.209 NA
ATOM      5  O   UNL     1       5.238   6.055  -8.279  1.00  0.00    -0.436 OA
ATOM      6  C   UNL     1       7.165   6.847 -11.361  1.00  0.00     0.063 A 
ATOM      7  C   UNL     1       5.833   5.304  -7.333  1.00  0.00     0.227 A 
ATOM      8  C   UNL     1       7.279   5.518  -8.929  1.00  0.00     0.110 A 
ATOM      9  C   UNL     1       6.113   6.213  -9.297  1.00  0.00     0.156 A 
ENDROOT
BRANCH   6  10
ATOM     10  C   UNL     1       7.116   7.553 -12.654  1.00  0.00     0.335 C 
ATOM     11  O   UNL     1       6.089   8.096 -13.010  1.00  0.00    -0.246 OA
BRANCH  10  12
ATOM     12  O   UNL     1       8.209   7.597 -13.440  1.00  0.00    -0.478 OA
ATOM     13  H   UNL     1       9.060   7.735 -13.003  1.00  0.00     0.297 HD
ENDBRANCH  10  12
ENDBRANCH   6  10
BRANCH   7  14
ATOM     14  C   UNL     1       5.211   4.902  -6.054  1.00  0.00     0.040 A 
ATOM     15  C   UNL     1       3.824   4.789  -5.954  1.00  0.00     0.034 A 
ATOM     16  C   UNL     1       6.010   4.634  -4.940  1.00  0.00     0.034 A 
ATOM     17  C   UNL     1       3.249   4.412  -4.756  1.00  0.00     0.043 A 
ATOM     18  C   UNL     1       5.423   4.258  -3.749  1.00  0.00     0.043 A 
ATOM     19  C   UNL     1       4.046   4.148  -3.656  1.00  0.00     0.041 A 
ATOM     20  Cl  UNL     1       1.523   4.270  -4.630  1.00  0.00    -0.084 Cl
ATOM     21  Cl  UNL     1       6.415   3.924  -2.363  1.00  0.00    -0.084 Cl
ENDBRANCH   7  14
TORSDOF 3
ENDMDL
MODEL 7
REMARK VINA RESULT:    -3.959     10.915     11.618
REMARK INTER + INTRA:          -4.832
REMARK INTER:                  -4.536
REMARK INTRA:                  -0.296
REMARK UNBOUND:                -0.295
REMARK SMILES O=C(O)c1ccc2nc(-c3cc(Cl)cc(Cl)c3)oc2c1
REMARK SMILES IDX 5 1 6 2 20 3 8 4 18 5 4 6 9 7 7 8 19 9 2 10 1 11 3 12 10 14
REMARK SMILES IDX 11 15 17 16 12 17 15 18 14 19 13 20 16 21
REMARK H PARENT 3 13
ROOT
ATOM      1  C   UNL     1       8.000   6.396 -11.020  1.00  0.00     0.018 A 
ATOM      2  C   UNL     1       6.803   6.450 -10.372  1.00  0.00     0.033 A 
ATOM      3  C   UNL     1       8.924   5.021  -9.249  1.00  0.00     0.065 A 
ATOM      4  N   UNL     1       5.601   5.669  -8.292  1.00  0.00    -0.209 NA
ATOM      5  O   UNL     1       7.260   4.562  -7.421  1.00  0.00    -0.436 OA
ATOM      6  C   UNL     1       9.074   5.681 -10.470  1.00  0.00     0.063 A 
ATOM      7  C   UNL     1       5.976   4.938  -7.271  1.00  0.00     0.227 A 
ATOM      8  C   UNL     1       6.639   5.793  -9.147  1.00  0.00     0.110 A 
ATOM      9  C   UNL     1       7.712   5.078  -8.586  1.00  0.00     0.156 A 
ENDROOT
BRANCH   6  10
ATOM     10  C   UNL     1      10.362   5.624 -11.183  1.00  0.00     0.335 C 
ATOM     11  O   UNL     1      11.257   4.917 -10.765  1.00  0.00    -0.246 OA
BRANCH  10  12
ATOM     12  O   UNL     1      10.549   6.358 -12.299  1.00  0.00    -0.478 OA
ATOM     13  H   UNL     1       9.794   6.449 -12.895  1.00  0.00     0.297 HD
ENDBRANCH  10  12
ENDBRANCH   6  10
BRANCH   7  14
ATOM     14  C   UNL     1       5.115   4.579  -6.125  1.00  0.00     0.040 A 
ATOM     15  C   UNL     1       3.727   4.578  -6.264  1.00  0.00     0.034 A 
ATOM     16  C   UNL     1       5.689   4.242  -4.897  1.00  0.00     0.034 A 
ATOM     17  C   UNL     1       2.928   4.241  -5.189  1.00  0.00     0.043 A 
ATOM     18  C   UNL     1       4.879   3.907  -3.830  1.00  0.00     0.043 A 
ATOM     19  C   UNL     1       3.503   3.907  -3.975  1.00  0.00     0.041 A 
ATOM     20  Cl  UNL     1       1.201   4.237  -5.361  1.00  0.00    -0.084 Cl
ATOM     21  Cl  UNL     1       5.590   3.486  -2.303  1.00  0.00    -0.084 Cl
ENDBRANCH   7  14
TORSDOF 3
ENDMDL
MODEL 8
REMARK VINA RESULT:    -3.956     10.922     11.784
REMARK INTER + INTRA:          -4.829
REMARK INTER:                  -4.532
REMARK INTRA:                  -0.297
REMARK UNBOUND:                -0.295
REMARK SMILES O=C(O)c1ccc2nc(-c3cc(Cl)cc(Cl)c3)oc2c1
REMARK SMILES IDX 5 1 6 2 20 3 8 4 18 5 4 6 9 7 7 8 19 9 2 10 1 11 3 12 10 14
REMARK SMILES IDX 11 15 17 16 12 17 15 18 14 19 13 20 16 21
REMARK H PARENT 3 13
ROOT
ATOM      1  C   UNL     1       8.007   6.391 -11.026  1.00  0.00     0.018 A 
ATOM      2  C   UNL     1       6.808   6.443 -10.380  1.00  0.00     0.033 A 
ATOM      3  C   UNL     1       8.932   5.024  -9.250  1.00  0.00     0.065 A 
ATOM      4  N   UNL     1       5.606   5.663  -8.299  1.00  0.00    -0.209 NA
ATOM      5  O   UNL     1       7.267   4.564  -7.424  1.00  0.00    -0.436 OA
ATOM      6  C   UNL     1       9.082   5.681 -10.472  1.00  0.00     0.063 A 
ATOM      7  C   UNL     1       5.981   4.935  -7.277  1.00  0.00     0.227 A 
ATOM      8  C   UNL     1       6.645   5.788  -9.153  1.00  0.00     0.110 A 
ATOM      9  C   UNL     1       7.719   5.078  -8.589  1.00  0.00     0.156 A 
ENDROOT
BRANCH   6  10
ATOM     10  C   UNL     1      10.371   5.627 -11.184  1.00  0.00     0.335 C 
ATOM     11  O   UNL     1      11.268   4.924 -10.762  1.00  0.00    -0.246 OA
BRANCH  10  12
ATOM     12  O   UNL     1      10.557   6.358 -12.301  1.00  0.00    -0.478 OA
ATOM     13  H   UNL     1      11.125   5.979 -12.985  1.00  0.00     0.297 HD
ENDBRANCH  10  12
ENDBRANCH   6  10
BRANCH   7  14
ATOM     14  C   UNL     1       5.120   4.577  -6.131  1.00  0.00     0.040 A 
ATOM     15  C   UNL     1       5.691   4.238  -4.903  1.00  0.00     0.034 A 
ATOM     16  C   UNL     1       3.731   4.575  -6.273  1.00  0.00     0.034 A 
ATOM     17  C   UNL     1       4.880   3.905  -3.836  1.00  0.00     0.043 A 
ATOM     18  C   UNL     1       2.931   4.240  -5.198  1.00  0.00     0.043 A 
ATOM     19  C   UNL     1       3.504   3.905  -3.983  1.00  0.00     0.041 A 
ATOM     20  Cl  UNL     1       5.588   3.484  -2.308  1.00  0.00    -0.084 Cl
ATOM     21  Cl  UNL     1       1.203   4.237  -5.372  1.00  0.00    -0.084 Cl
ENDBRANCH   7  14
TORSDOF 3
ENDMDL
MODEL 9
REMARK VINA RESULT:    -3.851     10.007     10.799
REMARK INTER + INTRA:          -4.708
REMARK INTER:                  -4.411
REMARK INTRA:                  -0.298
REMARK UNBOUND:                -0.295
REMARK SMILES O=C(O)c1ccc2nc(-c3cc(Cl)cc(Cl)c3)oc2c1
REMARK SMILES IDX 5 1 6 2 20 3 8 4 18 5 4 6 9 7 7 8 19 9 2 10 1 11 3 12 10 14
REMARK SMILES IDX 11 15 17 16 12 17 15 18 14 19 13 20 16 21
REMARK H PARENT 3 13
ROOT
ATOM      1  C   UNL     1       4.768   3.793  -3.546  1.00  0.00     0.018 A 
ATOM      2  C   UNL     1       5.903   3.841  -4.299  1.00  0.00     0.033 A 
ATOM      3  C   UNL     1       3.521   4.888  -5.314  1.00  0.00     0.065 A 
ATOM      4  N   UNL     1       6.809   4.604  -6.531  1.00  0.00    -0.209 NA
ATOM      5  O   UNL     1       4.950   5.421  -7.312  1.00  0.00    -0.436 OA
ATOM      6  C   UNL     1       3.565   4.313  -4.043  1.00  0.00     0.063 A 
ATOM      7  C   UNL     1       6.255   5.200  -7.558  1.00  0.00     0.227 A 
ATOM      8  C   UNL     1       5.873   4.415  -5.576  1.00  0.00     0.110 A 
ATOM      9  C   UNL     1       4.671   4.943  -6.079  1.00  0.00     0.156 A 
ENDROOT
BRANCH   6  10
ATOM     10  C   UNL     1       2.342   4.250  -3.222  1.00  0.00     0.335 C 
ATOM     11  O   UNL     1       2.391   3.803  -2.093  1.00  0.00    -0.246 OA
BRANCH  10  12
ATOM     12  O   UNL     1       1.170   4.686  -3.723  1.00  0.00    -0.478 OA
ATOM     13  H   UNL     1       1.208   5.404  -4.368  1.00  0.00     0.297 HD
ENDBRANCH  10  12
ENDBRANCH   6  10
BRANCH   7  14
ATOM     14  C   UNL     1       6.960   5.574  -8.801  1.00  0.00     0.040 A 
ATOM     15  C   UNL     1       6.337   6.398  -9.739  1.00  0.00     0.034 A 
ATOM     16  C   UNL     1       8.253   5.103  -9.042  1.00  0.00     0.034 A 
ATOM     17  C   UNL     1       7.002   6.746 -10.899  1.00  0.00     0.043 A 
ATOM     18  C   UNL     1       8.907   5.457 -10.205  1.00  0.00     0.043 A 
ATOM     19  C   UNL     1       8.283   6.275 -11.132  1.00  0.00     0.041 A 
ATOM     20  Cl  UNL     1       6.230   7.771 -12.067  1.00  0.00    -0.084 Cl
ATOM     21  Cl  UNL     1      10.514   4.873 -10.508  1.00  0.00    -0.084 Cl
ENDBRANCH   7  14
TORSDOF 3
ENDMDL
