MODEL 1
REMARK VINA RESULT:    -5.002      0.000      0.000
REMARK INTER + INTRA:          -6.029
REMARK INTER:                  -5.733
REMARK INTRA:                  -0.296
REMARK UNBOUND:                -0.296
REMARK SMILES O=C(O)c1ccc2nc(-c3cc(Cl)cc(Cl)c3)oc2c1
REMARK SMILES IDX 5 1 6 2 20 3 8 4 18 5 4 6 9 7 7 8 19 9 2 10 1 11 3 12 10 14
REMARK SMILES IDX 11 15 17 16 12 17 15 18 14 19 13 20 16 21
REMARK H PARENT 3 13
ROOT
ATOM      1  C   UNL     1       1.075   4.310   1.060  1.00  0.00     0.018 A 
ATOM      2  C   UNL     1       1.186   3.175   1.806  1.00  0.00     0.033 A 
ATOM      3  C   UNL     1      -0.649   3.278  -0.298  1.00  0.00     0.065 A 
ATOM      4  N   UNL     1       0.270   0.834   2.060  1.00  0.00    -0.209 NA
ATOM      5  O   UNL     1      -1.154   0.921   0.417  1.00  0.00    -0.436 OA
ATOM      6  C   UNL     1       0.157   4.378   0.002  1.00  0.00     0.063 A 
ATOM      7  C   UNL     1      -0.644   0.162   1.405  1.00  0.00     0.227 A 
ATOM      8  C   UNL     1       0.384   2.065   1.515  1.00  0.00     0.110 A 
ATOM      9  C   UNL     1      -0.535   2.123   0.453  1.00  0.00     0.156 A 
ENDROOT
BRANCH   6  10
ATOM     10  C   UNL     1       0.042   5.613  -0.793  1.00  0.00     0.335 C 
ATOM     11  O   UNL     1      -1.018   5.905  -1.310  1.00  0.00    -0.246 OA
BRANCH  10  12
ATOM     12  O   UNL     1       1.112   6.418  -0.948  1.00  0.00    -0.478 OA
ATOM     13  H   UNL     1       1.118   6.996  -1.722  1.00  0.00     0.297 HD
ENDBRANCH  10  12
ENDBRANCH   6  10
BRANCH   7  14
ATOM     14  C   UNL     1      -1.053  -1.226   1.706  1.00  0.00     0.040 A 
ATOM     15  C   UNL     1      -0.449  -1.923   2.753  1.00  0.00     0.034 A 
ATOM     16  C   UNL     1      -2.046  -1.844   0.943  1.00  0.00     0.034 A 
ATOM     17  C   UNL     1      -0.836  -3.219   3.030  1.00  0.00     0.043 A 
ATOM     18  C   UNL     1      -2.425  -3.140   1.230  1.00  0.00     0.043 A 
ATOM     19  C   UNL     1      -1.821  -3.827   2.270  1.00  0.00     0.041 A 
ATOM     20  Cl  UNL     1      -0.087  -4.089   4.332  1.00  0.00    -0.084 Cl
ATOM     21  Cl  UNL     1      -3.659  -3.911   0.283  1.00  0.00    -0.084 Cl
ENDBRANCH   7  14
TORSDOF 3
ENDMDL
MODEL 2
REMARK VINA RESULT:    -4.999      0.009      2.019
REMARK INTER + INTRA:          -6.026
REMARK INTER:                  -5.730
REMARK INTRA:                  -0.296
REMARK UNBOUND:                -0.296
REMARK SMILES O=C(O)c1ccc2nc(-c3cc(Cl)cc(Cl)c3)oc2c1
REMARK SMILES IDX 5 1 6 2 20 3 8 4 18 5 4 6 9 7 7 8 19 9 2 10 1 11 3 12 10 14
REMARK SMILES IDX 11 15 17 16 12 17 15 18 14 19 13 20 16 21
REMARK H PARENT 3 13
ROOT
ATOM      1  C   UNL     1       1.082   4.301   1.054  1.00  0.00     0.018 A 
ATOM      2  C   UNL     1       1.195   3.164   1.796  1.00  0.00     0.033 A 
ATOM      3  C   UNL     1      -0.656   3.277  -0.293  1.00  0.00     0.065 A 
ATOM      4  N   UNL     1       0.274   0.826   2.053  1.00  0.00    -0.209 NA
ATOM      5  O   UNL     1      -1.162   0.920   0.422  1.00  0.00    -0.436 OA
ATOM      6  C   UNL     1       0.155   4.373   0.004  1.00  0.00     0.063 A 
ATOM      7  C   UNL     1      -0.646   0.157   1.404  1.00  0.00     0.227 A 
ATOM      8  C   UNL     1       0.388   2.057   1.510  1.00  0.00     0.110 A 
ATOM      9  C   UNL     1      -0.540   2.119   0.455  1.00  0.00     0.156 A 
ENDROOT
BRANCH   6  10
ATOM     10  C   UNL     1       0.037   5.611  -0.789  1.00  0.00     0.335 C 
ATOM     11  O   UNL     1      -1.022   5.899  -1.310  1.00  0.00    -0.246 OA
BRANCH  10  12
ATOM     12  O   UNL     1       1.104   6.422  -0.937  1.00  0.00    -0.478 OA
ATOM     13  H   UNL     1       1.333   6.686  -1.837  1.00  0.00     0.297 HD
ENDBRANCH  10  12
ENDBRANCH   6  10
BRANCH   7  14
ATOM     14  C   UNL     1      -1.057  -1.230   1.706  1.00  0.00     0.040 A 
ATOM     15  C   UNL     1      -2.049  -1.849   0.944  1.00  0.00     0.034 A 
ATOM     16  C   UNL     1      -0.454  -1.926   2.755  1.00  0.00     0.034 A 
ATOM     17  C   UNL     1      -2.427  -3.145   1.230  1.00  0.00     0.043 A 
ATOM     18  C   UNL     1      -0.841  -3.222   3.032  1.00  0.00     0.043 A 
ATOM     19  C   UNL     1      -1.826  -3.830   2.272  1.00  0.00     0.041 A 
ATOM     20  Cl  UNL     1      -3.660  -3.918   0.284  1.00  0.00    -0.084 Cl
ATOM     21  Cl  UNL     1      -0.093  -4.090   4.336  1.00  0.00    -0.084 Cl
ENDBRANCH   7  14
TORSDOF 3
ENDMDL
MODEL 3
REMARK VINA RESULT:    -4.415     14.276     14.844
REMARK INTER + INTRA:          -5.356
REMARK INTER:                  -5.074
REMARK INTRA:                  -0.282
REMARK UNBOUND:                -0.296
REMARK SMILES O=C(O)c1ccc2nc(-c3cc(Cl)cc(Cl)c3)oc2c1
REMARK SMILES IDX 5 1 6 2 20 3 8 4 18 5 4 6 9 7 7 8 19 9 2 10 1 11 3 12 10 14
REMARK SMILES IDX 11 15 17 16 12 17 15 18 14 19 13 20 16 21
REMARK H PARENT 3 13
ROOT
ATOM      1  C   UNL     1      -4.001   9.657  16.428  1.00  0.00     0.018 A 
ATOM      2  C   UNL     1      -4.502   8.418  16.161  1.00  0.00     0.033 A 
ATOM      3  C   UNL     1      -3.567  10.015  14.069  1.00  0.00     0.065 A 
ATOM      4  N   UNL     1      -4.974   6.798  14.280  1.00  0.00    -0.209 NA
ATOM      5  O   UNL     1      -4.239   8.046  12.657  1.00  0.00    -0.436 OA
ATOM      6  C   UNL     1      -3.529  10.471  15.388  1.00  0.00     0.063 A 
ATOM      7  C   UNL     1      -4.790   6.862  12.985  1.00  0.00     0.227 A 
ATOM      8  C   UNL     1      -4.546   7.949  14.842  1.00  0.00     0.110 A 
ATOM      9  C   UNL     1      -4.070   8.757  13.794  1.00  0.00     0.156 A 
ENDROOT
BRANCH   6  10
ATOM     10  C   UNL     1      -2.995  11.811  15.688  1.00  0.00     0.335 C 
ATOM     11  O   UNL     1      -3.731  12.777  15.667  1.00  0.00    -0.246 OA
BRANCH  10  12
ATOM     12  O   UNL     1      -1.689  11.966  15.985  1.00  0.00    -0.478 OA
ATOM     13  H   UNL     1      -1.332  11.415  16.694  1.00  0.00     0.297 HD
ENDBRANCH  10  12
ENDBRANCH   6  10
BRANCH   7  14
ATOM     14  C   UNL     1      -5.135   5.793  12.026  1.00  0.00     0.040 A 
ATOM     15  C   UNL     1      -4.248   5.455  11.003  1.00  0.00     0.034 A 
ATOM     16  C   UNL     1      -6.351   5.116  12.140  1.00  0.00     0.034 A 
ATOM     17  C   UNL     1      -4.576   4.454  10.111  1.00  0.00     0.043 A 
ATOM     18  C   UNL     1      -6.668   4.116  11.242  1.00  0.00     0.043 A 
ATOM     19  C   UNL     1      -5.784   3.786  10.229  1.00  0.00     0.041 A 
ATOM     20  Cl  UNL     1      -3.474   4.032   8.838  1.00  0.00    -0.084 Cl
ATOM     21  Cl  UNL     1      -8.179   3.273  11.382  1.00  0.00    -0.084 Cl
ENDBRANCH   7  14
TORSDOF 3
ENDMDL
MODEL 4
REMARK VINA RESULT:    -4.411     14.279     14.876
REMARK INTER + INTRA:          -5.352
REMARK INTER:                  -5.070
REMARK INTRA:                  -0.281
REMARK UNBOUND:                -0.296
REMARK SMILES O=C(O)c1ccc2nc(-c3cc(Cl)cc(Cl)c3)oc2c1
REMARK SMILES IDX 5 1 6 2 20 3 8 4 18 5 4 6 9 7 7 8 19 9 2 10 1 11 3 12 10 14
REMARK SMILES IDX 11 15 17 16 12 17 15 18 14 19 13 20 16 21
REMARK H PARENT 3 13
ROOT
ATOM      1  C   UNL     1      -3.997   9.667  16.423  1.00  0.00     0.018 A 
ATOM      2  C   UNL     1      -4.500   8.428  16.159  1.00  0.00     0.033 A 
ATOM      3  C   UNL     1      -3.569  10.022  14.063  1.00  0.00     0.065 A 
ATOM      4  N   UNL     1      -4.976   6.805  14.283  1.00  0.00    -0.209 NA
ATOM      5  O   UNL     1      -4.245   8.051  12.656  1.00  0.00    -0.436 OA
ATOM      6  C   UNL     1      -3.529  10.480  15.381  1.00  0.00     0.063 A 
ATOM      7  C   UNL     1      -4.795   6.868  12.987  1.00  0.00     0.227 A 
ATOM      8  C   UNL     1      -4.547   7.957  14.842  1.00  0.00     0.110 A 
ATOM      9  C   UNL     1      -4.074   8.763  13.792  1.00  0.00     0.156 A 
ENDROOT
BRANCH   6  10
ATOM     10  C   UNL     1      -2.993  11.820  15.677  1.00  0.00     0.335 C 
ATOM     11  O   UNL     1      -3.727  12.788  15.648  1.00  0.00    -0.246 OA
BRANCH  10  12
ATOM     12  O   UNL     1      -1.689  11.974  15.981  1.00  0.00    -0.478 OA
ATOM     13  H   UNL     1      -1.210  11.187  16.274  1.00  0.00     0.297 HD
ENDBRANCH  10  12
ENDBRANCH   6  10
BRANCH   7  14
ATOM     14  C   UNL     1      -5.143   5.796  12.031  1.00  0.00     0.040 A 
ATOM     15  C   UNL     1      -6.359   5.121  12.146  1.00  0.00     0.034 A 
ATOM     16  C   UNL     1      -4.255   5.455  11.009  1.00  0.00     0.034 A 
ATOM     17  C   UNL     1      -6.679   4.122  11.249  1.00  0.00     0.043 A 
ATOM     18  C   UNL     1      -4.586   4.453  10.118  1.00  0.00     0.043 A 
ATOM     19  C   UNL     1      -5.794   3.788  10.237  1.00  0.00     0.041 A 
ATOM     20  Cl  UNL     1      -8.191   3.281  11.389  1.00  0.00    -0.084 Cl
ATOM     21  Cl  UNL     1      -3.484   4.027   8.845  1.00  0.00    -0.084 Cl
ENDBRANCH   7  14
TORSDOF 3
ENDMDL
MODEL 5
REMARK VINA RESULT:    -4.266      3.896      7.653
REMARK INTER + INTRA:          -5.186
REMARK INTER:                  -4.890
REMARK INTRA:                  -0.296
REMARK UNBOUND:                -0.296
REMARK SMILES O=C(O)c1ccc2nc(-c3cc(Cl)cc(Cl)c3)oc2c1
REMARK SMILES IDX 5 1 6 2 20 3 8 4 18 5 4 6 9 7 7 8 19 9 2 10 1 11 3 12 10 14
REMARK SMILES IDX 11 15 17 16 12 17 15 18 14 19 13 20 16 21
REMARK H PARENT 3 13
ROOT
ATOM      1  C   UNL     1      -0.469  -2.895   1.990  1.00  0.00     0.018 A 
ATOM      2  C   UNL     1       0.415  -1.874   1.808  1.00  0.00     0.033 A 
ATOM      3  C   UNL     1      -2.322  -1.413   1.489  1.00  0.00     0.065 A 
ATOM      4  N   UNL     1       0.565   0.580   1.226  1.00  0.00    -0.209 NA
ATOM      5  O   UNL     1      -1.568   0.932   0.984  1.00  0.00    -0.436 OA
ATOM      6  C   UNL     1      -1.845  -2.680   1.831  1.00  0.00     0.063 A 
ATOM      7  C   UNL     1      -0.341   1.482   0.941  1.00  0.00     0.227 A 
ATOM      8  C   UNL     1      -0.050  -0.598   1.465  1.00  0.00     0.110 A 
ATOM      9  C   UNL     1      -1.429  -0.373   1.309  1.00  0.00     0.156 A 
ENDROOT
BRANCH   6  10
ATOM     10  C   UNL     1      -2.791  -3.794   2.024  1.00  0.00     0.335 C 
ATOM     11  O   UNL     1      -2.511  -4.704   2.778  1.00  0.00    -0.246 OA
BRANCH  10  12
ATOM     12  O   UNL     1      -3.965  -3.804   1.363  1.00  0.00    -0.478 OA
ATOM     13  H   UNL     1      -4.717  -4.217   1.809  1.00  0.00     0.297 HD
ENDBRANCH  10  12
ENDBRANCH   6  10
BRANCH   7  14
ATOM     14  C   UNL     1      -0.056   2.896   0.620  1.00  0.00     0.040 A 
ATOM     15  C   UNL     1      -1.084   3.740   0.198  1.00  0.00     0.034 A 
ATOM     16  C   UNL     1       1.244   3.393   0.737  1.00  0.00     0.034 A 
ATOM     17  C   UNL     1      -0.811   5.061  -0.099  1.00  0.00     0.043 A 
ATOM     18  C   UNL     1       1.504   4.715   0.437  1.00  0.00     0.043 A 
ATOM     19  C   UNL     1       0.480   5.547   0.019  1.00  0.00     0.041 A 
ATOM     20  Cl  UNL     1      -2.088   6.113  -0.623  1.00  0.00    -0.084 Cl
ATOM     21  Cl  UNL     1       3.120   5.335   0.582  1.00  0.00    -0.084 Cl
ENDBRANCH   7  14
TORSDOF 3
ENDMDL
MODEL 6
REMARK VINA RESULT:    -4.227      3.895      7.434
REMARK INTER + INTRA:          -5.140
REMARK INTER:                  -4.844
REMARK INTRA:                  -0.296
REMARK UNBOUND:                -0.296
REMARK SMILES O=C(O)c1ccc2nc(-c3cc(Cl)cc(Cl)c3)oc2c1
REMARK SMILES IDX 5 1 6 2 20 3 8 4 18 5 4 6 9 7 7 8 19 9 2 10 1 11 3 12 10 14
REMARK SMILES IDX 11 15 17 16 12 17 15 18 14 19 13 20 16 21
REMARK H PARENT 3 13
ROOT
ATOM      1  C   UNL     1      -0.455  -2.888   2.025  1.00  0.00     0.018 A 
ATOM      2  C   UNL     1       0.424  -1.860   1.861  1.00  0.00     0.033 A 
ATOM      3  C   UNL     1      -2.306  -1.427   1.456  1.00  0.00     0.065 A 
ATOM      4  N   UNL     1       0.570   0.590   1.262  1.00  0.00    -0.209 NA
ATOM      5  O   UNL     1      -1.558   0.920   0.953  1.00  0.00    -0.436 OA
ATOM      6  C   UNL     1      -1.828  -2.686   1.824  1.00  0.00     0.063 A 
ATOM      7  C   UNL     1      -0.335   1.482   0.942  1.00  0.00     0.227 A 
ATOM      8  C   UNL     1      -0.041  -0.591   1.493  1.00  0.00     0.110 A 
ATOM      9  C   UNL     1      -1.417  -0.380   1.294  1.00  0.00     0.156 A 
ENDROOT
BRANCH   6  10
ATOM     10  C   UNL     1      -2.769  -3.807   1.998  1.00  0.00     0.335 C 
ATOM     11  O   UNL     1      -2.507  -4.705   2.774  1.00  0.00    -0.246 OA
BRANCH  10  12
ATOM     12  O   UNL     1      -3.920  -3.837   1.297  1.00  0.00    -0.478 OA
ATOM     13  H   UNL     1      -4.700  -3.452   1.717  1.00  0.00     0.297 HD
ENDBRANCH  10  12
ENDBRANCH   6  10
BRANCH   7  14
ATOM     14  C   UNL     1      -0.053   2.895   0.617  1.00  0.00     0.040 A 
ATOM     15  C   UNL     1       1.247   3.393   0.719  1.00  0.00     0.034 A 
ATOM     16  C   UNL     1      -1.088   3.740   0.208  1.00  0.00     0.034 A 
ATOM     17  C   UNL     1       1.504   4.714   0.413  1.00  0.00     0.043 A 
ATOM     18  C   UNL     1      -0.818   5.059  -0.095  1.00  0.00     0.043 A 
ATOM     19  C   UNL     1       0.473   5.546   0.008  1.00  0.00     0.041 A 
ATOM     20  Cl  UNL     1       3.120   5.335   0.538  1.00  0.00    -0.084 Cl
ATOM     21  Cl  UNL     1      -2.103   6.111  -0.604  1.00  0.00    -0.084 Cl
ENDBRANCH   7  14
TORSDOF 3
ENDMDL
MODEL 7
REMARK VINA RESULT:    -4.049     13.885     15.140
REMARK INTER + INTRA:          -4.937
REMARK INTER:                  -4.658
REMARK INTRA:                  -0.279
REMARK UNBOUND:                -0.296
REMARK SMILES O=C(O)c1ccc2nc(-c3cc(Cl)cc(Cl)c3)oc2c1
REMARK SMILES IDX 5 1 6 2 20 3 8 4 18 5 4 6 9 7 7 8 19 9 2 10 1 11 3 12 10 14
REMARK SMILES IDX 11 15 17 16 12 17 15 18 14 19 13 20 16 21
REMARK H PARENT 3 13
ROOT
ATOM      1  C   UNL     1      -6.328   3.941  10.425  1.00  0.00     0.018 A 
ATOM      2  C   UNL     1      -6.720   4.584  11.561  1.00  0.00     0.033 A 
ATOM      3  C   UNL     1      -4.127   4.947  10.587  1.00  0.00     0.065 A 
ATOM      4  N   UNL     1      -5.921   6.176  13.353  1.00  0.00    -0.209 NA
ATOM      5  O   UNL     1      -3.905   6.457  12.585  1.00  0.00    -0.436 OA
ATOM      6  C   UNL     1      -5.029   4.112   9.925  1.00  0.00     0.063 A 
ATOM      7  C   UNL     1      -4.779   6.785  13.555  1.00  0.00     0.227 A 
ATOM      8  C   UNL     1      -5.826   5.424  12.235  1.00  0.00     0.110 A 
ATOM      9  C   UNL     1      -4.523   5.605  11.737  1.00  0.00     0.156 A 
ENDROOT
BRANCH   6  10
ATOM     10  C   UNL     1      -4.614   3.406   8.699  1.00  0.00     0.335 C 
ATOM     11  O   UNL     1      -5.032   3.770   7.618  1.00  0.00    -0.246 OA
BRANCH  10  12
ATOM     12  O   UNL     1      -3.773   2.356   8.777  1.00  0.00    -0.478 OA
ATOM     13  H   UNL     1      -3.925   1.625   8.164  1.00  0.00     0.297 HD
ENDBRANCH  10  12
ENDBRANCH   6  10
BRANCH   7  14
ATOM     14  C   UNL     1      -4.494   7.697  14.681  1.00  0.00     0.040 A 
ATOM     15  C   UNL     1      -4.567   7.233  15.995  1.00  0.00     0.034 A 
ATOM     16  C   UNL     1      -4.152   9.028  14.435  1.00  0.00     0.034 A 
ATOM     17  C   UNL     1      -4.298   8.091  17.043  1.00  0.00     0.043 A 
ATOM     18  C   UNL     1      -3.885   9.876  15.491  1.00  0.00     0.043 A 
ATOM     19  C   UNL     1      -3.959   9.410  16.792  1.00  0.00     0.041 A 
ATOM     20  Cl  UNL     1      -4.387   7.516  18.679  1.00  0.00    -0.084 Cl
ATOM     21  Cl  UNL     1      -3.459  11.532  15.187  1.00  0.00    -0.084 Cl
ENDBRANCH   7  14
TORSDOF 3
ENDMDL
MODEL 8
REMARK VINA RESULT:    -4.045     13.869     15.182
REMARK INTER + INTRA:          -4.932
REMARK INTER:                  -4.652
REMARK INTRA:                  -0.280
REMARK UNBOUND:                -0.296
REMARK SMILES O=C(O)c1ccc2nc(-c3cc(Cl)cc(Cl)c3)oc2c1
REMARK SMILES IDX 5 1 6 2 20 3 8 4 18 5 4 6 9 7 7 8 19 9 2 10 1 11 3 12 10 14
REMARK SMILES IDX 11 15 17 16 12 17 15 18 14 19 13 20 16 21
REMARK H PARENT 3 13
ROOT
ATOM      1  C   UNL     1      -6.315   3.922  10.419  1.00  0.00     0.018 A 
ATOM      2  C   UNL     1      -6.711   4.577  11.547  1.00  0.00     0.033 A 
ATOM      3  C   UNL     1      -4.110   4.918  10.587  1.00  0.00     0.065 A 
ATOM      4  N   UNL     1      -5.915   6.179  13.330  1.00  0.00    -0.209 NA
ATOM      5  O   UNL     1      -3.893   6.444  12.573  1.00  0.00    -0.436 OA
ATOM      6  C   UNL     1      -5.012   4.082   9.927  1.00  0.00     0.063 A 
ATOM      7  C   UNL     1      -4.771   6.784  13.535  1.00  0.00     0.227 A 
ATOM      8  C   UNL     1      -5.816   5.418  12.219  1.00  0.00     0.110 A 
ATOM      9  C   UNL     1      -4.510   5.588  11.729  1.00  0.00     0.156 A 
ENDROOT
BRANCH   6  10
ATOM     10  C   UNL     1      -4.593   3.364   8.709  1.00  0.00     0.335 C 
ATOM     11  O   UNL     1      -5.097   3.638   7.639  1.00  0.00    -0.246 OA
BRANCH  10  12
ATOM     12  O   UNL     1      -3.651   2.403   8.783  1.00  0.00    -0.478 OA
ATOM     13  H   UNL     1      -2.942   2.532   9.427  1.00  0.00     0.297 HD
ENDBRANCH  10  12
ENDBRANCH   6  10
BRANCH   7  14
ATOM     14  C   UNL     1      -4.489   7.705  14.656  1.00  0.00     0.040 A 
ATOM     15  C   UNL     1      -4.151   9.035  14.402  1.00  0.00     0.034 A 
ATOM     16  C   UNL     1      -4.557   7.246  15.973  1.00  0.00     0.034 A 
ATOM     17  C   UNL     1      -3.889   9.890  15.454  1.00  0.00     0.043 A 
ATOM     18  C   UNL     1      -4.293   8.111  17.016  1.00  0.00     0.043 A 
ATOM     19  C   UNL     1      -3.959   9.430  16.758  1.00  0.00     0.041 A 
ATOM     20  Cl  UNL     1      -3.470  11.546  15.141  1.00  0.00    -0.084 Cl
ATOM     21  Cl  UNL     1      -4.378   7.543  18.655  1.00  0.00    -0.084 Cl
ENDBRANCH   7  14
TORSDOF 3
ENDMDL
MODEL 9
REMARK VINA RESULT:    -3.918     10.999     11.759
REMARK INTER + INTRA:          -4.787
REMARK INTER:                  -4.502
REMARK INTRA:                  -0.284
REMARK UNBOUND:                -0.296
REMARK SMILES O=C(O)c1ccc2nc(-c3cc(Cl)cc(Cl)c3)oc2c1
REMARK SMILES IDX 5 1 6 2 20 3 8 4 18 5 4 6 9 7 7 8 19 9 2 10 1 11 3 12 10 14
REMARK SMILES IDX 11 15 17 16 12 17 15 18 14 19 13 20 16 21
REMARK H PARENT 3 13
ROOT
ATOM      1  C   UNL     1      -6.220   5.754  13.215  1.00  0.00     0.018 A 
ATOM      2  C   UNL     1      -6.495   4.994  12.117  1.00  0.00     0.033 A 
ATOM      3  C   UNL     1      -4.048   6.330  12.302  1.00  0.00     0.065 A 
ATOM      4  N   UNL     1      -5.537   4.223   9.910  1.00  0.00    -0.209 NA
ATOM      5  O   UNL     1      -3.632   5.263  10.064  1.00  0.00    -0.436 OA
ATOM      6  C   UNL     1      -4.997   6.432  13.321  1.00  0.00     0.063 A 
ATOM      7  C   UNL     1      -4.397   4.453   9.308  1.00  0.00     0.227 A 
ATOM      8  C   UNL     1      -5.552   4.884  11.088  1.00  0.00     0.110 A 
ATOM      9  C   UNL     1      -4.321   5.556  11.189  1.00  0.00     0.156 A 
ENDROOT
BRANCH   6  10
ATOM     10  C   UNL     1      -4.714   7.256  14.510  1.00  0.00     0.335 C 
ATOM     11  O   UNL     1      -4.138   6.770  15.462  1.00  0.00    -0.246 OA
BRANCH  10  12
ATOM     12  O   UNL     1      -5.095   8.549  14.541  1.00  0.00    -0.478 OA
ATOM     13  H   UNL     1      -5.721   8.839  13.864  1.00  0.00     0.297 HD
ENDBRANCH  10  12
ENDBRANCH   6  10
BRANCH   7  14
ATOM     14  C   UNL     1      -4.007   3.902   7.993  1.00  0.00     0.040 A 
ATOM     15  C   UNL     1      -4.980   3.633   7.030  1.00  0.00     0.034 A 
ATOM     16  C   UNL     1      -2.663   3.648   7.711  1.00  0.00     0.034 A 
ATOM     17  C   UNL     1      -4.609   3.120   5.803  1.00  0.00     0.043 A 
ATOM     18  C   UNL     1      -2.306   3.134   6.480  1.00  0.00     0.043 A 
ATOM     19  C   UNL     1      -3.275   2.870   5.529  1.00  0.00     0.041 A 
ATOM     20  Cl  UNL     1      -5.818   2.785   4.602  1.00  0.00    -0.084 Cl
ATOM     21  Cl  UNL     1      -0.635   2.818   6.126  1.00  0.00    -0.084 Cl
ENDBRANCH   7  14
TORSDOF 3
ENDMDL
