MODEL 1
REMARK VINA RESULT:    -5.649      0.000      0.000
REMARK INTER + INTRA:          -8.312
REMARK INTER:                  -7.796
REMARK INTRA:                  -0.516
REMARK UNBOUND:                -0.516
REMARK SMILES Cc1n[nH]c(C)c1CCCOc1cc(C(=O)O)ccc1F
REMARK SMILES IDX 11 1 12 2 14 3 18 4 13 5 19 6 20 7 21 8 15 9 16 10 17 11
REMARK SMILES IDX 10 13 9 14 8 15 7 16 5 17 2 18 4 19 3 20 6 21 1 22
REMARK H PARENT 17 12 4 23
ROOT
ATOM      1  O   UNL     1      -3.335   1.734   9.273  1.00  0.00    -0.490 OA
ENDROOT
BRANCH   1   2
ATOM      2  C   UNL     1      -3.229   2.135   7.978  1.00  0.00     0.155 A 
ATOM      3  C   UNL     1      -4.252   2.707   5.879  1.00  0.00     0.063 A 
ATOM      4  C   UNL     1      -2.989   2.963   5.337  1.00  0.00     0.019 A 
ATOM      5  C   UNL     1      -4.365   2.290   7.207  1.00  0.00     0.065 A 
ATOM      6  C   UNL     1      -1.862   2.810   6.116  1.00  0.00     0.044 A 
ATOM      7  C   UNL     1      -1.977   2.402   7.435  1.00  0.00     0.165 A 
ATOM      8  F   UNL     1      -0.868   2.255   8.193  1.00  0.00    -0.203 F 
BRANCH   3   9
ATOM      9  C   UNL     1      -5.461   2.869   5.048  1.00  0.00     0.335 C 
ATOM     10  O   UNL     1      -6.491   2.305   5.356  1.00  0.00    -0.246 OA
BRANCH   9  11
ATOM     11  O   UNL     1      -5.423   3.650   3.950  1.00  0.00    -0.478 OA
ATOM     12  H   UNL     1      -6.168   4.252   3.813  1.00  0.00     0.297 HD
ENDBRANCH   9  11
ENDBRANCH   3   9
ENDBRANCH   1   2
BRANCH   1  13
ATOM     13  C   UNL     1      -2.934   2.670  10.276  1.00  0.00     0.230 C 
BRANCH  13  14
ATOM     14  C   UNL     1      -4.133   3.016  11.160  1.00  0.00     0.046 C 
BRANCH  14  15
ATOM     15  C   UNL     1      -4.801   4.290  10.639  1.00  0.00     0.043 C 
BRANCH  15  16
ATOM     16  C   UNL     1      -5.575   4.944  11.754  1.00  0.00    -0.004 A 
ATOM     17  C   UNL     1      -6.857   4.678  12.096  1.00  0.00     0.036 A 
ATOM     18  C   UNL     1      -5.094   5.930  12.622  1.00  0.00     0.063 A 
ATOM     19  N   UNL     1      -7.178   5.472  13.139  1.00  0.00    -0.282 N 
ATOM     20  N   UNL     1      -6.056   6.252  13.448  1.00  0.00    -0.181 NA
ATOM     21  C   UNL     1      -7.763   3.675  11.431  1.00  0.00     0.066 C 
ATOM     22  C   UNL     1      -3.711   6.528  12.601  1.00  0.00     0.069 C 
ATOM     23  H   UNL     1      -8.034   5.498  13.594  1.00  0.00     0.190 HD
ENDBRANCH  15  16
ENDBRANCH  14  15
ENDBRANCH  13  14
ENDBRANCH   1  13
TORSDOF 7
ENDMDL
MODEL 2
REMARK VINA RESULT:    -5.593      2.157      3.777
REMARK INTER + INTRA:          -8.234
REMARK INTER:                  -7.607
REMARK INTRA:                  -0.627
REMARK UNBOUND:                -0.516
REMARK SMILES Cc1n[nH]c(C)c1CCCOc1cc(C(=O)O)ccc1F
REMARK SMILES IDX 11 1 12 2 14 3 18 4 13 5 19 6 20 7 21 8 15 9 16 10 17 11
REMARK SMILES IDX 10 13 9 14 8 15 7 16 5 17 2 18 4 19 3 20 6 21 1 22
REMARK H PARENT 17 12 4 23
ROOT
ATOM      1  O   UNL     1      -5.433   3.878   7.662  1.00  0.00    -0.490 OA
ENDROOT
BRANCH   1   2
ATOM      2  C   UNL     1      -4.362   3.413   6.966  1.00  0.00     0.155 A 
ATOM      3  C   UNL     1      -2.024   2.861   6.854  1.00  0.00     0.063 A 
ATOM      4  C   UNL     1      -2.188   2.450   5.528  1.00  0.00     0.019 A 
ATOM      5  C   UNL     1      -3.121   3.344   7.571  1.00  0.00     0.065 A 
ATOM      6  C   UNL     1      -3.431   2.517   4.935  1.00  0.00     0.044 A 
ATOM      7  C   UNL     1      -4.519   2.992   5.650  1.00  0.00     0.165 A 
ATOM      8  F   UNL     1      -5.734   3.055   5.063  1.00  0.00    -0.203 F 
BRANCH   3   9
ATOM      9  C   UNL     1      -0.695   2.790   7.492  1.00  0.00     0.335 C 
ATOM     10  O   UNL     1      -0.220   3.776   8.016  1.00  0.00    -0.246 OA
BRANCH   9  11
ATOM     11  O   UNL     1      -0.012   1.628   7.498  1.00  0.00    -0.478 OA
ATOM     12  H   UNL     1      -0.324   0.932   6.902  1.00  0.00     0.297 HD
ENDBRANCH   9  11
ENDBRANCH   3   9
ENDBRANCH   1   2
BRANCH   1  13
ATOM     13  C   UNL     1      -5.574   5.297   7.764  1.00  0.00     0.230 C 
BRANCH  13  14
ATOM     14  C   UNL     1      -6.117   5.657   9.148  1.00  0.00     0.046 C 
BRANCH  14  15
ATOM     15  C   UNL     1      -5.605   4.645  10.175  1.00  0.00     0.043 C 
BRANCH  15  16
ATOM     16  C   UNL     1      -6.097   5.029  11.547  1.00  0.00    -0.004 A 
ATOM     17  C   UNL     1      -5.444   5.812  12.437  1.00  0.00     0.036 A 
ATOM     18  C   UNL     1      -7.312   4.644  12.123  1.00  0.00     0.063 A 
ATOM     19  N   UNL     1      -6.215   5.913  13.539  1.00  0.00    -0.282 N 
ATOM     20  N   UNL     1      -7.381   5.168  13.320  1.00  0.00    -0.181 NA
ATOM     21  C   UNL     1      -4.097   6.455  12.233  1.00  0.00     0.066 C 
ATOM     22  C   UNL     1      -8.357   3.767  11.481  1.00  0.00     0.069 C 
ATOM     23  H   UNL     1      -6.001   6.413  14.342  1.00  0.00     0.190 HD
ENDBRANCH  15  16
ENDBRANCH  14  15
ENDBRANCH  13  14
ENDBRANCH   1  13
TORSDOF 7
ENDMDL
MODEL 3
REMARK VINA RESULT:    -5.568      0.228      1.781
REMARK INTER + INTRA:          -8.200
REMARK INTER:                  -7.696
REMARK INTRA:                  -0.504
REMARK UNBOUND:                -0.516
REMARK SMILES Cc1n[nH]c(C)c1CCCOc1cc(C(=O)O)ccc1F
REMARK SMILES IDX 11 1 12 2 14 3 18 4 13 5 19 6 20 7 21 8 15 9 16 10 17 11
REMARK SMILES IDX 10 13 9 14 8 15 7 16 5 17 2 18 4 19 3 20 6 21 1 22
REMARK H PARENT 17 12 4 23
ROOT
ATOM      1  O   UNL     1      -3.329   1.733   9.295  1.00  0.00    -0.490 OA
ENDROOT
BRANCH   1   2
ATOM      2  C   UNL     1      -3.222   2.144   8.003  1.00  0.00     0.155 A 
ATOM      3  C   UNL     1      -4.243   2.719   5.904  1.00  0.00     0.063 A 
ATOM      4  C   UNL     1      -2.982   2.996   5.370  1.00  0.00     0.019 A 
ATOM      5  C   UNL     1      -4.357   2.292   7.228  1.00  0.00     0.065 A 
ATOM      6  C   UNL     1      -1.855   2.852   6.153  1.00  0.00     0.044 A 
ATOM      7  C   UNL     1      -1.971   2.432   7.468  1.00  0.00     0.165 A 
ATOM      8  F   UNL     1      -0.864   2.293   8.229  1.00  0.00    -0.203 F 
BRANCH   3   9
ATOM      9  C   UNL     1      -5.451   2.873   5.069  1.00  0.00     0.335 C 
ATOM     10  O   UNL     1      -6.482   2.316   5.384  1.00  0.00    -0.246 OA
BRANCH   9  11
ATOM     11  O   UNL     1      -5.409   3.637   3.960  1.00  0.00    -0.478 OA
ATOM     12  H   UNL     1      -4.590   3.622   3.446  1.00  0.00     0.297 HD
ENDBRANCH   9  11
ENDBRANCH   3   9
ENDBRANCH   1   2
BRANCH   1  13
ATOM     13  C   UNL     1      -2.972   2.676  10.308  1.00  0.00     0.230 C 
BRANCH  13  14
ATOM     14  C   UNL     1      -4.219   3.066  11.103  1.00  0.00     0.046 C 
BRANCH  14  15
ATOM     15  C   UNL     1      -4.668   4.470  10.693  1.00  0.00     0.043 C 
BRANCH  15  16
ATOM     16  C   UNL     1      -5.339   5.145  11.860  1.00  0.00    -0.004 A 
ATOM     17  C   UNL     1      -4.785   6.081  12.665  1.00  0.00     0.036 A 
ATOM     18  C   UNL     1      -6.648   4.920  12.301  1.00  0.00     0.063 A 
ATOM     19  N   UNL     1      -5.708   6.431  13.586  1.00  0.00    -0.282 N 
ATOM     20  N   UNL     1      -6.868   5.685  13.339  1.00  0.00    -0.181 NA
ATOM     21  C   UNL     1      -3.388   6.634  12.553  1.00  0.00     0.066 C 
ATOM     22  C   UNL     1      -7.631   3.953  11.691  1.00  0.00     0.069 C 
ATOM     23  H   UNL     1      -5.589   7.083  14.294  1.00  0.00     0.190 HD
ENDBRANCH  15  16
ENDBRANCH  14  15
ENDBRANCH  13  14
ENDBRANCH   1  13
TORSDOF 7
ENDMDL
MODEL 4
REMARK VINA RESULT:    -5.283      2.227      3.287
REMARK INTER + INTRA:          -7.807
REMARK INTER:                  -7.134
REMARK INTRA:                  -0.673
REMARK UNBOUND:                -0.516
REMARK SMILES Cc1n[nH]c(C)c1CCCOc1cc(C(=O)O)ccc1F
REMARK SMILES IDX 11 1 12 2 14 3 18 4 13 5 19 6 20 7 21 8 15 9 16 10 17 11
REMARK SMILES IDX 10 13 9 14 8 15 7 16 5 17 2 18 4 19 3 20 6 21 1 22
REMARK H PARENT 17 12 4 23
ROOT
ATOM      1  O   UNL     1      -5.625   4.001   7.464  1.00  0.00    -0.490 OA
ENDROOT
BRANCH   1   2
ATOM      2  C   UNL     1      -4.588   3.462   6.768  1.00  0.00     0.155 A 
ATOM      3  C   UNL     1      -2.266   2.857   6.616  1.00  0.00     0.063 A 
ATOM      4  C   UNL     1      -2.487   2.348   5.333  1.00  0.00     0.019 A 
ATOM      5  C   UNL     1      -3.327   3.415   7.332  1.00  0.00     0.065 A 
ATOM      6  C   UNL     1      -3.750   2.393   4.781  1.00  0.00     0.044 A 
ATOM      7  C   UNL     1      -4.801   2.944   5.495  1.00  0.00     0.165 A 
ATOM      8  F   UNL     1      -6.036   2.985   4.949  1.00  0.00    -0.203 F 
BRANCH   3   9
ATOM      9  C   UNL     1      -0.916   2.809   7.209  1.00  0.00     0.335 C 
ATOM     10  O   UNL     1      -0.776   2.518   8.380  1.00  0.00    -0.246 OA
BRANCH   9  11
ATOM     11  O   UNL     1       0.164   3.082   6.450  1.00  0.00    -0.478 OA
ATOM     12  H   UNL     1       1.019   3.121   6.900  1.00  0.00     0.297 HD
ENDBRANCH   9  11
ENDBRANCH   3   9
ENDBRANCH   1   2
BRANCH   1  13
ATOM     13  C   UNL     1      -5.522   5.383   7.814  1.00  0.00     0.230 C 
BRANCH  13  14
ATOM     14  C   UNL     1      -6.236   5.626   9.145  1.00  0.00     0.046 C 
BRANCH  14  15
ATOM     15  C   UNL     1      -5.774   4.586  10.168  1.00  0.00     0.043 C 
BRANCH  15  16
ATOM     16  C   UNL     1      -6.346   4.923  11.521  1.00  0.00    -0.004 A 
ATOM     17  C   UNL     1      -7.530   4.490  12.015  1.00  0.00     0.036 A 
ATOM     18  C   UNL     1      -5.746   5.733  12.490  1.00  0.00     0.063 A 
ATOM     19  N   UNL     1      -7.676   5.013  13.250  1.00  0.00    -0.282 N 
ATOM     20  N   UNL     1      -6.545   5.793  13.525  1.00  0.00    -0.181 NA
ATOM     21  C   UNL     1      -8.508   3.585  11.312  1.00  0.00     0.066 C 
ATOM     22  C   UNL     1      -4.414   6.427  12.361  1.00  0.00     0.069 C 
ATOM     23  H   UNL     1      -8.430   4.873  13.843  1.00  0.00     0.190 HD
ENDBRANCH  15  16
ENDBRANCH  14  15
ENDBRANCH  13  14
ENDBRANCH   1  13
TORSDOF 7
ENDMDL
MODEL 5
REMARK VINA RESULT:    -5.117      8.125     11.846
REMARK INTER + INTRA:          -7.578
REMARK INTER:                  -6.747
REMARK INTRA:                  -0.832
REMARK UNBOUND:                -0.516
REMARK SMILES Cc1n[nH]c(C)c1CCCOc1cc(C(=O)O)ccc1F
REMARK SMILES IDX 11 1 12 2 14 3 18 4 13 5 19 6 20 7 21 8 15 9 16 10 17 11
REMARK SMILES IDX 10 13 9 14 8 15 7 16 5 17 2 18 4 19 3 20 6 21 1 22
REMARK H PARENT 17 12 4 23
ROOT
ATOM      1  O   UNL     1      -4.802  12.445  15.446  1.00  0.00    -0.490 OA
ENDROOT
BRANCH   1   2
ATOM      2  C   UNL     1      -3.843  12.804  16.340  1.00  0.00     0.155 A 
ATOM      3  C   UNL     1      -1.528  12.949  16.974  1.00  0.00     0.063 A 
ATOM      4  C   UNL     1      -1.899  13.555  18.177  1.00  0.00     0.019 A 
ATOM      5  C   UNL     1      -2.510  12.574  16.055  1.00  0.00     0.065 A 
ATOM      6  C   UNL     1      -3.230  13.786  18.451  1.00  0.00     0.044 A 
ATOM      7  C   UNL     1      -4.203  13.418  17.535  1.00  0.00     0.165 A 
ATOM      8  F   UNL     1      -5.506  13.647  17.809  1.00  0.00    -0.203 F 
BRANCH   3   9
ATOM      9  C   UNL     1      -0.103  12.700  16.678  1.00  0.00     0.335 C 
ATOM     10  O   UNL     1       0.498  11.829  17.273  1.00  0.00    -0.246 OA
BRANCH   9  11
ATOM     11  O   UNL     1       0.528  13.435  15.742  1.00  0.00    -0.478 OA
ATOM     12  H   UNL     1       0.411  14.395  15.784  1.00  0.00     0.297 HD
ENDBRANCH   9  11
ENDBRANCH   3   9
ENDBRANCH   1   2
BRANCH   1  13
ATOM     13  C   UNL     1      -4.385  12.249  14.092  1.00  0.00     0.230 C 
BRANCH  13  14
ATOM     14  C   UNL     1      -4.746  10.830  13.650  1.00  0.00     0.046 C 
BRANCH  14  15
ATOM     15  C   UNL     1      -3.617   9.872  14.037  1.00  0.00     0.043 C 
BRANCH  15  16
ATOM     16  C   UNL     1      -4.204   8.581  14.545  1.00  0.00    -0.004 A 
ATOM     17  C   UNL     1      -4.389   7.452  13.822  1.00  0.00     0.036 A 
ATOM     18  C   UNL     1      -4.648   8.335  15.849  1.00  0.00     0.063 A 
ATOM     19  N   UNL     1      -4.938   6.527  14.638  1.00  0.00    -0.282 N 
ATOM     20  N   UNL     1      -5.094   7.107  15.904  1.00  0.00    -0.181 NA
ATOM     21  C   UNL     1      -4.045   7.262  12.368  1.00  0.00     0.066 C 
ATOM     22  C   UNL     1      -4.628   9.320  16.990  1.00  0.00     0.069 C 
ATOM     23  H   UNL     1      -5.181   5.621  14.391  1.00  0.00     0.190 HD
ENDBRANCH  15  16
ENDBRANCH  14  15
ENDBRANCH  13  14
ENDBRANCH   1  13
TORSDOF 7
ENDMDL
MODEL 6
REMARK VINA RESULT:    -4.759      9.378     11.648
REMARK INTER + INTRA:          -7.084
REMARK INTER:                  -6.565
REMARK INTRA:                  -0.519
REMARK UNBOUND:                -0.516
REMARK SMILES Cc1n[nH]c(C)c1CCCOc1cc(C(=O)O)ccc1F
REMARK SMILES IDX 11 1 12 2 14 3 18 4 13 5 19 6 20 7 21 8 15 9 16 10 17 11
REMARK SMILES IDX 10 13 9 14 8 15 7 16 5 17 2 18 4 19 3 20 6 21 1 22
REMARK H PARENT 17 12 4 23
ROOT
ATOM      1  O   UNL     1      -4.362  11.200  14.559  1.00  0.00    -0.490 OA
ENDROOT
BRANCH   1   2
ATOM      2  C   UNL     1      -3.699  11.972  15.461  1.00  0.00     0.155 A 
ATOM      3  C   UNL     1      -1.641  12.732  16.446  1.00  0.00     0.063 A 
ATOM      4  C   UNL     1      -2.363  13.564  17.305  1.00  0.00     0.019 A 
ATOM      5  C   UNL     1      -2.318  11.934  15.521  1.00  0.00     0.065 A 
ATOM      6  C   UNL     1      -3.740  13.600  17.233  1.00  0.00     0.044 A 
ATOM      7  C   UNL     1      -4.410  12.811  16.312  1.00  0.00     0.165 A 
ATOM      8  F   UNL     1      -5.759  12.851  16.247  1.00  0.00    -0.203 F 
BRANCH   3   9
ATOM      9  C   UNL     1      -0.167  12.692  16.519  1.00  0.00     0.335 C 
ATOM     10  O   UNL     1       0.382  11.944  17.302  1.00  0.00    -0.246 OA
BRANCH   9  11
ATOM     11  O   UNL     1       0.569  13.480  15.712  1.00  0.00    -0.478 OA
ATOM     12  H   UNL     1       0.153  13.778  14.890  1.00  0.00     0.297 HD
ENDBRANCH   9  11
ENDBRANCH   3   9
ENDBRANCH   1   2
BRANCH   1  13
ATOM     13  C   UNL     1      -3.827   9.900  14.301  1.00  0.00     0.230 C 
BRANCH  13  14
ATOM     14  C   UNL     1      -4.537   8.873  15.184  1.00  0.00     0.046 C 
BRANCH  14  15
ATOM     15  C   UNL     1      -4.009   8.980  16.617  1.00  0.00     0.043 C 
BRANCH  15  16
ATOM     16  C   UNL     1      -4.908   8.204  17.543  1.00  0.00    -0.004 A 
ATOM     17  C   UNL     1      -4.604   7.035  18.154  1.00  0.00     0.036 A 
ATOM     18  C   UNL     1      -6.203   8.567  17.930  1.00  0.00     0.063 A 
ATOM     19  N   UNL     1      -5.671   6.668  18.896  1.00  0.00    -0.282 N 
ATOM     20  N   UNL     1      -6.664   7.644  18.735  1.00  0.00    -0.181 NA
ATOM     21  C   UNL     1      -3.307   6.279  18.030  1.00  0.00     0.066 C 
ATOM     22  C   UNL     1      -6.944   9.802  17.485  1.00  0.00     0.069 C 
ATOM     23  H   UNL     1      -5.739   5.870  19.442  1.00  0.00     0.190 HD
ENDBRANCH  15  16
ENDBRANCH  14  15
ENDBRANCH  13  14
ENDBRANCH   1  13
TORSDOF 7
ENDMDL
MODEL 7
REMARK VINA RESULT:    -4.693      8.398     10.676
REMARK INTER + INTRA:          -6.993
REMARK INTER:                  -5.065
REMARK INTRA:                  -1.928
REMARK UNBOUND:                -0.516
REMARK SMILES Cc1n[nH]c(C)c1CCCOc1cc(C(=O)O)ccc1F
REMARK SMILES IDX 11 1 12 2 14 3 18 4 13 5 19 6 20 7 21 8 15 9 16 10 17 11
REMARK SMILES IDX 10 13 9 14 8 15 7 16 5 17 2 18 4 19 3 20 6 21 1 22
REMARK H PARENT 17 12 4 23
ROOT
ATOM      1  O   UNL     1      -3.557  11.043  17.453  1.00  0.00    -0.490 OA
ENDROOT
BRANCH   1   2
ATOM      2  C   UNL     1      -3.940  10.133  16.518  1.00  0.00     0.155 A 
ATOM      3  C   UNL     1      -5.148   8.144  15.913  1.00  0.00     0.063 A 
ATOM      4  C   UNL     1      -4.721   8.291  14.590  1.00  0.00     0.019 A 
ATOM      5  C   UNL     1      -4.752   9.073  16.877  1.00  0.00     0.065 A 
ATOM      6  C   UNL     1      -3.916   9.355  14.241  1.00  0.00     0.044 A 
ATOM      7  C   UNL     1      -3.529  10.279  15.198  1.00  0.00     0.165 A 
ATOM      8  F   UNL     1      -2.740  11.319  14.849  1.00  0.00    -0.203 F 
BRANCH   3   9
ATOM      9  C   UNL     1      -6.010   7.006  16.290  1.00  0.00     0.335 C 
ATOM     10  O   UNL     1      -6.783   6.536  15.482  1.00  0.00    -0.246 OA
BRANCH   9  11
ATOM     11  O   UNL     1      -5.932   6.486  17.530  1.00  0.00    -0.478 OA
ATOM     12  H   UNL     1      -6.366   5.633  17.677  1.00  0.00     0.297 HD
ENDBRANCH   9  11
ENDBRANCH   3   9
ENDBRANCH   1   2
BRANCH   1  13
ATOM     13  C   UNL     1      -4.591  11.638  18.241  1.00  0.00     0.230 C 
BRANCH  13  14
ATOM     14  C   UNL     1      -4.813  13.081  17.784  1.00  0.00     0.046 C 
BRANCH  14  15
ATOM     15  C   UNL     1      -6.292  13.289  17.453  1.00  0.00     0.043 C 
BRANCH  15  16
ATOM     16  C   UNL     1      -6.605  12.655  16.123  1.00  0.00    -0.004 A 
ATOM     17  C   UNL     1      -6.020  12.957  14.940  1.00  0.00     0.036 A 
ATOM     18  C   UNL     1      -7.546  11.646  15.892  1.00  0.00     0.063 A 
ATOM     19  N   UNL     1      -6.576  12.171  13.994  1.00  0.00    -0.282 N 
ATOM     20  N   UNL     1      -7.534  11.360  14.616  1.00  0.00    -0.181 NA
ATOM     21  C   UNL     1      -4.941  13.985  14.719  1.00  0.00     0.066 C 
ATOM     22  C   UNL     1      -8.429  11.007  16.934  1.00  0.00     0.069 C 
ATOM     23  H   UNL     1      -6.353  12.169  13.050  1.00  0.00     0.190 HD
ENDBRANCH  15  16
ENDBRANCH  14  15
ENDBRANCH  13  14
ENDBRANCH   1  13
TORSDOF 7
ENDMDL
MODEL 8
REMARK VINA RESULT:    -4.643      3.293      4.648
REMARK INTER + INTRA:          -6.924
REMARK INTER:                  -6.345
REMARK INTRA:                  -0.579
REMARK UNBOUND:                -0.516
REMARK SMILES Cc1n[nH]c(C)c1CCCOc1cc(C(=O)O)ccc1F
REMARK SMILES IDX 11 1 12 2 14 3 18 4 13 5 19 6 20 7 21 8 15 9 16 10 17 11
REMARK SMILES IDX 10 13 9 14 8 15 7 16 5 17 2 18 4 19 3 20 6 21 1 22
REMARK H PARENT 17 12 4 23
ROOT
ATOM      1  O   UNL     1      -5.148   5.200  11.837  1.00  0.00    -0.490 OA
ENDROOT
BRANCH   1   2
ATOM      2  C   UNL     1      -4.837   4.590  10.662  1.00  0.00     0.155 A 
ATOM      3  C   UNL     1      -4.967   4.490   8.263  1.00  0.00     0.063 A 
ATOM      4  C   UNL     1      -4.182   3.334   8.273  1.00  0.00     0.019 A 
ATOM      5  C   UNL     1      -5.293   5.116   9.468  1.00  0.00     0.065 A 
ATOM      6  C   UNL     1      -3.727   2.819   9.468  1.00  0.00     0.044 A 
ATOM      7  C   UNL     1      -4.047   3.445  10.662  1.00  0.00     0.165 A 
ATOM      8  F   UNL     1      -3.598   2.936  11.830  1.00  0.00    -0.203 F 
BRANCH   3   9
ATOM      9  C   UNL     1      -5.455   5.043   6.985  1.00  0.00     0.335 C 
ATOM     10  O   UNL     1      -5.298   4.422   5.954  1.00  0.00    -0.246 OA
BRANCH   9  11
ATOM     11  O   UNL     1      -6.082   6.236   6.964  1.00  0.00    -0.478 OA
ATOM     12  H   UNL     1      -5.703   6.941   7.508  1.00  0.00     0.297 HD
ENDBRANCH   9  11
ENDBRANCH   3   9
ENDBRANCH   1   2
BRANCH   1  13
ATOM     13  C   UNL     1      -4.561   6.481  12.077  1.00  0.00     0.230 C 
BRANCH  13  14
ATOM     14  C   UNL     1      -4.013   6.531  13.505  1.00  0.00     0.046 C 
BRANCH  14  15
ATOM     15  C   UNL     1      -5.045   7.188  14.425  1.00  0.00     0.043 C 
BRANCH  15  16
ATOM     16  C   UNL     1      -4.363   8.210  15.296  1.00  0.00    -0.004 A 
ATOM     17  C   UNL     1      -4.006   9.462  14.925  1.00  0.00     0.036 A 
ATOM     18  C   UNL     1      -3.993   8.037  16.634  1.00  0.00     0.063 A 
ATOM     19  N   UNL     1      -3.425  10.057  15.988  1.00  0.00    -0.282 N 
ATOM     20  N   UNL     1      -3.425   9.140  17.047  1.00  0.00    -0.181 NA
ATOM     21  C   UNL     1      -4.220  10.081  13.568  1.00  0.00     0.066 C 
ATOM     22  C   UNL     1      -4.202   6.789  17.454  1.00  0.00     0.069 C 
ATOM     23  H   UNL     1      -3.070  10.958  16.014  1.00  0.00     0.190 HD
ENDBRANCH  15  16
ENDBRANCH  14  15
ENDBRANCH  13  14
ENDBRANCH   1  13
TORSDOF 7
ENDMDL
MODEL 9
REMARK VINA RESULT:    -4.499      8.346     10.849
REMARK INTER + INTRA:          -6.724
REMARK INTER:                  -4.578
REMARK INTRA:                  -2.147
REMARK UNBOUND:                -0.516
REMARK SMILES Cc1n[nH]c(C)c1CCCOc1cc(C(=O)O)ccc1F
REMARK SMILES IDX 11 1 12 2 14 3 18 4 13 5 19 6 20 7 21 8 15 9 16 10 17 11
REMARK SMILES IDX 10 13 9 14 8 15 7 16 5 17 2 18 4 19 3 20 6 21 1 22
REMARK H PARENT 17 12 4 23
ROOT
ATOM      1  O   UNL     1      -2.877  11.050  16.911  1.00  0.00    -0.490 OA
ENDROOT
BRANCH   1   2
ATOM      2  C   UNL     1      -3.939  10.202  16.944  1.00  0.00     0.155 A 
ATOM      3  C   UNL     1      -5.138   8.323  16.043  1.00  0.00     0.063 A 
ATOM      4  C   UNL     1      -6.111   8.473  17.035  1.00  0.00     0.019 A 
ATOM      5  C   UNL     1      -4.049   9.195  16.003  1.00  0.00     0.065 A 
ATOM      6  C   UNL     1      -5.990   9.476  17.973  1.00  0.00     0.044 A 
ATOM      7  C   UNL     1      -4.906  10.337  17.934  1.00  0.00     0.165 A 
ATOM      8  F   UNL     1      -4.792  11.318  18.857  1.00  0.00    -0.203 F 
BRANCH   3   9
ATOM      9  C   UNL     1      -5.265   7.249  15.038  1.00  0.00     0.335 C 
ATOM     10  O   UNL     1      -4.335   6.995  14.300  1.00  0.00    -0.246 OA
BRANCH   9  11
ATOM     11  O   UNL     1      -6.411   6.548  14.943  1.00  0.00    -0.478 OA
ATOM     12  H   UNL     1      -6.662   6.010  15.708  1.00  0.00     0.297 HD
ENDBRANCH   9  11
ENDBRANCH   3   9
ENDBRANCH   1   2
BRANCH   1  13
ATOM     13  C   UNL     1      -2.791  11.939  15.795  1.00  0.00     0.230 C 
BRANCH  13  14
ATOM     14  C   UNL     1      -3.460  13.268  16.149  1.00  0.00     0.046 C 
BRANCH  14  15
ATOM     15  C   UNL     1      -4.388  13.692  15.009  1.00  0.00     0.043 C 
BRANCH  15  16
ATOM     16  C   UNL     1      -5.642  12.858  15.044  1.00  0.00    -0.004 A 
ATOM     17  C   UNL     1      -6.619  12.927  15.978  1.00  0.00     0.036 A 
ATOM     18  C   UNL     1      -6.006  11.879  14.113  1.00  0.00     0.063 A 
ATOM     19  N   UNL     1      -7.564  12.019  15.653  1.00  0.00    -0.282 N 
ATOM     20  N   UNL     1      -7.154  11.371  14.480  1.00  0.00    -0.181 NA
ATOM     21  C   UNL     1      -6.647  13.851  17.167  1.00  0.00     0.066 C 
ATOM     22  C   UNL     1      -5.206  11.472  12.901  1.00  0.00     0.069 C 
ATOM     23  H   UNL     1      -8.381  11.846  16.145  1.00  0.00     0.190 HD
ENDBRANCH  15  16
ENDBRANCH  14  15
ENDBRANCH  13  14
ENDBRANCH   1  13
TORSDOF 7
ENDMDL
