MODEL 1
REMARK VINA RESULT:    -4.927      0.000      0.000
REMARK INTER + INTRA:          -5.936
REMARK INTER:                  -5.647
REMARK INTRA:                  -0.289
REMARK UNBOUND:                -0.289
REMARK SMILES O=C(O)c1ccc2nc(-c3cc(Cl)cc(Cl)c3)oc2c1
REMARK SMILES IDX 5 1 6 2 20 3 8 4 18 5 4 6 9 7 7 8 19 9 2 10 1 11 3 12 10 14
REMARK SMILES IDX 11 15 17 16 12 17 15 18 14 19 13 20 16 21
REMARK H PARENT 3 13
ROOT
ATOM      1  C   UNL     1       4.770   2.584   1.232  1.00  0.00     0.018 A 
ATOM      2  C   UNL     1       4.339   1.297   1.118  1.00  0.00     0.033 A 
ATOM      3  C   UNL     1       2.565   3.283   1.960  1.00  0.00     0.065 A 
ATOM      4  N   UNL     1       2.309  -0.181   1.403  1.00  0.00    -0.209 NA
ATOM      5  O   UNL     1       0.933   1.373   2.053  1.00  0.00    -0.436 OA
ATOM      6  C   UNL     1       3.892   3.592   1.655  1.00  0.00     0.063 A 
ATOM      7  C   UNL     1       1.079   0.063   1.780  1.00  0.00     0.227 A 
ATOM      8  C   UNL     1       3.010   0.973   1.420  1.00  0.00     0.110 A 
ATOM      9  C   UNL     1       2.122   1.979   1.840  1.00  0.00     0.156 A 
ENDROOT
BRANCH   6  10
ATOM     10  C   UNL     1       4.371   4.980   1.781  1.00  0.00     0.335 C 
ATOM     11  O   UNL     1       4.770   5.576   0.800  1.00  0.00    -0.246 OA
BRANCH  10  12
ATOM     12  O   UNL     1       4.369   5.589   2.983  1.00  0.00    -0.478 OA
ATOM     13  H   UNL     1       3.882   5.152   3.695  1.00  0.00     0.297 HD
ENDBRANCH  10  12
ENDBRANCH   6  10
BRANCH   7  14
ATOM     14  C   UNL     1       0.009  -0.950   1.888  1.00  0.00     0.040 A 
ATOM     15  C   UNL     1       0.276  -2.286   1.586  1.00  0.00     0.034 A 
ATOM     16  C   UNL     1      -1.273  -0.575   2.292  1.00  0.00     0.034 A 
ATOM     17  C   UNL     1      -0.727  -3.229   1.690  1.00  0.00     0.043 A 
ATOM     18  C   UNL     1      -2.268  -1.526   2.392  1.00  0.00     0.043 A 
ATOM     19  C   UNL     1      -1.997  -2.850   2.091  1.00  0.00     0.041 A 
ATOM     20  Cl  UNL     1      -0.397  -4.891   1.315  1.00  0.00    -0.084 Cl
ATOM     21  Cl  UNL     1      -3.864  -1.061   2.894  1.00  0.00    -0.084 Cl
ENDBRANCH   7  14
TORSDOF 3
ENDMDL
MODEL 2
REMARK VINA RESULT:    -4.888      0.058      2.020
REMARK INTER + INTRA:          -5.891
REMARK INTER:                  -5.602
REMARK INTRA:                  -0.290
REMARK UNBOUND:                -0.289
REMARK SMILES O=C(O)c1ccc2nc(-c3cc(Cl)cc(Cl)c3)oc2c1
REMARK SMILES IDX 5 1 6 2 20 3 8 4 18 5 4 6 9 7 7 8 19 9 2 10 1 11 3 12 10 14
REMARK SMILES IDX 11 15 17 16 12 17 15 18 14 19 13 20 16 21
REMARK H PARENT 3 13
ROOT
ATOM      1  C   UNL     1       4.761   2.561   1.226  1.00  0.00     0.018 A 
ATOM      2  C   UNL     1       4.337   1.268   1.142  1.00  0.00     0.033 A 
ATOM      3  C   UNL     1       2.538   3.273   1.883  1.00  0.00     0.065 A 
ATOM      4  N   UNL     1       2.306  -0.208   1.427  1.00  0.00    -0.209 NA
ATOM      5  O   UNL     1       0.910   1.360   1.998  1.00  0.00    -0.436 OA
ATOM      6  C   UNL     1       3.870   3.577   1.599  1.00  0.00     0.063 A 
ATOM      7  C   UNL     1       1.067   0.043   1.769  1.00  0.00     0.227 A 
ATOM      8  C   UNL     1       3.003   0.949   1.424  1.00  0.00     0.110 A 
ATOM      9  C   UNL     1       2.102   1.964   1.794  1.00  0.00     0.156 A 
ENDROOT
BRANCH   6  10
ATOM     10  C   UNL     1       4.342   4.971   1.692  1.00  0.00     0.335 C 
ATOM     11  O   UNL     1       4.770   5.534   0.705  1.00  0.00    -0.246 OA
BRANCH  10  12
ATOM     12  O   UNL     1       4.300   5.619   2.873  1.00  0.00    -0.478 OA
ATOM     13  H   UNL     1       5.139   5.741   3.337  1.00  0.00     0.297 HD
ENDBRANCH  10  12
ENDBRANCH   6  10
BRANCH   7  14
ATOM     14  C   UNL     1      -0.001  -0.972   1.884  1.00  0.00     0.040 A 
ATOM     15  C   UNL     1      -1.286  -0.595   2.277  1.00  0.00     0.034 A 
ATOM     16  C   UNL     1       0.272  -2.311   1.600  1.00  0.00     0.034 A 
ATOM     17  C   UNL     1      -2.280  -1.548   2.381  1.00  0.00     0.043 A 
ATOM     18  C   UNL     1      -0.731  -3.254   1.709  1.00  0.00     0.043 A 
ATOM     19  C   UNL     1      -2.003  -2.875   2.099  1.00  0.00     0.041 A 
ATOM     20  Cl  UNL     1      -3.880  -1.081   2.870  1.00  0.00    -0.084 Cl
ATOM     21  Cl  UNL     1      -0.394  -4.921   1.356  1.00  0.00    -0.084 Cl
ENDBRANCH   7  14
TORSDOF 3
ENDMDL
MODEL 3
REMARK VINA RESULT:    -4.520     14.715     15.285
REMARK INTER + INTRA:          -5.470
REMARK INTER:                  -5.176
REMARK INTRA:                  -0.294
REMARK UNBOUND:                -0.289
REMARK SMILES O=C(O)c1ccc2nc(-c3cc(Cl)cc(Cl)c3)oc2c1
REMARK SMILES IDX 5 1 6 2 20 3 8 4 18 5 4 6 9 7 7 8 19 9 2 10 1 11 3 12 10 14
REMARK SMILES IDX 11 15 17 16 12 17 15 18 14 19 13 20 16 21
REMARK H PARENT 3 13
ROOT
ATOM      1  C   UNL     1      -4.169  12.043 -10.255  1.00  0.00     0.018 A 
ATOM      2  C   UNL     1      -3.481  11.116  -9.531  1.00  0.00     0.033 A 
ATOM      3  C   UNL     1      -5.895  10.412 -10.746  1.00  0.00     0.065 A 
ATOM      4  N   UNL     1      -3.540   8.710  -8.763  1.00  0.00    -0.209 NA
ATOM      5  O   UNL     1      -5.419   8.168  -9.717  1.00  0.00    -0.436 OA
ATOM      6  C   UNL     1      -5.383  11.705 -10.869  1.00  0.00     0.063 A 
ATOM      7  C   UNL     1      -4.396   7.737  -8.955  1.00  0.00     0.227 A 
ATOM      8  C   UNL     1      -3.983   9.816  -9.399  1.00  0.00     0.110 A 
ATOM      9  C   UNL     1      -5.197   9.468 -10.016  1.00  0.00     0.156 A 
ENDROOT
BRANCH   6  10
ATOM     10  C   UNL     1      -6.122  12.718 -11.645  1.00  0.00     0.335 C 
ATOM     11  O   UNL     1      -5.730  13.867 -11.672  1.00  0.00    -0.246 OA
BRANCH  10  12
ATOM     12  O   UNL     1      -7.232  12.369 -12.324  1.00  0.00    -0.478 OA
ATOM     13  H   UNL     1      -7.114  11.804 -13.100  1.00  0.00     0.297 HD
ENDBRANCH  10  12
ENDBRANCH   6  10
BRANCH   7  14
ATOM     14  C   UNL     1      -4.258   6.369  -8.415  1.00  0.00     0.040 A 
ATOM     15  C   UNL     1      -3.720   6.168  -7.144  1.00  0.00     0.034 A 
ATOM     16  C   UNL     1      -4.665   5.271  -9.176  1.00  0.00     0.034 A 
ATOM     17  C   UNL     1      -3.594   4.886  -6.645  1.00  0.00     0.043 A 
ATOM     18  C   UNL     1      -4.535   3.995  -8.666  1.00  0.00     0.043 A 
ATOM     19  C   UNL     1      -4.000   3.802  -7.404  1.00  0.00     0.041 A 
ATOM     20  Cl  UNL     1      -2.926   4.634  -5.063  1.00  0.00    -0.084 Cl
ATOM     21  Cl  UNL     1      -5.041   2.629  -9.611  1.00  0.00    -0.084 Cl
ENDBRANCH   7  14
TORSDOF 3
ENDMDL
MODEL 4
REMARK VINA RESULT:    -4.517     14.702     15.233
REMARK INTER + INTRA:          -5.466
REMARK INTER:                  -5.172
REMARK INTRA:                  -0.294
REMARK UNBOUND:                -0.289
REMARK SMILES O=C(O)c1ccc2nc(-c3cc(Cl)cc(Cl)c3)oc2c1
REMARK SMILES IDX 5 1 6 2 20 3 8 4 18 5 4 6 9 7 7 8 19 9 2 10 1 11 3 12 10 14
REMARK SMILES IDX 11 15 17 16 12 17 15 18 14 19 13 20 16 21
REMARK H PARENT 3 13
ROOT
ATOM      1  C   UNL     1      -4.173  12.016 -10.227  1.00  0.00     0.018 A 
ATOM      2  C   UNL     1      -3.491  11.087  -9.501  1.00  0.00     0.033 A 
ATOM      3  C   UNL     1      -5.891  10.385 -10.746  1.00  0.00     0.065 A 
ATOM      4  N   UNL     1      -3.554   8.676  -8.748  1.00  0.00    -0.209 NA
ATOM      5  O   UNL     1      -5.422   8.136  -9.724  1.00  0.00    -0.436 OA
ATOM      6  C   UNL     1      -5.380  11.680 -10.856  1.00  0.00     0.063 A 
ATOM      7  C   UNL     1      -4.406   7.703  -8.954  1.00  0.00     0.227 A 
ATOM      8  C   UNL     1      -3.992   9.785  -9.382  1.00  0.00     0.110 A 
ATOM      9  C   UNL     1      -5.199   9.438 -10.014  1.00  0.00     0.156 A 
ENDROOT
BRANCH   6  10
ATOM     10  C   UNL     1      -6.112  12.696 -11.634  1.00  0.00     0.335 C 
ATOM     11  O   UNL     1      -5.742  13.853 -11.622  1.00  0.00    -0.246 OA
BRANCH  10  12
ATOM     12  O   UNL     1      -7.192  12.341 -12.358  1.00  0.00    -0.478 OA
ATOM     13  H   UNL     1      -8.021  12.214 -11.877  1.00  0.00     0.297 HD
ENDBRANCH  10  12
ENDBRANCH   6  10
BRANCH   7  14
ATOM     14  C   UNL     1      -4.272   6.332  -8.420  1.00  0.00     0.040 A 
ATOM     15  C   UNL     1      -4.668   5.237  -9.190  1.00  0.00     0.034 A 
ATOM     16  C   UNL     1      -3.748   6.126  -7.143  1.00  0.00     0.034 A 
ATOM     17  C   UNL     1      -4.539   3.958  -8.686  1.00  0.00     0.043 A 
ATOM     18  C   UNL     1      -3.623   4.842  -6.650  1.00  0.00     0.043 A 
ATOM     19  C   UNL     1      -4.019   3.761  -7.419  1.00  0.00     0.041 A 
ATOM     20  Cl  UNL     1      -5.031   2.596  -9.643  1.00  0.00    -0.084 Cl
ATOM     21  Cl  UNL     1      -2.972   4.584  -5.061  1.00  0.00    -0.084 Cl
ENDBRANCH   7  14
TORSDOF 3
ENDMDL
MODEL 5
REMARK VINA RESULT:    -4.433     14.896     16.170
REMARK INTER + INTRA:          -5.370
REMARK INTER:                  -5.078
REMARK INTRA:                  -0.293
REMARK UNBOUND:                -0.289
REMARK SMILES O=C(O)c1ccc2nc(-c3cc(Cl)cc(Cl)c3)oc2c1
REMARK SMILES IDX 5 1 6 2 20 3 8 4 18 5 4 6 9 7 7 8 19 9 2 10 1 11 3 12 10 14
REMARK SMILES IDX 11 15 17 16 12 17 15 18 14 19 13 20 16 21
REMARK H PARENT 3 13
ROOT
ATOM      1  C   UNL     1      -8.018   1.127 -12.716  1.00  0.00     0.018 A 
ATOM      2  C   UNL     1      -7.558   1.169 -11.433  1.00  0.00     0.033 A 
ATOM      3  C   UNL     1      -6.820   3.170 -13.237  1.00  0.00     0.065 A 
ATOM      4  N   UNL     1      -6.122   2.518  -9.851  1.00  0.00    -0.209 NA
ATOM      5  O   UNL     1      -5.556   4.075 -11.261  1.00  0.00    -0.436 OA
ATOM      6  C   UNL     1      -7.654   2.123 -13.633  1.00  0.00     0.063 A 
ATOM      7  C   UNL     1      -5.433   3.622  -9.999  1.00  0.00     0.227 A 
ATOM      8  C   UNL     1      -6.720   2.214 -11.023  1.00  0.00     0.110 A 
ATOM      9  C   UNL     1      -6.355   3.219 -11.936  1.00  0.00     0.156 A 
ENDROOT
BRANCH   6  10
ATOM     10  C   UNL     1      -8.153   2.064 -15.019  1.00  0.00     0.335 C 
ATOM     11  O   UNL     1      -8.645   1.038 -15.444  1.00  0.00    -0.246 OA
BRANCH  10  12
ATOM     12  O   UNL     1      -8.063   3.148 -15.815  1.00  0.00    -0.478 OA
ATOM     13  H   UNL     1      -8.650   3.889 -15.617  1.00  0.00     0.297 HD
ENDBRANCH  10  12
ENDBRANCH   6  10
BRANCH   7  14
ATOM     14  C   UNL     1      -4.640   4.274  -8.937  1.00  0.00     0.040 A 
ATOM     15  C   UNL     1      -4.681   5.660  -8.782  1.00  0.00     0.034 A 
ATOM     16  C   UNL     1      -3.845   3.505  -8.085  1.00  0.00     0.034 A 
ATOM     17  C   UNL     1      -3.937   6.263  -7.787  1.00  0.00     0.043 A 
ATOM     18  C   UNL     1      -3.106   4.119  -7.094  1.00  0.00     0.043 A 
ATOM     19  C   UNL     1      -3.151   5.494  -6.945  1.00  0.00     0.041 A 
ATOM     20  Cl  UNL     1      -3.987   7.987  -7.591  1.00  0.00    -0.084 Cl
ATOM     21  Cl  UNL     1      -2.117   3.164  -6.033  1.00  0.00    -0.084 Cl
ENDBRANCH   7  14
TORSDOF 3
ENDMDL
MODEL 6
REMARK VINA RESULT:    -4.427     14.893     16.073
REMARK INTER + INTRA:          -5.363
REMARK INTER:                  -5.071
REMARK INTRA:                  -0.292
REMARK UNBOUND:                -0.289
REMARK SMILES O=C(O)c1ccc2nc(-c3cc(Cl)cc(Cl)c3)oc2c1
REMARK SMILES IDX 5 1 6 2 20 3 8 4 18 5 4 6 9 7 7 8 19 9 2 10 1 11 3 12 10 14
REMARK SMILES IDX 11 15 17 16 12 17 15 18 14 19 13 20 16 21
REMARK H PARENT 3 13
ROOT
ATOM      1  C   UNL     1      -8.006   1.096 -12.713  1.00  0.00     0.018 A 
ATOM      2  C   UNL     1      -7.553   1.146 -11.429  1.00  0.00     0.033 A 
ATOM      3  C   UNL     1      -6.811   3.139 -13.240  1.00  0.00     0.065 A 
ATOM      4  N   UNL     1      -6.128   2.507  -9.847  1.00  0.00    -0.209 NA
ATOM      5  O   UNL     1      -5.559   4.058 -11.263  1.00  0.00    -0.436 OA
ATOM      6  C   UNL     1      -7.641   2.088 -13.634  1.00  0.00     0.063 A 
ATOM      7  C   UNL     1      -5.441   3.612  -9.998  1.00  0.00     0.227 A 
ATOM      8  C   UNL     1      -6.720   2.195 -11.020  1.00  0.00     0.110 A 
ATOM      9  C   UNL     1      -6.353   3.196 -11.937  1.00  0.00     0.156 A 
ENDROOT
BRANCH   6  10
ATOM     10  C   UNL     1      -8.133   2.020 -15.022  1.00  0.00     0.335 C 
ATOM     11  O   UNL     1      -8.597   0.983 -15.452  1.00  0.00    -0.246 OA
BRANCH  10  12
ATOM     12  O   UNL     1      -8.067   3.108 -15.815  1.00  0.00    -0.478 OA
ATOM     13  H   UNL     1      -8.333   2.996 -16.737  1.00  0.00     0.297 HD
ENDBRANCH  10  12
ENDBRANCH   6  10
BRANCH   7  14
ATOM     14  C   UNL     1      -4.653   4.271  -8.936  1.00  0.00     0.040 A 
ATOM     15  C   UNL     1      -3.868   3.509  -8.070  1.00  0.00     0.034 A 
ATOM     16  C   UNL     1      -4.694   5.660  -8.793  1.00  0.00     0.034 A 
ATOM     17  C   UNL     1      -3.133   4.132  -7.080  1.00  0.00     0.043 A 
ATOM     18  C   UNL     1      -3.956   6.270  -7.800  1.00  0.00     0.043 A 
ATOM     19  C   UNL     1      -3.178   5.509  -6.944  1.00  0.00     0.041 A 
ATOM     20  Cl  UNL     1      -2.154   3.186  -6.003  1.00  0.00    -0.084 Cl
ATOM     21  Cl  UNL     1      -4.004   7.997  -7.621  1.00  0.00    -0.084 Cl
ENDBRANCH   7  14
TORSDOF 3
ENDMDL
MODEL 7
REMARK VINA RESULT:    -4.097     10.978     11.479
REMARK INTER + INTRA:          -4.985
REMARK INTER:                  -4.689
REMARK INTRA:                  -0.296
REMARK UNBOUND:                -0.289
REMARK SMILES O=C(O)c1ccc2nc(-c3cc(Cl)cc(Cl)c3)oc2c1
REMARK SMILES IDX 5 1 6 2 20 3 8 4 18 5 4 6 9 7 7 8 19 9 2 10 1 11 3 12 10 14
REMARK SMILES IDX 11 15 17 16 12 17 15 18 14 19 13 20 16 21
REMARK H PARENT 3 13
ROOT
ATOM      1  C   UNL     1      -5.115   5.726  -9.713  1.00  0.00     0.018 A 
ATOM      2  C   UNL     1      -4.594   4.596  -9.157  1.00  0.00     0.033 A 
ATOM      3  C   UNL     1      -4.315   7.044  -7.840  1.00  0.00     0.065 A 
ATOM      4  N   UNL     1      -3.317   3.742  -7.152  1.00  0.00    -0.209 NA
ATOM      5  O   UNL     1      -3.109   5.651  -6.130  1.00  0.00    -0.436 OA
ATOM      6  C   UNL     1      -4.981   6.962  -9.064  1.00  0.00     0.063 A 
ATOM      7  C   UNL     1      -2.836   4.333  -6.087  1.00  0.00     0.227 A 
ATOM      8  C   UNL     1      -3.923   4.664  -7.930  1.00  0.00     0.110 A 
ATOM      9  C   UNL     1      -3.790   5.899  -7.271  1.00  0.00     0.156 A 
ENDROOT
BRANCH   6  10
ATOM     10  C   UNL     1      -5.544   8.179  -9.678  1.00  0.00     0.335 C 
ATOM     11  O   UNL     1      -5.479   9.241  -9.091  1.00  0.00    -0.246 OA
BRANCH  10  12
ATOM     12  O   UNL     1      -6.133   8.114 -10.888  1.00  0.00    -0.478 OA
ATOM     13  H   UNL     1      -6.275   7.233 -11.260  1.00  0.00     0.297 HD
ENDBRANCH  10  12
ENDBRANCH   6  10
BRANCH   7  14
ATOM     14  C   UNL     1      -2.103   3.654  -4.998  1.00  0.00     0.040 A 
ATOM     15  C   UNL     1      -1.396   2.479  -5.256  1.00  0.00     0.034 A 
ATOM     16  C   UNL     1      -2.116   4.185  -3.707  1.00  0.00     0.034 A 
ATOM     17  C   UNL     1      -0.713   1.849  -4.235  1.00  0.00     0.043 A 
ATOM     18  C   UNL     1      -1.428   3.547  -2.694  1.00  0.00     0.043 A 
ATOM     19  C   UNL     1      -0.729   2.381  -2.957  1.00  0.00     0.041 A 
ATOM     20  Cl  UNL     1       0.168   0.388  -4.553  1.00  0.00    -0.084 Cl
ATOM     21  Cl  UNL     1      -1.443   4.206  -1.088  1.00  0.00    -0.084 Cl
ENDBRANCH   7  14
TORSDOF 3
ENDMDL
MODEL 8
REMARK VINA RESULT:    -4.079     11.110     11.855
REMARK INTER + INTRA:          -4.964
REMARK INTER:                  -4.668
REMARK INTRA:                  -0.296
REMARK UNBOUND:                -0.289
REMARK SMILES O=C(O)c1ccc2nc(-c3cc(Cl)cc(Cl)c3)oc2c1
REMARK SMILES IDX 5 1 6 2 20 3 8 4 18 5 4 6 9 7 7 8 19 9 2 10 1 11 3 12 10 14
REMARK SMILES IDX 11 15 17 16 12 17 15 18 14 19 13 20 16 21
REMARK H PARENT 3 13
ROOT
ATOM      1  C   UNL     1      -5.035   5.692  -9.819  1.00  0.00     0.018 A 
ATOM      2  C   UNL     1      -4.524   6.037  -8.603  1.00  0.00     0.033 A 
ATOM      3  C   UNL     1      -4.566   3.354  -9.378  1.00  0.00     0.065 A 
ATOM      4  N   UNL     1      -3.467   5.081  -6.517  1.00  0.00    -0.209 NA
ATOM      5  O   UNL     1      -3.498   2.994  -7.130  1.00  0.00    -0.436 OA
ATOM      6  C   UNL     1      -5.064   4.349 -10.221  1.00  0.00     0.063 A 
ATOM      7  C   UNL     1      -3.160   3.860  -6.157  1.00  0.00     0.227 A 
ATOM      8  C   UNL     1      -4.021   5.049  -7.748  1.00  0.00     0.110 A 
ATOM      9  C   UNL     1      -4.042   3.700  -8.146  1.00  0.00     0.156 A 
ENDROOT
BRANCH   6  10
ATOM     10  C   UNL     1      -5.624   3.986 -11.535  1.00  0.00     0.335 C 
ATOM     11  O   UNL     1      -5.614   2.828 -11.901  1.00  0.00    -0.246 OA
BRANCH  10  12
ATOM     12  O   UNL     1      -6.146   4.940 -12.332  1.00  0.00    -0.478 OA
ATOM     13  H   UNL     1      -6.451   5.751 -11.904  1.00  0.00     0.297 HD
ENDBRANCH  10  12
ENDBRANCH   6  10
BRANCH   7  14
ATOM     14  C   UNL     1      -2.533   3.489  -4.871  1.00  0.00     0.040 A 
ATOM     15  C   UNL     1      -1.726   2.354  -4.786  1.00  0.00     0.034 A 
ATOM     16  C   UNL     1      -2.748   4.273  -3.735  1.00  0.00     0.034 A 
ATOM     17  C   UNL     1      -1.143   2.014  -3.582  1.00  0.00     0.043 A 
ATOM     18  C   UNL     1      -2.160   3.922  -2.537  1.00  0.00     0.043 A 
ATOM     19  C   UNL     1      -1.360   2.795  -2.459  1.00  0.00     0.041 A 
ATOM     20  Cl  UNL     1      -0.138   0.603  -3.474  1.00  0.00    -0.084 Cl
ATOM     21  Cl  UNL     1      -2.425   4.895  -1.124  1.00  0.00    -0.084 Cl
ENDBRANCH   7  14
TORSDOF 3
ENDMDL
MODEL 9
REMARK VINA RESULT:    -4.078     11.111     12.021
REMARK INTER + INTRA:          -4.963
REMARK INTER:                  -4.668
REMARK INTRA:                  -0.296
REMARK UNBOUND:                -0.289
REMARK SMILES O=C(O)c1ccc2nc(-c3cc(Cl)cc(Cl)c3)oc2c1
REMARK SMILES IDX 5 1 6 2 20 3 8 4 18 5 4 6 9 7 7 8 19 9 2 10 1 11 3 12 10 14
REMARK SMILES IDX 11 15 17 16 12 17 15 18 14 19 13 20 16 21
REMARK H PARENT 3 13
ROOT
ATOM      1  C   UNL     1      -5.037   5.688  -9.821  1.00  0.00     0.018 A 
ATOM      2  C   UNL     1      -4.526   6.035  -8.606  1.00  0.00     0.033 A 
ATOM      3  C   UNL     1      -4.567   3.351  -9.378  1.00  0.00     0.065 A 
ATOM      4  N   UNL     1      -3.469   5.081  -6.519  1.00  0.00    -0.209 NA
ATOM      5  O   UNL     1      -3.500   2.993  -7.130  1.00  0.00    -0.436 OA
ATOM      6  C   UNL     1      -5.066   4.345 -10.222  1.00  0.00     0.063 A 
ATOM      7  C   UNL     1      -3.162   3.860  -6.157  1.00  0.00     0.227 A 
ATOM      8  C   UNL     1      -4.023   5.047  -7.750  1.00  0.00     0.110 A 
ATOM      9  C   UNL     1      -4.044   3.698  -8.147  1.00  0.00     0.156 A 
ENDROOT
BRANCH   6  10
ATOM     10  C   UNL     1      -5.626   3.982 -11.536  1.00  0.00     0.335 C 
ATOM     11  O   UNL     1      -5.624   2.822 -11.897  1.00  0.00    -0.246 OA
BRANCH  10  12
ATOM     12  O   UNL     1      -6.139   4.936 -12.338  1.00  0.00    -0.478 OA
ATOM     13  H   UNL     1      -6.632   5.650 -11.911  1.00  0.00     0.297 HD
ENDBRANCH  10  12
ENDBRANCH   6  10
BRANCH   7  14
ATOM     14  C   UNL     1      -2.535   3.490  -4.871  1.00  0.00     0.040 A 
ATOM     15  C   UNL     1      -2.750   4.272  -3.736  1.00  0.00     0.034 A 
ATOM     16  C   UNL     1      -1.724   2.356  -4.788  1.00  0.00     0.034 A 
ATOM     17  C   UNL     1      -2.163   3.920  -2.537  1.00  0.00     0.043 A 
ATOM     18  C   UNL     1      -1.143   2.014  -3.583  1.00  0.00     0.043 A 
ATOM     19  C   UNL     1      -1.360   2.795  -2.461  1.00  0.00     0.041 A 
ATOM     20  Cl  UNL     1      -2.429   4.891  -1.123  1.00  0.00    -0.084 Cl
ATOM     21  Cl  UNL     1      -0.134   0.605  -3.477  1.00  0.00    -0.084 Cl
ENDBRANCH   7  14
TORSDOF 3
ENDMDL
