MODEL 1
REMARK VINA RESULT:    -5.804      0.000      0.000
REMARK INTER + INTRA:          -8.501
REMARK INTER:                  -8.009
REMARK INTRA:                  -0.492
REMARK UNBOUND:                -0.492
REMARK SMILES Cc1n[nH]c(C)c1CCCOc1cc(C(=O)O)ccc1F
REMARK SMILES IDX 11 1 12 2 14 3 18 4 13 5 19 6 20 7 21 8 15 9 16 10 17 11
REMARK SMILES IDX 10 13 9 14 8 15 7 16 5 17 2 18 4 19 3 20 6 21 1 22
REMARK H PARENT 17 12 4 23
ROOT
ATOM      1  O   UNL     1      -4.467   3.204  -4.062  1.00  0.00    -0.490 OA
ENDROOT
BRANCH   1   2
ATOM      2  C   UNL     1      -3.180   2.983  -3.682  1.00  0.00     0.155 A 
ATOM      3  C   UNL     1      -1.062   1.895  -4.018  1.00  0.00     0.063 A 
ATOM      4  C   UNL     1      -0.550   2.554  -2.897  1.00  0.00     0.019 A 
ATOM      5  C   UNL     1      -2.385   2.115  -4.407  1.00  0.00     0.065 A 
ATOM      6  C   UNL     1      -1.349   3.422  -2.183  1.00  0.00     0.044 A 
ATOM      7  C   UNL     1      -2.659   3.643  -2.575  1.00  0.00     0.165 A 
ATOM      8  F   UNL     1      -3.437   4.495  -1.871  1.00  0.00    -0.203 F 
BRANCH   3   9
ATOM      9  C   UNL     1      -0.210   0.965  -4.784  1.00  0.00     0.335 C 
ATOM     10  O   UNL     1      -0.715   0.156  -5.534  1.00  0.00    -0.246 OA
BRANCH   9  11
ATOM     11  O   UNL     1       1.131   1.019  -4.656  1.00  0.00    -0.478 OA
ATOM     12  H   UNL     1       1.646   1.118  -5.468  1.00  0.00     0.297 HD
ENDBRANCH   9  11
ENDBRANCH   3   9
ENDBRANCH   1   2
BRANCH   1  13
ATOM     13  C   UNL     1      -4.798   4.526  -4.493  1.00  0.00     0.230 C 
BRANCH  13  14
ATOM     14  C   UNL     1      -5.188   4.497  -5.972  1.00  0.00     0.046 C 
BRANCH  14  15
ATOM     15  C   UNL     1      -3.973   4.861  -6.827  1.00  0.00     0.043 C 
BRANCH  15  16
ATOM     16  C   UNL     1      -4.436   5.386  -8.161  1.00  0.00    -0.004 A 
ATOM     17  C   UNL     1      -4.785   4.638  -9.234  1.00  0.00     0.036 A 
ATOM     18  C   UNL     1      -4.589   6.733  -8.508  1.00  0.00     0.063 A 
ATOM     19  N   UNL     1      -5.138   5.482 -10.227  1.00  0.00    -0.282 N 
ATOM     20  N   UNL     1      -5.003   6.792  -9.748  1.00  0.00    -0.181 NA
ATOM     21  C   UNL     1      -4.779   3.134  -9.308  1.00  0.00     0.066 C 
ATOM     22  C   UNL     1      -4.312   7.913  -7.612  1.00  0.00     0.069 C 
ATOM     23  H   UNL     1      -5.433   5.227 -11.114  1.00  0.00     0.190 HD
ENDBRANCH  15  16
ENDBRANCH  14  15
ENDBRANCH  13  14
ENDBRANCH   1  13
TORSDOF 7
ENDMDL
MODEL 2
REMARK VINA RESULT:    -5.740      2.288      3.908
REMARK INTER + INTRA:          -8.413
REMARK INTER:                  -7.810
REMARK INTRA:                  -0.603
REMARK UNBOUND:                -0.492
REMARK SMILES Cc1n[nH]c(C)c1CCCOc1cc(C(=O)O)ccc1F
REMARK SMILES IDX 11 1 12 2 14 3 18 4 13 5 19 6 20 7 21 8 15 9 16 10 17 11
REMARK SMILES IDX 10 13 9 14 8 15 7 16 5 17 2 18 4 19 3 20 6 21 1 22
REMARK H PARENT 17 12 4 23
ROOT
ATOM      1  O   UNL     1      -0.321   3.935  -6.058  1.00  0.00    -0.490 OA
ENDROOT
BRANCH   1   2
ATOM      2  C   UNL     1      -0.667   3.474  -4.826  1.00  0.00     0.155 A 
ATOM      3  C   UNL     1      -1.742   3.803  -2.701  1.00  0.00     0.063 A 
ATOM      4  C   UNL     1      -1.372   2.511  -2.318  1.00  0.00     0.019 A 
ATOM      5  C   UNL     1      -1.384   4.281  -3.963  1.00  0.00     0.065 A 
ATOM      6  C   UNL     1      -0.661   1.712  -3.188  1.00  0.00     0.044 A 
ATOM      7  C   UNL     1      -0.311   2.186  -4.441  1.00  0.00     0.165 A 
ATOM      8  F   UNL     1       0.385   1.398  -5.289  1.00  0.00    -0.203 F 
BRANCH   3   9
ATOM      9  C   UNL     1      -2.503   4.662  -1.772  1.00  0.00     0.335 C 
ATOM     10  O   UNL     1      -2.503   5.867  -1.920  1.00  0.00    -0.246 OA
BRANCH   9  11
ATOM     11  O   UNL     1      -3.205   4.107  -0.765  1.00  0.00    -0.478 OA
ATOM     12  H   UNL     1      -3.480   3.186  -0.876  1.00  0.00     0.297 HD
ENDBRANCH   9  11
ENDBRANCH   3   9
ENDBRANCH   1   2
BRANCH   1  13
ATOM     13  C   UNL     1      -1.046   3.410  -7.173  1.00  0.00     0.230 C 
BRANCH  13  14
ATOM     14  C   UNL     1      -1.873   4.526  -7.813  1.00  0.00     0.046 C 
BRANCH  14  15
ATOM     15  C   UNL     1      -3.350   4.328  -7.467  1.00  0.00     0.043 C 
BRANCH  15  16
ATOM     16  C   UNL     1      -4.206   4.870  -8.583  1.00  0.00    -0.004 A 
ATOM     17  C   UNL     1      -4.550   6.166  -8.765  1.00  0.00     0.036 A 
ATOM     18  C   UNL     1      -4.778   4.123  -9.618  1.00  0.00     0.063 A 
ATOM     19  N   UNL     1      -5.319   6.236  -9.872  1.00  0.00    -0.282 N 
ATOM     20  N   UNL     1      -5.452   4.940 -10.387  1.00  0.00    -0.181 NA
ATOM     21  C   UNL     1      -4.148   7.323  -7.889  1.00  0.00     0.066 C 
ATOM     22  C   UNL     1      -4.651   2.633  -9.808  1.00  0.00     0.069 C 
ATOM     23  H   UNL     1      -5.712   7.041 -10.244  1.00  0.00     0.190 HD
ENDBRANCH  15  16
ENDBRANCH  14  15
ENDBRANCH  13  14
ENDBRANCH   1  13
TORSDOF 7
ENDMDL
MODEL 3
REMARK VINA RESULT:    -5.691      2.334      3.510
REMARK INTER + INTRA:          -8.345
REMARK INTER:                  -7.804
REMARK INTRA:                  -0.541
REMARK UNBOUND:                -0.492
REMARK SMILES Cc1n[nH]c(C)c1CCCOc1cc(C(=O)O)ccc1F
REMARK SMILES IDX 11 1 12 2 14 3 18 4 13 5 19 6 20 7 21 8 15 9 16 10 17 11
REMARK SMILES IDX 10 13 9 14 8 15 7 16 5 17 2 18 4 19 3 20 6 21 1 22
REMARK H PARENT 17 12 4 23
ROOT
ATOM      1  O   UNL     1      -0.326   4.032  -6.095  1.00  0.00    -0.490 OA
ENDROOT
BRANCH   1   2
ATOM      2  C   UNL     1      -0.677   3.549  -4.874  1.00  0.00     0.155 A 
ATOM      3  C   UNL     1      -1.738   3.849  -2.737  1.00  0.00     0.063 A 
ATOM      4  C   UNL     1      -1.393   2.541  -2.386  1.00  0.00     0.019 A 
ATOM      5  C   UNL     1      -1.374   4.350  -3.988  1.00  0.00     0.065 A 
ATOM      6  C   UNL     1      -0.703   1.748  -3.278  1.00  0.00     0.044 A 
ATOM      7  C   UNL     1      -0.348   2.245  -4.521  1.00  0.00     0.165 A 
ATOM      8  F   UNL     1       0.329   1.463  -5.391  1.00  0.00    -0.203 F 
BRANCH   3   9
ATOM      9  C   UNL     1      -2.477   4.700  -1.784  1.00  0.00     0.335 C 
ATOM     10  O   UNL     1      -2.488   5.906  -1.928  1.00  0.00    -0.246 OA
BRANCH   9  11
ATOM     11  O   UNL     1      -3.147   4.139  -0.759  1.00  0.00    -0.478 OA
ATOM     12  H   UNL     1      -3.031   3.187  -0.627  1.00  0.00     0.297 HD
ENDBRANCH   9  11
ENDBRANCH   3   9
ENDBRANCH   1   2
BRANCH   1  13
ATOM     13  C   UNL     1      -1.001   3.482  -7.229  1.00  0.00     0.230 C 
BRANCH  13  14
ATOM     14  C   UNL     1      -1.891   4.553  -7.861  1.00  0.00     0.046 C 
BRANCH  14  15
ATOM     15  C   UNL     1      -3.360   4.227  -7.579  1.00  0.00     0.043 C 
BRANCH  15  16
ATOM     16  C   UNL     1      -4.212   4.716  -8.722  1.00  0.00    -0.004 A 
ATOM     17  C   UNL     1      -4.738   3.951  -9.707  1.00  0.00     0.036 A 
ATOM     18  C   UNL     1      -4.603   6.039  -8.950  1.00  0.00     0.063 A 
ATOM     19  N   UNL     1      -5.433   4.763 -10.532  1.00  0.00    -0.282 N 
ATOM     20  N   UNL     1      -5.329   6.070 -10.038  1.00  0.00    -0.181 NA
ATOM     21  C   UNL     1      -4.578   2.461  -9.855  1.00  0.00     0.066 C 
ATOM     22  C   UNL     1      -4.241   7.228  -8.096  1.00  0.00     0.069 C 
ATOM     23  H   UNL     1      -5.917   4.490 -11.326  1.00  0.00     0.190 HD
ENDBRANCH  15  16
ENDBRANCH  14  15
ENDBRANCH  13  14
ENDBRANCH   1  13
TORSDOF 7
ENDMDL
MODEL 4
REMARK VINA RESULT:    -4.748      3.779      6.500
REMARK INTER + INTRA:          -7.043
REMARK INTER:                  -6.163
REMARK INTRA:                  -0.880
REMARK UNBOUND:                -0.492
REMARK SMILES Cc1n[nH]c(C)c1CCCOc1cc(C(=O)O)ccc1F
REMARK SMILES IDX 11 1 12 2 14 3 18 4 13 5 19 6 20 7 21 8 15 9 16 10 17 11
REMARK SMILES IDX 10 13 9 14 8 15 7 16 5 17 2 18 4 19 3 20 6 21 1 22
REMARK H PARENT 17 12 4 23
ROOT
ATOM      1  O   UNL     1      -3.391   5.263  -5.768  1.00  0.00    -0.490 OA
ENDROOT
BRANCH   1   2
ATOM      2  C   UNL     1      -3.884   5.314  -7.035  1.00  0.00     0.155 A 
ATOM      3  C   UNL     1      -4.650   4.200  -9.023  1.00  0.00     0.063 A 
ATOM      4  C   UNL     1      -4.901   5.440  -9.617  1.00  0.00     0.019 A 
ATOM      5  C   UNL     1      -4.139   4.143  -7.725  1.00  0.00     0.065 A 
ATOM      6  C   UNL     1      -4.649   6.602  -8.918  1.00  0.00     0.044 A 
ATOM      7  C   UNL     1      -4.147   6.543  -7.629  1.00  0.00     0.165 A 
ATOM      8  F   UNL     1      -3.903   7.686  -6.949  1.00  0.00    -0.203 F 
BRANCH   3   9
ATOM      9  C   UNL     1      -4.918   2.954  -9.768  1.00  0.00     0.335 C 
ATOM     10  O   UNL     1      -4.073   2.495 -10.509  1.00  0.00    -0.246 OA
BRANCH   9  11
ATOM     11  O   UNL     1      -6.099   2.322  -9.620  1.00  0.00    -0.478 OA
ATOM     12  H   UNL     1      -6.261   1.887  -8.772  1.00  0.00     0.297 HD
ENDBRANCH   9  11
ENDBRANCH   3   9
ENDBRANCH   1   2
BRANCH   1  13
ATOM     13  C   UNL     1      -3.816   4.170  -4.950  1.00  0.00     0.230 C 
BRANCH  13  14
ATOM     14  C   UNL     1      -2.965   4.124  -3.680  1.00  0.00     0.046 C 
BRANCH  14  15
ATOM     15  C   UNL     1      -1.504   4.410  -4.033  1.00  0.00     0.043 C 
BRANCH  15  16
ATOM     16  C   UNL     1      -0.804   3.116  -4.362  1.00  0.00    -0.004 A 
ATOM     17  C   UNL     1      -0.354   2.742  -5.582  1.00  0.00     0.036 A 
ATOM     18  C   UNL     1      -0.499   2.093  -3.458  1.00  0.00     0.063 A 
ATOM     19  N   UNL     1       0.210   1.522  -5.456  1.00  0.00    -0.282 N 
ATOM     20  N   UNL     1       0.102   1.134  -4.114  1.00  0.00    -0.181 NA
ATOM     21  C   UNL     1      -0.462   3.544  -6.853  1.00  0.00     0.066 C 
ATOM     22  C   UNL     1      -0.820   2.090  -1.985  1.00  0.00     0.069 C 
ATOM     23  H   UNL     1       0.617   1.006  -6.169  1.00  0.00     0.190 HD
ENDBRANCH  15  16
ENDBRANCH  14  15
ENDBRANCH  13  14
ENDBRANCH   1  13
TORSDOF 7
ENDMDL
MODEL 5
REMARK VINA RESULT:    -4.566      3.950      7.012
REMARK INTER + INTRA:          -6.792
REMARK INTER:                  -5.962
REMARK INTRA:                  -0.831
REMARK UNBOUND:                -0.492
REMARK SMILES Cc1n[nH]c(C)c1CCCOc1cc(C(=O)O)ccc1F
REMARK SMILES IDX 11 1 12 2 14 3 18 4 13 5 19 6 20 7 21 8 15 9 16 10 17 11
REMARK SMILES IDX 10 13 9 14 8 15 7 16 5 17 2 18 4 19 3 20 6 21 1 22
REMARK H PARENT 17 12 4 23
ROOT
ATOM      1  O   UNL     1      -2.833   3.245  -6.867  1.00  0.00    -0.490 OA
ENDROOT
BRANCH   1   2
ATOM      2  C   UNL     1      -3.523   4.085  -7.684  1.00  0.00     0.155 A 
ATOM      3  C   UNL     1      -4.224   6.306  -8.282  1.00  0.00     0.063 A 
ATOM      4  C   UNL     1      -4.929   5.786  -9.371  1.00  0.00     0.019 A 
ATOM      5  C   UNL     1      -3.519   5.445  -7.438  1.00  0.00     0.065 A 
ATOM      6  C   UNL     1      -4.922   4.428  -9.612  1.00  0.00     0.044 A 
ATOM      7  C   UNL     1      -4.218   3.577  -8.776  1.00  0.00     0.165 A 
ATOM      8  F   UNL     1      -4.215   2.248  -9.018  1.00  0.00    -0.203 F 
BRANCH   3   9
ATOM      9  C   UNL     1      -4.230   7.759  -8.022  1.00  0.00     0.335 C 
ATOM     10  O   UNL     1      -5.082   8.245  -7.307  1.00  0.00    -0.246 OA
BRANCH   9  11
ATOM     11  O   UNL     1      -3.284   8.545  -8.573  1.00  0.00    -0.478 OA
ATOM     12  H   UNL     1      -2.723   9.049  -7.966  1.00  0.00     0.297 HD
ENDBRANCH   9  11
ENDBRANCH   3   9
ENDBRANCH   1   2
BRANCH   1  13
ATOM     13  C   UNL     1      -1.446   3.528  -6.667  1.00  0.00     0.230 C 
BRANCH  13  14
ATOM     14  C   UNL     1      -0.992   2.932  -5.334  1.00  0.00     0.046 C 
BRANCH  14  15
ATOM     15  C   UNL     1      -2.199   2.338  -4.603  1.00  0.00     0.043 C 
BRANCH  15  16
ATOM     16  C   UNL     1      -2.484   3.146  -3.364  1.00  0.00    -0.004 A 
ATOM     17  C   UNL     1      -3.567   3.931  -3.156  1.00  0.00     0.036 A 
ATOM     18  C   UNL     1      -1.679   3.213  -2.221  1.00  0.00     0.063 A 
ATOM     19  N   UNL     1      -3.448   4.480  -1.929  1.00  0.00    -0.282 N 
ATOM     20  N   UNL     1      -2.252   4.017  -1.364  1.00  0.00    -0.181 NA
ATOM     21  C   UNL     1      -4.702   4.152  -4.122  1.00  0.00     0.066 C 
ATOM     22  C   UNL     1      -0.371   2.492  -2.019  1.00  0.00     0.069 C 
ATOM     23  H   UNL     1      -4.078   5.088  -1.512  1.00  0.00     0.190 HD
ENDBRANCH  15  16
ENDBRANCH  14  15
ENDBRANCH  13  14
ENDBRANCH   1  13
TORSDOF 7
ENDMDL
MODEL 6
REMARK VINA RESULT:    -4.498      3.814      6.548
REMARK INTER + INTRA:          -6.699
REMARK INTER:                  -5.942
REMARK INTRA:                  -0.756
REMARK UNBOUND:                -0.492
REMARK SMILES Cc1n[nH]c(C)c1CCCOc1cc(C(=O)O)ccc1F
REMARK SMILES IDX 11 1 12 2 14 3 18 4 13 5 19 6 20 7 21 8 15 9 16 10 17 11
REMARK SMILES IDX 10 13 9 14 8 15 7 16 5 17 2 18 4 19 3 20 6 21 1 22
REMARK H PARENT 17 12 4 23
ROOT
ATOM      1  O   UNL     1      -2.340   4.512  -6.461  1.00  0.00    -0.490 OA
ENDROOT
BRANCH   1   2
ATOM      2  C   UNL     1      -3.224   4.694  -7.478  1.00  0.00     0.155 A 
ATOM      3  C   UNL     1      -4.507   3.814  -9.312  1.00  0.00     0.063 A 
ATOM      4  C   UNL     1      -5.039   5.085  -9.544  1.00  0.00     0.019 A 
ATOM      5  C   UNL     1      -3.594   3.625  -8.272  1.00  0.00     0.065 A 
ATOM      6  C   UNL     1      -4.668   6.145  -8.743  1.00  0.00     0.044 A 
ATOM      7  C   UNL     1      -3.767   5.953  -7.709  1.00  0.00     0.165 A 
ATOM      8  F   UNL     1      -3.408   6.995  -6.928  1.00  0.00    -0.203 F 
BRANCH   3   9
ATOM      9  C   UNL     1      -4.902   2.678 -10.167  1.00  0.00     0.335 C 
ATOM     10  O   UNL     1      -5.236   2.871 -11.318  1.00  0.00    -0.246 OA
BRANCH   9  11
ATOM     11  O   UNL     1      -4.886   1.425  -9.671  1.00  0.00    -0.478 OA
ATOM     12  H   UNL     1      -4.493   0.738 -10.227  1.00  0.00     0.297 HD
ENDBRANCH   9  11
ENDBRANCH   3   9
ENDBRANCH   1   2
BRANCH   1  13
ATOM     13  C   UNL     1      -1.311   3.539  -6.662  1.00  0.00     0.230 C 
BRANCH  13  14
ATOM     14  C   UNL     1      -0.931   2.915  -5.318  1.00  0.00     0.046 C 
BRANCH  14  15
ATOM     15  C   UNL     1      -2.180   2.324  -4.659  1.00  0.00     0.043 C 
BRANCH  15  16
ATOM     16  C   UNL     1      -2.504   3.101  -3.410  1.00  0.00    -0.004 A 
ATOM     17  C   UNL     1      -1.745   3.163  -2.291  1.00  0.00     0.036 A 
ATOM     18  C   UNL     1      -3.639   3.892  -3.203  1.00  0.00     0.063 A 
ATOM     19  N   UNL     1      -2.381   3.959  -1.405  1.00  0.00    -0.282 N 
ATOM     20  N   UNL     1      -3.571   4.401  -2.000  1.00  0.00    -0.181 NA
ATOM     21  C   UNL     1      -0.426   2.468  -2.073  1.00  0.00     0.066 C 
ATOM     22  C   UNL     1      -4.756   4.110  -4.192  1.00  0.00     0.069 C 
ATOM     23  H   UNL     1      -2.071   4.184  -0.515  1.00  0.00     0.190 HD
ENDBRANCH  15  16
ENDBRANCH  14  15
ENDBRANCH  13  14
ENDBRANCH   1  13
TORSDOF 7
ENDMDL
MODEL 7
REMARK VINA RESULT:    -4.459      4.997      7.971
REMARK INTER + INTRA:          -6.645
REMARK INTER:                  -5.983
REMARK INTRA:                  -0.662
REMARK UNBOUND:                -0.492
REMARK SMILES Cc1n[nH]c(C)c1CCCOc1cc(C(=O)O)ccc1F
REMARK SMILES IDX 11 1 12 2 14 3 18 4 13 5 19 6 20 7 21 8 15 9 16 10 17 11
REMARK SMILES IDX 10 13 9 14 8 15 7 16 5 17 2 18 4 19 3 20 6 21 1 22
REMARK H PARENT 17 12 4 23
ROOT
ATOM      1  O   UNL     1      -4.308   3.552  -9.342  1.00  0.00    -0.490 OA
ENDROOT
BRANCH   1   2
ATOM      2  C   UNL     1      -5.171   3.308 -10.364  1.00  0.00     0.155 A 
ATOM      3  C   UNL     1      -6.156   3.947 -12.463  1.00  0.00     0.063 A 
ATOM      4  C   UNL     1      -6.934   2.785 -12.447  1.00  0.00     0.019 A 
ATOM      5  C   UNL     1      -5.272   4.203 -11.412  1.00  0.00     0.065 A 
ATOM      6  C   UNL     1      -6.822   1.895 -11.400  1.00  0.00     0.044 A 
ATOM      7  C   UNL     1      -5.941   2.149 -10.362  1.00  0.00     0.165 A 
ATOM      8  F   UNL     1      -5.836   1.273  -9.339  1.00  0.00    -0.203 F 
BRANCH   3   9
ATOM      9  C   UNL     1      -6.273   4.901 -13.582  1.00  0.00     0.335 C 
ATOM     10  O   UNL     1      -7.065   4.692 -14.479  1.00  0.00    -0.246 OA
BRANCH   9  11
ATOM     11  O   UNL     1      -5.506   6.009 -13.606  1.00  0.00    -0.478 OA
ATOM     12  H   UNL     1      -5.895   6.821 -13.253  1.00  0.00     0.297 HD
ENDBRANCH   9  11
ENDBRANCH   3   9
ENDBRANCH   1   2
BRANCH   1  13
ATOM     13  C   UNL     1      -4.647   4.614  -8.447  1.00  0.00     0.230 C 
BRANCH  13  14
ATOM     14  C   UNL     1      -3.524   4.795  -7.424  1.00  0.00     0.046 C 
BRANCH  14  15
ATOM     15  C   UNL     1      -3.280   3.472  -6.695  1.00  0.00     0.043 C 
BRANCH  15  16
ATOM     16  C   UNL     1      -2.532   3.734  -5.414  1.00  0.00    -0.004 A 
ATOM     17  C   UNL     1      -3.083   3.912  -4.191  1.00  0.00     0.036 A 
ATOM     18  C   UNL     1      -1.143   3.829  -5.277  1.00  0.00     0.063 A 
ATOM     19  N   UNL     1      -2.079   4.120  -3.313  1.00  0.00    -0.282 N 
ATOM     20  N   UNL     1      -0.871   4.067  -4.020  1.00  0.00    -0.181 NA
ATOM     21  C   UNL     1      -4.554   3.884  -3.868  1.00  0.00     0.066 C 
ATOM     22  C   UNL     1      -0.134   3.693  -6.389  1.00  0.00     0.069 C 
ATOM     23  H   UNL     1      -2.177   4.278  -2.361  1.00  0.00     0.190 HD
ENDBRANCH  15  16
ENDBRANCH  14  15
ENDBRANCH  13  14
ENDBRANCH   1  13
TORSDOF 7
ENDMDL
MODEL 8
REMARK VINA RESULT:    -4.455      4.779      8.177
REMARK INTER + INTRA:          -6.639
REMARK INTER:                  -5.987
REMARK INTRA:                  -0.652
REMARK UNBOUND:                -0.492
REMARK SMILES Cc1n[nH]c(C)c1CCCOc1cc(C(=O)O)ccc1F
REMARK SMILES IDX 11 1 12 2 14 3 18 4 13 5 19 6 20 7 21 8 15 9 16 10 17 11
REMARK SMILES IDX 10 13 9 14 8 15 7 16 5 17 2 18 4 19 3 20 6 21 1 22
REMARK H PARENT 17 12 4 23
ROOT
ATOM      1  O   UNL     1      -4.480   6.892  -7.790  1.00  0.00    -0.490 OA
ENDROOT
BRANCH   1   2
ATOM      2  C   UNL     1      -4.672   7.952  -8.621  1.00  0.00     0.155 A 
ATOM      3  C   UNL     1      -5.922   9.038 -10.364  1.00  0.00     0.063 A 
ATOM      4  C   UNL     1      -5.053  10.130 -10.301  1.00  0.00     0.019 A 
ATOM      5  C   UNL     1      -5.725   7.946  -9.516  1.00  0.00     0.065 A 
ATOM      6  C   UNL     1      -4.009  10.130  -9.401  1.00  0.00     0.044 A 
ATOM      7  C   UNL     1      -3.818   9.048  -8.557  1.00  0.00     0.165 A 
ATOM      8  F   UNL     1      -2.794   9.053  -7.677  1.00  0.00    -0.203 F 
BRANCH   3   9
ATOM      9  C   UNL     1      -7.041   9.035 -11.327  1.00  0.00     0.335 C 
ATOM     10  O   UNL     1      -7.258  10.016 -12.009  1.00  0.00    -0.246 OA
BRANCH   9  11
ATOM     11  O   UNL     1      -7.817   7.941 -11.454  1.00  0.00    -0.478 OA
ATOM     12  H   UNL     1      -7.539   7.147 -10.976  1.00  0.00     0.297 HD
ENDBRANCH   9  11
ENDBRANCH   3   9
ENDBRANCH   1   2
BRANCH   1  13
ATOM     13  C   UNL     1      -4.055   5.666  -8.390  1.00  0.00     0.230 C 
BRANCH  13  14
ATOM     14  C   UNL     1      -3.972   4.577  -7.320  1.00  0.00     0.046 C 
BRANCH  14  15
ATOM     15  C   UNL     1      -3.077   5.055  -6.174  1.00  0.00     0.043 C 
BRANCH  15  16
ATOM     16  C   UNL     1      -2.617   3.870  -5.366  1.00  0.00    -0.004 A 
ATOM     17  C   UNL     1      -1.438   3.220  -5.507  1.00  0.00     0.036 A 
ATOM     18  C   UNL     1      -3.329   3.250  -4.334  1.00  0.00     0.063 A 
ATOM     19  N   UNL     1      -1.409   2.220  -4.601  1.00  0.00    -0.282 N 
ATOM     20  N   UNL     1      -2.609   2.257  -3.879  1.00  0.00    -0.181 NA
ATOM     21  C   UNL     1      -0.353   3.553  -6.497  1.00  0.00     0.066 C 
ATOM     22  C   UNL     1      -4.697   3.649  -3.840  1.00  0.00     0.069 C 
ATOM     23  H   UNL     1      -0.685   1.587  -4.472  1.00  0.00     0.190 HD
ENDBRANCH  15  16
ENDBRANCH  14  15
ENDBRANCH  13  14
ENDBRANCH   1  13
TORSDOF 7
ENDMDL
MODEL 9
REMARK VINA RESULT:    -4.382      8.878     11.302
REMARK INTER + INTRA:          -6.539
REMARK INTER:                  -5.974
REMARK INTRA:                  -0.565
REMARK UNBOUND:                -0.492
REMARK SMILES Cc1n[nH]c(C)c1CCCOc1cc(C(=O)O)ccc1F
REMARK SMILES IDX 11 1 12 2 14 3 18 4 13 5 19 6 20 7 21 8 15 9 16 10 17 11
REMARK SMILES IDX 10 13 9 14 8 15 7 16 5 17 2 18 4 19 3 20 6 21 1 22
REMARK H PARENT 17 12 4 23
ROOT
ATOM      1  O   UNL     1      -7.420  12.452 -11.935  1.00  0.00    -0.490 OA
ENDROOT
BRANCH   1   2
ATOM      2  C   UNL     1      -7.867  11.281 -12.463  1.00  0.00     0.155 A 
ATOM      3  C   UNL     1      -7.543   8.946 -12.937  1.00  0.00     0.063 A 
ATOM      4  C   UNL     1      -8.803   8.898 -13.541  1.00  0.00     0.019 A 
ATOM      5  C   UNL     1      -7.079  10.147 -12.397  1.00  0.00     0.065 A 
ATOM      6  C   UNL     1      -9.584  10.033 -13.596  1.00  0.00     0.044 A 
ATOM      7  C   UNL     1      -9.123  11.222 -13.056  1.00  0.00     0.165 A 
ATOM      8  F   UNL     1      -9.894  12.330 -13.114  1.00  0.00    -0.203 F 
BRANCH   3   9
ATOM      9  C   UNL     1      -6.705   7.733 -12.875  1.00  0.00     0.335 C 
ATOM     10  O   UNL     1      -6.660   7.077 -11.855  1.00  0.00    -0.246 OA
BRANCH   9  11
ATOM     11  O   UNL     1      -5.993   7.351 -13.954  1.00  0.00    -0.478 OA
ATOM     12  H   UNL     1      -5.726   6.422 -13.997  1.00  0.00     0.297 HD
ENDBRANCH   9  11
ENDBRANCH   3   9
ENDBRANCH   1   2
BRANCH   1  13
ATOM     13  C   UNL     1      -6.224  12.396 -11.154  1.00  0.00     0.230 C 
BRANCH  13  14
ATOM     14  C   UNL     1      -5.202  13.386 -11.716  1.00  0.00     0.046 C 
BRANCH  14  15
ATOM     15  C   UNL     1      -3.904  13.293 -10.911  1.00  0.00     0.043 C 
BRANCH  15  16
ATOM     16  C   UNL     1      -3.052  12.178 -11.460  1.00  0.00    -0.004 A 
ATOM     17  C   UNL     1      -2.359  12.203 -12.622  1.00  0.00     0.036 A 
ATOM     18  C   UNL     1      -2.830  10.937 -10.854  1.00  0.00     0.063 A 
ATOM     19  N   UNL     1      -1.728  11.017 -12.751  1.00  0.00    -0.282 N 
ATOM     20  N   UNL     1      -2.042  10.238 -11.630  1.00  0.00    -0.181 NA
ATOM     21  C   UNL     1      -2.304  13.350 -13.598  1.00  0.00     0.066 C 
ATOM     22  C   UNL     1      -3.409  10.479  -9.540  1.00  0.00     0.069 C 
ATOM     23  H   UNL     1      -1.158  10.752 -13.489  1.00  0.00     0.190 HD
ENDBRANCH  15  16
ENDBRANCH  14  15
ENDBRANCH  13  14
ENDBRANCH   1  13
TORSDOF 7
ENDMDL
