MODEL 1
REMARK VINA RESULT:    -4.846      0.000      0.000
REMARK INTER + INTRA:          -7.346
REMARK INTER:                  -6.687
REMARK INTRA:                  -0.660
REMARK UNBOUND:                -0.660
REMARK SMILES Cc1n[nH]c(C)c1CCCOc1cc(C(=O)O)ccc1F
REMARK SMILES IDX 11 1 12 2 14 3 18 4 13 5 19 6 20 7 21 8 15 9 16 10 17 11
REMARK SMILES IDX 10 13 9 14 8 15 7 16 5 17 2 18 4 19 3 20 6 21 1 22
REMARK H PARENT 17 12 4 23
ROOT
ATOM      1  O   UNL     1       8.976  -8.666  13.115  1.00  0.00    -0.490 OA
ENDROOT
BRANCH   1   2
ATOM      2  C   UNL     1       9.338  -9.868  13.635  1.00  0.00     0.155 A 
ATOM      3  C   UNL     1       8.753 -11.947  14.694  1.00  0.00     0.063 A 
ATOM      4  C   UNL     1      10.098 -12.325  14.685  1.00  0.00     0.019 A 
ATOM      5  C   UNL     1       8.378 -10.710  14.164  1.00  0.00     0.065 A 
ATOM      6  C   UNL     1      11.048 -11.481  14.150  1.00  0.00     0.044 A 
ATOM      7  C   UNL     1      10.673 -10.257  13.621  1.00  0.00     0.165 A 
ATOM      8  F   UNL     1      11.609  -9.435  13.099  1.00  0.00    -0.203 F 
BRANCH   3   9
ATOM      9  C   UNL     1       7.733 -12.848  15.265  1.00  0.00     0.335 C 
ATOM     10  O   UNL     1       7.939 -13.404  16.324  1.00  0.00    -0.246 OA
BRANCH   9  11
ATOM     11  O   UNL     1       6.570 -13.047  14.614  1.00  0.00    -0.478 OA
ATOM     12  H   UNL     1       6.523 -12.745  13.696  1.00  0.00     0.297 HD
ENDBRANCH   9  11
ENDBRANCH   3   9
ENDBRANCH   1   2
BRANCH   1  13
ATOM     13  C   UNL     1       7.748  -8.100  13.581  1.00  0.00     0.230 C 
BRANCH  13  14
ATOM     14  C   UNL     1       8.015  -6.708  14.156  1.00  0.00     0.046 C 
BRANCH  14  15
ATOM     15  C   UNL     1       8.935  -6.827  15.374  1.00  0.00     0.043 C 
BRANCH  15  16
ATOM     16  C   UNL     1       8.740  -5.631  16.270  1.00  0.00    -0.004 A 
ATOM     17  C   UNL     1       7.856  -5.537  17.290  1.00  0.00     0.036 A 
ATOM     18  C   UNL     1       9.445  -4.425  16.198  1.00  0.00     0.063 A 
ATOM     19  N   UNL     1       7.993  -4.312  17.840  1.00  0.00    -0.282 N 
ATOM     20  N   UNL     1       8.994  -3.631  17.134  1.00  0.00    -0.181 NA
ATOM     21  C   UNL     1       6.893  -6.607  17.733  1.00  0.00     0.066 C 
ATOM     22  C   UNL     1      10.530  -4.093  15.205  1.00  0.00     0.069 C 
ATOM     23  H   UNL     1       7.487  -3.964  18.591  1.00  0.00     0.190 HD
ENDBRANCH  15  16
ENDBRANCH  14  15
ENDBRANCH  13  14
ENDBRANCH   1  13
TORSDOF 7
ENDMDL
MODEL 2
REMARK VINA RESULT:    -4.604      3.459      6.141
REMARK INTER + INTRA:          -7.014
REMARK INTER:                  -5.233
REMARK INTRA:                  -1.781
REMARK UNBOUND:                -0.660
REMARK SMILES Cc1n[nH]c(C)c1CCCOc1cc(C(=O)O)ccc1F
REMARK SMILES IDX 11 1 12 2 14 3 18 4 13 5 19 6 20 7 21 8 15 9 16 10 17 11
REMARK SMILES IDX 10 13 9 14 8 15 7 16 5 17 2 18 4 19 3 20 6 21 1 22
REMARK H PARENT 17 12 4 23
ROOT
ATOM      1  O   UNL     1      10.396  -9.899  17.149  1.00  0.00    -0.490 OA
ENDROOT
BRANCH   1   2
ATOM      2  C   UNL     1      10.206  -8.598  16.800  1.00  0.00     0.155 A 
ATOM      3  C   UNL     1       8.900  -6.581  16.893  1.00  0.00     0.063 A 
ATOM      4  C   UNL     1       9.842  -5.939  16.085  1.00  0.00     0.019 A 
ATOM      5  C   UNL     1       9.089  -7.918  17.249  1.00  0.00     0.065 A 
ATOM      6  C   UNL     1      10.956  -6.624  15.647  1.00  0.00     0.044 A 
ATOM      7  C   UNL     1      11.144  -7.948  16.005  1.00  0.00     0.165 A 
ATOM      8  F   UNL     1      12.238  -8.613  15.573  1.00  0.00    -0.203 F 
BRANCH   3   9
ATOM      9  C   UNL     1       7.707  -5.851  17.364  1.00  0.00     0.335 C 
ATOM     10  O   UNL     1       6.786  -6.457  17.872  1.00  0.00    -0.246 OA
BRANCH   9  11
ATOM     11  O   UNL     1       7.643  -4.511  17.235  1.00  0.00    -0.478 OA
ATOM     12  H   UNL     1       8.262  -3.989  17.765  1.00  0.00     0.297 HD
ENDBRANCH   9  11
ENDBRANCH   3   9
ENDBRANCH   1   2
BRANCH   1  13
ATOM     13  C   UNL     1       9.306 -10.796  16.925  1.00  0.00     0.230 C 
BRANCH  13  14
ATOM     14  C   UNL     1       9.751 -11.912  15.978  1.00  0.00     0.046 C 
BRANCH  14  15
ATOM     15  C   UNL     1       9.031 -11.759  14.636  1.00  0.00     0.043 C 
BRANCH  15  16
ATOM     16  C   UNL     1       9.802 -10.809  13.757  1.00  0.00    -0.004 A 
ATOM     17  C   UNL     1      11.092 -10.950  13.371  1.00  0.00     0.036 A 
ATOM     18  C   UNL     1       9.310  -9.628  13.190  1.00  0.00     0.063 A 
ATOM     19  N   UNL     1      11.407  -9.893  12.593  1.00  0.00    -0.282 N 
ATOM     20  N   UNL     1      10.273  -9.075  12.498  1.00  0.00    -0.181 NA
ATOM     21  C   UNL     1      12.011 -12.083  13.743  1.00  0.00     0.066 C 
ATOM     22  C   UNL     1       7.915  -9.082  13.357  1.00  0.00     0.069 C 
ATOM     23  H   UNL     1      12.266  -9.728  12.175  1.00  0.00     0.190 HD
ENDBRANCH  15  16
ENDBRANCH  14  15
ENDBRANCH  13  14
ENDBRANCH   1  13
TORSDOF 7
ENDMDL
MODEL 3
REMARK VINA RESULT:    -4.599      2.333      2.696
REMARK INTER + INTRA:          -7.006
REMARK INTER:                  -4.751
REMARK INTRA:                  -2.255
REMARK UNBOUND:                -0.660
REMARK SMILES Cc1n[nH]c(C)c1CCCOc1cc(C(=O)O)ccc1F
REMARK SMILES IDX 11 1 12 2 14 3 18 4 13 5 19 6 20 7 21 8 15 9 16 10 17 11
REMARK SMILES IDX 10 13 9 14 8 15 7 16 5 17 2 18 4 19 3 20 6 21 1 22
REMARK H PARENT 17 12 4 23
ROOT
ATOM      1  O   UNL     1       7.689  -8.826  13.550  1.00  0.00    -0.490 OA
ENDROOT
BRANCH   1   2
ATOM      2  C   UNL     1       8.606  -9.790  13.830  1.00  0.00     0.155 A 
ATOM      3  C   UNL     1       9.527 -11.420  15.339  1.00  0.00     0.063 A 
ATOM      4  C   UNL     1      10.480 -11.766  14.378  1.00  0.00     0.019 A 
ATOM      5  C   UNL     1       8.588 -10.425  15.058  1.00  0.00     0.065 A 
ATOM      6  C   UNL     1      10.486 -11.131  13.154  1.00  0.00     0.044 A 
ATOM      7  C   UNL     1       9.550 -10.149  12.874  1.00  0.00     0.165 A 
ATOM      8  F   UNL     1       9.562  -9.531  11.673  1.00  0.00    -0.203 F 
BRANCH   3   9
ATOM      9  C   UNL     1       9.517 -12.097  16.651  1.00  0.00     0.335 C 
ATOM     10  O   UNL     1       9.409 -13.305  16.709  1.00  0.00    -0.246 OA
BRANCH   9  11
ATOM     11  O   UNL     1       9.636 -11.376  17.782  1.00  0.00    -0.478 OA
ATOM     12  H   UNL     1       8.827 -10.984  18.140  1.00  0.00     0.297 HD
ENDBRANCH   9  11
ENDBRANCH   3   9
ENDBRANCH   1   2
BRANCH   1  13
ATOM     13  C   UNL     1       8.121  -7.468  13.668  1.00  0.00     0.230 C 
BRANCH  13  14
ATOM     14  C   UNL     1       7.971  -7.010  15.120  1.00  0.00     0.046 C 
BRANCH  14  15
ATOM     15  C   UNL     1       9.304  -6.445  15.617  1.00  0.00     0.043 C 
BRANCH  15  16
ATOM     16  C   UNL     1       9.913  -7.398  16.612  1.00  0.00    -0.004 A 
ATOM     17  C   UNL     1       9.428  -7.682  17.844  1.00  0.00     0.036 A 
ATOM     18  C   UNL     1      11.078  -8.151  16.425  1.00  0.00     0.063 A 
ATOM     19  N   UNL     1      10.260  -8.577  18.417  1.00  0.00    -0.282 N 
ATOM     20  N   UNL     1      11.290  -8.852  17.508  1.00  0.00    -0.181 NA
ATOM     21  C   UNL     1       8.183  -7.103  18.463  1.00  0.00     0.066 C 
ATOM     22  C   UNL     1      11.945  -8.145  15.192  1.00  0.00     0.069 C 
ATOM     23  H   UNL     1      10.162  -8.961  19.302  1.00  0.00     0.190 HD
ENDBRANCH  15  16
ENDBRANCH  14  15
ENDBRANCH  13  14
ENDBRANCH   1  13
TORSDOF 7
ENDMDL
MODEL 4
REMARK VINA RESULT:    -4.597      6.978     10.284
REMARK INTER + INTRA:          -7.003
REMARK INTER:                  -5.603
REMARK INTRA:                  -1.400
REMARK UNBOUND:                -0.660
REMARK SMILES Cc1n[nH]c(C)c1CCCOc1cc(C(=O)O)ccc1F
REMARK SMILES IDX 11 1 12 2 14 3 18 4 13 5 19 6 20 7 21 8 15 9 16 10 17 11
REMARK SMILES IDX 10 13 9 14 8 15 7 16 5 17 2 18 4 19 3 20 6 21 1 22
REMARK H PARENT 17 12 4 23
ROOT
ATOM      1  O   UNL     1      11.741   0.441  13.885  1.00  0.00    -0.490 OA
ENDROOT
BRANCH   1   2
ATOM      2  C   UNL     1      10.586   0.902  14.435  1.00  0.00     0.155 A 
ATOM      3  C   UNL     1       9.433   2.080  16.186  1.00  0.00     0.063 A 
ATOM      4  C   UNL     1       8.217   1.844  15.538  1.00  0.00     0.019 A 
ATOM      5  C   UNL     1      10.620   1.603  15.626  1.00  0.00     0.065 A 
ATOM      6  C   UNL     1       8.194   1.148  14.348  1.00  0.00     0.044 A 
ATOM      7  C   UNL     1       9.374   0.681  13.792  1.00  0.00     0.165 A 
ATOM      8  F   UNL     1       9.344  -0.000  12.625  1.00  0.00    -0.203 F 
BRANCH   3   9
ATOM      9  C   UNL     1       9.461   2.824  17.460  1.00  0.00     0.335 C 
ATOM     10  O   UNL     1       9.166   4.002  17.482  1.00  0.00    -0.246 OA
BRANCH   9  11
ATOM     11  O   UNL     1       9.808   2.195  18.600  1.00  0.00    -0.478 OA
ATOM     12  H   UNL     1       9.116   2.078  19.265  1.00  0.00     0.297 HD
ENDBRANCH   9  11
ENDBRANCH   3   9
ENDBRANCH   1   2
BRANCH   1  13
ATOM     13  C   UNL     1      12.511  -0.476  14.666  1.00  0.00     0.230 C 
BRANCH  13  14
ATOM     14  C   UNL     1      11.863  -1.861  14.612  1.00  0.00     0.046 C 
BRANCH  14  15
ATOM     15  C   UNL     1      12.166  -2.617  15.907  1.00  0.00     0.043 C 
BRANCH  15  16
ATOM     16  C   UNL     1      10.919  -2.689  16.750  1.00  0.00    -0.004 A 
ATOM     17  C   UNL     1      10.647  -1.929  17.837  1.00  0.00     0.036 A 
ATOM     18  C   UNL     1       9.836  -3.550  16.545  1.00  0.00     0.063 A 
ATOM     19  N   UNL     1       9.437  -2.301  18.306  1.00  0.00    -0.282 N 
ATOM     20  N   UNL     1       8.950  -3.323  17.480  1.00  0.00    -0.181 NA
ATOM     21  C   UNL     1      11.535  -0.860  18.418  1.00  0.00     0.066 C 
ATOM     22  C   UNL     1       9.715  -4.572  15.443  1.00  0.00     0.069 C 
ATOM     23  H   UNL     1       8.985  -1.927  19.078  1.00  0.00     0.190 HD
ENDBRANCH  15  16
ENDBRANCH  14  15
ENDBRANCH  13  14
ENDBRANCH   1  13
TORSDOF 7
ENDMDL
MODEL 5
REMARK VINA RESULT:    -4.461      3.770      6.593
REMARK INTER + INTRA:          -6.815
REMARK INTER:                  -4.887
REMARK INTRA:                  -1.928
REMARK UNBOUND:                -0.660
REMARK SMILES Cc1n[nH]c(C)c1CCCOc1cc(C(=O)O)ccc1F
REMARK SMILES IDX 11 1 12 2 14 3 18 4 13 5 19 6 20 7 21 8 15 9 16 10 17 11
REMARK SMILES IDX 10 13 9 14 8 15 7 16 5 17 2 18 4 19 3 20 6 21 1 22
REMARK H PARENT 17 12 4 23
ROOT
ATOM      1  O   UNL     1      12.026  -8.090  17.341  1.00  0.00    -0.490 OA
ENDROOT
BRANCH   1   2
ATOM      2  C   UNL     1      10.878  -7.402  17.576  1.00  0.00     0.155 A 
ATOM      3  C   UNL     1       9.623  -5.351  17.515  1.00  0.00     0.063 A 
ATOM      4  C   UNL     1       8.518  -6.016  18.053  1.00  0.00     0.019 A 
ATOM      5  C   UNL     1      10.806  -6.054  17.277  1.00  0.00     0.065 A 
ATOM      6  C   UNL     1       8.597  -7.362  18.342  1.00  0.00     0.044 A 
ATOM      7  C   UNL     1       9.770  -8.058  18.101  1.00  0.00     0.165 A 
ATOM      8  F   UNL     1       9.841  -9.377  18.386  1.00  0.00    -0.203 F 
BRANCH   3   9
ATOM      9  C   UNL     1       9.542  -3.911  17.204  1.00  0.00     0.335 C 
ATOM     10  O   UNL     1      10.141  -3.460  16.249  1.00  0.00    -0.246 OA
BRANCH   9  11
ATOM     11  O   UNL     1       8.797  -3.096  17.977  1.00  0.00    -0.478 OA
ATOM     12  H   UNL     1       8.345  -3.499  18.732  1.00  0.00     0.297 HD
ENDBRANCH   9  11
ENDBRANCH   3   9
ENDBRANCH   1   2
BRANCH   1  13
ATOM     13  C   UNL     1      12.443  -8.211  15.979  1.00  0.00     0.230 C 
BRANCH  13  14
ATOM     14  C   UNL     1      12.201  -9.643  15.498  1.00  0.00     0.046 C 
BRANCH  14  15
ATOM     15  C   UNL     1      11.309  -9.619  14.255  1.00  0.00     0.043 C 
BRANCH  15  16
ATOM     16  C   UNL     1       9.888  -9.926  14.651  1.00  0.00    -0.004 A 
ATOM     17  C   UNL     1       9.415 -11.129  15.053  1.00  0.00     0.036 A 
ATOM     18  C   UNL     1       8.825  -9.017  14.674  1.00  0.00     0.063 A 
ATOM     19  N   UNL     1       8.098 -10.987  15.314  1.00  0.00    -0.282 N 
ATOM     20  N   UNL     1       7.751  -9.653  15.064  1.00  0.00    -0.181 NA
ATOM     21  C   UNL     1      10.215 -12.398  15.185  1.00  0.00     0.066 C 
ATOM     22  C   UNL     1       8.901  -7.558  14.300  1.00  0.00     0.069 C 
ATOM     23  H   UNL     1       7.499 -11.685  15.620  1.00  0.00     0.190 HD
ENDBRANCH  15  16
ENDBRANCH  14  15
ENDBRANCH  13  14
ENDBRANCH   1  13
TORSDOF 7
ENDMDL
MODEL 6
REMARK VINA RESULT:    -4.431      2.514      3.540
REMARK INTER + INTRA:          -6.774
REMARK INTER:                  -5.006
REMARK INTRA:                  -1.768
REMARK UNBOUND:                -0.660
REMARK SMILES Cc1n[nH]c(C)c1CCCOc1cc(C(=O)O)ccc1F
REMARK SMILES IDX 11 1 12 2 14 3 18 4 13 5 19 6 20 7 21 8 15 9 16 10 17 11
REMARK SMILES IDX 10 13 9 14 8 15 7 16 5 17 2 18 4 19 3 20 6 21 1 22
REMARK H PARENT 17 12 4 23
ROOT
ATOM      1  O   UNL     1       9.836  -9.810  17.926  1.00  0.00    -0.490 OA
ENDROOT
BRANCH   1   2
ATOM      2  C   UNL     1       9.455 -10.374  16.749  1.00  0.00     0.155 A 
ATOM      3  C   UNL     1       8.793 -10.158  14.448  1.00  0.00     0.063 A 
ATOM      4  C   UNL     1       8.689 -11.548  14.351  1.00  0.00     0.019 A 
ATOM      5  C   UNL     1       9.179  -9.574  15.656  1.00  0.00     0.065 A 
ATOM      6  C   UNL     1       8.972 -12.338  15.445  1.00  0.00     0.044 A 
ATOM      7  C   UNL     1       9.359 -11.757  16.641  1.00  0.00     0.165 A 
ATOM      8  F   UNL     1       9.635 -12.537  17.710  1.00  0.00    -0.203 F 
BRANCH   3   9
ATOM      9  C   UNL     1       8.491  -9.309  13.279  1.00  0.00     0.335 C 
ATOM     10  O   UNL     1       9.019  -9.538  12.209  1.00  0.00    -0.246 OA
BRANCH   9  11
ATOM     11  O   UNL     1       7.625  -8.284  13.397  1.00  0.00    -0.478 OA
ATOM     12  H   UNL     1       7.121  -8.041  12.607  1.00  0.00     0.297 HD
ENDBRANCH   9  11
ENDBRANCH   3   9
ENDBRANCH   1   2
BRANCH   1  13
ATOM     13  C   UNL     1      10.170  -8.420  17.901  1.00  0.00     0.230 C 
BRANCH  13  14
ATOM     14  C   UNL     1       9.147  -7.636  18.725  1.00  0.00     0.046 C 
BRANCH  14  15
ATOM     15  C   UNL     1       9.084  -6.192  18.220  1.00  0.00     0.043 C 
BRANCH  15  16
ATOM     16  C   UNL     1       8.431  -6.162  16.863  1.00  0.00    -0.004 A 
ATOM     17  C   UNL     1       7.120  -6.376  16.604  1.00  0.00     0.036 A 
ATOM     18  C   UNL     1       9.072  -5.903  15.646  1.00  0.00     0.063 A 
ATOM     19  N   UNL     1       6.939  -6.262  15.272  1.00  0.00    -0.282 N 
ATOM     20  N   UNL     1       8.180  -5.969  14.692  1.00  0.00    -0.181 NA
ATOM     21  C   UNL     1       6.053  -6.685  17.622  1.00  0.00     0.066 C 
ATOM     22  C   UNL     1      10.540  -5.610  15.466  1.00  0.00     0.069 C 
ATOM     23  H   UNL     1       6.099  -6.365  14.799  1.00  0.00     0.190 HD
ENDBRANCH  15  16
ENDBRANCH  14  15
ENDBRANCH  13  14
ENDBRANCH   1  13
TORSDOF 7
ENDMDL
MODEL 7
REMARK VINA RESULT:    -4.388      2.523      3.932
REMARK INTER + INTRA:          -6.715
REMARK INTER:                  -4.944
REMARK INTRA:                  -1.771
REMARK UNBOUND:                -0.660
REMARK SMILES Cc1n[nH]c(C)c1CCCOc1cc(C(=O)O)ccc1F
REMARK SMILES IDX 11 1 12 2 14 3 18 4 13 5 19 6 20 7 21 8 15 9 16 10 17 11
REMARK SMILES IDX 10 13 9 14 8 15 7 16 5 17 2 18 4 19 3 20 6 21 1 22
REMARK H PARENT 17 12 4 23
ROOT
ATOM      1  O   UNL     1      10.020  -9.839  17.841  1.00  0.00    -0.490 OA
ENDROOT
BRANCH   1   2
ATOM      2  C   UNL     1       9.540 -10.386  16.693  1.00  0.00     0.155 A 
ATOM      3  C   UNL     1       8.777 -10.146  14.426  1.00  0.00     0.063 A 
ATOM      4  C   UNL     1       8.570 -11.526  14.353  1.00  0.00     0.019 A 
ATOM      5  C   UNL     1       9.264  -9.579  15.605  1.00  0.00     0.065 A 
ATOM      6  C   UNL     1       8.854 -12.324  15.441  1.00  0.00     0.044 A 
ATOM      7  C   UNL     1       9.342 -11.760  16.608  1.00  0.00     0.165 A 
ATOM      8  F   UNL     1       9.618 -12.547  17.671  1.00  0.00    -0.203 F 
BRANCH   3   9
ATOM      9  C   UNL     1       8.474  -9.289  13.262  1.00  0.00     0.335 C 
ATOM     10  O   UNL     1       9.017  -9.498  12.196  1.00  0.00    -0.246 OA
BRANCH   9  11
ATOM     11  O   UNL     1       7.591  -8.278  13.382  1.00  0.00    -0.478 OA
ATOM     12  H   UNL     1       7.230  -7.911  12.563  1.00  0.00     0.297 HD
ENDBRANCH   9  11
ENDBRANCH   3   9
ENDBRANCH   1   2
BRANCH   1  13
ATOM     13  C   UNL     1      10.300  -8.437  17.824  1.00  0.00     0.230 C 
BRANCH  13  14
ATOM     14  C   UNL     1       9.235  -7.695  18.634  1.00  0.00     0.046 C 
BRANCH  14  15
ATOM     15  C   UNL     1       9.163  -6.239  18.169  1.00  0.00     0.043 C 
BRANCH  15  16
ATOM     16  C   UNL     1       8.494  -6.175  16.820  1.00  0.00    -0.004 A 
ATOM     17  C   UNL     1       9.101  -5.902  15.642  1.00  0.00     0.036 A 
ATOM     18  C   UNL     1       7.136  -6.392  16.564  1.00  0.00     0.063 A 
ATOM     19  N   UNL     1       8.160  -5.939  14.676  1.00  0.00    -0.282 N 
ATOM     20  N   UNL     1       6.933  -6.244  15.280  1.00  0.00    -0.181 NA
ATOM     21  C   UNL     1      10.566  -5.611  15.445  1.00  0.00     0.066 C 
ATOM     22  C   UNL     1       6.085  -6.726  17.592  1.00  0.00     0.069 C 
ATOM     23  H   UNL     1       8.307  -5.782  13.730  1.00  0.00     0.190 HD
ENDBRANCH  15  16
ENDBRANCH  14  15
ENDBRANCH  13  14
ENDBRANCH   1  13
TORSDOF 7
ENDMDL
MODEL 8
REMARK VINA RESULT:    -4.388      2.229      3.946
REMARK INTER + INTRA:          -6.715
REMARK INTER:                  -4.430
REMARK INTRA:                  -2.285
REMARK UNBOUND:                -0.660
REMARK SMILES Cc1n[nH]c(C)c1CCCOc1cc(C(=O)O)ccc1F
REMARK SMILES IDX 11 1 12 2 14 3 18 4 13 5 19 6 20 7 21 8 15 9 16 10 17 11
REMARK SMILES IDX 10 13 9 14 8 15 7 16 5 17 2 18 4 19 3 20 6 21 1 22
REMARK H PARENT 17 12 4 23
ROOT
ATOM      1  O   UNL     1       9.293 -10.346  16.362  1.00  0.00    -0.490 OA
ENDROOT
BRANCH   1   2
ATOM      2  C   UNL     1       9.223  -9.978  15.055  1.00  0.00     0.155 A 
ATOM      3  C   UNL     1       8.262  -8.623  13.316  1.00  0.00     0.063 A 
ATOM      4  C   UNL     1       9.103  -9.233  12.382  1.00  0.00     0.019 A 
ATOM      5  C   UNL     1       8.328  -9.002  14.659  1.00  0.00     0.065 A 
ATOM      6  C   UNL     1       9.996 -10.202  12.787  1.00  0.00     0.044 A 
ATOM      7  C   UNL     1      10.063 -10.572  14.120  1.00  0.00     0.165 A 
ATOM      8  F   UNL     1      10.941 -11.522  14.512  1.00  0.00    -0.203 F 
BRANCH   3   9
ATOM      9  C   UNL     1       7.305  -7.586  12.885  1.00  0.00     0.335 C 
ATOM     10  O   UNL     1       6.542  -7.806  11.967  1.00  0.00    -0.246 OA
BRANCH   9  11
ATOM     11  O   UNL     1       7.272  -6.395  13.516  1.00  0.00    -0.478 OA
ATOM     12  H   UNL     1       7.659  -6.357  14.403  1.00  0.00     0.297 HD
ENDBRANCH   9  11
ENDBRANCH   3   9
ENDBRANCH   1   2
BRANCH   1  13
ATOM     13  C   UNL     1      10.260  -9.675  17.174  1.00  0.00     0.230 C 
BRANCH  13  14
ATOM     14  C   UNL     1       9.547  -8.708  18.121  1.00  0.00     0.046 C 
BRANCH  14  15
ATOM     15  C   UNL     1      10.258  -7.353  18.097  1.00  0.00     0.043 C 
BRANCH  15  16
ATOM     16  C   UNL     1       9.725  -6.526  16.956  1.00  0.00    -0.004 A 
ATOM     17  C   UNL     1      10.392  -6.208  15.823  1.00  0.00     0.036 A 
ATOM     18  C   UNL     1       8.449  -5.956  16.878  1.00  0.00     0.063 A 
ATOM     19  N   UNL     1       9.571  -5.458  15.058  1.00  0.00    -0.282 N 
ATOM     20  N   UNL     1       8.359  -5.310  15.744  1.00  0.00    -0.181 NA
ATOM     21  C   UNL     1      11.800  -6.618  15.477  1.00  0.00     0.066 C 
ATOM     22  C   UNL     1       7.370  -6.059  17.926  1.00  0.00     0.069 C 
ATOM     23  H   UNL     1       9.783  -5.086  14.188  1.00  0.00     0.190 HD
ENDBRANCH  15  16
ENDBRANCH  14  15
ENDBRANCH  13  14
ENDBRANCH   1  13
TORSDOF 7
ENDMDL
MODEL 9
REMARK VINA RESULT:    -4.334      2.946      4.204
REMARK INTER + INTRA:          -6.640
REMARK INTER:                  -4.940
REMARK INTRA:                  -1.700
REMARK UNBOUND:                -0.660
REMARK SMILES Cc1n[nH]c(C)c1CCCOc1cc(C(=O)O)ccc1F
REMARK SMILES IDX 11 1 12 2 14 3 18 4 13 5 19 6 20 7 21 8 15 9 16 10 17 11
REMARK SMILES IDX 10 13 9 14 8 15 7 16 5 17 2 18 4 19 3 20 6 21 1 22
REMARK H PARENT 17 12 4 23
ROOT
ATOM      1  O   UNL     1       9.849  -8.534  18.334  1.00  0.00    -0.490 OA
ENDROOT
BRANCH   1   2
ATOM      2  C   UNL     1      10.722  -8.342  17.309  1.00  0.00     0.155 A 
ATOM      3  C   UNL     1      11.523  -8.913  15.115  1.00  0.00     0.063 A 
ATOM      4  C   UNL     1      12.508  -7.927  15.223  1.00  0.00     0.019 A 
ATOM      5  C   UNL     1      10.628  -9.116  16.168  1.00  0.00     0.065 A 
ATOM      6  C   UNL     1      12.590  -7.156  16.363  1.00  0.00     0.044 A 
ATOM      7  C   UNL     1      11.698  -7.356  17.404  1.00  0.00     0.165 A 
ATOM      8  F   UNL     1      11.784  -6.597  18.518  1.00  0.00    -0.203 F 
BRANCH   3   9
ATOM      9  C   UNL     1      11.432  -9.740  13.896  1.00  0.00     0.335 C 
ATOM     10  O   UNL     1      11.328 -10.946  13.986  1.00  0.00    -0.246 OA
BRANCH   9  11
ATOM     11  O   UNL     1      11.459  -9.155  12.682  1.00  0.00    -0.478 OA
ATOM     12  H   UNL     1      10.615  -9.073  12.215  1.00  0.00     0.297 HD
ENDBRANCH   9  11
ENDBRANCH   3   9
ENDBRANCH   1   2
BRANCH   1  13
ATOM     13  C   UNL     1       9.031  -7.422  18.706  1.00  0.00     0.230 C 
BRANCH  13  14
ATOM     14  C   UNL     1       7.875  -7.286  17.714  1.00  0.00     0.046 C 
BRANCH  14  15
ATOM     15  C   UNL     1       7.576  -5.804  17.477  1.00  0.00     0.043 C 
BRANCH  15  16
ATOM     16  C   UNL     1       8.628  -5.217  16.573  1.00  0.00    -0.004 A 
ATOM     17  C   UNL     1       8.840  -5.549  15.278  1.00  0.00     0.036 A 
ATOM     18  C   UNL     1       9.554  -4.228  16.921  1.00  0.00     0.063 A 
ATOM     19  N   UNL     1       9.868  -4.801  14.824  1.00  0.00    -0.282 N 
ATOM     20  N   UNL     1      10.302  -3.983  15.876  1.00  0.00    -0.181 NA
ATOM     21  C   UNL     1       8.066  -6.569  14.484  1.00  0.00     0.066 C 
ATOM     22  C   UNL     1       9.678  -3.568  18.270  1.00  0.00     0.069 C 
ATOM     23  H   UNL     1      10.241  -4.826  13.930  1.00  0.00     0.190 HD
ENDBRANCH  15  16
ENDBRANCH  14  15
ENDBRANCH  13  14
ENDBRANCH   1  13
TORSDOF 7
ENDMDL
