MODEL 1
REMARK VINA RESULT:    -4.716      0.000      0.000
REMARK INTER + INTRA:          -5.699
REMARK INTER:                  -5.405
REMARK INTRA:                  -0.295
REMARK UNBOUND:                -0.295
REMARK SMILES O=C(O)c1ccc2nc(-c3cc(Cl)cc(Cl)c3)oc2c1
REMARK SMILES IDX 5 1 6 2 20 3 8 4 18 5 4 6 9 7 7 8 19 9 2 10 1 11 3 12 10 14
REMARK SMILES IDX 11 15 17 16 12 17 15 18 14 19 13 20 16 21
REMARK H PARENT 3 13
ROOT
ATOM      1  C   UNL     1      -2.116   0.929   2.624  1.00  0.00     0.018 A 
ATOM      2  C   UNL     1      -2.410  -0.379   2.377  1.00  0.00     0.033 A 
ATOM      3  C   UNL     1       0.163   0.584   1.871  1.00  0.00     0.065 A 
ATOM      4  N   UNL     1      -1.413  -2.543   1.538  1.00  0.00    -0.209 NA
ATOM      5  O   UNL     1       0.590  -1.787   1.151  1.00  0.00    -0.436 OA
ATOM      6  C   UNL     1      -0.830   1.427   2.373  1.00  0.00     0.063 A 
ATOM      7  C   UNL     1      -0.217  -2.863   1.110  1.00  0.00     0.227 A 
ATOM      8  C   UNL     1      -1.423  -1.235   1.873  1.00  0.00     0.110 A 
ATOM      9  C   UNL     1      -0.130  -0.744   1.624  1.00  0.00     0.156 A 
ENDROOT
BRANCH   6  10
ATOM     10  C   UNL     1      -0.526   2.845   2.639  1.00  0.00     0.335 C 
ATOM     11  O   UNL     1       0.244   3.446   1.917  1.00  0.00    -0.246 OA
BRANCH  10  12
ATOM     12  O   UNL     1      -1.101   3.474   3.683  1.00  0.00    -0.478 OA
ATOM     13  H   UNL     1      -0.671   4.278   4.003  1.00  0.00     0.297 HD
ENDBRANCH  10  12
ENDBRANCH   6  10
BRANCH   7  14
ATOM     14  C   UNL     1       0.186  -4.209   0.652  1.00  0.00     0.040 A 
ATOM     15  C   UNL     1       1.480  -4.430   0.180  1.00  0.00     0.034 A 
ATOM     16  C   UNL     1      -0.728  -5.264   0.688  1.00  0.00     0.034 A 
ATOM     17  C   UNL     1       1.851  -5.690  -0.247  1.00  0.00     0.043 A 
ATOM     18  C   UNL     1      -0.345  -6.519   0.259  1.00  0.00     0.043 A 
ATOM     19  C   UNL     1       0.941  -6.732  -0.208  1.00  0.00     0.041 A 
ATOM     20  Cl  UNL     1       3.461  -5.968  -0.833  1.00  0.00    -0.084 Cl
ATOM     21  Cl  UNL     1      -1.480  -7.833   0.304  1.00  0.00    -0.084 Cl
ENDBRANCH   7  14
TORSDOF 3
ENDMDL
MODEL 2
REMARK VINA RESULT:    -4.669      0.052      2.020
REMARK INTER + INTRA:          -5.646
REMARK INTER:                  -5.353
REMARK INTRA:                  -0.293
REMARK UNBOUND:                -0.295
REMARK SMILES O=C(O)c1ccc2nc(-c3cc(Cl)cc(Cl)c3)oc2c1
REMARK SMILES IDX 5 1 6 2 20 3 8 4 18 5 4 6 9 7 7 8 19 9 2 10 1 11 3 12 10 14
REMARK SMILES IDX 11 15 17 16 12 17 15 18 14 19 13 20 16 21
REMARK H PARENT 3 13
ROOT
ATOM      1  C   UNL     1      -2.107   0.960   2.557  1.00  0.00     0.018 A 
ATOM      2  C   UNL     1      -2.410  -0.345   2.303  1.00  0.00     0.033 A 
ATOM      3  C   UNL     1       0.186   0.588   1.864  1.00  0.00     0.065 A 
ATOM      4  N   UNL     1      -1.417  -2.522   1.493  1.00  0.00    -0.209 NA
ATOM      5  O   UNL     1       0.604  -1.789   1.158  1.00  0.00    -0.436 OA
ATOM      6  C   UNL     1      -0.809   1.443   2.339  1.00  0.00     0.063 A 
ATOM      7  C   UNL     1      -0.214  -2.857   1.097  1.00  0.00     0.227 A 
ATOM      8  C   UNL     1      -1.420  -1.213   1.826  1.00  0.00     0.110 A 
ATOM      9  C   UNL     1      -0.115  -0.738   1.610  1.00  0.00     0.156 A 
ENDROOT
BRANCH   6  10
ATOM     10  C   UNL     1      -0.496   2.857   2.611  1.00  0.00     0.335 C 
ATOM     11  O   UNL     1       0.195   3.486   1.834  1.00  0.00    -0.246 OA
BRANCH  10  12
ATOM     12  O   UNL     1      -0.974   3.453   3.721  1.00  0.00    -0.478 OA
ATOM     13  H   UNL     1      -1.389   4.319   3.611  1.00  0.00     0.297 HD
ENDBRANCH  10  12
ENDBRANCH   6  10
BRANCH   7  14
ATOM     14  C   UNL     1       0.186  -4.207   0.651  1.00  0.00     0.040 A 
ATOM     15  C   UNL     1      -0.728  -5.261   0.699  1.00  0.00     0.034 A 
ATOM     16  C   UNL     1       1.480  -4.435   0.179  1.00  0.00     0.034 A 
ATOM     17  C   UNL     1      -0.349  -6.520   0.279  1.00  0.00     0.043 A 
ATOM     18  C   UNL     1       1.847  -5.698  -0.238  1.00  0.00     0.043 A 
ATOM     19  C   UNL     1       0.936  -6.739  -0.187  1.00  0.00     0.041 A 
ATOM     20  Cl  UNL     1      -1.485  -7.832   0.338  1.00  0.00    -0.084 Cl
ATOM     21  Cl  UNL     1       3.457  -5.984  -0.824  1.00  0.00    -0.084 Cl
ENDBRANCH   7  14
TORSDOF 3
ENDMDL
MODEL 3
REMARK VINA RESULT:    -3.778     18.735     18.995
REMARK INTER + INTRA:          -4.625
REMARK INTER:                  -4.335
REMARK INTRA:                  -0.290
REMARK UNBOUND:                -0.295
REMARK SMILES O=C(O)c1ccc2nc(-c3cc(Cl)cc(Cl)c3)oc2c1
REMARK SMILES IDX 5 1 6 2 20 3 8 4 18 5 4 6 9 7 7 8 19 9 2 10 1 11 3 12 10 14
REMARK SMILES IDX 11 15 17 16 12 17 15 18 14 19 13 20 16 21
REMARK H PARENT 3 13
ROOT
ATOM      1  C   UNL     1      10.160   2.913  16.871  1.00  0.00     0.018 A 
ATOM      2  C   UNL     1       9.495   1.794  17.276  1.00  0.00     0.033 A 
ATOM      3  C   UNL     1      11.868   1.548  15.822  1.00  0.00     0.065 A 
ATOM      4  N   UNL     1       9.582  -0.730  17.222  1.00  0.00    -0.209 NA
ATOM      5  O   UNL     1      11.433  -0.913  16.094  1.00  0.00    -0.436 OA
ATOM      6  C   UNL     1      11.350   2.806  16.139  1.00  0.00     0.063 A 
ATOM      7  C   UNL     1      10.433  -1.579  16.702  1.00  0.00     0.227 A 
ATOM      8  C   UNL     1      10.003   0.527  16.965  1.00  0.00     0.110 A 
ATOM      9  C   UNL     1      11.199   0.411  16.236  1.00  0.00     0.156 A 
ENDROOT
BRANCH   6  10
ATOM     10  C   UNL     1      12.057   4.023  15.701  1.00  0.00     0.335 C 
ATOM     11  O   UNL     1      12.465   4.817  16.524  1.00  0.00    -0.246 OA
BRANCH  10  12
ATOM     12  O   UNL     1      12.249   4.255  14.387  1.00  0.00    -0.478 OA
ATOM     13  H   UNL     1      11.517   4.656  13.900  1.00  0.00     0.297 HD
ENDBRANCH  10  12
ENDBRANCH   6  10
BRANCH   7  14
ATOM     14  C   UNL     1      10.314  -3.050  16.775  1.00  0.00     0.040 A 
ATOM     15  C   UNL     1       9.272  -3.634  17.496  1.00  0.00     0.034 A 
ATOM     16  C   UNL     1      11.245  -3.861  16.122  1.00  0.00     0.034 A 
ATOM     17  C   UNL     1       9.166  -5.009  17.559  1.00  0.00     0.043 A 
ATOM     18  C   UNL     1      11.128  -5.234  16.192  1.00  0.00     0.043 A 
ATOM     19  C   UNL     1      10.092  -5.808  16.909  1.00  0.00     0.041 A 
ATOM     20  Cl  UNL     1       7.870  -5.739  18.454  1.00  0.00    -0.084 Cl
ATOM     21  Cl  UNL     1      12.284  -6.245  15.381  1.00  0.00    -0.084 Cl
ENDBRANCH   7  14
TORSDOF 3
ENDMDL
MODEL 4
REMARK VINA RESULT:    -3.775     18.639     18.778
REMARK INTER + INTRA:          -4.621
REMARK INTER:                  -4.332
REMARK INTRA:                  -0.289
REMARK UNBOUND:                -0.295
REMARK SMILES O=C(O)c1ccc2nc(-c3cc(Cl)cc(Cl)c3)oc2c1
REMARK SMILES IDX 5 1 6 2 20 3 8 4 18 5 4 6 9 7 7 8 19 9 2 10 1 11 3 12 10 14
REMARK SMILES IDX 11 15 17 16 12 17 15 18 14 19 13 20 16 21
REMARK H PARENT 3 13
ROOT
ATOM      1  C   UNL     1      10.062   2.890  16.682  1.00  0.00     0.018 A 
ATOM      2  C   UNL     1       9.440   1.774  17.156  1.00  0.00     0.033 A 
ATOM      3  C   UNL     1      11.722   1.519  15.565  1.00  0.00     0.065 A 
ATOM      4  N   UNL     1       9.560  -0.750  17.164  1.00  0.00    -0.209 NA
ATOM      5  O   UNL     1      11.340  -0.940  15.928  1.00  0.00    -0.436 OA
ATOM      6  C   UNL     1      11.207   2.778  15.880  1.00  0.00     0.063 A 
ATOM      7  C   UNL     1      10.390  -1.601  16.614  1.00  0.00     0.227 A 
ATOM      8  C   UNL     1       9.946   0.505  16.848  1.00  0.00     0.110 A 
ATOM      9  C   UNL     1      11.097   0.384  16.049  1.00  0.00     0.156 A 
ENDROOT
BRANCH   6  10
ATOM     10  C   UNL     1      11.867   3.992  15.368  1.00  0.00     0.335 C 
ATOM     11  O   UNL     1      11.862   4.229  14.176  1.00  0.00    -0.246 OA
BRANCH  10  12
ATOM     12  O   UNL     1      12.478   4.838  16.220  1.00  0.00    -0.478 OA
ATOM     13  H   UNL     1      12.225   5.770  16.170  1.00  0.00     0.297 HD
ENDBRANCH  10  12
ENDBRANCH   6  10
BRANCH   7  14
ATOM     14  C   UNL     1      10.297  -3.071  16.733  1.00  0.00     0.040 A 
ATOM     15  C   UNL     1      11.232  -3.887  16.095  1.00  0.00     0.034 A 
ATOM     16  C   UNL     1       9.271  -3.650  17.483  1.00  0.00     0.034 A 
ATOM     17  C   UNL     1      11.141  -5.260  16.210  1.00  0.00     0.043 A 
ATOM     18  C   UNL     1       9.190  -5.024  17.591  1.00  0.00     0.043 A 
ATOM     19  C   UNL     1      10.121  -5.827  16.955  1.00  0.00     0.041 A 
ATOM     20  Cl  UNL     1      12.304  -6.276  15.418  1.00  0.00    -0.084 Cl
ATOM     21  Cl  UNL     1       7.915  -5.745  18.523  1.00  0.00    -0.084 Cl
ENDBRANCH   7  14
TORSDOF 3
ENDMDL
MODEL 5
REMARK VINA RESULT:    -3.763     17.677     18.052
REMARK INTER + INTRA:          -4.608
REMARK INTER:                  -4.319
REMARK INTRA:                  -0.289
REMARK UNBOUND:                -0.295
REMARK SMILES O=C(O)c1ccc2nc(-c3cc(Cl)cc(Cl)c3)oc2c1
REMARK SMILES IDX 5 1 6 2 20 3 8 4 18 5 4 6 9 7 7 8 19 9 2 10 1 11 3 12 10 14
REMARK SMILES IDX 11 15 17 16 12 17 15 18 14 19 13 20 16 21
REMARK H PARENT 3 13
ROOT
ATOM      1  C   UNL     1      12.200  -0.721  14.177  1.00  0.00     0.018 A 
ATOM      2  C   UNL     1      11.898  -2.020  13.895  1.00  0.00     0.033 A 
ATOM      3  C   UNL     1      10.722  -0.769  16.099  1.00  0.00     0.065 A 
ATOM      4  N   UNL     1      10.518  -3.983  14.684  1.00  0.00    -0.209 NA
ATOM      5  O   UNL     1       9.602  -3.000  16.395  1.00  0.00    -0.436 OA
ATOM      6  C   UNL     1      11.619  -0.080  15.280  1.00  0.00     0.063 A 
ATOM      7  C   UNL     1       9.690  -4.142  15.687  1.00  0.00     0.227 A 
ATOM      8  C   UNL     1      11.000  -2.722  14.708  1.00  0.00     0.110 A 
ATOM      9  C   UNL     1      10.409  -2.085  15.814  1.00  0.00     0.156 A 
ENDROOT
BRANCH   6  10
ATOM     10  C   UNL     1      11.957   1.323  15.578  1.00  0.00     0.335 C 
ATOM     11  O   UNL     1      12.409   1.621  16.665  1.00  0.00    -0.246 OA
BRANCH  10  12
ATOM     12  O   UNL     1      11.764   2.276  14.645  1.00  0.00    -0.478 OA
ATOM     13  H   UNL     1      10.869   2.629  14.557  1.00  0.00     0.297 HD
ENDBRANCH  10  12
ENDBRANCH   6  10
BRANCH   7  14
ATOM     14  C   UNL     1       8.960  -5.390  15.993  1.00  0.00     0.040 A 
ATOM     15  C   UNL     1       7.810  -5.353  16.783  1.00  0.00     0.034 A 
ATOM     16  C   UNL     1       9.420  -6.610  15.495  1.00  0.00     0.034 A 
ATOM     17  C   UNL     1       7.133  -6.523  17.065  1.00  0.00     0.043 A 
ATOM     18  C   UNL     1       8.734  -7.773  15.784  1.00  0.00     0.043 A 
ATOM     19  C   UNL     1       7.594  -7.730  16.568  1.00  0.00     0.041 A 
ATOM     20  Cl  UNL     1       5.702  -6.480  18.047  1.00  0.00    -0.084 Cl
ATOM     21  Cl  UNL     1       9.303  -9.292  15.165  1.00  0.00    -0.084 Cl
ENDBRANCH   7  14
TORSDOF 3
ENDMDL
MODEL 6
REMARK VINA RESULT:    -3.762     17.686     18.000
REMARK INTER + INTRA:          -4.606
REMARK INTER:                  -4.317
REMARK INTRA:                  -0.289
REMARK UNBOUND:                -0.295
REMARK SMILES O=C(O)c1ccc2nc(-c3cc(Cl)cc(Cl)c3)oc2c1
REMARK SMILES IDX 5 1 6 2 20 3 8 4 18 5 4 6 9 7 7 8 19 9 2 10 1 11 3 12 10 14
REMARK SMILES IDX 11 15 17 16 12 17 15 18 14 19 13 20 16 21
REMARK H PARENT 3 13
ROOT
ATOM      1  C   UNL     1      12.161  -0.704  14.176  1.00  0.00     0.018 A 
ATOM      2  C   UNL     1      11.858  -2.002  13.892  1.00  0.00     0.033 A 
ATOM      3  C   UNL     1      10.714  -0.766  16.121  1.00  0.00     0.065 A 
ATOM      4  N   UNL     1      10.494  -3.972  14.691  1.00  0.00    -0.209 NA
ATOM      5  O   UNL     1       9.603  -3.001  16.422  1.00  0.00    -0.436 OA
ATOM      6  C   UNL     1      11.597  -0.071  15.292  1.00  0.00     0.063 A 
ATOM      7  C   UNL     1       9.682  -4.138  15.705  1.00  0.00     0.227 A 
ATOM      8  C   UNL     1      10.974  -2.711  14.715  1.00  0.00     0.110 A 
ATOM      9  C   UNL     1      10.400  -2.081  15.833  1.00  0.00     0.156 A 
ENDROOT
BRANCH   6  10
ATOM     10  C   UNL     1      11.937   1.332  15.593  1.00  0.00     0.335 C 
ATOM     11  O   UNL     1      12.358   1.632  16.692  1.00  0.00    -0.246 OA
BRANCH  10  12
ATOM     12  O   UNL     1      11.781   2.281  14.649  1.00  0.00    -0.478 OA
ATOM     13  H   UNL     1      10.962   2.793  14.672  1.00  0.00     0.297 HD
ENDBRANCH  10  12
ENDBRANCH   6  10
BRANCH   7  14
ATOM     14  C   UNL     1       8.960  -5.389  16.017  1.00  0.00     0.040 A 
ATOM     15  C   UNL     1       9.437  -6.611  15.541  1.00  0.00     0.034 A 
ATOM     16  C   UNL     1       7.796  -5.353  16.788  1.00  0.00     0.034 A 
ATOM     17  C   UNL     1       8.758  -7.777  15.836  1.00  0.00     0.043 A 
ATOM     18  C   UNL     1       7.126  -6.525  17.076  1.00  0.00     0.043 A 
ATOM     19  C   UNL     1       7.604  -7.734  16.601  1.00  0.00     0.041 A 
ATOM     20  Cl  UNL     1       9.349  -9.298  15.246  1.00  0.00    -0.084 Cl
ATOM     21  Cl  UNL     1       5.679  -6.481  18.035  1.00  0.00    -0.084 Cl
ENDBRANCH   7  14
TORSDOF 3
ENDMDL
MODEL 7
REMARK VINA RESULT:    -3.617     18.800     19.236
REMARK INTER + INTRA:          -4.441
REMARK INTER:                  -4.146
REMARK INTRA:                  -0.295
REMARK UNBOUND:                -0.295
REMARK SMILES O=C(O)c1ccc2nc(-c3cc(Cl)cc(Cl)c3)oc2c1
REMARK SMILES IDX 5 1 6 2 20 3 8 4 18 5 4 6 9 7 7 8 19 9 2 10 1 11 3 12 10 14
REMARK SMILES IDX 11 15 17 16 12 17 15 18 14 19 13 20 16 21
REMARK H PARENT 3 13
ROOT
ATOM      1  C   UNL     1      12.141   0.484  16.531  1.00  0.00     0.018 A 
ATOM      2  C   UNL     1      12.311  -0.864  16.416  1.00  0.00     0.033 A 
ATOM      3  C   UNL     1       9.906   0.151  17.409  1.00  0.00     0.065 A 
ATOM      4  N   UNL     1      11.157  -3.079  16.795  1.00  0.00    -0.209 NA
ATOM      5  O   UNL     1       9.285  -2.280  17.563  1.00  0.00    -0.436 OA
ATOM      6  C   UNL     1      10.940   1.008  17.029  1.00  0.00     0.063 A 
ATOM      7  C   UNL     1       9.972  -3.396  17.253  1.00  0.00     0.227 A 
ATOM      8  C   UNL     1      11.281  -1.734  16.794  1.00  0.00     0.110 A 
ATOM      9  C   UNL     1      10.072  -1.216  17.290  1.00  0.00     0.156 A 
ENDROOT
BRANCH   6  10
ATOM     10  C   UNL     1      10.770   2.467  17.155  1.00  0.00     0.335 C 
ATOM     11  O   UNL     1      11.409   3.216  16.443  1.00  0.00    -0.246 OA
BRANCH  10  12
ATOM     12  O   UNL     1       9.907   2.970  18.059  1.00  0.00    -0.478 OA
ATOM     13  H   UNL     1       9.169   2.405  18.323  1.00  0.00     0.297 HD
ENDBRANCH  10  12
ENDBRANCH   6  10
BRANCH   7  14
ATOM     14  C   UNL     1       9.464  -4.775  17.406  1.00  0.00     0.040 A 
ATOM     15  C   UNL     1       8.093  -5.009  17.516  1.00  0.00     0.034 A 
ATOM     16  C   UNL     1      10.355  -5.850  17.441  1.00  0.00     0.034 A 
ATOM     17  C   UNL     1       7.624  -6.301  17.657  1.00  0.00     0.043 A 
ATOM     18  C   UNL     1       9.875  -7.136  17.583  1.00  0.00     0.043 A 
ATOM     19  C   UNL     1       8.513  -7.362  17.691  1.00  0.00     0.041 A 
ATOM     20  Cl  UNL     1       5.919  -6.594  17.793  1.00  0.00    -0.084 Cl
ATOM     21  Cl  UNL     1      10.981  -8.474  17.627  1.00  0.00    -0.084 Cl
ENDBRANCH   7  14
TORSDOF 3
ENDMDL
MODEL 8
REMARK VINA RESULT:    -3.558     18.764     19.205
REMARK INTER + INTRA:          -4.372
REMARK INTER:                  -4.080
REMARK INTRA:                  -0.293
REMARK UNBOUND:                -0.295
REMARK SMILES O=C(O)c1ccc2nc(-c3cc(Cl)cc(Cl)c3)oc2c1
REMARK SMILES IDX 5 1 6 2 20 3 8 4 18 5 4 6 9 7 7 8 19 9 2 10 1 11 3 12 10 14
REMARK SMILES IDX 11 15 17 16 12 17 15 18 14 19 13 20 16 21
REMARK H PARENT 3 13
ROOT
ATOM      1  C   UNL     1      11.911   1.514  16.569  1.00  0.00     0.018 A 
ATOM      2  C   UNL     1      12.299   0.208  16.562  1.00  0.00     0.033 A 
ATOM      3  C   UNL     1       9.655   0.864  17.177  1.00  0.00     0.065 A 
ATOM      4  N   UNL     1      11.458  -2.146  16.931  1.00  0.00    -0.209 NA
ATOM      5  O   UNL     1       9.399  -1.626  17.404  1.00  0.00    -0.436 OA
ATOM      6  C   UNL     1      10.587   1.859  16.878  1.00  0.00     0.063 A 
ATOM      7  C   UNL     1      10.285  -2.629  17.255  1.00  0.00     0.227 A 
ATOM      8  C   UNL     1      11.374  -0.800  16.860  1.00  0.00     0.110 A 
ATOM      9  C   UNL     1      10.044  -0.462  17.166  1.00  0.00     0.156 A 
ENDROOT
BRANCH   6  10
ATOM     10  C   UNL     1      10.180   3.276  16.889  1.00  0.00     0.335 C 
ATOM     11  O   UNL     1       9.141   3.613  16.358  1.00  0.00    -0.246 OA
BRANCH  10  12
ATOM     12  O   UNL     1      10.961   4.198  17.486  1.00  0.00    -0.478 OA
ATOM     13  H   UNL     1      11.799   4.409  17.054  1.00  0.00     0.297 HD
ENDBRANCH  10  12
ENDBRANCH   6  10
BRANCH   7  14
ATOM     14  C   UNL     1       9.979  -4.065  17.428  1.00  0.00     0.040 A 
ATOM     15  C   UNL     1      11.007  -5.008  17.409  1.00  0.00     0.034 A 
ATOM     16  C   UNL     1       8.659  -4.482  17.612  1.00  0.00     0.034 A 
ATOM     17  C   UNL     1      10.714  -6.348  17.573  1.00  0.00     0.043 A 
ATOM     18  C   UNL     1       8.379  -5.824  17.774  1.00  0.00     0.043 A 
ATOM     19  C   UNL     1       9.403  -6.755  17.754  1.00  0.00     0.041 A 
ATOM     20  Cl  UNL     1      11.991  -7.523  17.550  1.00  0.00    -0.084 Cl
ATOM     21  Cl  UNL     1       6.738  -6.345  18.003  1.00  0.00    -0.084 Cl
ENDBRANCH   7  14
TORSDOF 3
ENDMDL
MODEL 9
REMARK VINA RESULT:    -3.404     18.688     18.839
REMARK INTER + INTRA:          -4.196
REMARK INTER:                  -3.898
REMARK INTRA:                  -0.298
REMARK UNBOUND:                -0.295
REMARK SMILES O=C(O)c1ccc2nc(-c3cc(Cl)cc(Cl)c3)oc2c1
REMARK SMILES IDX 5 1 6 2 20 3 8 4 18 5 4 6 9 7 7 8 19 9 2 10 1 11 3 12 10 14
REMARK SMILES IDX 11 15 17 16 12 17 15 18 14 19 13 20 16 21
REMARK H PARENT 3 13
ROOT
ATOM      1  C   UNL     1      11.735  -4.084  15.882  1.00  0.00     0.018 A 
ATOM      2  C   UNL     1      12.211  -5.239  15.337  1.00  0.00     0.033 A 
ATOM      3  C   UNL     1       9.755  -5.244  16.668  1.00  0.00     0.065 A 
ATOM      4  N   UNL     1      11.675  -7.687  15.017  1.00  0.00    -0.209 NA
ATOM      5  O   UNL     1       9.760  -7.681  16.050  1.00  0.00    -0.436 OA
ATOM      6  C   UNL     1      10.505  -4.072  16.555  1.00  0.00     0.063 A 
ATOM      7  C   UNL     1      10.658  -8.428  15.381  1.00  0.00     0.227 A 
ATOM      8  C   UNL     1      11.470  -6.422  15.443  1.00  0.00     0.110 A 
ATOM      9  C   UNL     1      10.233  -6.416  16.112  1.00  0.00     0.156 A 
ENDROOT
BRANCH   6  10
ATOM     10  C   UNL     1      10.003  -2.818  17.146  1.00  0.00     0.335 C 
ATOM     11  O   UNL     1      10.602  -1.778  16.963  1.00  0.00    -0.246 OA
BRANCH  10  12
ATOM     12  O   UNL     1       8.879  -2.826  17.890  1.00  0.00    -0.478 OA
ATOM     13  H   UNL     1       8.225  -3.508  17.690  1.00  0.00     0.297 HD
ENDBRANCH  10  12
ENDBRANCH   6  10
BRANCH   7  14
ATOM     14  C   UNL     1      10.517  -9.871  15.097  1.00  0.00     0.040 A 
ATOM     15  C   UNL     1      11.502 -10.542  14.371  1.00  0.00     0.034 A 
ATOM     16  C   UNL     1       9.397 -10.569  15.553  1.00  0.00     0.034 A 
ATOM     17  C   UNL     1      11.365 -11.891  14.109  1.00  0.00     0.043 A 
ATOM     18  C   UNL     1       9.272 -11.918  15.286  1.00  0.00     0.043 A 
ATOM     19  C   UNL     1      10.252 -12.577  14.565  1.00  0.00     0.041 A 
ATOM     20  Cl  UNL     1      12.590 -12.728  13.207  1.00  0.00    -0.084 Cl
ATOM     21  Cl  UNL     1       7.880 -12.788  15.853  1.00  0.00    -0.084 Cl
ENDBRANCH   7  14
TORSDOF 3
ENDMDL
