MODEL 1
REMARK VINA RESULT:    -5.755      0.000      0.000
REMARK INTER + INTRA:          -8.450
REMARK INTER:                  -7.942
REMARK INTRA:                  -0.508
REMARK UNBOUND:                -0.508
REMARK SMILES Cc1n[nH]c(C)c1CCCOc1cc(C(=O)O)ccc1F
REMARK SMILES IDX 11 1 12 2 14 3 18 4 13 5 19 6 20 7 21 8 15 9 16 10 17 11
REMARK SMILES IDX 10 13 9 14 8 15 7 16 5 17 2 18 4 19 3 20 6 21 1 22
REMARK H PARENT 17 12 4 23
ROOT
ATOM      1  O   UNL     1       4.326  -3.793   6.983  1.00  0.00    -0.490 OA
ENDROOT
BRANCH   1   2
ATOM      2  C   UNL     1       3.703  -2.902   6.167  1.00  0.00     0.155 A 
ATOM      3  C   UNL     1       1.826  -1.483   5.671  1.00  0.00     0.063 A 
ATOM      4  C   UNL     1       2.452  -1.075   4.489  1.00  0.00     0.019 A 
ATOM      5  C   UNL     1       2.461  -2.402   6.509  1.00  0.00     0.065 A 
ATOM      6  C   UNL     1       3.694  -1.575   4.159  1.00  0.00     0.044 A 
ATOM      7  C   UNL     1       4.323  -2.483   4.995  1.00  0.00     0.165 A 
ATOM      8  F   UNL     1       5.540  -2.969   4.665  1.00  0.00    -0.203 F 
BRANCH   3   9
ATOM      9  C   UNL     1       0.498  -0.949   6.028  1.00  0.00     0.335 C 
ATOM     10  O   UNL     1      -0.199  -1.539   6.828  1.00  0.00    -0.246 OA
BRANCH   9  11
ATOM     11  O   UNL     1       0.061   0.197   5.470  1.00  0.00    -0.478 OA
ATOM     12  H   UNL     1      -0.705   0.622   5.882  1.00  0.00     0.297 HD
ENDBRANCH   9  11
ENDBRANCH   3   9
ENDBRANCH   1   2
BRANCH   1  13
ATOM     13  C   UNL     1       5.563  -3.381   7.570  1.00  0.00     0.230 C 
BRANCH  13  14
ATOM     14  C   UNL     1       5.403  -3.298   9.089  1.00  0.00     0.046 C 
BRANCH  14  15
ATOM     15  C   UNL     1       5.134  -1.848   9.495  1.00  0.00     0.043 C 
BRANCH  15  16
ATOM     16  C   UNL     1       5.508  -1.653  10.942  1.00  0.00    -0.004 A 
ATOM     17  C   UNL     1       6.700  -1.208  11.403  1.00  0.00     0.036 A 
ATOM     18  C   UNL     1       4.682  -1.892  12.045  1.00  0.00     0.063 A 
ATOM     19  N   UNL     1       6.634  -1.175  12.750  1.00  0.00    -0.282 N 
ATOM     20  N   UNL     1       5.358  -1.613  13.130  1.00  0.00    -0.181 NA
ATOM     21  C   UNL     1       7.889  -0.821  10.562  1.00  0.00     0.066 C 
ATOM     22  C   UNL     1       3.263  -2.398  11.994  1.00  0.00     0.069 C 
ATOM     23  H   UNL     1       7.343  -0.898  13.350  1.00  0.00     0.190 HD
ENDBRANCH  15  16
ENDBRANCH  14  15
ENDBRANCH  13  14
ENDBRANCH   1  13
TORSDOF 7
ENDMDL
MODEL 2
REMARK VINA RESULT:    -5.737      2.318      3.943
REMARK INTER + INTRA:          -8.425
REMARK INTER:                  -7.834
REMARK INTRA:                  -0.591
REMARK UNBOUND:                -0.508
REMARK SMILES Cc1n[nH]c(C)c1CCCOc1cc(C(=O)O)ccc1F
REMARK SMILES IDX 11 1 12 2 14 3 18 4 13 5 19 6 20 7 21 8 15 9 16 10 17 11
REMARK SMILES IDX 10 13 9 14 8 15 7 16 5 17 2 18 4 19 3 20 6 21 1 22
REMARK H PARENT 17 12 4 23
ROOT
ATOM      1  O   UNL     1       2.961   0.654   7.448  1.00  0.00    -0.490 OA
ENDROOT
BRANCH   1   2
ATOM      2  C   UNL     1       2.956  -0.222   6.409  1.00  0.00     0.155 A 
ATOM      3  C   UNL     1       4.138  -1.623   4.853  1.00  0.00     0.063 A 
ATOM      4  C   UNL     1       2.922  -2.021   4.293  1.00  0.00     0.019 A 
ATOM      5  C   UNL     1       4.148  -0.718   5.917  1.00  0.00     0.065 A 
ATOM      6  C   UNL     1       1.737  -1.526   4.795  1.00  0.00     0.044 A 
ATOM      7  C   UNL     1       1.749  -0.632   5.853  1.00  0.00     0.165 A 
ATOM      8  F   UNL     1       0.584  -0.151   6.341  1.00  0.00    -0.203 F 
BRANCH   3   9
ATOM      9  C   UNL     1       5.408  -2.151   4.318  1.00  0.00     0.335 C 
ATOM     10  O   UNL     1       6.448  -1.559   4.524  1.00  0.00    -0.246 OA
BRANCH   9  11
ATOM     11  O   UNL     1       5.415  -3.296   3.607  1.00  0.00    -0.478 OA
ATOM     12  H   UNL     1       4.961  -3.285   2.752  1.00  0.00     0.297 HD
ENDBRANCH   9  11
ENDBRANCH   3   9
ENDBRANCH   1   2
BRANCH   1  13
ATOM     13  C   UNL     1       2.465   0.178   8.702  1.00  0.00     0.230 C 
BRANCH  13  14
ATOM     14  C   UNL     1       3.613   0.103   9.709  1.00  0.00     0.046 C 
BRANCH  14  15
ATOM     15  C   UNL     1       4.022  -1.358   9.909  1.00  0.00     0.043 C 
BRANCH  15  16
ATOM     16  C   UNL     1       4.596  -1.536  11.290  1.00  0.00    -0.004 A 
ATOM     17  C   UNL     1       3.925  -1.976  12.380  1.00  0.00     0.036 A 
ATOM     18  C   UNL     1       5.918  -1.282  11.672  1.00  0.00     0.063 A 
ATOM     19  N   UNL     1       4.791  -1.993  13.416  1.00  0.00    -0.282 N 
ATOM     20  N   UNL     1       6.034  -1.549  12.947  1.00  0.00    -0.181 NA
ATOM     21  C   UNL     1       2.474  -2.375  12.429  1.00  0.00     0.066 C 
ATOM     22  C   UNL     1       7.016  -0.776  10.771  1.00  0.00     0.069 C 
ATOM     23  H   UNL     1       4.587  -2.264  14.325  1.00  0.00     0.190 HD
ENDBRANCH  15  16
ENDBRANCH  14  15
ENDBRANCH  13  14
ENDBRANCH   1  13
TORSDOF 7
ENDMDL
MODEL 3
REMARK VINA RESULT:    -5.693      0.135      1.772
REMARK INTER + INTRA:          -8.364
REMARK INTER:                  -7.872
REMARK INTRA:                  -0.492
REMARK UNBOUND:                -0.508
REMARK SMILES Cc1n[nH]c(C)c1CCCOc1cc(C(=O)O)ccc1F
REMARK SMILES IDX 11 1 12 2 14 3 18 4 13 5 19 6 20 7 21 8 15 9 16 10 17 11
REMARK SMILES IDX 10 13 9 14 8 15 7 16 5 17 2 18 4 19 3 20 6 21 1 22
REMARK H PARENT 17 12 4 23
ROOT
ATOM      1  O   UNL     1       4.308  -3.820   6.933  1.00  0.00    -0.490 OA
ENDROOT
BRANCH   1   2
ATOM      2  C   UNL     1       3.681  -2.923   6.126  1.00  0.00     0.155 A 
ATOM      3  C   UNL     1       1.809  -1.489   5.658  1.00  0.00     0.063 A 
ATOM      4  C   UNL     1       2.421  -1.084   4.469  1.00  0.00     0.019 A 
ATOM      5  C   UNL     1       2.448  -2.413   6.486  1.00  0.00     0.065 A 
ATOM      6  C   UNL     1       3.654  -1.593   4.120  1.00  0.00     0.044 A 
ATOM      7  C   UNL     1       4.288  -2.507   4.946  1.00  0.00     0.165 A 
ATOM      8  F   UNL     1       5.496  -3.002   4.599  1.00  0.00    -0.203 F 
BRANCH   3   9
ATOM      9  C   UNL     1       0.489  -0.945   6.034  1.00  0.00     0.335 C 
ATOM     10  O   UNL     1      -0.207  -1.538   6.832  1.00  0.00    -0.246 OA
BRANCH   9  11
ATOM     11  O   UNL     1       0.060   0.214   5.496  1.00  0.00    -0.478 OA
ATOM     12  H   UNL     1      -0.692   0.646   5.925  1.00  0.00     0.297 HD
ENDBRANCH   9  11
ENDBRANCH   3   9
ENDBRANCH   1   2
BRANCH   1  13
ATOM     13  C   UNL     1       5.559  -3.420   7.498  1.00  0.00     0.230 C 
BRANCH  13  14
ATOM     14  C   UNL     1       5.428  -3.344   9.020  1.00  0.00     0.046 C 
BRANCH  14  15
ATOM     15  C   UNL     1       5.050  -1.919   9.429  1.00  0.00     0.043 C 
BRANCH  15  16
ATOM     16  C   UNL     1       5.344  -1.721  10.894  1.00  0.00    -0.004 A 
ATOM     17  C   UNL     1       4.491  -1.961  11.917  1.00  0.00     0.036 A 
ATOM     18  C   UNL     1       6.549  -1.262  11.437  1.00  0.00     0.063 A 
ATOM     19  N   UNL     1       5.132  -1.659  13.066  1.00  0.00    -0.282 N 
ATOM     20  N   UNL     1       6.421  -1.218  12.738  1.00  0.00    -0.181 NA
ATOM     21  C   UNL     1       3.080  -2.474  11.795  1.00  0.00     0.066 C 
ATOM     22  C   UNL     1       7.779  -0.874  10.656  1.00  0.00     0.069 C 
ATOM     23  H   UNL     1       4.765  -1.732  13.960  1.00  0.00     0.190 HD
ENDBRANCH  15  16
ENDBRANCH  14  15
ENDBRANCH  13  14
ENDBRANCH   1  13
TORSDOF 7
ENDMDL
MODEL 4
REMARK VINA RESULT:    -5.684      2.326      3.546
REMARK INTER + INTRA:          -8.351
REMARK INTER:                  -7.817
REMARK INTRA:                  -0.535
REMARK UNBOUND:                -0.508
REMARK SMILES Cc1n[nH]c(C)c1CCCOc1cc(C(=O)O)ccc1F
REMARK SMILES IDX 11 1 12 2 14 3 18 4 13 5 19 6 20 7 21 8 15 9 16 10 17 11
REMARK SMILES IDX 10 13 9 14 8 15 7 16 5 17 2 18 4 19 3 20 6 21 1 22
REMARK H PARENT 17 12 4 23
ROOT
ATOM      1  O   UNL     1       3.004   0.704   7.374  1.00  0.00    -0.490 OA
ENDROOT
BRANCH   1   2
ATOM      2  C   UNL     1       2.995  -0.183   6.343  1.00  0.00     0.155 A 
ATOM      3  C   UNL     1       4.171  -1.612   4.809  1.00  0.00     0.063 A 
ATOM      4  C   UNL     1       2.953  -2.000   4.243  1.00  0.00     0.019 A 
ATOM      5  C   UNL     1       4.184  -0.698   5.864  1.00  0.00     0.065 A 
ATOM      6  C   UNL     1       1.771  -1.485   4.731  1.00  0.00     0.044 A 
ATOM      7  C   UNL     1       1.787  -0.582   5.782  1.00  0.00     0.165 A 
ATOM      8  F   UNL     1       0.625  -0.082   6.256  1.00  0.00    -0.203 F 
BRANCH   3   9
ATOM      9  C   UNL     1       5.438  -2.162   4.288  1.00  0.00     0.335 C 
ATOM     10  O   UNL     1       6.482  -1.576   4.487  1.00  0.00    -0.246 OA
BRANCH   9  11
ATOM     11  O   UNL     1       5.436  -3.319   3.598  1.00  0.00    -0.478 OA
ATOM     12  H   UNL     1       5.955  -4.050   3.963  1.00  0.00     0.297 HD
ENDBRANCH   9  11
ENDBRANCH   3   9
ENDBRANCH   1   2
BRANCH   1  13
ATOM     13  C   UNL     1       2.412   0.275   8.603  1.00  0.00     0.230 C 
BRANCH  13  14
ATOM     14  C   UNL     1       3.490   0.191   9.685  1.00  0.00     0.046 C 
BRANCH  14  15
ATOM     15  C   UNL     1       3.962  -1.258   9.822  1.00  0.00     0.043 C 
BRANCH  15  16
ATOM     16  C   UNL     1       4.624  -1.447  11.163  1.00  0.00    -0.004 A 
ATOM     17  C   UNL     1       5.925  -1.207  11.449  1.00  0.00     0.036 A 
ATOM     18  C   UNL     1       4.002  -1.894  12.333  1.00  0.00     0.063 A 
ATOM     19  N   UNL     1       6.120  -1.499  12.752  1.00  0.00    -0.282 N 
ATOM     20  N   UNL     1       4.899  -1.932  13.284  1.00  0.00    -0.181 NA
ATOM     21  C   UNL     1       6.969  -0.705  10.486  1.00  0.00     0.066 C 
ATOM     22  C   UNL     1       2.550  -2.277  12.470  1.00  0.00     0.069 C 
ATOM     23  H   UNL     1       6.958  -1.424  13.235  1.00  0.00     0.190 HD
ENDBRANCH  15  16
ENDBRANCH  14  15
ENDBRANCH  13  14
ENDBRANCH   1  13
TORSDOF 7
ENDMDL
MODEL 5
REMARK VINA RESULT:    -5.034      9.641     10.626
REMARK INTER + INTRA:          -7.455
REMARK INTER:                  -7.154
REMARK INTRA:                  -0.301
REMARK UNBOUND:                -0.508
REMARK SMILES Cc1n[nH]c(C)c1CCCOc1cc(C(=O)O)ccc1F
REMARK SMILES IDX 11 1 12 2 14 3 18 4 13 5 19 6 20 7 21 8 15 9 16 10 17 11
REMARK SMILES IDX 10 13 9 14 8 15 7 16 5 17 2 18 4 19 3 20 6 21 1 22
REMARK H PARENT 17 12 4 23
ROOT
ATOM      1  O   UNL     1       1.450  -0.754   0.304  1.00  0.00    -0.490 OA
ENDROOT
BRANCH   1   2
ATOM      2  C   UNL     1       1.973   0.388  -0.216  1.00  0.00     0.155 A 
ATOM      3  C   UNL     1       1.837   2.757  -0.610  1.00  0.00     0.063 A 
ATOM      4  C   UNL     1       3.065   2.713  -1.275  1.00  0.00     0.019 A 
ATOM      5  C   UNL     1       1.294   1.585  -0.079  1.00  0.00     0.065 A 
ATOM      6  C   UNL     1       3.739   1.516  -1.400  1.00  0.00     0.044 A 
ATOM      7  C   UNL     1       3.200   0.356  -0.869  1.00  0.00     0.165 A 
ATOM      8  F   UNL     1       3.865  -0.814  -0.996  1.00  0.00    -0.203 F 
BRANCH   3   9
ATOM      9  C   UNL     1       1.114   4.036  -0.473  1.00  0.00     0.335 C 
ATOM     10  O   UNL     1       0.990   4.769  -1.432  1.00  0.00    -0.246 OA
BRANCH   9  11
ATOM     11  O   UNL     1       0.585   4.387   0.716  1.00  0.00    -0.478 OA
ATOM     12  H   UNL     1       0.993   4.008   1.507  1.00  0.00     0.297 HD
ENDBRANCH   9  11
ENDBRANCH   3   9
ENDBRANCH   1   2
BRANCH   1  13
ATOM     13  C   UNL     1       0.901  -1.695  -0.622  1.00  0.00     0.230 C 
BRANCH  13  14
ATOM     14  C   UNL     1       0.540  -2.985   0.117  1.00  0.00     0.046 C 
BRANCH  14  15
ATOM     15  C   UNL     1       0.509  -4.150  -0.875  1.00  0.00     0.043 C 
BRANCH  15  16
ATOM     16  C   UNL     1      -0.257  -5.300  -0.277  1.00  0.00    -0.004 A 
ATOM     17  C   UNL     1       0.271  -6.465   0.165  1.00  0.00     0.036 A 
ATOM     18  C   UNL     1      -1.640  -5.351  -0.073  1.00  0.00     0.063 A 
ATOM     19  N   UNL     1      -0.742  -7.229   0.625  1.00  0.00    -0.282 N 
ATOM     20  N   UNL     1      -1.933  -6.509   0.461  1.00  0.00    -0.181 NA
ATOM     21  C   UNL     1       1.729  -6.842   0.146  1.00  0.00     0.066 C 
ATOM     22  C   UNL     1      -2.625  -4.264  -0.421  1.00  0.00     0.069 C 
ATOM     23  H   UNL     1      -0.661  -8.118   1.002  1.00  0.00     0.190 HD
ENDBRANCH  15  16
ENDBRANCH  14  15
ENDBRANCH  13  14
ENDBRANCH   1  13
TORSDOF 7
ENDMDL
MODEL 6
REMARK VINA RESULT:    -4.814      3.783      6.510
REMARK INTER + INTRA:          -7.150
REMARK INTER:                  -6.352
REMARK INTRA:                  -0.798
REMARK UNBOUND:                -0.508
REMARK SMILES Cc1n[nH]c(C)c1CCCOc1cc(C(=O)O)ccc1F
REMARK SMILES IDX 11 1 12 2 14 3 18 4 13 5 19 6 20 7 21 8 15 9 16 10 17 11
REMARK SMILES IDX 10 13 9 14 8 15 7 16 5 17 2 18 4 19 3 20 6 21 1 22
REMARK H PARENT 17 12 4 23
ROOT
ATOM      1  O   UNL     1       5.166  -1.428   8.313  1.00  0.00    -0.490 OA
ENDROOT
BRANCH   1   2
ATOM      2  C   UNL     1       5.195  -1.503   9.670  1.00  0.00     0.155 A 
ATOM      3  C   UNL     1       4.164  -2.134  11.748  1.00  0.00     0.063 A 
ATOM      4  C   UNL     1       5.279  -1.657  12.442  1.00  0.00     0.019 A 
ATOM      5  C   UNL     1       4.128  -2.054  10.355  1.00  0.00     0.065 A 
ATOM      6  C   UNL     1       6.341  -1.114  11.750  1.00  0.00     0.044 A 
ATOM      7  C   UNL     1       6.305  -1.040  10.368  1.00  0.00     0.165 A 
ATOM      8  F   UNL     1       7.349  -0.508   9.695  1.00  0.00    -0.203 F 
BRANCH   3   9
ATOM      9  C   UNL     1       3.025  -2.716  12.486  1.00  0.00     0.335 C 
ATOM     10  O   UNL     1       2.041  -2.043  12.713  1.00  0.00    -0.246 OA
BRANCH   9  11
ATOM     11  O   UNL     1       3.076  -3.997  12.902  1.00  0.00    -0.478 OA
ATOM     12  H   UNL     1       3.243  -4.671  12.229  1.00  0.00     0.297 HD
ENDBRANCH   9  11
ENDBRANCH   3   9
ENDBRANCH   1   2
BRANCH   1  13
ATOM     13  C   UNL     1       4.737  -2.596   7.607  1.00  0.00     0.230 C 
BRANCH  13  14
ATOM     14  C   UNL     1       4.598  -2.269   6.119  1.00  0.00     0.046 C 
BRANCH  14  15
ATOM     15  C   UNL     1       4.234  -0.792   5.953  1.00  0.00     0.043 C 
BRANCH  15  16
ATOM     16  C   UNL     1       2.736  -0.645   5.915  1.00  0.00    -0.004 A 
ATOM     17  C   UNL     1       1.916  -1.090   4.934  1.00  0.00     0.036 A 
ATOM     18  C   UNL     1       1.944  -0.028   6.890  1.00  0.00     0.063 A 
ATOM     19  N   UNL     1       0.652  -0.761   5.274  1.00  0.00    -0.282 N 
ATOM     20  N   UNL     1       0.696  -0.092   6.503  1.00  0.00    -0.181 NA
ATOM     21  C   UNL     1       2.339  -1.822   3.688  1.00  0.00     0.066 C 
ATOM     22  C   UNL     1       2.445   0.610   8.161  1.00  0.00     0.069 C 
ATOM     23  H   UNL     1      -0.146  -0.954   4.757  1.00  0.00     0.190 HD
ENDBRANCH  15  16
ENDBRANCH  14  15
ENDBRANCH  13  14
ENDBRANCH   1  13
TORSDOF 7
ENDMDL
MODEL 7
REMARK VINA RESULT:    -4.736      3.949      7.028
REMARK INTER + INTRA:          -7.043
REMARK INTER:                  -6.249
REMARK INTRA:                  -0.794
REMARK UNBOUND:                -0.508
REMARK SMILES Cc1n[nH]c(C)c1CCCOc1cc(C(=O)O)ccc1F
REMARK SMILES IDX 11 1 12 2 14 3 18 4 13 5 19 6 20 7 21 8 15 9 16 10 17 11
REMARK SMILES IDX 10 13 9 14 8 15 7 16 5 17 2 18 4 19 3 20 6 21 1 22
REMARK H PARENT 17 12 4 23
ROOT
ATOM      1  O   UNL     1       3.259  -1.577   8.935  1.00  0.00    -0.490 OA
ENDROOT
BRANCH   1   2
ATOM      2  C   UNL     1       4.085  -1.527  10.014  1.00  0.00     0.155 A 
ATOM      3  C   UNL     1       6.174  -0.882  11.015  1.00  0.00     0.063 A 
ATOM      4  C   UNL     1       5.754  -1.426  12.232  1.00  0.00     0.019 A 
ATOM      5  C   UNL     1       5.330  -0.937   9.904  1.00  0.00     0.065 A 
ATOM      6  C   UNL     1       4.508  -2.007  12.334  1.00  0.00     0.044 A 
ATOM      7  C   UNL     1       3.671  -2.056  11.231  1.00  0.00     0.165 A 
ATOM      8  F   UNL     1       2.451  -2.627  11.337  1.00  0.00    -0.203 F 
BRANCH   3   9
ATOM      9  C   UNL     1       7.507  -0.259  10.904  1.00  0.00     0.335 C 
ATOM     10  O   UNL     1       7.987  -0.042   9.810  1.00  0.00    -0.246 OA
BRANCH   9  11
ATOM     11  O   UNL     1       8.189   0.076  12.017  1.00  0.00    -0.478 OA
ATOM     12  H   UNL     1       8.216  -0.579  12.729  1.00  0.00     0.297 HD
ENDBRANCH   9  11
ENDBRANCH   3   9
ENDBRANCH   1   2
BRANCH   1  13
ATOM     13  C   UNL     1       3.104  -0.373   8.180  1.00  0.00     0.230 C 
BRANCH  13  14
ATOM     14  C   UNL     1       2.368  -0.681   6.875  1.00  0.00     0.046 C 
BRANCH  14  15
ATOM     15  C   UNL     1       2.496  -2.172   6.557  1.00  0.00     0.043 C 
BRANCH  15  16
ATOM     16  C   UNL     1       3.627  -2.385   5.585  1.00  0.00    -0.004 A 
ATOM     17  C   UNL     1       3.658  -1.972   4.297  1.00  0.00     0.036 A 
ATOM     18  C   UNL     1       4.834  -3.038   5.856  1.00  0.00     0.063 A 
ATOM     19  N   UNL     1       4.839  -2.356   3.770  1.00  0.00    -0.282 N 
ATOM     20  N   UNL     1       5.558  -3.027   4.767  1.00  0.00    -0.181 NA
ATOM     21  C   UNL     1       2.568  -1.218   3.580  1.00  0.00     0.066 C 
ATOM     22  C   UNL     1       5.227  -3.658   7.173  1.00  0.00     0.069 C 
ATOM     23  H   UNL     1       5.137  -2.196   2.861  1.00  0.00     0.190 HD
ENDBRANCH  15  16
ENDBRANCH  14  15
ENDBRANCH  13  14
ENDBRANCH   1  13
TORSDOF 7
ENDMDL
MODEL 8
REMARK VINA RESULT:    -4.556      3.941      6.928
REMARK INTER + INTRA:          -6.795
REMARK INTER:                  -5.962
REMARK INTRA:                  -0.832
REMARK UNBOUND:                -0.508
REMARK SMILES Cc1n[nH]c(C)c1CCCOc1cc(C(=O)O)ccc1F
REMARK SMILES IDX 11 1 12 2 14 3 18 4 13 5 19 6 20 7 21 8 15 9 16 10 17 11
REMARK SMILES IDX 10 13 9 14 8 15 7 16 5 17 2 18 4 19 3 20 6 21 1 22
REMARK H PARENT 17 12 4 23
ROOT
ATOM      1  O   UNL     1       4.128  -2.390   8.601  1.00  0.00    -0.490 OA
ENDROOT
BRANCH   1   2
ATOM      2  C   UNL     1       4.654  -2.037   9.804  1.00  0.00     0.155 A 
ATOM      3  C   UNL     1       6.447  -1.101  11.105  1.00  0.00     0.063 A 
ATOM      4  C   UNL     1       5.707  -1.314  12.271  1.00  0.00     0.019 A 
ATOM      5  C   UNL     1       5.912  -1.466   9.868  1.00  0.00     0.065 A 
ATOM      6  C   UNL     1       4.451  -1.879  12.197  1.00  0.00     0.044 A 
ATOM      7  C   UNL     1       3.921  -2.237  10.969  1.00  0.00     0.165 A 
ATOM      8  F   UNL     1       2.690  -2.790  10.903  1.00  0.00    -0.203 F 
BRANCH   3   9
ATOM      9  C   UNL     1       7.791  -0.496  11.181  1.00  0.00     0.335 C 
ATOM     10  O   UNL     1       8.322  -0.328  12.260  1.00  0.00    -0.246 OA
BRANCH   9  11
ATOM     11  O   UNL     1       8.432  -0.136  10.051  1.00  0.00    -0.478 OA
ATOM     12  H   UNL     1       9.363   0.115  10.135  1.00  0.00     0.297 HD
ENDBRANCH   9  11
ENDBRANCH   3   9
ENDBRANCH   1   2
BRANCH   1  13
ATOM     13  C   UNL     1       5.049  -2.783   7.580  1.00  0.00     0.230 C 
BRANCH  13  14
ATOM     14  C   UNL     1       4.433  -2.513   6.207  1.00  0.00     0.046 C 
BRANCH  14  15
ATOM     15  C   UNL     1       4.204  -1.009   6.038  1.00  0.00     0.043 C 
BRANCH  15  16
ATOM     16  C   UNL     1       2.724  -0.728   5.985  1.00  0.00    -0.004 A 
ATOM     17  C   UNL     1       1.879  -1.094   4.993  1.00  0.00     0.036 A 
ATOM     18  C   UNL     1       1.980  -0.049   6.955  1.00  0.00     0.063 A 
ATOM     19  N   UNL     1       0.646  -0.656   5.321  1.00  0.00    -0.282 N 
ATOM     20  N   UNL     1       0.736   0.001   6.555  1.00  0.00    -0.181 NA
ATOM     21  C   UNL     1       2.249  -1.855   3.747  1.00  0.00     0.066 C 
ATOM     22  C   UNL     1       2.521   0.536   8.235  1.00  0.00     0.069 C 
ATOM     23  H   UNL     1      -0.161  -0.774   4.795  1.00  0.00     0.190 HD
ENDBRANCH  15  16
ENDBRANCH  14  15
ENDBRANCH  13  14
ENDBRANCH   1  13
TORSDOF 7
ENDMDL
MODEL 9
REMARK VINA RESULT:    -4.532      3.794      6.572
REMARK INTER + INTRA:          -6.762
REMARK INTER:                  -6.173
REMARK INTRA:                  -0.589
REMARK UNBOUND:                -0.508
REMARK SMILES Cc1n[nH]c(C)c1CCCOc1cc(C(=O)O)ccc1F
REMARK SMILES IDX 11 1 12 2 14 3 18 4 13 5 19 6 20 7 21 8 15 9 16 10 17 11
REMARK SMILES IDX 10 13 9 14 8 15 7 16 5 17 2 18 4 19 3 20 6 21 1 22
REMARK H PARENT 17 12 4 23
ROOT
ATOM      1  O   UNL     1       4.220  -0.866   8.538  1.00  0.00    -0.490 OA
ENDROOT
BRANCH   1   2
ATOM      2  C   UNL     1       4.528  -1.180   9.824  1.00  0.00     0.155 A 
ATOM      3  C   UNL     1       3.896  -2.077  11.964  1.00  0.00     0.063 A 
ATOM      4  C   UNL     1       5.183  -1.822  12.447  1.00  0.00     0.019 A 
ATOM      5  C   UNL     1       3.574  -1.752  10.645  1.00  0.00     0.065 A 
ATOM      6  C   UNL     1       6.130  -1.256  11.619  1.00  0.00     0.044 A 
ATOM      7  C   UNL     1       5.809  -0.939  10.310  1.00  0.00     0.165 A 
ATOM      8  F   UNL     1       6.742  -0.386   9.504  1.00  0.00    -0.203 F 
BRANCH   3   9
ATOM      9  C   UNL     1       2.880  -2.682  12.847  1.00  0.00     0.335 C 
ATOM     10  O   UNL     1       3.144  -2.912  14.009  1.00  0.00    -0.246 OA
BRANCH   9  11
ATOM     11  O   UNL     1       1.656  -2.974  12.364  1.00  0.00    -0.478 OA
ATOM     12  H   UNL     1       1.405  -3.908  12.338  1.00  0.00     0.297 HD
ENDBRANCH   9  11
ENDBRANCH   3   9
ENDBRANCH   1   2
BRANCH   1  13
ATOM     13  C   UNL     1       2.960  -0.230   8.310  1.00  0.00     0.230 C 
BRANCH  13  14
ATOM     14  C   UNL     1       2.434  -0.622   6.927  1.00  0.00     0.046 C 
BRANCH  14  15
ATOM     15  C   UNL     1       2.593  -2.131   6.731  1.00  0.00     0.043 C 
BRANCH  15  16
ATOM     16  C   UNL     1       3.677  -2.396   5.719  1.00  0.00    -0.004 A 
ATOM     17  C   UNL     1       3.667  -2.009   4.421  1.00  0.00     0.036 A 
ATOM     18  C   UNL     1       4.875  -3.078   5.955  1.00  0.00     0.063 A 
ATOM     19  N   UNL     1       4.815  -2.438   3.856  1.00  0.00    -0.282 N 
ATOM     20  N   UNL     1       5.554  -3.111   4.837  1.00  0.00    -0.181 NA
ATOM     21  C   UNL     1       2.571  -1.239   3.733  1.00  0.00     0.066 C 
ATOM     22  C   UNL     1       5.303  -3.683   7.267  1.00  0.00     0.069 C 
ATOM     23  H   UNL     1       5.080  -2.306   2.932  1.00  0.00     0.190 HD
ENDBRANCH  15  16
ENDBRANCH  14  15
ENDBRANCH  13  14
ENDBRANCH   1  13
TORSDOF 7
ENDMDL
