MODEL 1
REMARK VINA RESULT:    -5.211      0.000      0.000
REMARK INTER + INTRA:          -6.269
REMARK INTER:                  -5.973
REMARK INTRA:                  -0.296
REMARK UNBOUND:                -0.296
REMARK SMILES O=C(O)c1ccc2nc(-c3cc(Cl)cc(Cl)c3)oc2c1
REMARK SMILES IDX 5 1 6 2 20 3 8 4 18 5 4 6 9 7 7 8 19 9 2 10 1 11 3 12 10 14
REMARK SMILES IDX 11 15 17 16 12 17 15 18 14 19 13 20 16 21
REMARK H PARENT 3 13
ROOT
ATOM      1  C   UNL     1       1.227   2.224  -1.180  1.00  0.00     0.018 A 
ATOM      2  C   UNL     1       0.233   1.303  -1.039  1.00  0.00     0.033 A 
ATOM      3  C   UNL     1       2.901   0.479  -0.996  1.00  0.00     0.065 A 
ATOM      4  N   UNL     1      -0.196  -1.165  -0.711  1.00  0.00    -0.209 NA
ATOM      5  O   UNL     1       1.885  -1.798  -0.673  1.00  0.00    -0.436 OA
ATOM      6  C   UNL     1       2.571   1.825  -1.162  1.00  0.00     0.063 A 
ATOM      7  C   UNL     1       0.601  -2.197  -0.595  1.00  0.00     0.227 A 
ATOM      8  C   UNL     1       0.549  -0.050  -0.871  1.00  0.00     0.110 A 
ATOM      9  C   UNL     1       1.895  -0.458  -0.848  1.00  0.00     0.156 A 
ENDROOT
BRANCH   6  10
ATOM     10  C   UNL     1       3.639   2.829  -1.322  1.00  0.00     0.335 C 
ATOM     11  O   UNL     1       4.706   2.509  -1.805  1.00  0.00    -0.246 OA
BRANCH  10  12
ATOM     12  O   UNL     1       3.431   4.102  -0.930  1.00  0.00    -0.478 OA
ATOM     13  H   UNL     1       2.521   4.428  -0.960  1.00  0.00     0.297 HD
ENDBRANCH  10  12
ENDBRANCH   6  10
BRANCH   7  14
ATOM     14  C   UNL     1       0.157  -3.593  -0.404  1.00  0.00     0.040 A 
ATOM     15  C   UNL     1       1.097  -4.619  -0.294  1.00  0.00     0.034 A 
ATOM     16  C   UNL     1      -1.205  -3.892  -0.335  1.00  0.00     0.034 A 
ATOM     17  C   UNL     1       0.675  -5.922  -0.115  1.00  0.00     0.043 A 
ATOM     18  C   UNL     1      -1.614  -5.198  -0.156  1.00  0.00     0.043 A 
ATOM     19  C   UNL     1      -0.677  -6.211  -0.048  1.00  0.00     0.041 A 
ATOM     20  Cl  UNL     1       1.842  -7.199   0.023  1.00  0.00    -0.084 Cl
ATOM     21  Cl  UNL     1      -3.308  -5.571  -0.070  1.00  0.00    -0.084 Cl
ENDBRANCH   7  14
TORSDOF 3
ENDMDL
MODEL 2
REMARK VINA RESULT:    -5.201      0.018      2.020
REMARK INTER + INTRA:          -6.257
REMARK INTER:                  -5.961
REMARK INTRA:                  -0.296
REMARK UNBOUND:                -0.296
REMARK SMILES O=C(O)c1ccc2nc(-c3cc(Cl)cc(Cl)c3)oc2c1
REMARK SMILES IDX 5 1 6 2 20 3 8 4 18 5 4 6 9 7 7 8 19 9 2 10 1 11 3 12 10 14
REMARK SMILES IDX 11 15 17 16 12 17 15 18 14 19 13 20 16 21
REMARK H PARENT 3 13
ROOT
ATOM      1  C   UNL     1       1.222   2.227  -1.173  1.00  0.00     0.018 A 
ATOM      2  C   UNL     1       0.227   1.305  -1.038  1.00  0.00     0.033 A 
ATOM      3  C   UNL     1       2.896   0.484  -0.976  1.00  0.00     0.065 A 
ATOM      4  N   UNL     1      -0.201  -1.163  -0.711  1.00  0.00    -0.209 NA
ATOM      5  O   UNL     1       1.881  -1.794  -0.659  1.00  0.00    -0.436 OA
ATOM      6  C   UNL     1       2.566   1.830  -1.146  1.00  0.00     0.063 A 
ATOM      7  C   UNL     1       0.597  -2.194  -0.588  1.00  0.00     0.227 A 
ATOM      8  C   UNL     1       0.544  -0.048  -0.867  1.00  0.00     0.110 A 
ATOM      9  C   UNL     1       1.890  -0.454  -0.834  1.00  0.00     0.156 A 
ENDROOT
BRANCH   6  10
ATOM     10  C   UNL     1       3.633   2.835  -1.299  1.00  0.00     0.335 C 
ATOM     11  O   UNL     1       4.714   2.509  -1.747  1.00  0.00    -0.246 OA
BRANCH  10  12
ATOM     12  O   UNL     1       3.410   4.115  -0.941  1.00  0.00    -0.478 OA
ATOM     13  H   UNL     1       3.516   4.334  -0.005  1.00  0.00     0.297 HD
ENDBRANCH  10  12
ENDBRANCH   6  10
BRANCH   7  14
ATOM     14  C   UNL     1       0.153  -3.591  -0.400  1.00  0.00     0.040 A 
ATOM     15  C   UNL     1      -1.208  -3.891  -0.327  1.00  0.00     0.034 A 
ATOM     16  C   UNL     1       1.095  -4.617  -0.294  1.00  0.00     0.034 A 
ATOM     17  C   UNL     1      -1.616  -5.198  -0.152  1.00  0.00     0.043 A 
ATOM     18  C   UNL     1       0.674  -5.920  -0.119  1.00  0.00     0.043 A 
ATOM     19  C   UNL     1      -0.677  -6.211  -0.047  1.00  0.00     0.041 A 
ATOM     20  Cl  UNL     1      -3.308  -5.573  -0.061  1.00  0.00    -0.084 Cl
ATOM     21  Cl  UNL     1       1.844  -7.197   0.013  1.00  0.00    -0.084 Cl
ENDBRANCH   7  14
TORSDOF 3
ENDMDL
MODEL 3
REMARK VINA RESULT:    -4.206      3.971      7.533
REMARK INTER + INTRA:          -5.117
REMARK INTER:                  -4.823
REMARK INTRA:                  -0.294
REMARK UNBOUND:                -0.296
REMARK SMILES O=C(O)c1ccc2nc(-c3cc(Cl)cc(Cl)c3)oc2c1
REMARK SMILES IDX 5 1 6 2 20 3 8 4 18 5 4 6 9 7 7 8 19 9 2 10 1 11 3 12 10 14
REMARK SMILES IDX 11 15 17 16 12 17 15 18 14 19 13 20 16 21
REMARK H PARENT 3 13
ROOT
ATOM      1  C   UNL     1       0.374  -5.347  -0.968  1.00  0.00     0.018 A 
ATOM      2  C   UNL     1       1.210  -4.395  -1.470  1.00  0.00     0.033 A 
ATOM      3  C   UNL     1      -0.751  -3.680   0.386  1.00  0.00     0.065 A 
ATOM      4  N   UNL     1       1.749  -1.929  -1.362  1.00  0.00    -0.209 NA
ATOM      5  O   UNL     1       0.222  -1.382   0.088  1.00  0.00    -0.436 OA
ATOM      6  C   UNL     1      -0.617  -5.003  -0.038  1.00  0.00     0.063 A 
ATOM      7  C   UNL     1       1.232  -0.936  -0.683  1.00  0.00     0.227 A 
ATOM      8  C   UNL     1       1.086  -3.064  -1.053  1.00  0.00     0.110 A 
ATOM      9  C   UNL     1       0.098  -2.712  -0.116  1.00  0.00     0.156 A 
ENDROOT
BRANCH   6  10
ATOM     10  C   UNL     1      -1.519  -6.041   0.493  1.00  0.00     0.335 C 
ATOM     11  O   UNL     1      -1.096  -7.158   0.715  1.00  0.00    -0.246 OA
BRANCH  10  12
ATOM     12  O   UNL     1      -2.814  -5.751   0.730  1.00  0.00    -0.478 OA
ATOM     13  H   UNL     1      -3.195  -5.010   0.241  1.00  0.00     0.297 HD
ENDBRANCH  10  12
ENDBRANCH   6  10
BRANCH   7  14
ATOM     14  C   UNL     1       1.691   0.467  -0.752  1.00  0.00     0.040 A 
ATOM     15  C   UNL     1       2.916   0.776  -1.344  1.00  0.00     0.034 A 
ATOM     16  C   UNL     1       0.899   1.490  -0.225  1.00  0.00     0.034 A 
ATOM     17  C   UNL     1       3.338   2.089  -1.407  1.00  0.00     0.043 A 
ATOM     18  C   UNL     1       1.332   2.799  -0.294  1.00  0.00     0.043 A 
ATOM     19  C   UNL     1       2.549   3.098  -0.882  1.00  0.00     0.041 A 
ATOM     20  Cl  UNL     1       4.862   2.475  -2.144  1.00  0.00    -0.084 Cl
ATOM     21  Cl  UNL     1       0.350   4.072   0.361  1.00  0.00    -0.084 Cl
ENDBRANCH   7  14
TORSDOF 3
ENDMDL
MODEL 4
REMARK VINA RESULT:    -4.151      3.967      7.803
REMARK INTER + INTRA:          -5.054
REMARK INTER:                  -4.762
REMARK INTRA:                  -0.292
REMARK UNBOUND:                -0.296
REMARK SMILES O=C(O)c1ccc2nc(-c3cc(Cl)cc(Cl)c3)oc2c1
REMARK SMILES IDX 5 1 6 2 20 3 8 4 18 5 4 6 9 7 7 8 19 9 2 10 1 11 3 12 10 14
REMARK SMILES IDX 11 15 17 16 12 17 15 18 14 19 13 20 16 21
REMARK H PARENT 3 13
ROOT
ATOM      1  C   UNL     1       0.313  -5.388  -0.916  1.00  0.00     0.018 A 
ATOM      2  C   UNL     1       1.208  -4.457  -1.350  1.00  0.00     0.033 A 
ATOM      3  C   UNL     1      -0.951  -3.669   0.238  1.00  0.00     0.065 A 
ATOM      4  N   UNL     1       1.747  -1.990  -1.270  1.00  0.00    -0.209 NA
ATOM      5  O   UNL     1       0.066  -1.386  -0.028  1.00  0.00    -0.436 OA
ATOM      6  C   UNL     1      -0.777  -5.007  -0.119  1.00  0.00     0.063 A 
ATOM      7  C   UNL     1       1.162  -0.971  -0.692  1.00  0.00     0.227 A 
ATOM      8  C   UNL     1       1.045  -3.111  -0.999  1.00  0.00     0.110 A 
ATOM      9  C   UNL     1      -0.042  -2.722  -0.197  1.00  0.00     0.156 A 
ENDROOT
BRANCH   6  10
ATOM     10  C   UNL     1      -1.742  -6.023   0.340  1.00  0.00     0.335 C 
ATOM     11  O   UNL     1      -2.934  -5.825   0.220  1.00  0.00    -0.246 OA
BRANCH  10  12
ATOM     12  O   UNL     1      -1.302  -7.170   0.894  1.00  0.00    -0.478 OA
ATOM     13  H   UNL     1      -1.592  -7.362   1.796  1.00  0.00     0.297 HD
ENDBRANCH  10  12
ENDBRANCH   6  10
BRANCH   7  14
ATOM     14  C   UNL     1       1.635   0.428  -0.759  1.00  0.00     0.040 A 
ATOM     15  C   UNL     1       0.854   1.458  -0.232  1.00  0.00     0.034 A 
ATOM     16  C   UNL     1       2.865   0.723  -1.350  1.00  0.00     0.034 A 
ATOM     17  C   UNL     1       1.302   2.762  -0.297  1.00  0.00     0.043 A 
ATOM     18  C   UNL     1       3.302   2.031  -1.408  1.00  0.00     0.043 A 
ATOM     19  C   UNL     1       2.523   3.049  -0.884  1.00  0.00     0.041 A 
ATOM     20  Cl  UNL     1       0.334   4.045   0.358  1.00  0.00    -0.084 Cl
ATOM     21  Cl  UNL     1       4.831   2.402  -2.143  1.00  0.00    -0.084 Cl
ENDBRANCH   7  14
TORSDOF 3
ENDMDL
MODEL 5
REMARK VINA RESULT:    -3.712     14.797     16.058
REMARK INTER + INTRA:          -4.550
REMARK INTER:                  -4.269
REMARK INTRA:                  -0.281
REMARK UNBOUND:                -0.296
REMARK SMILES O=C(O)c1ccc2nc(-c3cc(Cl)cc(Cl)c3)oc2c1
REMARK SMILES IDX 5 1 6 2 20 3 8 4 18 5 4 6 9 7 7 8 19 9 2 10 1 11 3 12 10 14
REMARK SMILES IDX 11 15 17 16 12 17 15 18 14 19 13 20 16 21
REMARK H PARENT 3 13
ROOT
ATOM      1  C   UNL     1       2.370  -3.813  17.253  1.00  0.00     0.018 A 
ATOM      2  C   UNL     1       2.971  -2.795  16.575  1.00  0.00     0.033 A 
ATOM      3  C   UNL     1       2.177  -5.095  15.204  1.00  0.00     0.065 A 
ATOM      4  N   UNL     1       3.742  -2.084  14.277  1.00  0.00    -0.209 NA
ATOM      5  O   UNL     1       3.116  -3.877  13.215  1.00  0.00    -0.436 OA
ATOM      6  C   UNL     1       1.968  -4.974  16.579  1.00  0.00     0.063 A 
ATOM      7  C   UNL     1       3.698  -2.667  13.105  1.00  0.00     0.227 A 
ATOM      8  C   UNL     1       3.187  -2.903  15.196  1.00  0.00     0.110 A 
ATOM      9  C   UNL     1       2.782  -4.062  14.512  1.00  0.00     0.156 A 
ENDROOT
BRANCH   6  10
ATOM     10  C   UNL     1       1.324  -6.071  17.324  1.00  0.00     0.335 C 
ATOM     11  O   UNL     1       1.993  -6.993  17.746  1.00  0.00    -0.246 OA
BRANCH  10  12
ATOM     12  O   UNL     1      -0.007  -6.053  17.535  1.00  0.00    -0.478 OA
ATOM     13  H   UNL     1      -0.490  -5.274  17.228  1.00  0.00     0.297 HD
ENDBRANCH  10  12
ENDBRANCH   6  10
BRANCH   7  14
ATOM     14  C   UNL     1       4.209  -2.083  11.848  1.00  0.00     0.040 A 
ATOM     15  C   UNL     1       5.477  -1.502  11.810  1.00  0.00     0.034 A 
ATOM     16  C   UNL     1       3.425  -2.110  10.693  1.00  0.00     0.034 A 
ATOM     17  C   UNL     1       5.950  -0.958  10.632  1.00  0.00     0.043 A 
ATOM     18  C   UNL     1       3.909  -1.564   9.521  1.00  0.00     0.043 A 
ATOM     19  C   UNL     1       5.168  -0.989   9.490  1.00  0.00     0.041 A 
ATOM     20  Cl  UNL     1       7.527  -0.235  10.583  1.00  0.00    -0.084 Cl
ATOM     21  Cl  UNL     1       2.936  -1.597   8.083  1.00  0.00    -0.084 Cl
ENDBRANCH   7  14
TORSDOF 3
ENDMDL
MODEL 6
REMARK VINA RESULT:    -3.711     14.800     16.154
REMARK INTER + INTRA:          -4.550
REMARK INTER:                  -4.269
REMARK INTRA:                  -0.281
REMARK UNBOUND:                -0.296
REMARK SMILES O=C(O)c1ccc2nc(-c3cc(Cl)cc(Cl)c3)oc2c1
REMARK SMILES IDX 5 1 6 2 20 3 8 4 18 5 4 6 9 7 7 8 19 9 2 10 1 11 3 12 10 14
REMARK SMILES IDX 11 15 17 16 12 17 15 18 14 19 13 20 16 21
REMARK H PARENT 3 13
ROOT
ATOM      1  C   UNL     1       2.369  -3.807  17.256  1.00  0.00     0.018 A 
ATOM      2  C   UNL     1       2.969  -2.789  16.577  1.00  0.00     0.033 A 
ATOM      3  C   UNL     1       2.179  -5.092  15.209  1.00  0.00     0.065 A 
ATOM      4  N   UNL     1       3.740  -2.080  14.278  1.00  0.00    -0.209 NA
ATOM      5  O   UNL     1       3.117  -3.876  13.219  1.00  0.00    -0.436 OA
ATOM      6  C   UNL     1       1.969  -4.970  16.583  1.00  0.00     0.063 A 
ATOM      7  C   UNL     1       3.697  -2.666  13.107  1.00  0.00     0.227 A 
ATOM      8  C   UNL     1       3.186  -2.899  15.198  1.00  0.00     0.110 A 
ATOM      9  C   UNL     1       2.783  -4.060  14.515  1.00  0.00     0.156 A 
ENDROOT
BRANCH   6  10
ATOM     10  C   UNL     1       1.326  -6.067  17.330  1.00  0.00     0.335 C 
ATOM     11  O   UNL     1       1.999  -6.981  17.764  1.00  0.00    -0.246 OA
BRANCH  10  12
ATOM     12  O   UNL     1      -0.006  -6.057  17.529  1.00  0.00    -0.478 OA
ATOM     13  H   UNL     1      -0.566  -5.929  16.751  1.00  0.00     0.297 HD
ENDBRANCH  10  12
ENDBRANCH   6  10
BRANCH   7  14
ATOM     14  C   UNL     1       4.209  -2.083  11.849  1.00  0.00     0.040 A 
ATOM     15  C   UNL     1       3.426  -2.111  10.694  1.00  0.00     0.034 A 
ATOM     16  C   UNL     1       5.478  -1.502  11.812  1.00  0.00     0.034 A 
ATOM     17  C   UNL     1       3.910  -1.564   9.522  1.00  0.00     0.043 A 
ATOM     18  C   UNL     1       5.950  -0.958  10.634  1.00  0.00     0.043 A 
ATOM     19  C   UNL     1       5.169  -0.989   9.492  1.00  0.00     0.041 A 
ATOM     20  Cl  UNL     1       2.938  -1.597   8.084  1.00  0.00    -0.084 Cl
ATOM     21  Cl  UNL     1       7.528  -0.235  10.586  1.00  0.00    -0.084 Cl
ENDBRANCH   7  14
TORSDOF 3
ENDMDL
MODEL 7
REMARK VINA RESULT:    -3.688      9.976     10.751
REMARK INTER + INTRA:          -4.523
REMARK INTER:                  -4.225
REMARK INTRA:                  -0.298
REMARK UNBOUND:                -0.296
REMARK SMILES O=C(O)c1ccc2nc(-c3cc(Cl)cc(Cl)c3)oc2c1
REMARK SMILES IDX 5 1 6 2 20 3 8 4 18 5 4 6 9 7 7 8 19 9 2 10 1 11 3 12 10 14
REMARK SMILES IDX 11 15 17 16 12 17 15 18 14 19 13 20 16 21
REMARK H PARENT 3 13
ROOT
ATOM      1  C   UNL     1       3.709  -1.368   4.151  1.00  0.00     0.018 A 
ATOM      2  C   UNL     1       4.675  -1.194   5.096  1.00  0.00     0.033 A 
ATOM      3  C   UNL     1       2.092  -1.920   5.872  1.00  0.00     0.065 A 
ATOM      4  N   UNL     1       5.098  -1.284   7.585  1.00  0.00    -0.209 NA
ATOM      5  O   UNL     1       3.085  -1.854   8.181  1.00  0.00    -0.436 OA
ATOM      6  C   UNL     1       2.407  -1.730   4.525  1.00  0.00     0.063 A 
ATOM      7  C   UNL     1       4.328  -1.565   8.607  1.00  0.00     0.227 A 
ATOM      8  C   UNL     1       4.372  -1.380   6.450  1.00  0.00     0.110 A 
ATOM      9  C   UNL     1       3.071  -1.749   6.833  1.00  0.00     0.156 A 
ENDROOT
BRANCH   6  10
ATOM     10  C   UNL     1       1.369  -1.910   3.495  1.00  0.00     0.335 C 
ATOM     11  O   UNL     1       1.665  -1.852   2.318  1.00  0.00    -0.246 OA
BRANCH  10  12
ATOM     12  O   UNL     1       0.091  -2.137   3.857  1.00  0.00    -0.478 OA
ATOM     13  H   UNL     1      -0.172  -3.058   3.988  1.00  0.00     0.297 HD
ENDBRANCH  10  12
ENDBRANCH   6  10
BRANCH   7  14
ATOM     14  C   UNL     1       4.763  -1.566  10.019  1.00  0.00     0.040 A 
ATOM     15  C   UNL     1       6.086  -1.265  10.346  1.00  0.00     0.034 A 
ATOM     16  C   UNL     1       3.851  -1.870  11.033  1.00  0.00     0.034 A 
ATOM     17  C   UNL     1       6.485  -1.267  11.668  1.00  0.00     0.043 A 
ATOM     18  C   UNL     1       4.262  -1.868  12.350  1.00  0.00     0.043 A 
ATOM     19  C   UNL     1       5.576  -1.569  12.668  1.00  0.00     0.041 A 
ATOM     20  Cl  UNL     1       8.130  -0.892  12.077  1.00  0.00    -0.084 Cl
ATOM     21  Cl  UNL     1       3.130  -2.245  13.612  1.00  0.00    -0.084 Cl
ENDBRANCH   7  14
TORSDOF 3
ENDMDL
MODEL 8
REMARK VINA RESULT:    -3.687      9.983     10.907
REMARK INTER + INTRA:          -4.522
REMARK INTER:                  -4.223
REMARK INTRA:                  -0.298
REMARK UNBOUND:                -0.296
REMARK SMILES O=C(O)c1ccc2nc(-c3cc(Cl)cc(Cl)c3)oc2c1
REMARK SMILES IDX 5 1 6 2 20 3 8 4 18 5 4 6 9 7 7 8 19 9 2 10 1 11 3 12 10 14
REMARK SMILES IDX 11 15 17 16 12 17 15 18 14 19 13 20 16 21
REMARK H PARENT 3 13
ROOT
ATOM      1  C   UNL     1       3.719  -1.383   4.156  1.00  0.00     0.018 A 
ATOM      2  C   UNL     1       4.685  -1.214   5.103  1.00  0.00     0.033 A 
ATOM      3  C   UNL     1       2.094  -1.913   5.876  1.00  0.00     0.065 A 
ATOM      4  N   UNL     1       5.102  -1.299   7.593  1.00  0.00    -0.209 NA
ATOM      5  O   UNL     1       3.082  -1.848   8.187  1.00  0.00    -0.436 OA
ATOM      6  C   UNL     1       2.414  -1.732   4.529  1.00  0.00     0.063 A 
ATOM      7  C   UNL     1       4.328  -1.569   8.615  1.00  0.00     0.227 A 
ATOM      8  C   UNL     1       4.378  -1.393   6.457  1.00  0.00     0.110 A 
ATOM      9  C   UNL     1       3.072  -1.748   6.839  1.00  0.00     0.156 A 
ENDROOT
BRANCH   6  10
ATOM     10  C   UNL     1       1.376  -1.906   3.497  1.00  0.00     0.335 C 
ATOM     11  O   UNL     1       1.672  -1.840   2.321  1.00  0.00    -0.246 OA
BRANCH  10  12
ATOM     12  O   UNL     1       0.098  -2.137   3.858  1.00  0.00    -0.478 OA
ATOM     13  H   UNL     1      -0.073  -2.290   4.797  1.00  0.00     0.297 HD
ENDBRANCH  10  12
ENDBRANCH   6  10
BRANCH   7  14
ATOM     14  C   UNL     1       4.760  -1.569  10.028  1.00  0.00     0.040 A 
ATOM     15  C   UNL     1       3.847  -1.870  11.040  1.00  0.00     0.034 A 
ATOM     16  C   UNL     1       6.083  -1.267  10.356  1.00  0.00     0.034 A 
ATOM     17  C   UNL     1       4.257  -1.869  12.358  1.00  0.00     0.043 A 
ATOM     18  C   UNL     1       6.481  -1.269  11.678  1.00  0.00     0.043 A 
ATOM     19  C   UNL     1       5.570  -1.568  12.677  1.00  0.00     0.041 A 
ATOM     20  Cl  UNL     1       3.124  -2.243  13.619  1.00  0.00    -0.084 Cl
ATOM     21  Cl  UNL     1       8.126  -0.893  12.088  1.00  0.00    -0.084 Cl
ENDBRANCH   7  14
TORSDOF 3
ENDMDL
MODEL 9
REMARK VINA RESULT:    -3.462     11.139     11.905
REMARK INTER + INTRA:          -4.264
REMARK INTER:                  -3.979
REMARK INTRA:                  -0.285
REMARK UNBOUND:                -0.296
REMARK SMILES O=C(O)c1ccc2nc(-c3cc(Cl)cc(Cl)c3)oc2c1
REMARK SMILES IDX 5 1 6 2 20 3 8 4 18 5 4 6 9 7 7 8 19 9 2 10 1 11 3 12 10 14
REMARK SMILES IDX 11 15 17 16 12 17 15 18 14 19 13 20 16 21
REMARK H PARENT 3 13
ROOT
ATOM      1  C   UNL     1       5.103  -1.670  12.983  1.00  0.00     0.018 A 
ATOM      2  C   UNL     1       5.587  -1.464  11.726  1.00  0.00     0.033 A 
ATOM      3  C   UNL     1       2.950  -2.319  12.074  1.00  0.00     0.065 A 
ATOM      4  N   UNL     1       4.954  -1.564   9.282  1.00  0.00    -0.209 NA
ATOM      5  O   UNL     1       2.900  -2.225   9.562  1.00  0.00    -0.436 OA
ATOM      6  C   UNL     1       3.782  -2.101  13.173  1.00  0.00     0.063 A 
ATOM      7  C   UNL     1       3.845  -1.890   8.664  1.00  0.00     0.227 A 
ATOM      8  C   UNL     1       4.763  -1.680  10.614  1.00  0.00     0.110 A 
ATOM      9  C   UNL     1       3.436  -2.107  10.797  1.00  0.00     0.156 A 
ENDROOT
BRANCH   6  10
ATOM     10  C   UNL     1       3.271  -2.325  14.538  1.00  0.00     0.335 C 
ATOM     11  O   UNL     1       2.901  -1.384  15.210  1.00  0.00    -0.246 OA
BRANCH  10  12
ATOM     12  O   UNL     1       3.216  -3.575  15.040  1.00  0.00    -0.478 OA
ATOM     13  H   UNL     1       2.640  -4.205  14.587  1.00  0.00     0.297 HD
ENDBRANCH  10  12
ENDBRANCH   6  10
BRANCH   7  14
ATOM     14  C   UNL     1       3.661  -1.887   7.198  1.00  0.00     0.040 A 
ATOM     15  C   UNL     1       4.755  -2.079   6.354  1.00  0.00     0.034 A 
ATOM     16  C   UNL     1       2.391  -1.692   6.652  1.00  0.00     0.034 A 
ATOM     17  C   UNL     1       4.576  -2.077   4.984  1.00  0.00     0.043 A 
ATOM     18  C   UNL     1       2.224  -1.692   5.282  1.00  0.00     0.043 A 
ATOM     19  C   UNL     1       3.314  -1.883   4.450  1.00  0.00     0.041 A 
ATOM     20  Cl  UNL     1       5.935  -2.316   3.932  1.00  0.00    -0.084 Cl
ATOM     21  Cl  UNL     1       0.645  -1.450   4.601  1.00  0.00    -0.084 Cl
ENDBRANCH   7  14
TORSDOF 3
ENDMDL
