MODEL 1
REMARK VINA RESULT:    -5.029      0.000      0.000
REMARK INTER + INTRA:          -7.397
REMARK INTER:                  -6.940
REMARK INTRA:                  -0.456
REMARK UNBOUND:                -0.456
REMARK SMILES Cc1n[nH]c(C)c1CCCOc1cc(C(=O)O)ccc1F
REMARK SMILES IDX 11 1 12 2 14 3 18 4 13 5 19 6 20 7 21 8 15 9 16 10 17 11
REMARK SMILES IDX 10 13 9 14 8 15 7 16 5 17 2 18 4 19 3 20 6 21 1 22
REMARK H PARENT 17 12 4 23
ROOT
ATOM      1  O   UNL     1      -6.387   3.708  -3.513  1.00  0.00    -0.490 OA
ENDROOT
BRANCH   1   2
ATOM      2  C   UNL     1      -5.842   2.916  -2.551  1.00  0.00     0.155 A 
ATOM      3  C   UNL     1      -5.345   2.482  -0.239  1.00  0.00     0.063 A 
ATOM      4  C   UNL     1      -4.733   1.279  -0.600  1.00  0.00     0.019 A 
ATOM      5  C   UNL     1      -5.901   3.300  -1.224  1.00  0.00     0.065 A 
ATOM      6  C   UNL     1      -4.685   0.901  -1.925  1.00  0.00     0.044 A 
ATOM      7  C   UNL     1      -5.241   1.712  -2.901  1.00  0.00     0.165 A 
ATOM      8  F   UNL     1      -5.191   1.335  -4.197  1.00  0.00    -0.203 F 
BRANCH   3   9
ATOM      9  C   UNL     1      -5.399   2.889   1.179  1.00  0.00     0.335 C 
ATOM     10  O   UNL     1      -5.752   4.012   1.475  1.00  0.00    -0.246 OA
BRANCH   9  11
ATOM     11  O   UNL     1      -5.062   2.012   2.145  1.00  0.00    -0.478 OA
ATOM     12  H   UNL     1      -4.384   2.292   2.776  1.00  0.00     0.297 HD
ENDBRANCH   9  11
ENDBRANCH   3   9
ENDBRANCH   1   2
BRANCH   1  13
ATOM     13  C   UNL     1      -7.434   3.140  -4.304  1.00  0.00     0.230 C 
BRANCH  13  14
ATOM     14  C   UNL     1      -8.772   3.757  -3.896  1.00  0.00     0.046 C 
BRANCH  14  15
ATOM     15  C   UNL     1      -9.459   2.853  -2.870  1.00  0.00     0.043 C 
BRANCH  15  16
ATOM     16  C   UNL     1     -10.923   3.201  -2.793  1.00  0.00    -0.004 A 
ATOM     17  C   UNL     1     -11.923   2.599  -3.478  1.00  0.00     0.036 A 
ATOM     18  C   UNL     1     -11.490   4.200  -1.994  1.00  0.00     0.063 A 
ATOM     19  N   UNL     1     -13.080   3.201  -3.131  1.00  0.00    -0.282 N 
ATOM     20  N   UNL     1     -12.782   4.206  -2.201  1.00  0.00    -0.181 NA
ATOM     21  C   UNL     1     -11.771   1.462  -4.454  1.00  0.00     0.066 C 
ATOM     22  C   UNL     1     -10.740   5.121  -1.065  1.00  0.00     0.069 C 
ATOM     23  H   UNL     1     -13.962   2.977  -3.466  1.00  0.00     0.190 HD
ENDBRANCH  15  16
ENDBRANCH  14  15
ENDBRANCH  13  14
ENDBRANCH   1  13
TORSDOF 7
ENDMDL
MODEL 2
REMARK VINA RESULT:    -5.000      2.345      4.013
REMARK INTER + INTRA:          -7.357
REMARK INTER:                  -6.806
REMARK INTRA:                  -0.551
REMARK UNBOUND:                -0.456
REMARK SMILES Cc1n[nH]c(C)c1CCCOc1cc(C(=O)O)ccc1F
REMARK SMILES IDX 11 1 12 2 14 3 18 4 13 5 19 6 20 7 21 8 15 9 16 10 17 11
REMARK SMILES IDX 10 13 9 14 8 15 7 16 5 17 2 18 4 19 3 20 6 21 1 22
REMARK H PARENT 17 12 4 23
ROOT
ATOM      1  O   UNL     1      -7.876   1.040   0.435  1.00  0.00    -0.490 OA
ENDROOT
BRANCH   1   2
ATOM      2  C   UNL     1      -6.707   1.282  -0.216  1.00  0.00     0.155 A 
ATOM      3  C   UNL     1      -5.338   1.103  -2.185  1.00  0.00     0.063 A 
ATOM      4  C   UNL     1      -4.315   1.796  -1.531  1.00  0.00     0.019 A 
ATOM      5  C   UNL     1      -6.538   0.848  -1.518  1.00  0.00     0.065 A 
ATOM      6  C   UNL     1      -4.495   2.230  -0.235  1.00  0.00     0.044 A 
ATOM      7  C   UNL     1      -5.688   1.980   0.423  1.00  0.00     0.165 A 
ATOM      8  F   UNL     1      -5.859   2.408   1.693  1.00  0.00    -0.203 F 
BRANCH   3   9
ATOM      9  C   UNL     1      -5.148   0.638  -3.572  1.00  0.00     0.335 C 
ATOM     10  O   UNL     1      -5.916  -0.170  -4.052  1.00  0.00    -0.246 OA
BRANCH   9  11
ATOM     11  O   UNL     1      -4.125   1.115  -4.308  1.00  0.00    -0.478 OA
ATOM     12  H   UNL     1      -3.292   1.283  -3.846  1.00  0.00     0.297 HD
ENDBRANCH   9  11
ENDBRANCH   3   9
ENDBRANCH   1   2
BRANCH   1  13
ATOM     13  C   UNL     1      -8.678   2.174   0.771  1.00  0.00     0.230 C 
BRANCH  13  14
ATOM     14  C   UNL     1      -9.922   2.201  -0.118  1.00  0.00     0.046 C 
BRANCH  14  15
ATOM     15  C   UNL     1      -9.708   3.191  -1.265  1.00  0.00     0.043 C 
BRANCH  15  16
ATOM     16  C   UNL     1     -11.043   3.669  -1.774  1.00  0.00    -0.004 A 
ATOM     17  C   UNL     1     -11.731   4.742  -1.319  1.00  0.00     0.036 A 
ATOM     18  C   UNL     1     -11.789   3.085  -2.803  1.00  0.00     0.063 A 
ATOM     19  N   UNL     1     -12.874   4.830  -2.032  1.00  0.00    -0.282 N 
ATOM     20  N   UNL     1     -12.889   3.776  -2.954  1.00  0.00    -0.181 NA
ATOM     21  C   UNL     1     -11.298   5.672  -0.217  1.00  0.00     0.066 C 
ATOM     22  C   UNL     1     -11.397   1.862  -3.594  1.00  0.00     0.069 C 
ATOM     23  H   UNL     1     -13.563   5.503  -1.924  1.00  0.00     0.190 HD
ENDBRANCH  15  16
ENDBRANCH  14  15
ENDBRANCH  13  14
ENDBRANCH   1  13
TORSDOF 7
ENDMDL
MODEL 3
REMARK VINA RESULT:    -4.906      0.247      1.780
REMARK INTER + INTRA:          -7.227
REMARK INTER:                  -6.889
REMARK INTRA:                  -0.339
REMARK UNBOUND:                -0.456
REMARK SMILES Cc1n[nH]c(C)c1CCCOc1cc(C(=O)O)ccc1F
REMARK SMILES IDX 11 1 12 2 14 3 18 4 13 5 19 6 20 7 21 8 15 9 16 10 17 11
REMARK SMILES IDX 10 13 9 14 8 15 7 16 5 17 2 18 4 19 3 20 6 21 1 22
REMARK H PARENT 17 12 4 23
ROOT
ATOM      1  O   UNL     1      -6.417   3.746  -3.420  1.00  0.00    -0.490 OA
ENDROOT
BRANCH   1   2
ATOM      2  C   UNL     1      -5.857   2.947  -2.473  1.00  0.00     0.155 A 
ATOM      3  C   UNL     1      -5.332   2.490  -0.171  1.00  0.00     0.063 A 
ATOM      4  C   UNL     1      -4.715   1.296  -0.553  1.00  0.00     0.019 A 
ATOM      5  C   UNL     1      -5.904   3.316  -1.141  1.00  0.00     0.065 A 
ATOM      6  C   UNL     1      -4.678   0.934  -1.883  1.00  0.00     0.044 A 
ATOM      7  C   UNL     1      -5.251   1.752  -2.843  1.00  0.00     0.165 A 
ATOM      8  F   UNL     1      -5.211   1.391  -4.145  1.00  0.00    -0.203 F 
BRANCH   3   9
ATOM      9  C   UNL     1      -5.374   2.880   1.252  1.00  0.00     0.335 C 
ATOM     10  O   UNL     1      -5.661   4.018   1.562  1.00  0.00    -0.246 OA
BRANCH   9  11
ATOM     11  O   UNL     1      -5.100   1.971   2.207  1.00  0.00    -0.478 OA
ATOM     12  H   UNL     1      -4.986   2.302   3.109  1.00  0.00     0.297 HD
ENDBRANCH   9  11
ENDBRANCH   3   9
ENDBRANCH   1   2
BRANCH   1  13
ATOM     13  C   UNL     1      -7.384   3.146  -4.285  1.00  0.00     0.230 C 
BRANCH  13  14
ATOM     14  C   UNL     1      -8.767   3.728  -3.985  1.00  0.00     0.046 C 
BRANCH  14  15
ATOM     15  C   UNL     1      -9.394   2.972  -2.812  1.00  0.00     0.043 C 
BRANCH  15  16
ATOM     16  C   UNL     1     -10.817   3.428  -2.623  1.00  0.00    -0.004 A 
ATOM     17  C   UNL     1     -11.234   4.418  -1.799  1.00  0.00     0.036 A 
ATOM     18  C   UNL     1     -11.941   2.908  -3.272  1.00  0.00     0.063 A 
ATOM     19  N   UNL     1     -12.575   4.516  -1.919  1.00  0.00    -0.282 N 
ATOM     20  N   UNL     1     -12.996   3.554  -2.846  1.00  0.00    -0.181 NA
ATOM     21  C   UNL     1     -10.358   5.260  -0.909  1.00  0.00     0.066 C 
ATOM     22  C   UNL     1     -11.940   1.787  -4.280  1.00  0.00     0.069 C 
ATOM     23  H   UNL     1     -13.145   5.141  -1.445  1.00  0.00     0.190 HD
ENDBRANCH  15  16
ENDBRANCH  14  15
ENDBRANCH  13  14
ENDBRANCH   1  13
TORSDOF 7
ENDMDL
MODEL 4
REMARK VINA RESULT:    -4.883      2.380      3.655
REMARK INTER + INTRA:          -7.194
REMARK INTER:                  -6.941
REMARK INTRA:                  -0.254
REMARK UNBOUND:                -0.456
REMARK SMILES Cc1n[nH]c(C)c1CCCOc1cc(C(=O)O)ccc1F
REMARK SMILES IDX 11 1 12 2 14 3 18 4 13 5 19 6 20 7 21 8 15 9 16 10 17 11
REMARK SMILES IDX 10 13 9 14 8 15 7 16 5 17 2 18 4 19 3 20 6 21 1 22
REMARK H PARENT 17 12 4 23
ROOT
ATOM      1  O   UNL     1      -7.944   0.859   0.277  1.00  0.00    -0.490 OA
ENDROOT
BRANCH   1   2
ATOM      2  C   UNL     1      -6.778   1.166  -0.350  1.00  0.00     0.155 A 
ATOM      3  C   UNL     1      -5.364   1.073  -2.293  1.00  0.00     0.063 A 
ATOM      4  C   UNL     1      -4.391   1.813  -1.616  1.00  0.00     0.019 A 
ATOM      5  C   UNL     1      -6.562   0.751  -1.651  1.00  0.00     0.065 A 
ATOM      6  C   UNL     1      -4.618   2.228  -0.321  1.00  0.00     0.044 A 
ATOM      7  C   UNL     1      -5.808   1.912   0.312  1.00  0.00     0.165 A 
ATOM      8  F   UNL     1      -6.024   2.321   1.582  1.00  0.00    -0.203 F 
BRANCH   3   9
ATOM      9  C   UNL     1      -5.125   0.628  -3.680  1.00  0.00     0.335 C 
ATOM     10  O   UNL     1      -5.867  -0.183  -4.195  1.00  0.00    -0.246 OA
BRANCH   9  11
ATOM     11  O   UNL     1      -4.086   1.127  -4.378  1.00  0.00    -0.478 OA
ATOM     12  H   UNL     1      -3.258   0.627  -4.351  1.00  0.00     0.297 HD
ENDBRANCH   9  11
ENDBRANCH   3   9
ENDBRANCH   1   2
BRANCH   1  13
ATOM     13  C   UNL     1      -8.639   1.933   0.916  1.00  0.00     0.230 C 
BRANCH  13  14
ATOM     14  C   UNL     1      -9.941   2.216   0.165  1.00  0.00     0.046 C 
BRANCH  14  15
ATOM     15  C   UNL     1      -9.643   3.067  -1.071  1.00  0.00     0.043 C 
BRANCH  15  16
ATOM     16  C   UNL     1     -10.931   3.394  -1.779  1.00  0.00    -0.004 A 
ATOM     17  C   UNL     1     -11.483   2.689  -2.794  1.00  0.00     0.036 A 
ATOM     18  C   UNL     1     -11.772   4.477  -1.501  1.00  0.00     0.063 A 
ATOM     19  N   UNL     1     -12.629   3.307  -3.149  1.00  0.00    -0.282 N 
ATOM     20  N   UNL     1     -12.787   4.430  -2.325  1.00  0.00    -0.181 NA
ATOM     21  C   UNL     1     -10.920   1.438  -3.416  1.00  0.00     0.066 C 
ATOM     22  C   UNL     1     -11.543   5.524  -0.441  1.00  0.00     0.069 C 
ATOM     23  H   UNL     1     -13.236   3.025  -3.851  1.00  0.00     0.190 HD
ENDBRANCH  15  16
ENDBRANCH  14  15
ENDBRANCH  13  14
ENDBRANCH   1  13
TORSDOF 7
ENDMDL
MODEL 5
REMARK VINA RESULT:    -4.267      3.385      6.029
REMARK INTER + INTRA:          -6.345
REMARK INTER:                  -4.841
REMARK INTRA:                  -1.504
REMARK UNBOUND:                -0.456
REMARK SMILES Cc1n[nH]c(C)c1CCCOc1cc(C(=O)O)ccc1F
REMARK SMILES IDX 11 1 12 2 14 3 18 4 13 5 19 6 20 7 21 8 15 9 16 10 17 11
REMARK SMILES IDX 10 13 9 14 8 15 7 16 5 17 2 18 4 19 3 20 6 21 1 22
REMARK H PARENT 17 12 4 23
ROOT
ATOM      1  O   UNL     1      -8.961   1.533   0.042  1.00  0.00    -0.490 OA
ENDROOT
BRANCH   1   2
ATOM      2  C   UNL     1      -9.539   2.405  -0.826  1.00  0.00     0.155 A 
ATOM      3  C   UNL     1     -10.746   4.442  -1.244  1.00  0.00     0.063 A 
ATOM      4  C   UNL     1     -10.706   4.180  -2.616  1.00  0.00     0.019 A 
ATOM      5  C   UNL     1     -10.158   3.546  -0.349  1.00  0.00     0.065 A 
ATOM      6  C   UNL     1     -10.081   3.043  -3.082  1.00  0.00     0.044 A 
ATOM      7  C   UNL     1      -9.494   2.157  -2.193  1.00  0.00     0.165 A 
ATOM      8  F   UNL     1      -8.883   1.045  -2.656  1.00  0.00    -0.203 F 
BRANCH   3   9
ATOM      9  C   UNL     1     -11.414   5.659  -0.742  1.00  0.00     0.335 C 
ATOM     10  O   UNL     1     -12.089   5.610   0.266  1.00  0.00    -0.246 OA
BRANCH   9  11
ATOM     11  O   UNL     1     -11.268   6.827  -1.399  1.00  0.00    -0.478 OA
ATOM     12  H   UNL     1     -10.667   6.832  -2.157  1.00  0.00     0.297 HD
ENDBRANCH   9  11
ENDBRANCH   3   9
ENDBRANCH   1   2
BRANCH   1  13
ATOM     13  C   UNL     1      -7.601   1.783   0.404  1.00  0.00     0.230 C 
BRANCH  13  14
ATOM     14  C   UNL     1      -6.683   0.846  -0.383  1.00  0.00     0.046 C 
BRANCH  14  15
ATOM     15  C   UNL     1      -5.446   1.617  -0.850  1.00  0.00     0.043 C 
BRANCH  15  16
ATOM     16  C   UNL     1      -5.751   2.318  -2.148  1.00  0.00    -0.004 A 
ATOM     17  C   UNL     1      -6.146   3.605  -2.284  1.00  0.00     0.036 A 
ATOM     18  C   UNL     1      -5.669   1.756  -3.427  1.00  0.00     0.063 A 
ATOM     19  N   UNL     1      -6.314   3.847  -3.601  1.00  0.00    -0.282 N 
ATOM     20  N   UNL     1      -6.013   2.669  -4.298  1.00  0.00    -0.181 NA
ATOM     21  C   UNL     1      -6.359   4.591  -1.166  1.00  0.00     0.066 C 
ATOM     22  C   UNL     1      -5.265   0.339  -3.745  1.00  0.00     0.069 C 
ATOM     23  H   UNL     1      -6.596   4.687  -3.996  1.00  0.00     0.190 HD
ENDBRANCH  15  16
ENDBRANCH  14  15
ENDBRANCH  13  14
ENDBRANCH   1  13
TORSDOF 7
ENDMDL
MODEL 6
REMARK VINA RESULT:    -4.256      3.380      5.977
REMARK INTER + INTRA:          -6.329
REMARK INTER:                  -4.786
REMARK INTRA:                  -1.543
REMARK UNBOUND:                -0.456
REMARK SMILES Cc1n[nH]c(C)c1CCCOc1cc(C(=O)O)ccc1F
REMARK SMILES IDX 11 1 12 2 14 3 18 4 13 5 19 6 20 7 21 8 15 9 16 10 17 11
REMARK SMILES IDX 10 13 9 14 8 15 7 16 5 17 2 18 4 19 3 20 6 21 1 22
REMARK H PARENT 17 12 4 23
ROOT
ATOM      1  O   UNL     1      -7.567   3.742  -3.497  1.00  0.00    -0.490 OA
ENDROOT
BRANCH   1   2
ATOM      2  C   UNL     1      -8.768   3.411  -2.953  1.00  0.00     0.155 A 
ATOM      3  C   UNL     1     -10.931   2.376  -3.141  1.00  0.00     0.063 A 
ATOM      4  C   UNL     1     -11.214   2.736  -1.821  1.00  0.00     0.019 A 
ATOM      5  C   UNL     1      -9.699   2.718  -3.704  1.00  0.00     0.065 A 
ATOM      6  C   UNL     1     -10.276   3.422  -1.078  1.00  0.00     0.044 A 
ATOM      7  C   UNL     1      -9.054   3.756  -1.637  1.00  0.00     0.165 A 
ATOM      8  F   UNL     1      -8.140   4.428  -0.903  1.00  0.00    -0.203 F 
BRANCH   3   9
ATOM      9  C   UNL     1     -11.932   1.641  -3.939  1.00  0.00     0.335 C 
ATOM     10  O   UNL     1     -12.090   1.911  -5.112  1.00  0.00    -0.246 OA
BRANCH   9  11
ATOM     11  O   UNL     1     -12.665   0.666  -3.367  1.00  0.00    -0.478 OA
ATOM     12  H   UNL     1     -13.556   0.902  -3.073  1.00  0.00     0.297 HD
ENDBRANCH   9  11
ENDBRANCH   3   9
ENDBRANCH   1   2
BRANCH   1  13
ATOM     13  C   UNL     1      -6.528   2.762  -3.420  1.00  0.00     0.230 C 
BRANCH  13  14
ATOM     14  C   UNL     1      -5.556   3.137  -2.301  1.00  0.00     0.046 C 
BRANCH  14  15
ATOM     15  C   UNL     1      -5.182   1.883  -1.508  1.00  0.00     0.043 C 
BRANCH  15  16
ATOM     16  C   UNL     1      -6.237   1.611  -0.468  1.00  0.00    -0.004 A 
ATOM     17  C   UNL     1      -7.280   0.758  -0.595  1.00  0.00     0.036 A 
ATOM     18  C   UNL     1      -6.309   2.191   0.803  1.00  0.00     0.063 A 
ATOM     19  N   UNL     1      -7.990   0.802   0.552  1.00  0.00    -0.282 N 
ATOM     20  N   UNL     1      -7.362   1.713   1.412  1.00  0.00    -0.181 NA
ATOM     21  C   UNL     1      -7.592  -0.089  -1.801  1.00  0.00     0.066 C 
ATOM     22  C   UNL     1      -5.345   3.203   1.368  1.00  0.00     0.069 C 
ATOM     23  H   UNL     1      -8.793   0.295   0.746  1.00  0.00     0.190 HD
ENDBRANCH  15  16
ENDBRANCH  14  15
ENDBRANCH  13  14
ENDBRANCH   1  13
TORSDOF 7
ENDMDL
MODEL 7
REMARK VINA RESULT:    -4.092      3.691      6.360
REMARK INTER + INTRA:          -6.104
REMARK INTER:                  -5.406
REMARK INTRA:                  -0.698
REMARK UNBOUND:                -0.456
REMARK SMILES Cc1n[nH]c(C)c1CCCOc1cc(C(=O)O)ccc1F
REMARK SMILES IDX 11 1 12 2 14 3 18 4 13 5 19 6 20 7 21 8 15 9 16 10 17 11
REMARK SMILES IDX 10 13 9 14 8 15 7 16 5 17 2 18 4 19 3 20 6 21 1 22
REMARK H PARENT 17 12 4 23
ROOT
ATOM      1  O   UNL     1      -8.545   1.864  -1.046  1.00  0.00    -0.490 OA
ENDROOT
BRANCH   1   2
ATOM      2  C   UNL     1      -9.629   2.558  -1.484  1.00  0.00     0.155 A 
ATOM      3  C   UNL     1     -11.088   4.464  -1.334  1.00  0.00     0.063 A 
ATOM      4  C   UNL     1     -11.842   3.966  -2.400  1.00  0.00     0.019 A 
ATOM      5  C   UNL     1      -9.977   3.751  -0.878  1.00  0.00     0.065 A 
ATOM      6  C   UNL     1     -11.484   2.778  -3.002  1.00  0.00     0.044 A 
ATOM      7  C   UNL     1     -10.379   2.075  -2.551  1.00  0.00     0.165 A 
ATOM      8  F   UNL     1     -10.033   0.912  -3.145  1.00  0.00    -0.203 F 
BRANCH   3   9
ATOM      9  C   UNL     1     -11.468   5.736  -0.688  1.00  0.00     0.335 C 
ATOM     10  O   UNL     1     -11.964   5.730   0.420  1.00  0.00    -0.246 OA
BRANCH   9  11
ATOM     11  O   UNL     1     -11.257   6.904  -1.326  1.00  0.00    -0.478 OA
ATOM     12  H   UNL     1     -10.344   7.219  -1.377  1.00  0.00     0.297 HD
ENDBRANCH   9  11
ENDBRANCH   3   9
ENDBRANCH   1   2
BRANCH   1  13
ATOM     13  C   UNL     1      -7.979   2.265   0.204  1.00  0.00     0.230 C 
BRANCH  13  14
ATOM     14  C   UNL     1      -6.453   2.201   0.116  1.00  0.00     0.046 C 
BRANCH  14  15
ATOM     15  C   UNL     1      -5.968   3.120  -1.007  1.00  0.00     0.043 C 
BRANCH  15  16
ATOM     16  C   UNL     1      -5.498   2.286  -2.171  1.00  0.00    -0.004 A 
ATOM     17  C   UNL     1      -4.527   1.345  -2.136  1.00  0.00     0.036 A 
ATOM     18  C   UNL     1      -5.994   2.344  -3.478  1.00  0.00     0.063 A 
ATOM     19  N   UNL     1      -4.407   0.830  -3.378  1.00  0.00    -0.282 N 
ATOM     20  N   UNL     1      -5.336   1.477  -4.204  1.00  0.00    -0.181 NA
ATOM     21  C   UNL     1      -3.723   0.943  -0.927  1.00  0.00     0.066 C 
ATOM     22  C   UNL     1      -7.088   3.258  -3.969  1.00  0.00     0.069 C 
ATOM     23  H   UNL     1      -3.787   0.136  -3.651  1.00  0.00     0.190 HD
ENDBRANCH  15  16
ENDBRANCH  14  15
ENDBRANCH  13  14
ENDBRANCH   1  13
TORSDOF 7
ENDMDL
MODEL 8
REMARK VINA RESULT:    -3.858      2.742      4.251
REMARK INTER + INTRA:          -5.780
REMARK INTER:                  -4.660
REMARK INTRA:                  -1.120
REMARK UNBOUND:                -0.456
REMARK SMILES Cc1n[nH]c(C)c1CCCOc1cc(C(=O)O)ccc1F
REMARK SMILES IDX 11 1 12 2 14 3 18 4 13 5 19 6 20 7 21 8 15 9 16 10 17 11
REMARK SMILES IDX 10 13 9 14 8 15 7 16 5 17 2 18 4 19 3 20 6 21 1 22
REMARK H PARENT 17 12 4 23
ROOT
ATOM      1  O   UNL     1      -7.911   0.968   0.618  1.00  0.00    -0.490 OA
ENDROOT
BRANCH   1   2
ATOM      2  C   UNL     1      -6.723   1.242   0.016  1.00  0.00     0.155 A 
ATOM      3  C   UNL     1      -5.250   1.060  -1.876  1.00  0.00     0.063 A 
ATOM      4  C   UNL     1      -4.293   1.821  -1.199  1.00  0.00     0.019 A 
ATOM      5  C   UNL     1      -6.470   0.772  -1.259  1.00  0.00     0.065 A 
ATOM      6  C   UNL     1      -4.558   2.290   0.071  1.00  0.00     0.044 A 
ATOM      7  C   UNL     1      -5.770   2.007   0.678  1.00  0.00     0.165 A 
ATOM      8  F   UNL     1      -6.023   2.469   1.923  1.00  0.00    -0.203 F 
BRANCH   3   9
ATOM      9  C   UNL     1      -4.971   0.557  -3.235  1.00  0.00     0.335 C 
ATOM     10  O   UNL     1      -4.199  -0.366  -3.395  1.00  0.00    -0.246 OA
BRANCH   9  11
ATOM     11  O   UNL     1      -5.578   1.120  -4.299  1.00  0.00    -0.478 OA
ATOM     12  H   UNL     1      -6.454   1.502  -4.153  1.00  0.00     0.297 HD
ENDBRANCH   9  11
ENDBRANCH   3   9
ENDBRANCH   1   2
BRANCH   1  13
ATOM     13  C   UNL     1      -8.809   2.064   0.809  1.00  0.00     0.230 C 
BRANCH  13  14
ATOM     14  C   UNL     1      -9.842   2.079  -0.319  1.00  0.00     0.046 C 
BRANCH  14  15
ATOM     15  C   UNL     1      -9.911   3.480  -0.929  1.00  0.00     0.043 C 
BRANCH  15  16
ATOM     16  C   UNL     1      -9.527   3.415  -2.384  1.00  0.00    -0.004 A 
ATOM     17  C   UNL     1      -8.313   3.713  -2.902  1.00  0.00     0.036 A 
ATOM     18  C   UNL     1     -10.361   3.028  -3.439  1.00  0.00     0.063 A 
ATOM     19  N   UNL     1      -8.378   3.529  -4.238  1.00  0.00    -0.282 N 
ATOM     20  N   UNL     1      -9.676   3.103  -4.551  1.00  0.00    -0.181 NA
ATOM     21  C   UNL     1      -7.105   4.169  -2.127  1.00  0.00     0.066 C 
ATOM     22  C   UNL     1     -11.805   2.610  -3.317  1.00  0.00     0.069 C 
ATOM     23  H   UNL     1      -7.656   3.667  -4.869  1.00  0.00     0.190 HD
ENDBRANCH  15  16
ENDBRANCH  14  15
ENDBRANCH  13  14
ENDBRANCH   1  13
TORSDOF 7
ENDMDL
MODEL 9
REMARK VINA RESULT:    -3.790      3.857      6.829
REMARK INTER + INTRA:          -5.686
REMARK INTER:                  -4.976
REMARK INTRA:                  -0.711
REMARK UNBOUND:                -0.456
REMARK SMILES Cc1n[nH]c(C)c1CCCOc1cc(C(=O)O)ccc1F
REMARK SMILES IDX 11 1 12 2 14 3 18 4 13 5 19 6 20 7 21 8 15 9 16 10 17 11
REMARK SMILES IDX 10 13 9 14 8 15 7 16 5 17 2 18 4 19 3 20 6 21 1 22
REMARK H PARENT 17 12 4 23
ROOT
ATOM      1  O   UNL     1      -8.391   3.519  -1.171  1.00  0.00    -0.490 OA
ENDROOT
BRANCH   1   2
ATOM      2  C   UNL     1      -9.663   3.548  -1.650  1.00  0.00     0.155 A 
ATOM      3  C   UNL     1     -11.428   2.560  -2.950  1.00  0.00     0.063 A 
ATOM      4  C   UNL     1     -12.269   3.623  -2.610  1.00  0.00     0.019 A 
ATOM      5  C   UNL     1     -10.119   2.528  -2.465  1.00  0.00     0.065 A 
ATOM      6  C   UNL     1     -11.807   4.633  -1.792  1.00  0.00     0.044 A 
ATOM      7  C   UNL     1     -10.510   4.597  -1.308  1.00  0.00     0.165 A 
ATOM      8  F   UNL     1     -10.063   5.589  -0.507  1.00  0.00    -0.203 F 
BRANCH   3   9
ATOM      9  C   UNL     1     -11.919   1.477  -3.825  1.00  0.00     0.335 C 
ATOM     10  O   UNL     1     -11.803   1.569  -5.030  1.00  0.00    -0.246 OA
BRANCH   9  11
ATOM     11  O   UNL     1     -12.492   0.383  -3.285  1.00  0.00    -0.478 OA
ATOM     12  H   UNL     1     -12.295  -0.467  -3.703  1.00  0.00     0.297 HD
ENDBRANCH   9  11
ENDBRANCH   3   9
ENDBRANCH   1   2
BRANCH   1  13
ATOM     13  C   UNL     1      -8.005   2.360  -0.427  1.00  0.00     0.230 C 
BRANCH  13  14
ATOM     14  C   UNL     1      -6.512   2.438  -0.103  1.00  0.00     0.046 C 
BRANCH  14  15
ATOM     15  C   UNL     1      -5.775   3.128  -1.252  1.00  0.00     0.043 C 
BRANCH  15  16
ATOM     16  C   UNL     1      -5.436   2.115  -2.314  1.00  0.00    -0.004 A 
ATOM     17  C   UNL     1      -5.936   2.081  -3.571  1.00  0.00     0.036 A 
ATOM     18  C   UNL     1      -4.545   1.046  -2.177  1.00  0.00     0.063 A 
ATOM     19  N   UNL     1      -5.385   1.024  -4.205  1.00  0.00    -0.282 N 
ATOM     20  N   UNL     1      -4.519   0.387  -3.307  1.00  0.00    -0.181 NA
ATOM     21  C   UNL     1      -6.929   3.050  -4.158  1.00  0.00     0.066 C 
ATOM     22  C   UNL     1      -3.759   0.704  -0.937  1.00  0.00     0.069 C 
ATOM     23  H   UNL     1      -5.560   0.753  -5.119  1.00  0.00     0.190 HD
ENDBRANCH  15  16
ENDBRANCH  14  15
ENDBRANCH  13  14
ENDBRANCH   1  13
TORSDOF 7
ENDMDL
