MODEL 1
REMARK VINA RESULT:    -2.454      0.000      0.000
REMARK INTER + INTRA:          -3.106
REMARK INTER:                  -2.812
REMARK INTRA:                  -0.294
REMARK UNBOUND:                -0.294
REMARK SMILES O=C(O)c1ccc2nc(-c3cc(Cl)cc(Cl)c3)oc2c1
REMARK SMILES IDX 5 1 6 2 20 3 8 4 18 5 4 6 9 7 7 8 19 9 2 10 1 11 3 12 10 14
REMARK SMILES IDX 11 15 17 16 12 17 15 18 14 19 13 20 16 21
REMARK H PARENT 3 13
ROOT
ATOM      1  C   UNL     1      -4.301   2.343   0.484  1.00  0.00     0.018 A 
ATOM      2  C   UNL     1      -5.498   2.962   0.690  1.00  0.00     0.033 A 
ATOM      3  C   UNL     1      -5.123   1.392  -1.590  1.00  0.00     0.065 A 
ATOM      4  N   UNL     1      -7.798   3.281  -0.306  1.00  0.00    -0.209 NA
ATOM      5  O   UNL     1      -7.499   2.053  -2.076  1.00  0.00    -0.436 OA
ATOM      6  C   UNL     1      -4.097   1.554  -0.657  1.00  0.00     0.063 A 
ATOM      7  C   UNL     1      -8.363   2.831  -1.398  1.00  0.00     0.227 A 
ATOM      8  C   UNL     1      -6.535   2.807  -0.238  1.00  0.00     0.110 A 
ATOM      9  C   UNL     1      -6.340   2.013  -1.382  1.00  0.00     0.156 A 
ENDROOT
BRANCH   6  10
ATOM     10  C   UNL     1      -2.796   0.895  -0.872  1.00  0.00     0.335 C 
ATOM     11  O   UNL     1      -2.754  -0.230  -1.328  1.00  0.00    -0.246 OA
BRANCH  10  12
ATOM     12  O   UNL     1      -1.654   1.540  -0.562  1.00  0.00    -0.478 OA
ATOM     13  H   UNL     1      -1.605   2.479  -0.786  1.00  0.00     0.297 HD
ENDBRANCH  10  12
ENDBRANCH   6  10
BRANCH   7  14
ATOM     14  C   UNL     1      -9.746   3.132  -1.822  1.00  0.00     0.040 A 
ATOM     15  C   UNL     1     -10.345   2.391  -2.841  1.00  0.00     0.034 A 
ATOM     16  C   UNL     1     -10.460   4.162  -1.204  1.00  0.00     0.034 A 
ATOM     17  C   UNL     1     -11.638   2.676  -3.232  1.00  0.00     0.043 A 
ATOM     18  C   UNL     1     -11.752   4.438  -1.603  1.00  0.00     0.043 A 
ATOM     19  C   UNL     1     -12.340   3.698  -2.615  1.00  0.00     0.041 A 
ATOM     20  Cl  UNL     1     -12.384   1.755  -4.499  1.00  0.00    -0.084 Cl
ATOM     21  Cl  UNL     1     -12.641   5.717  -0.836  1.00  0.00    -0.084 Cl
ENDBRANCH   7  14
TORSDOF 3
ENDMDL
MODEL 2
REMARK VINA RESULT:    -2.441      0.006      2.019
REMARK INTER + INTRA:          -3.092
REMARK INTER:                  -2.798
REMARK INTRA:                  -0.294
REMARK UNBOUND:                -0.294
REMARK SMILES O=C(O)c1ccc2nc(-c3cc(Cl)cc(Cl)c3)oc2c1
REMARK SMILES IDX 5 1 6 2 20 3 8 4 18 5 4 6 9 7 7 8 19 9 2 10 1 11 3 12 10 14
REMARK SMILES IDX 11 15 17 16 12 17 15 18 14 19 13 20 16 21
REMARK H PARENT 3 13
ROOT
ATOM      1  C   UNL     1      -4.301   2.343   0.483  1.00  0.00     0.018 A 
ATOM      2  C   UNL     1      -5.497   2.962   0.690  1.00  0.00     0.033 A 
ATOM      3  C   UNL     1      -5.125   1.393  -1.590  1.00  0.00     0.065 A 
ATOM      4  N   UNL     1      -7.797   3.285  -0.304  1.00  0.00    -0.209 NA
ATOM      5  O   UNL     1      -7.501   2.057  -2.075  1.00  0.00    -0.436 OA
ATOM      6  C   UNL     1      -4.098   1.554  -0.658  1.00  0.00     0.063 A 
ATOM      7  C   UNL     1      -8.364   2.836  -1.396  1.00  0.00     0.227 A 
ATOM      8  C   UNL     1      -6.535   2.809  -0.237  1.00  0.00     0.110 A 
ATOM      9  C   UNL     1      -6.342   2.016  -1.381  1.00  0.00     0.156 A 
ENDROOT
BRANCH   6  10
ATOM     10  C   UNL     1      -2.798   0.893  -0.875  1.00  0.00     0.335 C 
ATOM     11  O   UNL     1      -2.757  -0.231  -1.331  1.00  0.00    -0.246 OA
BRANCH  10  12
ATOM     12  O   UNL     1      -1.655   1.537  -0.565  1.00  0.00    -0.478 OA
ATOM     13  H   UNL     1      -1.554   1.838   0.348  1.00  0.00     0.297 HD
ENDBRANCH  10  12
ENDBRANCH   6  10
BRANCH   7  14
ATOM     14  C   UNL     1      -9.747   3.139  -1.818  1.00  0.00     0.040 A 
ATOM     15  C   UNL     1     -10.459   4.169  -1.202  1.00  0.00     0.034 A 
ATOM     16  C   UNL     1     -10.347   2.394  -2.836  1.00  0.00     0.034 A 
ATOM     17  C   UNL     1     -11.750   4.447  -1.602  1.00  0.00     0.043 A 
ATOM     18  C   UNL     1     -11.639   2.682  -3.227  1.00  0.00     0.043 A 
ATOM     19  C   UNL     1     -12.340   3.705  -2.612  1.00  0.00     0.041 A 
ATOM     20  Cl  UNL     1     -12.637   5.729  -0.838  1.00  0.00    -0.084 Cl
ATOM     21  Cl  UNL     1     -12.388   1.758  -4.492  1.00  0.00    -0.084 Cl
ENDBRANCH   7  14
TORSDOF 3
ENDMDL
MODEL 3
REMARK VINA RESULT:    -2.126      5.579      9.173
REMARK INTER + INTRA:          -2.730
REMARK INTER:                  -2.452
REMARK INTRA:                  -0.279
REMARK UNBOUND:                -0.294
REMARK SMILES O=C(O)c1ccc2nc(-c3cc(Cl)cc(Cl)c3)oc2c1
REMARK SMILES IDX 5 1 6 2 20 3 8 4 18 5 4 6 9 7 7 8 19 9 2 10 1 11 3 12 10 14
REMARK SMILES IDX 11 15 17 16 12 17 15 18 14 19 13 20 16 21
REMARK H PARENT 3 13
ROOT
ATOM      1  C   UNL     1     -15.018   9.168  -1.201  1.00  0.00     0.018 A 
ATOM      2  C   UNL     1     -14.878   7.817  -1.086  1.00  0.00     0.033 A 
ATOM      3  C   UNL     1     -12.617   9.422  -1.427  1.00  0.00     0.065 A 
ATOM      4  N   UNL     1     -13.159   5.966  -1.054  1.00  0.00    -0.209 NA
ATOM      5  O   UNL     1     -11.403   7.223  -1.315  1.00  0.00    -0.436 OA
ATOM      6  C   UNL     1     -13.893   9.986  -1.375  1.00  0.00     0.063 A 
ATOM      7  C   UNL     1     -11.854   5.964  -1.161  1.00  0.00     0.227 A 
ATOM      8  C   UNL     1     -13.604   7.238  -1.137  1.00  0.00     0.110 A 
ATOM      9  C   UNL     1     -12.470   8.052  -1.305  1.00  0.00     0.156 A 
ENDROOT
BRANCH   6  10
ATOM     10  C   UNL     1     -14.057  11.445  -1.504  1.00  0.00     0.335 C 
ATOM     11  O   UNL     1     -14.267  11.938  -2.594  1.00  0.00    -0.246 OA
BRANCH  10  12
ATOM     12  O   UNL     1     -13.974  12.233  -0.413  1.00  0.00    -0.478 OA
ATOM     13  H   UNL     1     -14.304  13.137  -0.498  1.00  0.00     0.297 HD
ENDBRANCH  10  12
ENDBRANCH   6  10
BRANCH   7  14
ATOM     14  C   UNL     1     -11.002   4.757  -1.117  1.00  0.00     0.040 A 
ATOM     15  C   UNL     1     -10.181   4.439  -2.200  1.00  0.00     0.034 A 
ATOM     16  C   UNL     1     -11.017   3.929   0.007  1.00  0.00     0.034 A 
ATOM     17  C   UNL     1      -9.387   3.311  -2.153  1.00  0.00     0.043 A 
ATOM     18  C   UNL     1     -10.219   2.804   0.042  1.00  0.00     0.043 A 
ATOM     19  C   UNL     1      -9.406   2.494  -1.035  1.00  0.00     0.041 A 
ATOM     20  Cl  UNL     1      -8.363   2.914  -3.497  1.00  0.00    -0.084 Cl
ATOM     21  Cl  UNL     1     -10.236   1.773   1.440  1.00  0.00    -0.084 Cl
ENDBRANCH   7  14
TORSDOF 3
ENDMDL
MODEL 4
REMARK VINA RESULT:    -2.119      5.579      9.276
REMARK INTER + INTRA:          -2.722
REMARK INTER:                  -2.443
REMARK INTRA:                  -0.279
REMARK UNBOUND:                -0.294
REMARK SMILES O=C(O)c1ccc2nc(-c3cc(Cl)cc(Cl)c3)oc2c1
REMARK SMILES IDX 5 1 6 2 20 3 8 4 18 5 4 6 9 7 7 8 19 9 2 10 1 11 3 12 10 14
REMARK SMILES IDX 11 15 17 16 12 17 15 18 14 19 13 20 16 21
REMARK H PARENT 3 13
ROOT
ATOM      1  C   UNL     1     -15.012   9.159  -1.199  1.00  0.00     0.018 A 
ATOM      2  C   UNL     1     -14.869   7.808  -1.090  1.00  0.00     0.033 A 
ATOM      3  C   UNL     1     -12.610   9.421  -1.403  1.00  0.00     0.065 A 
ATOM      4  N   UNL     1     -13.145   5.962  -1.053  1.00  0.00    -0.209 NA
ATOM      5  O   UNL     1     -11.390   7.226  -1.292  1.00  0.00    -0.436 OA
ATOM      6  C   UNL     1     -13.888   9.981  -1.358  1.00  0.00     0.063 A 
ATOM      7  C   UNL     1     -11.839   5.964  -1.149  1.00  0.00     0.227 A 
ATOM      8  C   UNL     1     -13.593   7.233  -1.133  1.00  0.00     0.110 A 
ATOM      9  C   UNL     1     -12.460   8.051  -1.288  1.00  0.00     0.156 A 
ENDROOT
BRANCH   6  10
ATOM     10  C   UNL     1     -14.056  11.441  -1.481  1.00  0.00     0.335 C 
ATOM     11  O   UNL     1     -14.211  11.944  -2.576  1.00  0.00    -0.246 OA
BRANCH  10  12
ATOM     12  O   UNL     1     -14.036  12.217  -0.380  1.00  0.00    -0.478 OA
ATOM     13  H   UNL     1     -14.844  12.703  -0.170  1.00  0.00     0.297 HD
ENDBRANCH  10  12
ENDBRANCH   6  10
BRANCH   7  14
ATOM     14  C   UNL     1     -10.984   4.760  -1.105  1.00  0.00     0.040 A 
ATOM     15  C   UNL     1     -11.010   3.922   0.010  1.00  0.00     0.034 A 
ATOM     16  C   UNL     1     -10.146   4.456  -2.180  1.00  0.00     0.034 A 
ATOM     17  C   UNL     1     -10.210   2.797   0.045  1.00  0.00     0.043 A 
ATOM     18  C   UNL     1      -9.351   3.329  -2.134  1.00  0.00     0.043 A 
ATOM     19  C   UNL     1      -9.381   2.501  -1.025  1.00  0.00     0.041 A 
ATOM     20  Cl  UNL     1     -10.241   1.753   1.431  1.00  0.00    -0.084 Cl
ATOM     21  Cl  UNL     1      -8.309   2.949  -3.470  1.00  0.00    -0.084 Cl
ENDBRANCH   7  14
TORSDOF 3
ENDMDL
MODEL 5
REMARK VINA RESULT:    -2.072      3.782      7.829
REMARK INTER + INTRA:          -2.669
REMARK INTER:                  -2.380
REMARK INTRA:                  -0.288
REMARK UNBOUND:                -0.294
REMARK SMILES O=C(O)c1ccc2nc(-c3cc(Cl)cc(Cl)c3)oc2c1
REMARK SMILES IDX 5 1 6 2 20 3 8 4 18 5 4 6 9 7 7 8 19 9 2 10 1 11 3 12 10 14
REMARK SMILES IDX 11 15 17 16 12 17 15 18 14 19 13 20 16 21
REMARK H PARENT 3 13
ROOT
ATOM      1  C   UNL     1     -12.856   3.680  -2.897  1.00  0.00     0.018 A 
ATOM      2  C   UNL     1     -11.791   4.025  -2.120  1.00  0.00     0.033 A 
ATOM      3  C   UNL     1     -11.639   1.766  -3.756  1.00  0.00     0.065 A 
ATOM      4  N   UNL     1      -9.440   3.336  -1.503  1.00  0.00    -0.209 NA
ATOM      5  O   UNL     1      -9.328   1.582  -2.784  1.00  0.00    -0.436 OA
ATOM      6  C   UNL     1     -12.795   2.548  -3.722  1.00  0.00     0.063 A 
ATOM      7  C   UNL     1      -8.676   2.345  -1.887  1.00  0.00     0.227 A 
ATOM      8  C   UNL     1     -10.626   3.249  -2.144  1.00  0.00     0.110 A 
ATOM      9  C   UNL     1     -10.555   2.115  -2.972  1.00  0.00     0.156 A 
ENDROOT
BRANCH   6  10
ATOM     10  C   UNL     1     -13.955   2.181  -4.554  1.00  0.00     0.335 C 
ATOM     11  O   UNL     1     -14.395   2.972  -5.365  1.00  0.00    -0.246 OA
BRANCH  10  12
ATOM     12  O   UNL     1     -14.529   0.969  -4.416  1.00  0.00    -0.478 OA
ATOM     13  H   UNL     1     -14.030   0.301  -3.928  1.00  0.00     0.297 HD
ENDBRANCH  10  12
ENDBRANCH   6  10
BRANCH   7  14
ATOM     14  C   UNL     1      -7.300   2.100  -1.406  1.00  0.00     0.040 A 
ATOM     15  C   UNL     1      -6.880   2.628  -0.185  1.00  0.00     0.034 A 
ATOM     16  C   UNL     1      -6.414   1.341  -2.174  1.00  0.00     0.034 A 
ATOM     17  C   UNL     1      -5.594   2.396   0.260  1.00  0.00     0.043 A 
ATOM     18  C   UNL     1      -5.130   1.116  -1.719  1.00  0.00     0.043 A 
ATOM     19  C   UNL     1      -4.720   1.642  -0.506  1.00  0.00     0.041 A 
ATOM     20  Cl  UNL     1      -5.069   3.050   1.779  1.00  0.00    -0.084 Cl
ATOM     21  Cl  UNL     1      -4.027   0.171  -2.671  1.00  0.00    -0.084 Cl
ENDBRANCH   7  14
TORSDOF 3
ENDMDL
MODEL 6
REMARK VINA RESULT:    -2.069      3.782      7.575
REMARK INTER + INTRA:          -2.665
REMARK INTER:                  -2.376
REMARK INTRA:                  -0.289
REMARK UNBOUND:                -0.294
REMARK SMILES O=C(O)c1ccc2nc(-c3cc(Cl)cc(Cl)c3)oc2c1
REMARK SMILES IDX 5 1 6 2 20 3 8 4 18 5 4 6 9 7 7 8 19 9 2 10 1 11 3 12 10 14
REMARK SMILES IDX 11 15 17 16 12 17 15 18 14 19 13 20 16 21
REMARK H PARENT 3 13
ROOT
ATOM      1  C   UNL     1     -12.856   3.679  -2.898  1.00  0.00     0.018 A 
ATOM      2  C   UNL     1     -11.791   4.024  -2.120  1.00  0.00     0.033 A 
ATOM      3  C   UNL     1     -11.639   1.765  -3.756  1.00  0.00     0.065 A 
ATOM      4  N   UNL     1      -9.440   3.335  -1.504  1.00  0.00    -0.209 NA
ATOM      5  O   UNL     1      -9.328   1.580  -2.785  1.00  0.00    -0.436 OA
ATOM      6  C   UNL     1     -12.795   2.547  -3.723  1.00  0.00     0.063 A 
ATOM      7  C   UNL     1      -8.675   2.343  -1.888  1.00  0.00     0.227 A 
ATOM      8  C   UNL     1     -10.625   3.248  -2.144  1.00  0.00     0.110 A 
ATOM      9  C   UNL     1     -10.555   2.114  -2.973  1.00  0.00     0.156 A 
ENDROOT
BRANCH   6  10
ATOM     10  C   UNL     1     -13.955   2.181  -4.555  1.00  0.00     0.335 C 
ATOM     11  O   UNL     1     -14.395   2.971  -5.366  1.00  0.00    -0.246 OA
BRANCH  10  12
ATOM     12  O   UNL     1     -14.530   0.970  -4.415  1.00  0.00    -0.478 OA
ATOM     13  H   UNL     1     -14.293   0.294  -5.064  1.00  0.00     0.297 HD
ENDBRANCH  10  12
ENDBRANCH   6  10
BRANCH   7  14
ATOM     14  C   UNL     1      -7.300   2.099  -1.407  1.00  0.00     0.040 A 
ATOM     15  C   UNL     1      -6.414   1.339  -2.173  1.00  0.00     0.034 A 
ATOM     16  C   UNL     1      -6.881   2.626  -0.184  1.00  0.00     0.034 A 
ATOM     17  C   UNL     1      -5.129   1.115  -1.719  1.00  0.00     0.043 A 
ATOM     18  C   UNL     1      -5.594   2.396   0.259  1.00  0.00     0.043 A 
ATOM     19  C   UNL     1      -4.720   1.642  -0.505  1.00  0.00     0.041 A 
ATOM     20  Cl  UNL     1      -4.026   0.172  -2.670  1.00  0.00    -0.084 Cl
ATOM     21  Cl  UNL     1      -5.071   3.051   1.780  1.00  0.00    -0.084 Cl
ENDBRANCH   7  14
TORSDOF 3
ENDMDL
MODEL 7
REMARK VINA RESULT:    -2.049      3.938      7.669
REMARK INTER + INTRA:          -2.642
REMARK INTER:                  -2.350
REMARK INTRA:                  -0.292
REMARK UNBOUND:                -0.294
REMARK SMILES O=C(O)c1ccc2nc(-c3cc(Cl)cc(Cl)c3)oc2c1
REMARK SMILES IDX 5 1 6 2 20 3 8 4 18 5 4 6 9 7 7 8 19 9 2 10 1 11 3 12 10 14
REMARK SMILES IDX 11 15 17 16 12 17 15 18 14 19 13 20 16 21
REMARK H PARENT 3 13
ROOT
ATOM      1  C   UNL     1     -12.839   4.142  -2.362  1.00  0.00     0.018 A 
ATOM      2  C   UNL     1     -11.899   3.248  -2.780  1.00  0.00     0.033 A 
ATOM      3  C   UNL     1     -11.211   5.216  -0.921  1.00  0.00     0.065 A 
ATOM      4  N   UNL     1      -9.476   2.591  -2.494  1.00  0.00    -0.209 NA
ATOM      5  O   UNL     1      -8.950   4.123  -1.043  1.00  0.00    -0.436 OA
ATOM      6  C   UNL     1     -12.508   5.136  -1.431  1.00  0.00     0.063 A 
ATOM      7  C   UNL     1      -8.505   3.074  -1.760  1.00  0.00     0.227 A 
ATOM      8  C   UNL     1     -10.594   3.316  -2.276  1.00  0.00     0.110 A 
ATOM      9  C   UNL     1     -10.255   4.308  -1.339  1.00  0.00     0.156 A 
ENDROOT
BRANCH   6  10
ATOM     10  C   UNL     1     -13.531   6.102  -0.991  1.00  0.00     0.335 C 
ATOM     11  O   UNL     1     -13.256   7.282  -0.907  1.00  0.00    -0.246 OA
BRANCH  10  12
ATOM     12  O   UNL     1     -14.771   5.675  -0.680  1.00  0.00    -0.478 OA
ATOM     13  H   UNL     1     -14.862   4.754  -0.401  1.00  0.00     0.297 HD
ENDBRANCH  10  12
ENDBRANCH   6  10
BRANCH   7  14
ATOM     14  C   UNL     1      -7.126   2.546  -1.725  1.00  0.00     0.040 A 
ATOM     15  C   UNL     1      -6.650   1.758  -2.774  1.00  0.00     0.034 A 
ATOM     16  C   UNL     1      -6.294   2.832  -0.641  1.00  0.00     0.034 A 
ATOM     17  C   UNL     1      -5.360   1.268  -2.736  1.00  0.00     0.043 A 
ATOM     18  C   UNL     1      -5.005   2.336  -0.614  1.00  0.00     0.043 A 
ATOM     19  C   UNL     1      -4.539   1.555  -1.658  1.00  0.00     0.041 A 
ATOM     20  Cl  UNL     1      -4.765   0.289  -4.040  1.00  0.00    -0.084 Cl
ATOM     21  Cl  UNL     1      -3.969   2.691   0.733  1.00  0.00    -0.084 Cl
ENDBRANCH   7  14
TORSDOF 3
ENDMDL
MODEL 8
REMARK VINA RESULT:    -2.044      3.937      7.910
REMARK INTER + INTRA:          -2.636
REMARK INTER:                  -2.344
REMARK INTRA:                  -0.292
REMARK UNBOUND:                -0.294
REMARK SMILES O=C(O)c1ccc2nc(-c3cc(Cl)cc(Cl)c3)oc2c1
REMARK SMILES IDX 5 1 6 2 20 3 8 4 18 5 4 6 9 7 7 8 19 9 2 10 1 11 3 12 10 14
REMARK SMILES IDX 11 15 17 16 12 17 15 18 14 19 13 20 16 21
REMARK H PARENT 3 13
ROOT
ATOM      1  C   UNL     1     -12.840   4.138  -2.365  1.00  0.00     0.018 A 
ATOM      2  C   UNL     1     -11.899   3.245  -2.782  1.00  0.00     0.033 A 
ATOM      3  C   UNL     1     -11.213   5.215  -0.924  1.00  0.00     0.065 A 
ATOM      4  N   UNL     1      -9.476   2.590  -2.496  1.00  0.00    -0.209 NA
ATOM      5  O   UNL     1      -8.951   4.124  -1.045  1.00  0.00    -0.436 OA
ATOM      6  C   UNL     1     -12.510   5.134  -1.435  1.00  0.00     0.063 A 
ATOM      7  C   UNL     1      -8.506   3.075  -1.762  1.00  0.00     0.227 A 
ATOM      8  C   UNL     1     -10.595   3.315  -2.279  1.00  0.00     0.110 A 
ATOM      9  C   UNL     1     -10.257   4.307  -1.341  1.00  0.00     0.156 A 
ENDROOT
BRANCH   6  10
ATOM     10  C   UNL     1     -13.534   6.099  -0.995  1.00  0.00     0.335 C 
ATOM     11  O   UNL     1     -13.259   7.279  -0.909  1.00  0.00    -0.246 OA
BRANCH  10  12
ATOM     12  O   UNL     1     -14.775   5.672  -0.688  1.00  0.00    -0.478 OA
ATOM     13  H   UNL     1     -15.411   5.611  -1.413  1.00  0.00     0.297 HD
ENDBRANCH  10  12
ENDBRANCH   6  10
BRANCH   7  14
ATOM     14  C   UNL     1      -7.126   2.547  -1.726  1.00  0.00     0.040 A 
ATOM     15  C   UNL     1      -6.294   2.833  -0.643  1.00  0.00     0.034 A 
ATOM     16  C   UNL     1      -6.649   1.761  -2.777  1.00  0.00     0.034 A 
ATOM     17  C   UNL     1      -5.006   2.336  -0.615  1.00  0.00     0.043 A 
ATOM     18  C   UNL     1      -5.360   1.269  -2.738  1.00  0.00     0.043 A 
ATOM     19  C   UNL     1      -4.539   1.557  -1.661  1.00  0.00     0.041 A 
ATOM     20  Cl  UNL     1      -3.969   2.689   0.731  1.00  0.00    -0.084 Cl
ATOM     21  Cl  UNL     1      -4.765   0.291  -4.044  1.00  0.00    -0.084 Cl
ENDBRANCH   7  14
TORSDOF 3
ENDMDL
MODEL 9
REMARK VINA RESULT:    -0.879      2.964      4.409
REMARK INTER + INTRA:          -1.301
REMARK INTER:                  -1.013
REMARK INTRA:                  -0.288
REMARK UNBOUND:                -0.294
REMARK SMILES O=C(O)c1ccc2nc(-c3cc(Cl)cc(Cl)c3)oc2c1
REMARK SMILES IDX 5 1 6 2 20 3 8 4 18 5 4 6 9 7 7 8 19 9 2 10 1 11 3 12 10 14
REMARK SMILES IDX 11 15 17 16 12 17 15 18 14 19 13 20 16 21
REMARK H PARENT 3 13
ROOT
ATOM      1  C   UNL     1      -6.868   3.332  -2.478  1.00  0.00     0.018 A 
ATOM      2  C   UNL     1      -7.767   3.254  -3.499  1.00  0.00     0.033 A 
ATOM      3  C   UNL     1      -8.555   2.588  -0.904  1.00  0.00     0.065 A 
ATOM      4  N   UNL     1     -10.167   2.673  -4.030  1.00  0.00    -0.209 NA
ATOM      5  O   UNL     1     -10.775   2.160  -2.005  1.00  0.00    -0.436 OA
ATOM      6  C   UNL     1      -7.248   2.999  -1.171  1.00  0.00     0.063 A 
ATOM      7  C   UNL     1     -11.168   2.267  -3.288  1.00  0.00     0.227 A 
ATOM      8  C   UNL     1      -9.081   2.843  -3.246  1.00  0.00     0.110 A 
ATOM      9  C   UNL     1      -9.472   2.512  -1.937  1.00  0.00     0.156 A 
ENDROOT
BRANCH   6  10
ATOM     10  C   UNL     1      -6.266   3.081  -0.075  1.00  0.00     0.335 C 
ATOM     11  O   UNL     1      -5.224   3.685  -0.237  1.00  0.00    -0.246 OA
BRANCH  10  12
ATOM     12  O   UNL     1      -6.521   2.485   1.106  1.00  0.00    -0.478 OA
ATOM     13  H   UNL     1      -7.150   2.926   1.694  1.00  0.00     0.297 HD
ENDBRANCH  10  12
ENDBRANCH   6  10
BRANCH   7  14
ATOM     14  C   UNL     1     -12.527   1.972  -3.787  1.00  0.00     0.040 A 
ATOM     15  C   UNL     1     -13.326   2.998  -4.294  1.00  0.00     0.034 A 
ATOM     16  C   UNL     1     -13.017   0.665  -3.752  1.00  0.00     0.034 A 
ATOM     17  C   UNL     1     -14.595   2.715  -4.760  1.00  0.00     0.043 A 
ATOM     18  C   UNL     1     -14.287   0.395  -4.221  1.00  0.00     0.043 A 
ATOM     19  C   UNL     1     -15.075   1.417  -4.722  1.00  0.00     0.041 A 
ATOM     20  Cl  UNL     1     -15.590   3.989  -5.391  1.00  0.00    -0.084 Cl
ATOM     21  Cl  UNL     1     -14.899  -1.229  -4.178  1.00  0.00    -0.084 Cl
ENDBRANCH   7  14
TORSDOF 3
ENDMDL
