MODEL 1
REMARK VINA RESULT:    -4.840      0.000      0.000
REMARK INTER + INTRA:          -7.165
REMARK INTER:                  -6.679
REMARK INTRA:                  -0.486
REMARK UNBOUND:                -0.486
REMARK SMILES Cc1n[nH]c(C)c1CCCOc1cc(C(=O)O)ccc1F
REMARK SMILES IDX 11 1 12 2 14 3 18 4 13 5 19 6 20 7 21 8 15 9 16 10 17 11
REMARK SMILES IDX 10 13 9 14 8 15 7 16 5 17 2 18 4 19 3 20 6 21 1 22
REMARK H PARENT 17 12 4 23
ROOT
ATOM      1  O   UNL     1      -7.252  -5.232   3.373  1.00  0.00    -0.490 OA
ENDROOT
BRANCH   1   2
ATOM      2  C   UNL     1      -6.025  -4.658   3.486  1.00  0.00     0.155 A 
ATOM      3  C   UNL     1      -4.516  -3.160   4.609  1.00  0.00     0.063 A 
ATOM      4  C   UNL     1      -3.507  -3.505   3.706  1.00  0.00     0.019 A 
ATOM      5  C   UNL     1      -5.780  -3.743   4.493  1.00  0.00     0.065 A 
ATOM      6  C   UNL     1      -3.760  -4.424   2.709  1.00  0.00     0.044 A 
ATOM      7  C   UNL     1      -5.012  -5.005   2.599  1.00  0.00     0.165 A 
ATOM      8  F   UNL     1      -5.253  -5.904   1.619  1.00  0.00    -0.203 F 
BRANCH   3   9
ATOM      9  C   UNL     1      -4.249  -2.177   5.678  1.00  0.00     0.335 C 
ATOM     10  O   UNL     1      -5.173  -1.649   6.261  1.00  0.00    -0.246 OA
BRANCH   9  11
ATOM     11  O   UNL     1      -2.979  -1.872   6.010  1.00  0.00    -0.478 OA
ATOM     12  H   UNL     1      -2.722  -0.941   5.955  1.00  0.00     0.297 HD
ENDBRANCH   9  11
ENDBRANCH   3   9
ENDBRANCH   1   2
BRANCH   1  13
ATOM     13  C   UNL     1      -7.323  -6.650   3.541  1.00  0.00     0.230 C 
BRANCH  13  14
ATOM     14  C   UNL     1      -8.022  -6.972   4.863  1.00  0.00     0.046 C 
BRANCH  14  15
ATOM     15  C   UNL     1      -6.971  -7.206   5.951  1.00  0.00     0.043 C 
BRANCH  15  16
ATOM     16  C   UNL     1      -7.590  -7.969   7.093  1.00  0.00    -0.004 A 
ATOM     17  C   UNL     1      -7.536  -9.309   7.277  1.00  0.00     0.036 A 
ATOM     18  C   UNL     1      -8.317  -7.419   8.154  1.00  0.00     0.063 A 
ATOM     19  N   UNL     1      -8.210  -9.596   8.410  1.00  0.00    -0.282 N 
ATOM     20  N   UNL     1      -8.695  -8.393   8.940  1.00  0.00    -0.181 NA
ATOM     21  C   UNL     1      -6.847 -10.302   6.378  1.00  0.00     0.066 C 
ATOM     22  C   UNL     1      -8.622  -5.955   8.350  1.00  0.00     0.069 C 
ATOM     23  H   UNL     1      -8.338 -10.479   8.790  1.00  0.00     0.190 HD
ENDBRANCH  15  16
ENDBRANCH  14  15
ENDBRANCH  13  14
ENDBRANCH   1  13
TORSDOF 7
ENDMDL
MODEL 2
REMARK VINA RESULT:    -4.815      2.310      4.004
REMARK INTER + INTRA:          -7.130
REMARK INTER:                  -6.595
REMARK INTRA:                  -0.536
REMARK UNBOUND:                -0.486
REMARK SMILES Cc1n[nH]c(C)c1CCCOc1cc(C(=O)O)ccc1F
REMARK SMILES IDX 11 1 12 2 14 3 18 4 13 5 19 6 20 7 21 8 15 9 16 10 17 11
REMARK SMILES IDX 10 13 9 14 8 15 7 16 5 17 2 18 4 19 3 20 6 21 1 22
REMARK H PARENT 17 12 4 23
ROOT
ATOM      1  O   UNL     1      -3.627  -5.188   6.571  1.00  0.00    -0.490 OA
ENDROOT
BRANCH   1   2
ATOM      2  C   UNL     1      -3.827  -4.699   5.318  1.00  0.00     0.155 A 
ATOM      3  C   UNL     1      -4.258  -5.061   2.980  1.00  0.00     0.063 A 
ATOM      4  C   UNL     1      -4.243  -3.680   2.767  1.00  0.00     0.019 A 
ATOM      5  C   UNL     1      -4.048  -5.567   4.264  1.00  0.00     0.065 A 
ATOM      6  C   UNL     1      -4.028  -2.822   3.825  1.00  0.00     0.044 A 
ATOM      7  C   UNL     1      -3.825  -3.326   5.099  1.00  0.00     0.165 A 
ATOM      8  F   UNL     1      -3.614  -2.480   6.132  1.00  0.00    -0.203 F 
BRANCH   3   9
ATOM      9  C   UNL     1      -4.488  -5.982   1.850  1.00  0.00     0.335 C 
ATOM     10  O   UNL     1      -4.119  -7.136   1.921  1.00  0.00    -0.246 OA
BRANCH   9  11
ATOM     11  O   UNL     1      -5.115  -5.543   0.740  1.00  0.00    -0.478 OA
ATOM     12  H   UNL     1      -5.357  -6.207   0.080  1.00  0.00     0.297 HD
ENDBRANCH   9  11
ENDBRANCH   3   9
ENDBRANCH   1   2
BRANCH   1  13
ATOM     13  C   UNL     1      -4.618  -4.879   7.553  1.00  0.00     0.230 C 
BRANCH  13  14
ATOM     14  C   UNL     1      -5.353  -6.159   7.955  1.00  0.00     0.046 C 
BRANCH  14  15
ATOM     15  C   UNL     1      -6.652  -6.274   7.155  1.00  0.00     0.043 C 
BRANCH  15  16
ATOM     16  C   UNL     1      -7.594  -7.216   7.858  1.00  0.00    -0.004 A 
ATOM     17  C   UNL     1      -8.554  -6.867   8.746  1.00  0.00     0.036 A 
ATOM     18  C   UNL     1      -7.636  -8.606   7.705  1.00  0.00     0.063 A 
ATOM     19  N   UNL     1      -9.177  -7.997   9.145  1.00  0.00    -0.282 N 
ATOM     20  N   UNL     1      -8.579  -9.076   8.480  1.00  0.00    -0.181 NA
ATOM     21  C   UNL     1      -8.872  -5.469   9.207  1.00  0.00     0.066 C 
ATOM     22  C   UNL     1      -6.740  -9.423   6.809  1.00  0.00     0.069 C 
ATOM     23  H   UNL     1      -9.907  -8.052   9.780  1.00  0.00     0.190 HD
ENDBRANCH  15  16
ENDBRANCH  14  15
ENDBRANCH  13  14
ENDBRANCH   1  13
TORSDOF 7
ENDMDL
MODEL 3
REMARK VINA RESULT:    -4.356      9.112     10.930
REMARK INTER + INTRA:          -6.498
REMARK INTER:                  -4.068
REMARK INTRA:                  -2.429
REMARK UNBOUND:                -0.486
REMARK SMILES Cc1n[nH]c(C)c1CCCOc1cc(C(=O)O)ccc1F
REMARK SMILES IDX 11 1 12 2 14 3 18 4 13 5 19 6 20 7 21 8 15 9 16 10 17 11
REMARK SMILES IDX 10 13 9 14 8 15 7 16 5 17 2 18 4 19 3 20 6 21 1 22
REMARK H PARENT 17 12 4 23
ROOT
ATOM      1  O   UNL     1     -10.973 -15.429  10.791  1.00  0.00    -0.490 OA
ENDROOT
BRANCH   1   2
ATOM      2  C   UNL     1     -10.258 -14.509  10.092  1.00  0.00     0.155 A 
ATOM      3  C   UNL     1      -8.147 -13.643   9.333  1.00  0.00     0.063 A 
ATOM      4  C   UNL     1      -8.815 -12.624   8.649  1.00  0.00     0.019 A 
ATOM      5  C   UNL     1      -8.878 -14.587  10.056  1.00  0.00     0.065 A 
ATOM      6  C   UNL     1     -10.192 -12.557   8.685  1.00  0.00     0.044 A 
ATOM      7  C   UNL     1     -10.915 -13.498   9.400  1.00  0.00     0.165 A 
ATOM      8  F   UNL     1     -12.264 -13.427   9.431  1.00  0.00    -0.203 F 
BRANCH   3   9
ATOM      9  C   UNL     1      -6.673 -13.718   9.295  1.00  0.00     0.335 C 
ATOM     10  O   UNL     1      -6.120 -14.387   8.447  1.00  0.00    -0.246 OA
BRANCH   9  11
ATOM     11  O   UNL     1      -5.942 -13.037  10.199  1.00  0.00    -0.478 OA
ATOM     12  H   UNL     1      -6.166 -13.165  11.132  1.00  0.00     0.297 HD
ENDBRANCH   9  11
ENDBRANCH   3   9
ENDBRANCH   1   2
BRANCH   1  13
ATOM     13  C   UNL     1     -10.641 -15.597  12.171  1.00  0.00     0.230 C 
BRANCH  13  14
ATOM     14  C   UNL     1     -11.064 -14.352  12.952  1.00  0.00     0.046 C 
BRANCH  14  15
ATOM     15  C   UNL     1     -10.079 -14.110  14.098  1.00  0.00     0.043 C 
BRANCH  15  16
ATOM     16  C   UNL     1      -8.798 -13.537  13.549  1.00  0.00    -0.004 A 
ATOM     17  C   UNL     1      -7.588 -14.143  13.557  1.00  0.00     0.036 A 
ATOM     18  C   UNL     1      -8.651 -12.289  12.936  1.00  0.00     0.063 A 
ATOM     19  N   UNL     1      -6.705 -13.304  12.975  1.00  0.00    -0.282 N 
ATOM     20  N   UNL     1      -7.396 -12.145  12.597  1.00  0.00    -0.181 NA
ATOM     21  C   UNL     1      -7.281 -15.508  14.114  1.00  0.00     0.066 C 
ATOM     22  C   UNL     1      -9.747 -11.278  12.714  1.00  0.00     0.069 C 
ATOM     23  H   UNL     1      -5.759 -13.474  12.842  1.00  0.00     0.190 HD
ENDBRANCH  15  16
ENDBRANCH  14  15
ENDBRANCH  13  14
ENDBRANCH   1  13
TORSDOF 7
ENDMDL
MODEL 4
REMARK VINA RESULT:    -4.256      9.000     11.103
REMARK INTER + INTRA:          -6.360
REMARK INTER:                  -3.915
REMARK INTRA:                  -2.445
REMARK UNBOUND:                -0.486
REMARK SMILES Cc1n[nH]c(C)c1CCCOc1cc(C(=O)O)ccc1F
REMARK SMILES IDX 11 1 12 2 14 3 18 4 13 5 19 6 20 7 21 8 15 9 16 10 17 11
REMARK SMILES IDX 10 13 9 14 8 15 7 16 5 17 2 18 4 19 3 20 6 21 1 22
REMARK H PARENT 17 12 4 23
ROOT
ATOM      1  O   UNL     1      -9.078 -13.490  13.234  1.00  0.00    -0.490 OA
ENDROOT
BRANCH   1   2
ATOM      2  C   UNL     1      -9.853 -12.399  13.475  1.00  0.00     0.155 A 
ATOM      3  C   UNL     1     -10.506 -10.145  12.950  1.00  0.00     0.063 A 
ATOM      4  C   UNL     1     -11.453 -10.184  13.977  1.00  0.00     0.019 A 
ATOM      5  C   UNL     1      -9.705 -11.262  12.703  1.00  0.00     0.065 A 
ATOM      6  C   UNL     1     -11.598 -11.325  14.738  1.00  0.00     0.044 A 
ATOM      7  C   UNL     1     -10.806 -12.433  14.488  1.00  0.00     0.165 A 
ATOM      8  F   UNL     1     -10.953 -13.548  15.237  1.00  0.00    -0.203 F 
BRANCH   3   9
ATOM      9  C   UNL     1     -10.349  -8.926  12.134  1.00  0.00     0.335 C 
ATOM     10  O   UNL     1      -9.991  -7.889  12.653  1.00  0.00    -0.246 OA
BRANCH   9  11
ATOM     11  O   UNL     1     -10.596  -8.965  10.810  1.00  0.00    -0.478 OA
ATOM     12  H   UNL     1      -9.900  -9.326  10.243  1.00  0.00     0.297 HD
ENDBRANCH   9  11
ENDBRANCH   3   9
ENDBRANCH   1   2
BRANCH   1  13
ATOM     13  C   UNL     1      -9.146 -14.057  11.923  1.00  0.00     0.230 C 
BRANCH  13  14
ATOM     14  C   UNL     1     -10.495 -14.753  11.739  1.00  0.00     0.046 C 
BRANCH  14  15
ATOM     15  C   UNL     1     -10.963 -14.583  10.292  1.00  0.00     0.043 C 
BRANCH  15  16
ATOM     16  C   UNL     1     -11.400 -13.159  10.068  1.00  0.00    -0.004 A 
ATOM     17  C   UNL     1     -12.481 -12.561  10.622  1.00  0.00     0.036 A 
ATOM     18  C   UNL     1     -10.757 -12.218   9.257  1.00  0.00     0.063 A 
ATOM     19  N   UNL     1     -12.523 -11.289  10.171  1.00  0.00    -0.282 N 
ATOM     20  N   UNL     1     -11.433 -11.100   9.312  1.00  0.00    -0.181 NA
ATOM     21  C   UNL     1     -13.460 -13.200  11.571  1.00  0.00     0.066 C 
ATOM     22  C   UNL     1      -9.507 -12.456   8.448  1.00  0.00     0.069 C 
ATOM     23  H   UNL     1     -13.191 -10.625  10.401  1.00  0.00     0.190 HD
ENDBRANCH  15  16
ENDBRANCH  14  15
ENDBRANCH  13  14
ENDBRANCH   1  13
TORSDOF 7
ENDMDL
MODEL 5
REMARK VINA RESULT:    -4.206      8.925     10.897
REMARK INTER + INTRA:          -6.290
REMARK INTER:                  -4.109
REMARK INTRA:                  -2.181
REMARK UNBOUND:                -0.486
REMARK SMILES Cc1n[nH]c(C)c1CCCOc1cc(C(=O)O)ccc1F
REMARK SMILES IDX 11 1 12 2 14 3 18 4 13 5 19 6 20 7 21 8 15 9 16 10 17 11
REMARK SMILES IDX 10 13 9 14 8 15 7 16 5 17 2 18 4 19 3 20 6 21 1 22
REMARK H PARENT 17 12 4 23
ROOT
ATOM      1  O   UNL     1     -10.470 -15.700  10.930  1.00  0.00    -0.490 OA
ENDROOT
BRANCH   1   2
ATOM      2  C   UNL     1      -9.965 -14.689  10.175  1.00  0.00     0.155 A 
ATOM      3  C   UNL     1      -8.094 -13.597   9.132  1.00  0.00     0.063 A 
ATOM      4  C   UNL     1      -8.953 -12.621   8.621  1.00  0.00     0.019 A 
ATOM      5  C   UNL     1      -8.609 -14.634   9.913  1.00  0.00     0.065 A 
ATOM      6  C   UNL     1     -10.305 -12.688   8.883  1.00  0.00     0.044 A 
ATOM      7  C   UNL     1     -10.815 -13.720   9.654  1.00  0.00     0.165 A 
ATOM      8  F   UNL     1     -12.140 -13.780   9.907  1.00  0.00    -0.203 F 
BRANCH   3   9
ATOM      9  C   UNL     1      -6.646 -13.528   8.853  1.00  0.00     0.335 C 
ATOM     10  O   UNL     1      -6.041 -14.531   8.532  1.00  0.00    -0.246 OA
BRANCH   9  11
ATOM     11  O   UNL     1      -5.997 -12.352   8.949  1.00  0.00    -0.478 OA
ATOM     12  H   UNL     1      -5.055 -12.350   8.728  1.00  0.00     0.297 HD
ENDBRANCH   9  11
ENDBRANCH   3   9
ENDBRANCH   1   2
BRANCH   1  13
ATOM     13  C   UNL     1     -10.063 -15.753  12.300  1.00  0.00     0.230 C 
BRANCH  13  14
ATOM     14  C   UNL     1     -11.033 -14.932  13.151  1.00  0.00     0.046 C 
BRANCH  14  15
ATOM     15  C   UNL     1     -10.241 -13.998  14.070  1.00  0.00     0.043 C 
BRANCH  15  16
ATOM     16  C   UNL     1      -9.993 -12.690  13.364  1.00  0.00    -0.004 A 
ATOM     17  C   UNL     1     -10.929 -11.765  13.049  1.00  0.00     0.036 A 
ATOM     18  C   UNL     1      -8.753 -12.214  12.926  1.00  0.00     0.063 A 
ATOM     19  N   UNL     1     -10.304 -10.743  12.427  1.00  0.00    -0.282 N 
ATOM     20  N   UNL     1      -8.939 -11.051  12.357  1.00  0.00    -0.181 NA
ATOM     21  C   UNL     1     -12.404 -11.859  13.341  1.00  0.00     0.066 C 
ATOM     22  C   UNL     1      -7.431 -12.925  13.071  1.00  0.00     0.069 C 
ATOM     23  H   UNL     1     -10.726  -9.939  12.087  1.00  0.00     0.190 HD
ENDBRANCH  15  16
ENDBRANCH  14  15
ENDBRANCH  13  14
ENDBRANCH   1  13
TORSDOF 7
ENDMDL
MODEL 6
REMARK VINA RESULT:    -4.088      9.040     10.964
REMARK INTER + INTRA:          -6.127
REMARK INTER:                  -3.860
REMARK INTRA:                  -2.267
REMARK UNBOUND:                -0.486
REMARK SMILES Cc1n[nH]c(C)c1CCCOc1cc(C(=O)O)ccc1F
REMARK SMILES IDX 11 1 12 2 14 3 18 4 13 5 19 6 20 7 21 8 15 9 16 10 17 11
REMARK SMILES IDX 10 13 9 14 8 15 7 16 5 17 2 18 4 19 3 20 6 21 1 22
REMARK H PARENT 17 12 4 23
ROOT
ATOM      1  O   UNL     1      -9.757 -13.359  13.629  1.00  0.00    -0.490 OA
ENDROOT
BRANCH   1   2
ATOM      2  C   UNL     1     -10.292 -12.110  13.675  1.00  0.00     0.155 A 
ATOM      3  C   UNL     1     -10.493  -9.890  12.774  1.00  0.00     0.063 A 
ATOM      4  C   UNL     1     -11.405  -9.567  13.781  1.00  0.00     0.019 A 
ATOM      5  C   UNL     1      -9.937 -11.170  12.726  1.00  0.00     0.065 A 
ATOM      6  C   UNL     1     -11.758 -10.513  14.720  1.00  0.00     0.044 A 
ATOM      7  C   UNL     1     -11.209 -11.784  14.668  1.00  0.00     0.165 A 
ATOM      8  F   UNL     1     -11.560 -12.706  15.591  1.00  0.00    -0.203 F 
BRANCH   3   9
ATOM      9  C   UNL     1     -10.113  -8.880  11.767  1.00  0.00     0.335 C 
ATOM     10  O   UNL     1     -10.053  -7.707  12.075  1.00  0.00    -0.246 OA
BRANCH   9  11
ATOM     11  O   UNL     1      -9.826  -9.260  10.506  1.00  0.00    -0.478 OA
ATOM     12  H   UNL     1      -9.020  -9.778  10.376  1.00  0.00     0.297 HD
ENDBRANCH   9  11
ENDBRANCH   3   9
ENDBRANCH   1   2
BRANCH   1  13
ATOM     13  C   UNL     1     -10.551 -14.383  13.024  1.00  0.00     0.230 C 
BRANCH  13  14
ATOM     14  C   UNL     1      -9.974 -14.730  11.651  1.00  0.00     0.046 C 
BRANCH  14  15
ATOM     15  C   UNL     1     -11.076 -14.631  10.594  1.00  0.00     0.043 C 
BRANCH  15  16
ATOM     16  C   UNL     1     -11.072 -13.252   9.989  1.00  0.00    -0.004 A 
ATOM     17  C   UNL     1     -10.134 -12.752   9.151  1.00  0.00     0.036 A 
ATOM     18  C   UNL     1     -12.040 -12.262  10.189  1.00  0.00     0.063 A 
ATOM     19  N   UNL     1     -10.492 -11.490   8.837  1.00  0.00    -0.282 N 
ATOM     20  N   UNL     1     -11.690 -11.203   9.505  1.00  0.00    -0.181 NA
ATOM     21  C   UNL     1      -8.909 -13.477   8.656  1.00  0.00     0.066 C 
ATOM     22  C   UNL     1     -13.268 -12.389  11.054  1.00  0.00     0.069 C 
ATOM     23  H   UNL     1     -10.006 -10.887   8.254  1.00  0.00     0.190 HD
ENDBRANCH  15  16
ENDBRANCH  14  15
ENDBRANCH  13  14
ENDBRANCH   1  13
TORSDOF 7
ENDMDL
MODEL 7
REMARK VINA RESULT:    -4.024      9.731     10.774
REMARK INTER + INTRA:          -6.039
REMARK INTER:                  -3.954
REMARK INTRA:                  -2.085
REMARK UNBOUND:                -0.486
REMARK SMILES Cc1n[nH]c(C)c1CCCOc1cc(C(=O)O)ccc1F
REMARK SMILES IDX 11 1 12 2 14 3 18 4 13 5 19 6 20 7 21 8 15 9 16 10 17 11
REMARK SMILES IDX 10 13 9 14 8 15 7 16 5 17 2 18 4 19 3 20 6 21 1 22
REMARK H PARENT 17 12 4 23
ROOT
ATOM      1  O   UNL     1      -9.472 -14.211   9.102  1.00  0.00    -0.490 OA
ENDROOT
BRANCH   1   2
ATOM      2  C   UNL     1     -10.230 -13.471   9.953  1.00  0.00     0.155 A 
ATOM      3  C   UNL     1     -10.432 -11.700  11.567  1.00  0.00     0.063 A 
ATOM      4  C   UNL     1     -11.800 -11.963  11.680  1.00  0.00     0.019 A 
ATOM      5  C   UNL     1      -9.649 -12.462  10.698  1.00  0.00     0.065 A 
ATOM      6  C   UNL     1     -12.372 -12.968  10.929  1.00  0.00     0.044 A 
ATOM      7  C   UNL     1     -11.594 -13.719  10.063  1.00  0.00     0.165 A 
ATOM      8  F   UNL     1     -12.161 -14.702   9.330  1.00  0.00    -0.203 F 
BRANCH   3   9
ATOM      9  C   UNL     1      -9.816 -10.624  12.369  1.00  0.00     0.335 C 
ATOM     10  O   UNL     1     -10.482  -9.673  12.723  1.00  0.00    -0.246 OA
BRANCH   9  11
ATOM     11  O   UNL     1      -8.516 -10.703  12.715  1.00  0.00    -0.478 OA
ATOM     12  H   UNL     1      -8.175 -10.012  13.300  1.00  0.00     0.297 HD
ENDBRANCH   9  11
ENDBRANCH   3   9
ENDBRANCH   1   2
BRANCH   1  13
ATOM     13  C   UNL     1      -8.718 -15.284   9.671  1.00  0.00     0.230 C 
BRANCH  13  14
ATOM     14  C   UNL     1      -7.235 -14.908   9.695  1.00  0.00     0.046 C 
BRANCH  14  15
ATOM     15  C   UNL     1      -6.616 -15.356  11.020  1.00  0.00     0.043 C 
BRANCH  15  16
ATOM     16  C   UNL     1      -6.598 -14.198  11.984  1.00  0.00    -0.004 A 
ATOM     17  C   UNL     1      -5.742 -13.150  11.954  1.00  0.00     0.036 A 
ATOM     18  C   UNL     1      -7.467 -14.013  13.065  1.00  0.00     0.063 A 
ATOM     19  N   UNL     1      -6.054 -12.335  12.983  1.00  0.00    -0.282 N 
ATOM     20  N   UNL     1      -7.137 -12.900  13.668  1.00  0.00    -0.181 NA
ATOM     21  C   UNL     1      -4.639 -12.933  10.951  1.00  0.00     0.066 C 
ATOM     22  C   UNL     1      -8.582 -14.942  13.471  1.00  0.00     0.069 C 
ATOM     23  H   UNL     1      -5.607 -11.504  13.208  1.00  0.00     0.190 HD
ENDBRANCH  15  16
ENDBRANCH  14  15
ENDBRANCH  13  14
ENDBRANCH   1  13
TORSDOF 7
ENDMDL
MODEL 8
REMARK VINA RESULT:    -3.861      8.935     11.238
REMARK INTER + INTRA:          -5.814
REMARK INTER:                  -3.618
REMARK INTRA:                  -2.196
REMARK UNBOUND:                -0.486
REMARK SMILES Cc1n[nH]c(C)c1CCCOc1cc(C(=O)O)ccc1F
REMARK SMILES IDX 11 1 12 2 14 3 18 4 13 5 19 6 20 7 21 8 15 9 16 10 17 11
REMARK SMILES IDX 10 13 9 14 8 15 7 16 5 17 2 18 4 19 3 20 6 21 1 22
REMARK H PARENT 17 12 4 23
ROOT
ATOM      1  O   UNL     1     -10.647 -11.440  12.844  1.00  0.00    -0.490 OA
ENDROOT
BRANCH   1   2
ATOM      2  C   UNL     1      -9.680 -12.344  13.153  1.00  0.00     0.155 A 
ATOM      3  C   UNL     1      -7.464 -13.222  12.832  1.00  0.00     0.063 A 
ATOM      4  C   UNL     1      -7.712 -14.193  13.806  1.00  0.00     0.019 A 
ATOM      5  C   UNL     1      -8.457 -12.295  12.509  1.00  0.00     0.065 A 
ATOM      6  C   UNL     1      -8.932 -14.230  14.447  1.00  0.00     0.044 A 
ATOM      7  C   UNL     1      -9.914 -13.307  14.128  1.00  0.00     0.165 A 
ATOM      8  F   UNL     1     -11.108 -13.349  14.760  1.00  0.00    -0.203 F 
BRANCH   3   9
ATOM      9  C   UNL     1      -6.159 -13.179  12.144  1.00  0.00     0.335 C 
ATOM     10  O   UNL     1      -6.111 -13.035  10.940  1.00  0.00    -0.246 OA
BRANCH   9  11
ATOM     11  O   UNL     1      -5.019 -13.293  12.854  1.00  0.00    -0.478 OA
ATOM     12  H   UNL     1      -4.198 -13.400  12.354  1.00  0.00     0.297 HD
ENDBRANCH   9  11
ENDBRANCH   3   9
ENDBRANCH   1   2
BRANCH   1  13
ATOM     13  C   UNL     1     -11.610 -11.831  11.861  1.00  0.00     0.230 C 
BRANCH  13  14
ATOM     14  C   UNL     1     -11.084 -11.485  10.467  1.00  0.00     0.046 C 
BRANCH  14  15
ATOM     15  C   UNL     1     -11.316 -12.669   9.526  1.00  0.00     0.043 C 
BRANCH  15  16
ATOM     16  C   UNL     1     -10.079 -13.528   9.485  1.00  0.00    -0.004 A 
ATOM     17  C   UNL     1      -8.927 -13.236   8.837  1.00  0.00     0.036 A 
ATOM     18  C   UNL     1      -9.916 -14.767  10.115  1.00  0.00     0.063 A 
ATOM     19  N   UNL     1      -8.069 -14.257   9.044  1.00  0.00    -0.282 N 
ATOM     20  N   UNL     1      -8.714 -15.207   9.845  1.00  0.00    -0.181 NA
ATOM     21  C   UNL     1      -8.653 -11.994   8.029  1.00  0.00     0.066 C 
ATOM     22  C   UNL     1     -10.951 -15.477  10.949  1.00  0.00     0.069 C 
ATOM     23  H   UNL     1      -7.165 -14.321   8.698  1.00  0.00     0.190 HD
ENDBRANCH  15  16
ENDBRANCH  14  15
ENDBRANCH  13  14
ENDBRANCH   1  13
TORSDOF 7
ENDMDL
MODEL 9
REMARK VINA RESULT:    -3.854      9.640     11.302
REMARK INTER + INTRA:          -5.804
REMARK INTER:                  -3.827
REMARK INTRA:                  -1.977
REMARK UNBOUND:                -0.486
REMARK SMILES Cc1n[nH]c(C)c1CCCOc1cc(C(=O)O)ccc1F
REMARK SMILES IDX 11 1 12 2 14 3 18 4 13 5 19 6 20 7 21 8 15 9 16 10 17 11
REMARK SMILES IDX 10 13 9 14 8 15 7 16 5 17 2 18 4 19 3 20 6 21 1 22
REMARK H PARENT 17 12 4 23
ROOT
ATOM      1  O   UNL     1     -10.733 -10.893  12.526  1.00  0.00    -0.490 OA
ENDROOT
BRANCH   1   2
ATOM      2  C   UNL     1     -10.005 -11.964  12.940  1.00  0.00     0.155 A 
ATOM      3  C   UNL     1      -7.899 -13.109  13.130  1.00  0.00     0.063 A 
ATOM      4  C   UNL     1      -8.534 -14.157  13.802  1.00  0.00     0.019 A 
ATOM      5  C   UNL     1      -8.644 -12.010  12.699  1.00  0.00     0.065 A 
ATOM      6  C   UNL     1      -9.890 -14.100  14.043  1.00  0.00     0.044 A 
ATOM      7  C   UNL     1     -10.627 -13.006  13.619  1.00  0.00     0.165 A 
ATOM      8  F   UNL     1     -11.956 -12.956  13.859  1.00  0.00    -0.203 F 
BRANCH   3   9
ATOM      9  C   UNL     1      -6.447 -13.167  12.871  1.00  0.00     0.335 C 
ATOM     10  O   UNL     1      -5.875 -14.238  12.854  1.00  0.00    -0.246 OA
BRANCH   9  11
ATOM     11  O   UNL     1      -5.757 -12.031  12.647  1.00  0.00    -0.478 OA
ATOM     12  H   UNL     1      -6.268 -11.250  12.395  1.00  0.00     0.297 HD
ENDBRANCH   9  11
ENDBRANCH   3   9
ENDBRANCH   1   2
BRANCH   1  13
ATOM     13  C   UNL     1     -11.511 -11.058  11.338  1.00  0.00     0.230 C 
BRANCH  13  14
ATOM     14  C   UNL     1     -10.578 -11.209  10.135  1.00  0.00     0.046 C 
BRANCH  14  15
ATOM     15  C   UNL     1     -11.101 -12.318   9.219  1.00  0.00     0.043 C 
BRANCH  15  16
ATOM     16  C   UNL     1     -10.570 -13.648   9.687  1.00  0.00    -0.004 A 
ATOM     17  C   UNL     1     -11.285 -14.620  10.299  1.00  0.00     0.036 A 
ATOM     18  C   UNL     1      -9.252 -14.100   9.559  1.00  0.00     0.063 A 
ATOM     19  N   UNL     1     -10.448 -15.648  10.555  1.00  0.00    -0.282 N 
ATOM     20  N   UNL     1      -9.176 -15.295  10.085  1.00  0.00    -0.181 NA
ATOM     21  C   UNL     1     -12.753 -14.566  10.633  1.00  0.00     0.066 C 
ATOM     22  C   UNL     1      -8.113 -13.335   8.934  1.00  0.00     0.069 C 
ATOM     23  H   UNL     1     -10.685 -16.482  10.989  1.00  0.00     0.190 HD
ENDBRANCH  15  16
ENDBRANCH  14  15
ENDBRANCH  13  14
ENDBRANCH   1  13
TORSDOF 7
ENDMDL
