MODEL 1
REMARK VINA RESULT:    -3.250      0.000      0.000
REMARK INTER + INTRA:          -4.005
REMARK INTER:                  -3.724
REMARK INTRA:                  -0.281
REMARK UNBOUND:                -0.281
REMARK SMILES O=C(O)c1ccc2nc(-c3cc(Cl)cc(Cl)c3)oc2c1
REMARK SMILES IDX 5 1 6 2 20 3 8 4 18 5 4 6 9 7 7 8 19 9 2 10 1 11 3 12 10 14
REMARK SMILES IDX 11 15 17 16 12 17 15 18 14 19 13 20 16 21
REMARK H PARENT 3 13
ROOT
ATOM      1  C   UNL     1     -12.753  -9.228  12.110  1.00  0.00     0.018 A 
ATOM      2  C   UNL     1     -12.452 -10.535  12.352  1.00  0.00     0.033 A 
ATOM      3  C   UNL     1     -10.394  -8.668  12.071  1.00  0.00     0.065 A 
ATOM      4  N   UNL     1     -10.521 -12.128  12.691  1.00  0.00    -0.209 NA
ATOM      5  O   UNL     1      -8.924 -10.667  12.476  1.00  0.00    -0.436 OA
ATOM      6  C   UNL     1     -11.731  -8.280  11.965  1.00  0.00     0.063 A 
ATOM      7  C   UNL     1      -9.222 -11.961  12.698  1.00  0.00     0.227 A 
ATOM      8  C   UNL     1     -11.116 -10.938  12.461  1.00  0.00     0.110 A 
ATOM      9  C   UNL     1     -10.085  -9.992  12.322  1.00  0.00     0.156 A 
ENDROOT
BRANCH   6  10
ATOM     10  C   UNL     1     -12.068  -6.870  11.697  1.00  0.00     0.335 C 
ATOM     11  O   UNL     1     -12.463  -6.158  12.599  1.00  0.00    -0.246 OA
BRANCH  10  12
ATOM     12  O   UNL     1     -11.939  -6.370  10.452  1.00  0.00    -0.478 OA
ATOM     13  H   UNL     1     -11.168  -6.654   9.942  1.00  0.00     0.297 HD
ENDBRANCH  10  12
ENDBRANCH   6  10
BRANCH   7  14
ATOM     14  C   UNL     1      -8.231 -13.034  12.918  1.00  0.00     0.040 A 
ATOM     15  C   UNL     1      -7.183 -13.216  12.015  1.00  0.00     0.034 A 
ATOM     16  C   UNL     1      -8.341 -13.872  14.030  1.00  0.00     0.034 A 
ATOM     17  C   UNL     1      -6.259 -14.221  12.227  1.00  0.00     0.043 A 
ATOM     18  C   UNL     1      -7.411 -14.872  14.231  1.00  0.00     0.043 A 
ATOM     19  C   UNL     1      -6.373 -15.048  13.331  1.00  0.00     0.041 A 
ATOM     20  Cl  UNL     1      -4.954 -14.449  11.105  1.00  0.00    -0.084 Cl
ATOM     21  Cl  UNL     1      -7.545 -15.914  15.613  1.00  0.00    -0.084 Cl
ENDBRANCH   7  14
TORSDOF 3
ENDMDL
MODEL 2
REMARK VINA RESULT:    -3.230      0.087      2.020
REMARK INTER + INTRA:          -3.983
REMARK INTER:                  -3.702
REMARK INTRA:                  -0.281
REMARK UNBOUND:                -0.281
REMARK SMILES O=C(O)c1ccc2nc(-c3cc(Cl)cc(Cl)c3)oc2c1
REMARK SMILES IDX 5 1 6 2 20 3 8 4 18 5 4 6 9 7 7 8 19 9 2 10 1 11 3 12 10 14
REMARK SMILES IDX 11 15 17 16 12 17 15 18 14 19 13 20 16 21
REMARK H PARENT 3 13
ROOT
ATOM      1  C   UNL     1     -12.785  -9.240  12.211  1.00  0.00     0.018 A 
ATOM      2  C   UNL     1     -12.490 -10.545  12.471  1.00  0.00     0.033 A 
ATOM      3  C   UNL     1     -10.423  -8.708  12.071  1.00  0.00     0.065 A 
ATOM      4  N   UNL     1     -10.565 -12.153  12.771  1.00  0.00    -0.209 NA
ATOM      5  O   UNL     1      -8.961 -10.715  12.464  1.00  0.00    -0.436 OA
ATOM      6  C   UNL     1     -11.759  -8.307  12.007  1.00  0.00     0.063 A 
ATOM      7  C   UNL     1      -9.264 -12.001  12.725  1.00  0.00     0.227 A 
ATOM      8  C   UNL     1     -11.154 -10.961  12.538  1.00  0.00     0.110 A 
ATOM      9  C   UNL     1     -10.119 -10.030  12.339  1.00  0.00     0.156 A 
ENDROOT
BRANCH   6  10
ATOM     10  C   UNL     1     -12.091  -6.899  11.721  1.00  0.00     0.335 C 
ATOM     11  O   UNL     1     -12.456  -6.167  12.619  1.00  0.00    -0.246 OA
BRANCH  10  12
ATOM     12  O   UNL     1     -11.990  -6.424  10.464  1.00  0.00    -0.478 OA
ATOM     13  H   UNL     1     -12.438  -6.923   9.769  1.00  0.00     0.297 HD
ENDBRANCH  10  12
ENDBRANCH   6  10
BRANCH   7  14
ATOM     14  C   UNL     1      -8.277 -13.081  12.930  1.00  0.00     0.040 A 
ATOM     15  C   UNL     1      -8.353 -13.894  14.062  1.00  0.00     0.034 A 
ATOM     16  C   UNL     1      -7.264 -13.291  11.993  1.00  0.00     0.034 A 
ATOM     17  C   UNL     1      -7.428 -14.902  14.248  1.00  0.00     0.043 A 
ATOM     18  C   UNL     1      -6.345 -14.302  12.190  1.00  0.00     0.043 A 
ATOM     19  C   UNL     1      -6.426 -15.105  13.314  1.00  0.00     0.041 A 
ATOM     20  Cl  UNL     1      -7.521 -15.915  15.654  1.00  0.00    -0.084 Cl
ATOM     21  Cl  UNL     1      -5.084 -14.566  11.025  1.00  0.00    -0.084 Cl
ENDBRANCH   7  14
TORSDOF 3
ENDMDL
MODEL 3
REMARK VINA RESULT:    -2.689      6.453      9.007
REMARK INTER + INTRA:          -3.363
REMARK INTER:                  -3.080
REMARK INTRA:                  -0.283
REMARK UNBOUND:                -0.281
REMARK SMILES O=C(O)c1ccc2nc(-c3cc(Cl)cc(Cl)c3)oc2c1
REMARK SMILES IDX 5 1 6 2 20 3 8 4 18 5 4 6 9 7 7 8 19 9 2 10 1 11 3 12 10 14
REMARK SMILES IDX 11 15 17 16 12 17 15 18 14 19 13 20 16 21
REMARK H PARENT 3 13
ROOT
ATOM      1  C   UNL     1      -7.937 -14.109   8.939  1.00  0.00     0.018 A 
ATOM      2  C   UNL     1      -8.611 -12.970   8.612  1.00  0.00     0.033 A 
ATOM      3  C   UNL     1      -5.819 -13.003   8.526  1.00  0.00     0.065 A 
ATOM      4  N   UNL     1      -8.281 -10.581   7.861  1.00  0.00    -0.209 NA
ATOM      5  O   UNL     1      -6.107 -10.616   7.792  1.00  0.00    -0.436 OA
ATOM      6  C   UNL     1      -6.536 -14.140   8.903  1.00  0.00     0.063 A 
ATOM      7  C   UNL     1      -7.212  -9.870   7.603  1.00  0.00     0.227 A 
ATOM      8  C   UNL     1      -7.904 -11.823   8.232  1.00  0.00     0.110 A 
ATOM      9  C   UNL     1      -6.498 -11.847   8.188  1.00  0.00     0.156 A 
ENDROOT
BRANCH   6  10
ATOM     10  C   UNL     1      -5.818 -15.375   9.265  1.00  0.00     0.335 C 
ATOM     11  O   UNL     1      -5.091 -15.915   8.456  1.00  0.00    -0.246 OA
BRANCH  10  12
ATOM     12  O   UNL     1      -5.969 -15.907  10.495  1.00  0.00    -0.478 OA
ATOM     13  H   UNL     1      -5.467 -15.502  11.214  1.00  0.00     0.297 HD
ENDBRANCH  10  12
ENDBRANCH   6  10
BRANCH   7  14
ATOM     14  C   UNL     1      -7.218  -8.458   7.167  1.00  0.00     0.040 A 
ATOM     15  C   UNL     1      -6.460  -8.062   6.064  1.00  0.00     0.034 A 
ATOM     16  C   UNL     1      -7.982  -7.515   7.857  1.00  0.00     0.034 A 
ATOM     17  C   UNL     1      -6.471  -6.741   5.661  1.00  0.00     0.043 A 
ATOM     18  C   UNL     1      -7.985  -6.198   7.445  1.00  0.00     0.043 A 
ATOM     19  C   UNL     1      -7.231  -5.811   6.350  1.00  0.00     0.041 A 
ATOM     20  Cl  UNL     1      -5.530  -6.246   4.290  1.00  0.00    -0.084 Cl
ATOM     21  Cl  UNL     1      -8.934  -5.023   8.302  1.00  0.00    -0.084 Cl
ENDBRANCH   7  14
TORSDOF 3
ENDMDL
MODEL 4
REMARK VINA RESULT:    -2.644      6.462      9.190
REMARK INTER + INTRA:          -3.311
REMARK INTER:                  -3.027
REMARK INTRA:                  -0.284
REMARK UNBOUND:                -0.281
REMARK SMILES O=C(O)c1ccc2nc(-c3cc(Cl)cc(Cl)c3)oc2c1
REMARK SMILES IDX 5 1 6 2 20 3 8 4 18 5 4 6 9 7 7 8 19 9 2 10 1 11 3 12 10 14
REMARK SMILES IDX 11 15 17 16 12 17 15 18 14 19 13 20 16 21
REMARK H PARENT 3 13
ROOT
ATOM      1  C   UNL     1      -7.950 -14.095   8.950  1.00  0.00     0.018 A 
ATOM      2  C   UNL     1      -8.604 -12.952   8.597  1.00  0.00     0.033 A 
ATOM      3  C   UNL     1      -5.812 -13.009   8.591  1.00  0.00     0.065 A 
ATOM      4  N   UNL     1      -8.234 -10.570   7.843  1.00  0.00    -0.209 NA
ATOM      5  O   UNL     1      -6.059 -10.624   7.836  1.00  0.00    -0.436 OA
ATOM      6  C   UNL     1      -6.549 -14.138   8.954  1.00  0.00     0.063 A 
ATOM      7  C   UNL     1      -7.151  -9.870   7.611  1.00  0.00     0.227 A 
ATOM      8  C   UNL     1      -7.877 -11.813   8.231  1.00  0.00     0.110 A 
ATOM      9  C   UNL     1      -6.472 -11.850   8.227  1.00  0.00     0.156 A 
ENDROOT
BRANCH   6  10
ATOM     10  C   UNL     1      -5.853 -15.377   9.343  1.00  0.00     0.335 C 
ATOM     11  O   UNL     1      -5.090 -15.915   8.565  1.00  0.00    -0.246 OA
BRANCH  10  12
ATOM     12  O   UNL     1      -6.063 -15.915  10.561  1.00  0.00    -0.478 OA
ATOM     13  H   UNL     1      -5.291 -16.025  11.131  1.00  0.00     0.297 HD
ENDBRANCH  10  12
ENDBRANCH   6  10
BRANCH   7  14
ATOM     14  C   UNL     1      -7.133  -8.461   7.167  1.00  0.00     0.040 A 
ATOM     15  C   UNL     1      -7.909  -7.507   7.827  1.00  0.00     0.034 A 
ATOM     16  C   UNL     1      -6.338  -8.078   6.084  1.00  0.00     0.034 A 
ATOM     17  C   UNL     1      -7.886  -6.192   7.408  1.00  0.00     0.043 A 
ATOM     18  C   UNL     1      -6.324  -6.760   5.674  1.00  0.00     0.043 A 
ATOM     19  C   UNL     1      -7.097  -5.819   6.333  1.00  0.00     0.041 A 
ATOM     20  Cl  UNL     1      -8.851  -5.004   8.228  1.00  0.00    -0.084 Cl
ATOM     21  Cl  UNL     1      -5.337  -6.282   4.328  1.00  0.00    -0.084 Cl
ENDBRANCH   7  14
TORSDOF 3
ENDMDL
MODEL 5
REMARK VINA RESULT:    -2.613      4.069      7.488
REMARK INTER + INTRA:          -3.275
REMARK INTER:                  -2.989
REMARK INTRA:                  -0.286
REMARK UNBOUND:                -0.281
REMARK SMILES O=C(O)c1ccc2nc(-c3cc(Cl)cc(Cl)c3)oc2c1
REMARK SMILES IDX 5 1 6 2 20 3 8 4 18 5 4 6 9 7 7 8 19 9 2 10 1 11 3 12 10 14
REMARK SMILES IDX 11 15 17 16 12 17 15 18 14 19 13 20 16 21
REMARK H PARENT 3 13
ROOT
ATOM      1  C   UNL     1      -7.972 -14.742   8.966  1.00  0.00     0.018 A 
ATOM      2  C   UNL     1      -9.093 -13.971   9.058  1.00  0.00     0.033 A 
ATOM      3  C   UNL     1      -7.119 -13.788  11.026  1.00  0.00     0.065 A 
ATOM      4  N   UNL     1     -10.223 -12.223  10.490  1.00  0.00    -0.209 NA
ATOM      5  O   UNL     1      -8.679 -12.083  12.016  1.00  0.00    -0.436 OA
ATOM      6  C   UNL     1      -6.974 -14.662   9.947  1.00  0.00     0.063 A 
ATOM      7  C   UNL     1      -9.878 -11.629  11.605  1.00  0.00     0.227 A 
ATOM      8  C   UNL     1      -9.251 -13.091  10.135  1.00  0.00     0.110 A 
ATOM      9  C   UNL     1      -8.252 -13.002  11.121  1.00  0.00     0.156 A 
ENDROOT
BRANCH   6  10
ATOM     10  C   UNL     1      -5.769 -15.505   9.840  1.00  0.00     0.335 C 
ATOM     11  O   UNL     1      -5.164 -15.830  10.842  1.00  0.00    -0.246 OA
BRANCH  10  12
ATOM     12  O   UNL     1      -5.338 -15.914   8.631  1.00  0.00    -0.478 OA
ATOM     13  H   UNL     1      -5.603 -16.799   8.346  1.00  0.00     0.297 HD
ENDBRANCH  10  12
ENDBRANCH   6  10
BRANCH   7  14
ATOM     14  C   UNL     1     -10.686 -10.612  12.308  1.00  0.00     0.040 A 
ATOM     15  C   UNL     1     -11.271 -10.909  13.540  1.00  0.00     0.034 A 
ATOM     16  C   UNL     1     -10.869  -9.349  11.741  1.00  0.00     0.034 A 
ATOM     17  C   UNL     1     -12.024  -9.953  14.192  1.00  0.00     0.043 A 
ATOM     18  C   UNL     1     -11.624  -8.401  12.403  1.00  0.00     0.043 A 
ATOM     19  C   UNL     1     -12.201  -8.702  13.625  1.00  0.00     0.041 A 
ATOM     20  Cl  UNL     1     -12.751 -10.320  15.725  1.00  0.00    -0.084 Cl
ATOM     21  Cl  UNL     1     -11.852  -6.830  11.700  1.00  0.00    -0.084 Cl
ENDBRANCH   7  14
TORSDOF 3
ENDMDL
MODEL 6
REMARK VINA RESULT:    -2.564      4.071      7.220
REMARK INTER + INTRA:          -3.219
REMARK INTER:                  -2.932
REMARK INTRA:                  -0.287
REMARK UNBOUND:                -0.281
REMARK SMILES O=C(O)c1ccc2nc(-c3cc(Cl)cc(Cl)c3)oc2c1
REMARK SMILES IDX 5 1 6 2 20 3 8 4 18 5 4 6 9 7 7 8 19 9 2 10 1 11 3 12 10 14
REMARK SMILES IDX 11 15 17 16 12 17 15 18 14 19 13 20 16 21
REMARK H PARENT 3 13
ROOT
ATOM      1  C   UNL     1      -8.048 -14.632   8.920  1.00  0.00     0.018 A 
ATOM      2  C   UNL     1      -9.148 -13.834   9.016  1.00  0.00     0.033 A 
ATOM      3  C   UNL     1      -7.268 -13.859  11.082  1.00  0.00     0.065 A 
ATOM      4  N   UNL     1     -10.295 -12.156  10.517  1.00  0.00    -0.209 NA
ATOM      5  O   UNL     1      -8.823 -12.178  12.120  1.00  0.00    -0.436 OA
ATOM      6  C   UNL     1      -7.096 -14.657   9.949  1.00  0.00     0.063 A 
ATOM      7  C   UNL     1      -9.987 -11.656  11.688  1.00  0.00     0.227 A 
ATOM      8  C   UNL     1      -9.332 -13.028  10.146  1.00  0.00     0.110 A 
ATOM      9  C   UNL     1      -8.381 -13.043  11.181  1.00  0.00     0.156 A 
ENDROOT
BRANCH   6  10
ATOM     10  C   UNL     1      -5.913 -15.529   9.837  1.00  0.00     0.335 C 
ATOM     11  O   UNL     1      -5.335 -15.899  10.839  1.00  0.00    -0.246 OA
BRANCH  10  12
ATOM     12  O   UNL     1      -5.473 -15.915   8.623  1.00  0.00    -0.478 OA
ATOM     13  H   UNL     1      -5.009 -15.253   8.093  1.00  0.00     0.297 HD
ENDBRANCH  10  12
ENDBRANCH   6  10
BRANCH   7  14
ATOM     14  C   UNL     1     -10.798 -10.666  12.426  1.00  0.00     0.040 A 
ATOM     15  C   UNL     1     -10.895  -9.354  11.961  1.00  0.00     0.034 A 
ATOM     16  C   UNL     1     -11.470 -11.039  13.591  1.00  0.00     0.034 A 
ATOM     17  C   UNL     1     -11.656  -8.433  12.654  1.00  0.00     0.043 A 
ATOM     18  C   UNL     1     -12.228 -10.109  14.275  1.00  0.00     0.043 A 
ATOM     19  C   UNL     1     -12.320  -8.809  13.809  1.00  0.00     0.041 A 
ATOM     20  Cl  UNL     1     -11.778  -6.800  12.077  1.00  0.00    -0.084 Cl
ATOM     21  Cl  UNL     1     -13.065 -10.571  15.725  1.00  0.00    -0.084 Cl
ENDBRANCH   7  14
TORSDOF 3
ENDMDL
MODEL 7
REMARK VINA RESULT:    -2.361      6.003      6.752
REMARK INTER + INTRA:          -2.987
REMARK INTER:                  -2.697
REMARK INTRA:                  -0.290
REMARK UNBOUND:                -0.281
REMARK SMILES O=C(O)c1ccc2nc(-c3cc(Cl)cc(Cl)c3)oc2c1
REMARK SMILES IDX 5 1 6 2 20 3 8 4 18 5 4 6 9 7 7 8 19 9 2 10 1 11 3 12 10 14
REMARK SMILES IDX 11 15 17 16 12 17 15 18 14 19 13 20 16 21
REMARK H PARENT 3 13
ROOT
ATOM      1  C   UNL     1      -7.252  -6.113   6.921  1.00  0.00     0.018 A 
ATOM      2  C   UNL     1      -7.977  -6.914   7.751  1.00  0.00     0.033 A 
ATOM      3  C   UNL     1      -6.238  -8.058   5.889  1.00  0.00     0.065 A 
ATOM      4  N   UNL     1      -8.417  -9.332   8.339  1.00  0.00    -0.209 NA
ATOM      5  O   UNL     1      -7.056 -10.215   6.890  1.00  0.00    -0.436 OA
ATOM      6  C   UNL     1      -6.377  -6.672   5.980  1.00  0.00     0.063 A 
ATOM      7  C   UNL     1      -7.944 -10.460   7.871  1.00  0.00     0.227 A 
ATOM      8  C   UNL     1      -7.848  -8.306   7.670  1.00  0.00     0.110 A 
ATOM      9  C   UNL     1      -6.968  -8.875   6.732  1.00  0.00     0.156 A 
ENDROOT
BRANCH   6  10
ATOM     10  C   UNL     1      -5.602  -5.795   5.084  1.00  0.00     0.335 C 
ATOM     11  O   UNL     1      -6.092  -4.761   4.674  1.00  0.00    -0.246 OA
BRANCH  10  12
ATOM     12  O   UNL     1      -4.352  -6.140   4.718  1.00  0.00    -0.478 OA
ATOM     13  H   UNL     1      -3.954  -5.643   3.990  1.00  0.00     0.297 HD
ENDBRANCH  10  12
ENDBRANCH   6  10
BRANCH   7  14
ATOM     14  C   UNL     1      -8.328 -11.804   8.352  1.00  0.00     0.040 A 
ATOM     15  C   UNL     1      -7.354 -12.783   8.549  1.00  0.00     0.034 A 
ATOM     16  C   UNL     1      -9.668 -12.099   8.609  1.00  0.00     0.034 A 
ATOM     17  C   UNL     1      -7.719 -14.036   8.999  1.00  0.00     0.043 A 
ATOM     18  C   UNL     1     -10.021 -13.355   9.059  1.00  0.00     0.043 A 
ATOM     19  C   UNL     1      -9.050 -14.322   9.253  1.00  0.00     0.041 A 
ATOM     20  Cl  UNL     1      -6.508 -15.255   9.246  1.00  0.00    -0.084 Cl
ATOM     21  Cl  UNL     1     -11.687 -13.724   9.380  1.00  0.00    -0.084 Cl
ENDBRANCH   7  14
TORSDOF 3
ENDMDL
MODEL 8
REMARK VINA RESULT:    -2.256      2.336      3.346
REMARK INTER + INTRA:          -2.866
REMARK INTER:                  -2.581
REMARK INTRA:                  -0.286
REMARK UNBOUND:                -0.281
REMARK SMILES O=C(O)c1ccc2nc(-c3cc(Cl)cc(Cl)c3)oc2c1
REMARK SMILES IDX 5 1 6 2 20 3 8 4 18 5 4 6 9 7 7 8 19 9 2 10 1 11 3 12 10 14
REMARK SMILES IDX 11 15 17 16 12 17 15 18 14 19 13 20 16 21
REMARK H PARENT 3 13
ROOT
ATOM      1  C   UNL     1     -10.875  -6.896  11.430  1.00  0.00     0.018 A 
ATOM      2  C   UNL     1     -10.108  -7.859  12.015  1.00  0.00     0.033 A 
ATOM      3  C   UNL     1     -12.847  -8.285  11.677  1.00  0.00     0.065 A 
ATOM      4  N   UNL     1     -10.205 -10.166  13.039  1.00  0.00    -0.209 NA
ATOM      5  O   UNL     1     -12.339 -10.492  12.768  1.00  0.00    -0.436 OA
ATOM      6  C   UNL     1     -12.252  -7.095  11.256  1.00  0.00     0.063 A 
ATOM      7  C   UNL     1     -11.187 -11.013  13.230  1.00  0.00     0.227 A 
ATOM      8  C   UNL     1     -10.692  -9.057  12.443  1.00  0.00     0.110 A 
ATOM      9  C   UNL     1     -12.072  -9.266  12.267  1.00  0.00     0.156 A 
ENDROOT
BRANCH   6  10
ATOM     10  C   UNL     1     -13.072  -6.044  10.627  1.00  0.00     0.335 C 
ATOM     11  O   UNL     1     -13.460  -5.100  11.287  1.00  0.00    -0.246 OA
BRANCH  10  12
ATOM     12  O   UNL     1     -13.393  -6.130   9.321  1.00  0.00    -0.478 OA
ATOM     13  H   UNL     1     -14.129  -6.712   9.087  1.00  0.00     0.297 HD
ENDBRANCH  10  12
ENDBRANCH   6  10
BRANCH   7  14
ATOM     14  C   UNL     1     -11.048 -12.343  13.858  1.00  0.00     0.040 A 
ATOM     15  C   UNL     1      -9.807 -12.981  13.883  1.00  0.00     0.034 A 
ATOM     16  C   UNL     1     -12.159 -12.967  14.428  1.00  0.00     0.034 A 
ATOM     17  C   UNL     1      -9.684 -14.223  14.472  1.00  0.00     0.043 A 
ATOM     18  C   UNL     1     -12.023 -14.210  15.015  1.00  0.00     0.043 A 
ATOM     19  C   UNL     1     -10.789 -14.837  15.036  1.00  0.00     0.041 A 
ATOM     20  Cl  UNL     1      -8.141 -15.018  14.505  1.00  0.00    -0.084 Cl
ATOM     21  Cl  UNL     1     -13.403 -14.988  15.725  1.00  0.00    -0.084 Cl
ENDBRANCH   7  14
TORSDOF 3
ENDMDL
