MODEL 1
REMARK VINA RESULT:    -5.798      0.000      0.000
REMARK INTER + INTRA:          -6.939
REMARK INTER:                  -6.646
REMARK INTRA:                  -0.293
REMARK UNBOUND:                -0.293
REMARK SMILES O=C(O)c1ccc2nc(-c3cc(Cl)cc(Cl)c3)oc2c1
REMARK SMILES IDX 5 1 6 2 20 3 8 4 18 5 4 6 9 7 7 8 19 9 2 10 1 11 3 12 10 14
REMARK SMILES IDX 11 15 17 16 12 17 15 18 14 19 13 20 16 21
REMARK H PARENT 3 13
ROOT
ATOM      1  C   UNL     1      -5.182  -1.389   3.226  1.00  0.00     0.018 A 
ATOM      2  C   UNL     1      -6.357  -0.988   3.787  1.00  0.00     0.033 A 
ATOM      3  C   UNL     1      -6.384  -2.777   1.641  1.00  0.00     0.065 A 
ATOM      4  N   UNL     1      -8.863  -1.266   3.627  1.00  0.00    -0.209 NA
ATOM      5  O   UNL     1      -8.875  -2.663   1.959  1.00  0.00    -0.436 OA
ATOM      6  C   UNL     1      -5.179  -2.284   2.147  1.00  0.00     0.063 A 
ATOM      7  C   UNL     1      -9.630  -1.973   2.835  1.00  0.00     0.227 A 
ATOM      8  C   UNL     1      -7.573  -1.474   3.289  1.00  0.00     0.110 A 
ATOM      9  C   UNL     1      -7.578  -2.376   2.211  1.00  0.00     0.156 A 
ENDROOT
BRANCH   6  10
ATOM     10  C   UNL     1      -3.902  -2.706   1.545  1.00  0.00     0.335 C 
ATOM     11  O   UNL     1      -2.870  -2.144   1.853  1.00  0.00    -0.246 OA
BRANCH  10  12
ATOM     12  O   UNL     1      -3.878  -3.715   0.651  1.00  0.00    -0.478 OA
ATOM     13  H   UNL     1      -3.270  -3.627  -0.095  1.00  0.00     0.297 HD
ENDBRANCH  10  12
ENDBRANCH   6  10
BRANCH   7  14
ATOM     14  C   UNL     1     -11.106  -2.008   2.895  1.00  0.00     0.040 A 
ATOM     15  C   UNL     1     -11.856  -2.003   1.718  1.00  0.00     0.034 A 
ATOM     16  C   UNL     1     -11.756  -2.046   4.130  1.00  0.00     0.034 A 
ATOM     17  C   UNL     1     -13.235  -2.038   1.781  1.00  0.00     0.043 A 
ATOM     18  C   UNL     1     -13.135  -2.080   4.180  1.00  0.00     0.043 A 
ATOM     19  C   UNL     1     -13.873  -2.075   3.009  1.00  0.00     0.041 A 
ATOM     20  Cl  UNL     1     -14.170  -2.032   0.318  1.00  0.00    -0.084 Cl
ATOM     21  Cl  UNL     1     -13.946  -2.128   5.715  1.00  0.00    -0.084 Cl
ENDBRANCH   7  14
TORSDOF 3
ENDMDL
MODEL 2
REMARK VINA RESULT:    -5.798      0.019      2.020
REMARK INTER + INTRA:          -6.938
REMARK INTER:                  -6.646
REMARK INTRA:                  -0.293
REMARK UNBOUND:                -0.293
REMARK SMILES O=C(O)c1ccc2nc(-c3cc(Cl)cc(Cl)c3)oc2c1
REMARK SMILES IDX 5 1 6 2 20 3 8 4 18 5 4 6 9 7 7 8 19 9 2 10 1 11 3 12 10 14
REMARK SMILES IDX 11 15 17 16 12 17 15 18 14 19 13 20 16 21
REMARK H PARENT 3 13
ROOT
ATOM      1  C   UNL     1      -5.183  -1.354   3.207  1.00  0.00     0.018 A 
ATOM      2  C   UNL     1      -6.359  -0.950   3.764  1.00  0.00     0.033 A 
ATOM      3  C   UNL     1      -6.382  -2.770   1.646  1.00  0.00     0.065 A 
ATOM      4  N   UNL     1      -8.864  -1.240   3.615  1.00  0.00    -0.209 NA
ATOM      5  O   UNL     1      -8.873  -2.662   1.968  1.00  0.00    -0.436 OA
ATOM      6  C   UNL     1      -5.179  -2.266   2.142  1.00  0.00     0.063 A 
ATOM      7  C   UNL     1      -9.629  -1.963   2.835  1.00  0.00     0.227 A 
ATOM      8  C   UNL     1      -7.573  -1.448   3.277  1.00  0.00     0.110 A 
ATOM      9  C   UNL     1      -7.577  -2.367   2.213  1.00  0.00     0.156 A 
ENDROOT
BRANCH   6  10
ATOM     10  C   UNL     1      -3.901  -2.691   1.543  1.00  0.00     0.335 C 
ATOM     11  O   UNL     1      -2.869  -2.129   1.851  1.00  0.00    -0.246 OA
BRANCH  10  12
ATOM     12  O   UNL     1      -3.877  -3.703   0.653  1.00  0.00    -0.478 OA
ATOM     13  H   UNL     1      -3.133  -3.728   0.036  1.00  0.00     0.297 HD
ENDBRANCH  10  12
ENDBRANCH   6  10
BRANCH   7  14
ATOM     14  C   UNL     1     -11.105  -2.003   2.899  1.00  0.00     0.040 A 
ATOM     15  C   UNL     1     -11.753  -2.045   4.134  1.00  0.00     0.034 A 
ATOM     16  C   UNL     1     -11.857  -2.001   1.722  1.00  0.00     0.034 A 
ATOM     17  C   UNL     1     -13.132  -2.082   4.187  1.00  0.00     0.043 A 
ATOM     18  C   UNL     1     -13.236  -2.039   1.788  1.00  0.00     0.043 A 
ATOM     19  C   UNL     1     -13.872  -2.080   3.016  1.00  0.00     0.041 A 
ATOM     20  Cl  UNL     1     -13.940  -2.133   5.722  1.00  0.00    -0.084 Cl
ATOM     21  Cl  UNL     1     -14.173  -2.036   0.326  1.00  0.00    -0.084 Cl
ENDBRANCH   7  14
TORSDOF 3
ENDMDL
MODEL 3
REMARK VINA RESULT:    -5.728      1.978      3.320
REMARK INTER + INTRA:          -6.858
REMARK INTER:                  -6.573
REMARK INTRA:                  -0.285
REMARK UNBOUND:                -0.293
REMARK SMILES O=C(O)c1ccc2nc(-c3cc(Cl)cc(Cl)c3)oc2c1
REMARK SMILES IDX 5 1 6 2 20 3 8 4 18 5 4 6 9 7 7 8 19 9 2 10 1 11 3 12 10 14
REMARK SMILES IDX 11 15 17 16 12 17 15 18 14 19 13 20 16 21
REMARK H PARENT 3 13
ROOT
ATOM      1  C   UNL     1      -5.506  -1.344   1.428  1.00  0.00     0.018 A 
ATOM      2  C   UNL     1      -6.673  -2.038   1.545  1.00  0.00     0.033 A 
ATOM      3  C   UNL     1      -6.131   0.070   3.296  1.00  0.00     0.065 A 
ATOM      4  N   UNL     1      -8.805  -2.181   2.893  1.00  0.00    -0.209 NA
ATOM      5  O   UNL     1      -8.377  -0.535   4.250  1.00  0.00    -0.436 OA
ATOM      6  C   UNL     1      -5.219  -0.285   2.301  1.00  0.00     0.063 A 
ATOM      7  C   UNL     1      -9.262  -1.490   3.908  1.00  0.00     0.227 A 
ATOM      8  C   UNL     1      -7.596  -1.693   2.540  1.00  0.00     0.110 A 
ATOM      9  C   UNL     1      -7.318  -0.629   3.416  1.00  0.00     0.156 A 
ENDROOT
BRANCH   6  10
ATOM     10  C   UNL     1      -3.951   0.454   2.168  1.00  0.00     0.335 C 
ATOM     11  O   UNL     1      -2.895  -0.146   2.172  1.00  0.00    -0.246 OA
BRANCH  10  12
ATOM     12  O   UNL     1      -3.962   1.796   2.042  1.00  0.00    -0.478 OA
ATOM     13  H   UNL     1      -4.805   2.244   2.196  1.00  0.00     0.297 HD
ENDBRANCH  10  12
ENDBRANCH   6  10
BRANCH   7  14
ATOM     14  C   UNL     1     -10.558  -1.726   4.578  1.00  0.00     0.040 A 
ATOM     15  C   UNL     1     -10.628  -1.777   5.971  1.00  0.00     0.034 A 
ATOM     16  C   UNL     1     -11.717  -1.898   3.819  1.00  0.00     0.034 A 
ATOM     17  C   UNL     1     -11.842  -1.997   6.590  1.00  0.00     0.043 A 
ATOM     18  C   UNL     1     -12.925  -2.116   4.450  1.00  0.00     0.043 A 
ATOM     19  C   UNL     1     -12.988  -2.167   5.832  1.00  0.00     0.041 A 
ATOM     20  Cl  UNL     1     -11.933  -2.061   8.323  1.00  0.00    -0.084 Cl
ATOM     21  Cl  UNL     1     -14.368  -2.331   3.508  1.00  0.00    -0.084 Cl
ENDBRANCH   7  14
TORSDOF 3
ENDMDL
MODEL 4
REMARK VINA RESULT:    -5.722      1.986      2.714
REMARK INTER + INTRA:          -6.851
REMARK INTER:                  -6.565
REMARK INTRA:                  -0.286
REMARK UNBOUND:                -0.293
REMARK SMILES O=C(O)c1ccc2nc(-c3cc(Cl)cc(Cl)c3)oc2c1
REMARK SMILES IDX 5 1 6 2 20 3 8 4 18 5 4 6 9 7 7 8 19 9 2 10 1 11 3 12 10 14
REMARK SMILES IDX 11 15 17 16 12 17 15 18 14 19 13 20 16 21
REMARK H PARENT 3 13
ROOT
ATOM      1  C   UNL     1      -5.501  -1.336   1.429  1.00  0.00     0.018 A 
ATOM      2  C   UNL     1      -6.665  -2.034   1.551  1.00  0.00     0.033 A 
ATOM      3  C   UNL     1      -6.134   0.090   3.286  1.00  0.00     0.065 A 
ATOM      4  N   UNL     1      -8.797  -2.177   2.898  1.00  0.00    -0.209 NA
ATOM      5  O   UNL     1      -8.379  -0.518   4.242  1.00  0.00    -0.436 OA
ATOM      6  C   UNL     1      -5.220  -0.269   2.294  1.00  0.00     0.063 A 
ATOM      7  C   UNL     1      -9.259  -1.480   3.907  1.00  0.00     0.227 A 
ATOM      8  C   UNL     1      -7.591  -1.686   2.542  1.00  0.00     0.110 A 
ATOM      9  C   UNL     1      -7.319  -0.613   3.410  1.00  0.00     0.156 A 
ENDROOT
BRANCH   6  10
ATOM     10  C   UNL     1      -3.955   0.476   2.157  1.00  0.00     0.335 C 
ATOM     11  O   UNL     1      -2.899  -0.123   2.118  1.00  0.00    -0.246 OA
BRANCH  10  12
ATOM     12  O   UNL     1      -3.970   1.821   2.074  1.00  0.00    -0.478 OA
ATOM     13  H   UNL     1      -3.120   2.275   2.153  1.00  0.00     0.297 HD
ENDBRANCH  10  12
ENDBRANCH   6  10
BRANCH   7  14
ATOM     14  C   UNL     1     -10.554  -1.716   4.577  1.00  0.00     0.040 A 
ATOM     15  C   UNL     1     -11.713  -1.895   3.821  1.00  0.00     0.034 A 
ATOM     16  C   UNL     1     -10.624  -1.761   5.971  1.00  0.00     0.034 A 
ATOM     17  C   UNL     1     -12.920  -2.116   4.453  1.00  0.00     0.043 A 
ATOM     18  C   UNL     1     -11.837  -1.983   6.592  1.00  0.00     0.043 A 
ATOM     19  C   UNL     1     -12.982  -2.159   5.836  1.00  0.00     0.041 A 
ATOM     20  Cl  UNL     1     -14.363  -2.339   3.514  1.00  0.00    -0.084 Cl
ATOM     21  Cl  UNL     1     -11.925  -2.038   8.325  1.00  0.00    -0.084 Cl
ENDBRANCH   7  14
TORSDOF 3
ENDMDL
MODEL 5
REMARK VINA RESULT:    -5.574      4.210      7.751
REMARK INTER + INTRA:          -6.681
REMARK INTER:                  -6.397
REMARK INTRA:                  -0.285
REMARK UNBOUND:                -0.293
REMARK SMILES O=C(O)c1ccc2nc(-c3cc(Cl)cc(Cl)c3)oc2c1
REMARK SMILES IDX 5 1 6 2 20 3 8 4 18 5 4 6 9 7 7 8 19 9 2 10 1 11 3 12 10 14
REMARK SMILES IDX 11 15 17 16 12 17 15 18 14 19 13 20 16 21
REMARK H PARENT 3 13
ROOT
ATOM      1  C   UNL     1     -12.911  -2.091   4.067  1.00  0.00     0.018 A 
ATOM      2  C   UNL     1     -11.978  -1.923   3.088  1.00  0.00     0.033 A 
ATOM      3  C   UNL     1     -11.197  -1.875   5.769  1.00  0.00     0.065 A 
ATOM      4  N   UNL     1      -9.512  -1.541   2.699  1.00  0.00    -0.209 NA
ATOM      5  O   UNL     1      -8.910  -1.509   4.790  1.00  0.00    -0.436 OA
ATOM      6  C   UNL     1     -12.534  -2.067   5.418  1.00  0.00     0.063 A 
ATOM      7  C   UNL     1      -8.494  -1.410   3.513  1.00  0.00     0.227 A 
ATOM      8  C   UNL     1     -10.634  -1.730   3.426  1.00  0.00     0.110 A 
ATOM      9  C   UNL     1     -10.247  -1.709   4.778  1.00  0.00     0.156 A 
ENDROOT
BRANCH   6  10
ATOM     10  C   UNL     1     -13.552  -2.243   6.468  1.00  0.00     0.335 C 
ATOM     11  O   UNL     1     -14.513  -2.960   6.269  1.00  0.00    -0.246 OA
BRANCH  10  12
ATOM     12  O   UNL     1     -13.419  -1.609   7.650  1.00  0.00    -0.478 OA
ATOM     13  H   UNL     1     -12.598  -1.758   8.138  1.00  0.00     0.297 HD
ENDBRANCH  10  12
ENDBRANCH   6  10
BRANCH   7  14
ATOM     14  C   UNL     1      -7.095  -1.188   3.092  1.00  0.00     0.040 A 
ATOM     15  C   UNL     1      -6.503   0.065   3.260  1.00  0.00     0.034 A 
ATOM     16  C   UNL     1      -6.361  -2.230   2.522  1.00  0.00     0.034 A 
ATOM     17  C   UNL     1      -5.195   0.266   2.865  1.00  0.00     0.043 A 
ATOM     18  C   UNL     1      -5.054  -2.017   2.131  1.00  0.00     0.043 A 
ATOM     19  C   UNL     1      -4.473  -0.772   2.301  1.00  0.00     0.041 A 
ATOM     20  Cl  UNL     1      -4.456   1.822   3.074  1.00  0.00    -0.084 Cl
ATOM     21  Cl  UNL     1      -4.140  -3.312   1.423  1.00  0.00    -0.084 Cl
ENDBRANCH   7  14
TORSDOF 3
ENDMDL
MODEL 6
REMARK VINA RESULT:    -5.574      4.213      7.677
REMARK INTER + INTRA:          -6.681
REMARK INTER:                  -6.397
REMARK INTRA:                  -0.284
REMARK UNBOUND:                -0.293
REMARK SMILES O=C(O)c1ccc2nc(-c3cc(Cl)cc(Cl)c3)oc2c1
REMARK SMILES IDX 5 1 6 2 20 3 8 4 18 5 4 6 9 7 7 8 19 9 2 10 1 11 3 12 10 14
REMARK SMILES IDX 11 15 17 16 12 17 15 18 14 19 13 20 16 21
REMARK H PARENT 3 13
ROOT
ATOM      1  C   UNL     1     -12.904  -2.072   4.071  1.00  0.00     0.018 A 
ATOM      2  C   UNL     1     -11.972  -1.898   3.092  1.00  0.00     0.033 A 
ATOM      3  C   UNL     1     -11.187  -1.874   5.773  1.00  0.00     0.065 A 
ATOM      4  N   UNL     1      -9.505  -1.517   2.704  1.00  0.00    -0.209 NA
ATOM      5  O   UNL     1      -8.901  -1.504   4.794  1.00  0.00    -0.436 OA
ATOM      6  C   UNL     1     -12.525  -2.060   5.421  1.00  0.00     0.063 A 
ATOM      7  C   UNL     1      -8.486  -1.395   3.518  1.00  0.00     0.227 A 
ATOM      8  C   UNL     1     -10.627  -1.710   3.431  1.00  0.00     0.110 A 
ATOM      9  C   UNL     1     -10.238  -1.702   4.782  1.00  0.00     0.156 A 
ENDROOT
BRANCH   6  10
ATOM     10  C   UNL     1     -13.543  -2.243   6.472  1.00  0.00     0.335 C 
ATOM     11  O   UNL     1     -14.495  -2.971   6.275  1.00  0.00    -0.246 OA
BRANCH  10  12
ATOM     12  O   UNL     1     -13.418  -1.603   7.651  1.00  0.00    -0.478 OA
ATOM     13  H   UNL     1     -13.687  -2.085   8.444  1.00  0.00     0.297 HD
ENDBRANCH  10  12
ENDBRANCH   6  10
BRANCH   7  14
ATOM     14  C   UNL     1      -7.088  -1.172   3.096  1.00  0.00     0.040 A 
ATOM     15  C   UNL     1      -6.351  -2.213   2.531  1.00  0.00     0.034 A 
ATOM     16  C   UNL     1      -6.498   0.083   3.264  1.00  0.00     0.034 A 
ATOM     17  C   UNL     1      -5.045  -1.998   2.138  1.00  0.00     0.043 A 
ATOM     18  C   UNL     1      -5.191   0.286   2.867  1.00  0.00     0.043 A 
ATOM     19  C   UNL     1      -4.466  -0.752   2.307  1.00  0.00     0.041 A 
ATOM     20  Cl  UNL     1      -4.127  -3.292   1.434  1.00  0.00    -0.084 Cl
ATOM     21  Cl  UNL     1      -4.455   1.845   3.074  1.00  0.00    -0.084 Cl
ENDBRANCH   7  14
TORSDOF 3
ENDMDL
MODEL 7
REMARK VINA RESULT:    -5.353      4.052      7.536
REMARK INTER + INTRA:          -6.429
REMARK INTER:                  -6.147
REMARK INTRA:                  -0.282
REMARK UNBOUND:                -0.293
REMARK SMILES O=C(O)c1ccc2nc(-c3cc(Cl)cc(Cl)c3)oc2c1
REMARK SMILES IDX 5 1 6 2 20 3 8 4 18 5 4 6 9 7 7 8 19 9 2 10 1 11 3 12 10 14
REMARK SMILES IDX 11 15 17 16 12 17 15 18 14 19 13 20 16 21
REMARK H PARENT 3 13
ROOT
ATOM      1  C   UNL     1     -12.228  -1.908   5.220  1.00  0.00     0.018 A 
ATOM      2  C   UNL     1     -10.903  -1.785   5.511  1.00  0.00     0.033 A 
ATOM      3  C   UNL     1     -11.744  -1.767   2.848  1.00  0.00     0.065 A 
ATOM      4  N   UNL     1      -8.625  -1.511   4.454  1.00  0.00    -0.209 NA
ATOM      5  O   UNL     1      -9.289  -1.493   2.382  1.00  0.00    -0.436 OA
ATOM      6  C   UNL     1     -12.666  -1.903   3.888  1.00  0.00     0.063 A 
ATOM      7  C   UNL     1      -8.229  -1.420   3.209  1.00  0.00     0.227 A 
ATOM      8  C   UNL     1      -9.968  -1.649   4.478  1.00  0.00     0.110 A 
ATOM      9  C   UNL     1     -10.399  -1.637   3.139  1.00  0.00     0.156 A 
ENDROOT
BRANCH   6  10
ATOM     10  C   UNL     1     -14.101  -2.042   3.584  1.00  0.00     0.335 C 
ATOM     11  O   UNL     1     -14.760  -2.896   4.144  1.00  0.00    -0.246 OA
BRANCH  10  12
ATOM     12  O   UNL     1     -14.684  -1.224   2.686  1.00  0.00    -0.478 OA
ATOM     13  H   UNL     1     -14.437  -1.343   1.759  1.00  0.00     0.297 HD
ENDBRANCH  10  12
ENDBRANCH   6  10
BRANCH   7  14
ATOM     14  C   UNL     1      -6.825  -1.259   2.776  1.00  0.00     0.040 A 
ATOM     15  C   UNL     1      -6.099  -2.363   2.327  1.00  0.00     0.034 A 
ATOM     16  C   UNL     1      -6.219  -0.002   2.816  1.00  0.00     0.034 A 
ATOM     17  C   UNL     1      -4.788  -2.207   1.923  1.00  0.00     0.043 A 
ATOM     18  C   UNL     1      -4.908   0.142   2.409  1.00  0.00     0.043 A 
ATOM     19  C   UNL     1      -4.193  -0.957   1.965  1.00  0.00     0.041 A 
ATOM     20  Cl  UNL     1      -3.883  -3.578   1.364  1.00  0.00    -0.084 Cl
ATOM     21  Cl  UNL     1      -4.153   1.705   2.458  1.00  0.00    -0.084 Cl
ENDBRANCH   7  14
TORSDOF 3
ENDMDL
MODEL 8
REMARK VINA RESULT:    -5.317      4.059      7.583
REMARK INTER + INTRA:          -6.387
REMARK INTER:                  -6.104
REMARK INTRA:                  -0.283
REMARK UNBOUND:                -0.293
REMARK SMILES O=C(O)c1ccc2nc(-c3cc(Cl)cc(Cl)c3)oc2c1
REMARK SMILES IDX 5 1 6 2 20 3 8 4 18 5 4 6 9 7 7 8 19 9 2 10 1 11 3 12 10 14
REMARK SMILES IDX 11 15 17 16 12 17 15 18 14 19 13 20 16 21
REMARK H PARENT 3 13
ROOT
ATOM      1  C   UNL     1     -12.178  -2.085   5.148  1.00  0.00     0.018 A 
ATOM      2  C   UNL     1     -10.850  -2.005   5.445  1.00  0.00     0.033 A 
ATOM      3  C   UNL     1     -11.697  -1.735   2.797  1.00  0.00     0.065 A 
ATOM      4  N   UNL     1      -8.571  -1.664   4.409  1.00  0.00    -0.209 NA
ATOM      5  O   UNL     1      -9.240  -1.450   2.350  1.00  0.00    -0.436 OA
ATOM      6  C   UNL     1     -12.618  -1.953   3.823  1.00  0.00     0.063 A 
ATOM      7  C   UNL     1      -8.177  -1.465   3.176  1.00  0.00     0.227 A 
ATOM      8  C   UNL     1      -9.916  -1.787   4.425  1.00  0.00     0.110 A 
ATOM      9  C   UNL     1     -10.350  -1.649   3.095  1.00  0.00     0.156 A 
ENDROOT
BRANCH   6  10
ATOM     10  C   UNL     1     -14.056  -2.047   3.514  1.00  0.00     0.335 C 
ATOM     11  O   UNL     1     -14.760  -2.825   4.127  1.00  0.00    -0.246 OA
BRANCH  10  12
ATOM     12  O   UNL     1     -14.590  -1.272   2.550  1.00  0.00    -0.478 OA
ATOM     13  H   UNL     1     -14.016  -1.032   1.810  1.00  0.00     0.297 HD
ENDBRANCH  10  12
ENDBRANCH   6  10
BRANCH   7  14
ATOM     14  C   UNL     1      -6.772  -1.284   2.755  1.00  0.00     0.040 A 
ATOM     15  C   UNL     1      -6.187  -0.018   2.793  1.00  0.00     0.034 A 
ATOM     16  C   UNL     1      -6.025  -2.379   2.316  1.00  0.00     0.034 A 
ATOM     17  C   UNL     1      -4.873   0.145   2.399  1.00  0.00     0.043 A 
ATOM     18  C   UNL     1      -4.713  -2.204   1.925  1.00  0.00     0.043 A 
ATOM     19  C   UNL     1      -4.138  -0.945   1.965  1.00  0.00     0.041 A 
ATOM     20  Cl  UNL     1      -4.143   1.719   2.447  1.00  0.00    -0.084 Cl
ATOM     21  Cl  UNL     1      -3.783  -3.564   1.379  1.00  0.00    -0.084 Cl
ENDBRANCH   7  14
TORSDOF 3
ENDMDL
MODEL 9
REMARK VINA RESULT:    -4.884      5.951      8.350
REMARK INTER + INTRA:          -5.891
REMARK INTER:                  -5.603
REMARK INTRA:                  -0.288
REMARK UNBOUND:                -0.293
REMARK SMILES O=C(O)c1ccc2nc(-c3cc(Cl)cc(Cl)c3)oc2c1
REMARK SMILES IDX 5 1 6 2 20 3 8 4 18 5 4 6 9 7 7 8 19 9 2 10 1 11 3 12 10 14
REMARK SMILES IDX 11 15 17 16 12 17 15 18 14 19 13 20 16 21
REMARK H PARENT 3 13
ROOT
ATOM      1  C   UNL     1     -12.957  -5.902  10.541  1.00  0.00     0.018 A 
ATOM      2  C   UNL     1     -12.715  -4.612  10.173  1.00  0.00     0.033 A 
ATOM      3  C   UNL     1     -12.537  -6.654   8.275  1.00  0.00     0.065 A 
ATOM      4  N   UNL     1     -12.091  -3.165   8.198  1.00  0.00    -0.209 NA
ATOM      5  O   UNL     1     -11.960  -4.760   6.725  1.00  0.00    -0.436 OA
ATOM      6  C   UNL     1     -12.870  -6.937   9.600  1.00  0.00     0.063 A 
ATOM      7  C   UNL     1     -11.843  -3.437   6.941  1.00  0.00     0.227 A 
ATOM      8  C   UNL     1     -12.379  -4.314   8.847  1.00  0.00     0.110 A 
ATOM      9  C   UNL     1     -12.295  -5.346   7.896  1.00  0.00     0.156 A 
ENDROOT
BRANCH   6  10
ATOM     10  C   UNL     1     -13.129  -8.329  10.012  1.00  0.00     0.335 C 
ATOM     11  O   UNL     1     -13.928  -8.562  10.897  1.00  0.00    -0.246 OA
BRANCH  10  12
ATOM     12  O   UNL     1     -12.479  -9.343   9.407  1.00  0.00    -0.478 OA
ATOM     13  H   UNL     1     -11.626  -9.601   9.779  1.00  0.00     0.297 HD
ENDBRANCH  10  12
ENDBRANCH   6  10
BRANCH   7  14
ATOM     14  C   UNL     1     -11.488  -2.437   5.913  1.00  0.00     0.040 A 
ATOM     15  C   UNL     1     -12.211  -2.369   4.722  1.00  0.00     0.034 A 
ATOM     16  C   UNL     1     -10.426  -1.556   6.130  1.00  0.00     0.034 A 
ATOM     17  C   UNL     1     -11.875  -1.431   3.765  1.00  0.00     0.043 A 
ATOM     18  C   UNL     1     -10.099  -0.623   5.166  1.00  0.00     0.043 A 
ATOM     19  C   UNL     1     -10.821  -0.561   3.986  1.00  0.00     0.041 A 
ATOM     20  Cl  UNL     1     -12.774  -1.345   2.283  1.00  0.00    -0.084 Cl
ATOM     21  Cl  UNL     1      -8.779   0.473   5.433  1.00  0.00    -0.084 Cl
ENDBRANCH   7  14
TORSDOF 3
ENDMDL
