MODEL 1
REMARK VINA RESULT:    -6.371      0.000      0.000
REMARK INTER + INTRA:          -9.391
REMARK INTER:                  -8.792
REMARK INTRA:                  -0.599
REMARK UNBOUND:                -0.599
REMARK SMILES Cc1n[nH]c(C)c1CCCOc1cc(C(=O)O)ccc1F
REMARK SMILES IDX 11 1 12 2 14 3 18 4 13 5 19 6 20 7 21 8 15 9 16 10 17 11
REMARK SMILES IDX 10 13 9 14 8 15 7 16 5 17 2 18 4 19 3 20 6 21 1 22
REMARK H PARENT 17 12 4 23
ROOT
ATOM      1  O   UNL     1      -7.568  -2.023   1.826  1.00  0.00    -0.490 OA
ENDROOT
BRANCH   1   2
ATOM      2  C   UNL     1      -6.311  -1.516   1.938  1.00  0.00     0.155 A 
ATOM      3  C   UNL     1      -4.836   0.323   2.410  1.00  0.00     0.063 A 
ATOM      4  C   UNL     1      -3.735  -0.504   2.170  1.00  0.00     0.019 A 
ATOM      5  C   UNL     1      -6.128  -0.192   2.292  1.00  0.00     0.065 A 
ATOM      6  C   UNL     1      -3.927  -1.824   1.823  1.00  0.00     0.044 A 
ATOM      7  C   UNL     1      -5.210  -2.335   1.711  1.00  0.00     0.165 A 
ATOM      8  F   UNL     1      -5.392  -3.630   1.371  1.00  0.00    -0.203 F 
BRANCH   3   9
ATOM      9  C   UNL     1      -4.633   1.737   2.782  1.00  0.00     0.335 C 
ATOM     10  O   UNL     1      -5.329   2.600   2.288  1.00  0.00    -0.246 OA
BRANCH   9  11
ATOM     11  O   UNL     1      -3.680   2.068   3.675  1.00  0.00    -0.478 OA
ATOM     12  H   UNL     1      -3.844   2.848   4.223  1.00  0.00     0.297 HD
ENDBRANCH   9  11
ENDBRANCH   3   9
ENDBRANCH   1   2
BRANCH   1  13
ATOM     13  C   UNL     1      -8.365  -2.046   3.013  1.00  0.00     0.230 C 
BRANCH  13  14
ATOM     14  C   UNL     1      -9.831  -2.268   2.637  1.00  0.00     0.046 C 
BRANCH  14  15
ATOM     15  C   UNL     1     -10.684  -1.138   3.218  1.00  0.00     0.043 C 
BRANCH  15  16
ATOM     16  C   UNL     1     -12.009  -1.691   3.674  1.00  0.00    -0.004 A 
ATOM     17  C   UNL     1     -13.142  -1.753   2.935  1.00  0.00     0.036 A 
ATOM     18  C   UNL     1     -12.286  -2.237   4.932  1.00  0.00     0.063 A 
ATOM     19  N   UNL     1     -14.102  -2.312   3.701  1.00  0.00    -0.282 N 
ATOM     20  N   UNL     1     -13.541  -2.603   4.952  1.00  0.00    -0.181 NA
ATOM     21  C   UNL     1     -13.302  -1.282   1.513  1.00  0.00     0.066 C 
ATOM     22  C   UNL     1     -11.308  -2.369   6.072  1.00  0.00     0.069 C 
ATOM     23  H   UNL     1     -15.019  -2.481   3.434  1.00  0.00     0.190 HD
ENDBRANCH  15  16
ENDBRANCH  14  15
ENDBRANCH  13  14
ENDBRANCH   1  13
TORSDOF 7
ENDMDL
MODEL 2
REMARK VINA RESULT:    -6.299      0.380      1.768
REMARK INTER + INTRA:          -9.291
REMARK INTER:                  -8.675
REMARK INTRA:                  -0.616
REMARK UNBOUND:                -0.599
REMARK SMILES Cc1n[nH]c(C)c1CCCOc1cc(C(=O)O)ccc1F
REMARK SMILES IDX 11 1 12 2 14 3 18 4 13 5 19 6 20 7 21 8 15 9 16 10 17 11
REMARK SMILES IDX 10 13 9 14 8 15 7 16 5 17 2 18 4 19 3 20 6 21 1 22
REMARK H PARENT 17 12 4 23
ROOT
ATOM      1  O   UNL     1      -7.600  -1.993   1.838  1.00  0.00    -0.490 OA
ENDROOT
BRANCH   1   2
ATOM      2  C   UNL     1      -6.340  -1.494   1.942  1.00  0.00     0.155 A 
ATOM      3  C   UNL     1      -4.851   0.335   2.411  1.00  0.00     0.063 A 
ATOM      4  C   UNL     1      -3.756  -0.497   2.159  1.00  0.00     0.019 A 
ATOM      5  C   UNL     1      -6.147  -0.173   2.299  1.00  0.00     0.065 A 
ATOM      6  C   UNL     1      -3.958  -1.815   1.809  1.00  0.00     0.044 A 
ATOM      7  C   UNL     1      -5.245  -2.318   1.705  1.00  0.00     0.165 A 
ATOM      8  F   UNL     1      -5.436  -3.611   1.361  1.00  0.00    -0.203 F 
BRANCH   3   9
ATOM      9  C   UNL     1      -4.638   1.746   2.786  1.00  0.00     0.335 C 
ATOM     10  O   UNL     1      -5.337   2.615   2.306  1.00  0.00    -0.246 OA
BRANCH   9  11
ATOM     11  O   UNL     1      -3.670   2.070   3.666  1.00  0.00    -0.478 OA
ATOM     12  H   UNL     1      -2.901   2.543   3.319  1.00  0.00     0.297 HD
ENDBRANCH   9  11
ENDBRANCH   3   9
ENDBRANCH   1   2
BRANCH   1  13
ATOM     13  C   UNL     1      -8.401  -1.985   3.022  1.00  0.00     0.230 C 
BRANCH  13  14
ATOM     14  C   UNL     1      -9.857  -2.274   2.654  1.00  0.00     0.046 C 
BRANCH  14  15
ATOM     15  C   UNL     1     -10.742  -1.118   3.127  1.00  0.00     0.043 C 
BRANCH  15  16
ATOM     16  C   UNL     1     -11.914  -1.665   3.899  1.00  0.00    -0.004 A 
ATOM     17  C   UNL     1     -11.951  -1.899   5.231  1.00  0.00     0.036 A 
ATOM     18  C   UNL     1     -13.160  -2.015   3.366  1.00  0.00     0.063 A 
ATOM     19  N   UNL     1     -13.174  -2.386   5.530  1.00  0.00    -0.282 N 
ATOM     20  N   UNL     1     -13.913  -2.454   4.342  1.00  0.00    -0.181 NA
ATOM     21  C   UNL     1     -10.829  -1.658   6.206  1.00  0.00     0.066 C 
ATOM     22  C   UNL     1     -13.560  -1.917   1.916  1.00  0.00     0.069 C 
ATOM     23  H   UNL     1     -13.486  -2.644   6.411  1.00  0.00     0.190 HD
ENDBRANCH  15  16
ENDBRANCH  14  15
ENDBRANCH  13  14
ENDBRANCH   1  13
TORSDOF 7
ENDMDL
MODEL 3
REMARK VINA RESULT:    -6.222      2.205      3.583
REMARK INTER + INTRA:          -9.186
REMARK INTER:                  -8.583
REMARK INTRA:                  -0.602
REMARK UNBOUND:                -0.599
REMARK SMILES Cc1n[nH]c(C)c1CCCOc1cc(C(=O)O)ccc1F
REMARK SMILES IDX 11 1 12 2 14 3 18 4 13 5 19 6 20 7 21 8 15 9 16 10 17 11
REMARK SMILES IDX 10 13 9 14 8 15 7 16 5 17 2 18 4 19 3 20 6 21 1 22
REMARK H PARENT 17 12 4 23
ROOT
ATOM      1  O   UNL     1      -7.278  -0.918   4.242  1.00  0.00    -0.490 OA
ENDROOT
BRANCH   1   2
ATOM      2  C   UNL     1      -6.147  -1.002   3.492  1.00  0.00     0.155 A 
ATOM      3  C   UNL     1      -4.629  -2.288   2.142  1.00  0.00     0.063 A 
ATOM      4  C   UNL     1      -3.838  -1.151   1.955  1.00  0.00     0.019 A 
ATOM      5  C   UNL     1      -5.788  -2.206   2.916  1.00  0.00     0.065 A 
ATOM      6  C   UNL     1      -4.207   0.047   2.529  1.00  0.00     0.044 A 
ATOM      7  C   UNL     1      -5.360   0.127   3.292  1.00  0.00     0.165 A 
ATOM      8  F   UNL     1      -5.716   1.304   3.852  1.00  0.00    -0.203 F 
BRANCH   3   9
ATOM      9  C   UNL     1      -4.237  -3.572   1.528  1.00  0.00     0.335 C 
ATOM     10  O   UNL     1      -3.799  -3.596   0.396  1.00  0.00    -0.246 OA
BRANCH   9  11
ATOM     11  O   UNL     1      -4.358  -4.717   2.227  1.00  0.00    -0.478 OA
ATOM     12  H   UNL     1      -3.899  -4.764   3.078  1.00  0.00     0.297 HD
ENDBRANCH   9  11
ENDBRANCH   3   9
ENDBRANCH   1   2
BRANCH   1  13
ATOM     13  C   UNL     1      -8.521  -0.876   3.538  1.00  0.00     0.230 C 
BRANCH  13  14
ATOM     14  C   UNL     1      -9.676  -0.960   4.538  1.00  0.00     0.046 C 
BRANCH  14  15
ATOM     15  C   UNL     1     -10.341  -2.334   4.435  1.00  0.00     0.043 C 
BRANCH  15  16
ATOM     16  C   UNL     1     -11.814  -2.203   4.719  1.00  0.00    -0.004 A 
ATOM     17  C   UNL     1     -12.410  -2.357   5.925  1.00  0.00     0.036 A 
ATOM     18  C   UNL     1     -12.809  -1.894   3.785  1.00  0.00     0.063 A 
ATOM     19  N   UNL     1     -13.734  -2.159   5.758  1.00  0.00    -0.282 N 
ATOM     20  N   UNL     1     -13.961  -1.874   4.405  1.00  0.00    -0.181 NA
ATOM     21  C   UNL     1     -11.718  -2.689   7.221  1.00  0.00     0.066 C 
ATOM     22  C   UNL     1     -12.592  -1.639   2.315  1.00  0.00     0.069 C 
ATOM     23  H   UNL     1     -14.410  -2.206   6.452  1.00  0.00     0.190 HD
ENDBRANCH  15  16
ENDBRANCH  14  15
ENDBRANCH  13  14
ENDBRANCH   1  13
TORSDOF 7
ENDMDL
MODEL 4
REMARK VINA RESULT:    -6.171      2.207      3.117
REMARK INTER + INTRA:          -9.115
REMARK INTER:                  -8.486
REMARK INTRA:                  -0.629
REMARK UNBOUND:                -0.599
REMARK SMILES Cc1n[nH]c(C)c1CCCOc1cc(C(=O)O)ccc1F
REMARK SMILES IDX 11 1 12 2 14 3 18 4 13 5 19 6 20 7 21 8 15 9 16 10 17 11
REMARK SMILES IDX 10 13 9 14 8 15 7 16 5 17 2 18 4 19 3 20 6 21 1 22
REMARK H PARENT 17 12 4 23
ROOT
ATOM      1  O   UNL     1      -7.300  -0.897   4.228  1.00  0.00    -0.490 OA
ENDROOT
BRANCH   1   2
ATOM      2  C   UNL     1      -6.167  -0.985   3.481  1.00  0.00     0.155 A 
ATOM      3  C   UNL     1      -4.647  -2.277   2.138  1.00  0.00     0.063 A 
ATOM      4  C   UNL     1      -3.855  -1.141   1.949  1.00  0.00     0.019 A 
ATOM      5  C   UNL     1      -5.809  -2.191   2.909  1.00  0.00     0.065 A 
ATOM      6  C   UNL     1      -4.224   0.059   2.519  1.00  0.00     0.044 A 
ATOM      7  C   UNL     1      -5.379   0.142   3.279  1.00  0.00     0.165 A 
ATOM      8  F   UNL     1      -5.735   1.322   3.834  1.00  0.00    -0.203 F 
BRANCH   3   9
ATOM      9  C   UNL     1      -4.255  -3.563   1.529  1.00  0.00     0.335 C 
ATOM     10  O   UNL     1      -3.813  -3.591   0.399  1.00  0.00    -0.246 OA
BRANCH   9  11
ATOM     11  O   UNL     1      -4.382  -4.706   2.231  1.00  0.00    -0.478 OA
ATOM     12  H   UNL     1      -5.213  -4.838   2.710  1.00  0.00     0.297 HD
ENDBRANCH   9  11
ENDBRANCH   3   9
ENDBRANCH   1   2
BRANCH   1  13
ATOM     13  C   UNL     1      -8.539  -0.808   3.520  1.00  0.00     0.230 C 
BRANCH  13  14
ATOM     14  C   UNL     1      -9.700  -0.922   4.509  1.00  0.00     0.046 C 
BRANCH  14  15
ATOM     15  C   UNL     1     -10.300  -2.328   4.431  1.00  0.00     0.043 C 
BRANCH  15  16
ATOM     16  C   UNL     1     -11.801  -2.230   4.349  1.00  0.00    -0.004 A 
ATOM     17  C   UNL     1     -12.531  -2.106   3.216  1.00  0.00     0.036 A 
ATOM     18  C   UNL     1     -12.688  -2.257   5.431  1.00  0.00     0.063 A 
ATOM     19  N   UNL     1     -13.833  -2.051   3.569  1.00  0.00    -0.282 N 
ATOM     20  N   UNL     1     -13.905  -2.143   4.965  1.00  0.00    -0.181 NA
ATOM     21  C   UNL     1     -11.988  -2.043   1.813  1.00  0.00     0.066 C 
ATOM     22  C   UNL     1     -12.306  -2.384   6.884  1.00  0.00     0.069 C 
ATOM     23  H   UNL     1     -14.585  -1.962   2.963  1.00  0.00     0.190 HD
ENDBRANCH  15  16
ENDBRANCH  14  15
ENDBRANCH  13  14
ENDBRANCH   1  13
TORSDOF 7
ENDMDL
MODEL 5
REMARK VINA RESULT:    -5.962      4.574      7.770
REMARK INTER + INTRA:          -8.826
REMARK INTER:                  -8.119
REMARK INTRA:                  -0.707
REMARK UNBOUND:                -0.599
REMARK SMILES Cc1n[nH]c(C)c1CCCOc1cc(C(=O)O)ccc1F
REMARK SMILES IDX 11 1 12 2 14 3 18 4 13 5 19 6 20 7 21 8 15 9 16 10 17 11
REMARK SMILES IDX 10 13 9 14 8 15 7 16 5 17 2 18 4 19 3 20 6 21 1 22
REMARK H PARENT 17 12 4 23
ROOT
ATOM      1  O   UNL     1      -9.472  -1.125   3.752  1.00  0.00    -0.490 OA
ENDROOT
BRANCH   1   2
ATOM      2  C   UNL     1     -10.113  -1.853   4.704  1.00  0.00     0.155 A 
ATOM      3  C   UNL     1     -11.252  -1.985   6.818  1.00  0.00     0.063 A 
ATOM      4  C   UNL     1     -11.427  -3.359   6.634  1.00  0.00     0.019 A 
ATOM      5  C   UNL     1     -10.590  -1.234   5.844  1.00  0.00     0.065 A 
ATOM      6  C   UNL     1     -10.953  -3.967   5.491  1.00  0.00     0.044 A 
ATOM      7  C   UNL     1     -10.302  -3.219   4.524  1.00  0.00     0.165 A 
ATOM      8  F   UNL     1      -9.839  -3.821   3.406  1.00  0.00    -0.203 F 
BRANCH   3   9
ATOM      9  C   UNL     1     -11.758  -1.330   8.040  1.00  0.00     0.335 C 
ATOM     10  O   UNL     1     -11.027  -0.616   8.695  1.00  0.00    -0.246 OA
BRANCH   9  11
ATOM     11  O   UNL     1     -13.036  -1.521   8.426  1.00  0.00    -0.478 OA
ATOM     12  H   UNL     1     -13.678  -1.727   7.732  1.00  0.00     0.297 HD
ENDBRANCH   9  11
ENDBRANCH   3   9
ENDBRANCH   1   2
BRANCH   1  13
ATOM     13  C   UNL     1      -8.204  -0.567   4.105  1.00  0.00     0.230 C 
BRANCH  13  14
ATOM     14  C   UNL     1      -7.087  -1.445   3.540  1.00  0.00     0.046 C 
BRANCH  14  15
ATOM     15  C   UNL     1      -6.650  -0.902   2.178  1.00  0.00     0.043 C 
BRANCH  15  16
ATOM     16  C   UNL     1      -5.145  -0.857   2.113  1.00  0.00    -0.004 A 
ATOM     17  C   UNL     1      -4.330  -1.889   1.793  1.00  0.00     0.036 A 
ATOM     18  C   UNL     1      -4.343   0.261   2.367  1.00  0.00     0.063 A 
ATOM     19  N   UNL     1      -3.058  -1.442   1.849  1.00  0.00    -0.282 N 
ATOM     20  N   UNL     1      -3.092  -0.090   2.216  1.00  0.00    -0.181 NA
ATOM     21  C   UNL     1      -4.766  -3.286   1.438  1.00  0.00     0.066 C 
ATOM     22  C   UNL     1      -4.835   1.631   2.760  1.00  0.00     0.069 C 
ATOM     23  H   UNL     1      -2.262  -1.964   1.669  1.00  0.00     0.190 HD
ENDBRANCH  15  16
ENDBRANCH  14  15
ENDBRANCH  13  14
ENDBRANCH   1  13
TORSDOF 7
ENDMDL
MODEL 6
REMARK VINA RESULT:    -5.958      4.564      7.774
REMARK INTER + INTRA:          -8.820
REMARK INTER:                  -8.117
REMARK INTRA:                  -0.703
REMARK UNBOUND:                -0.599
REMARK SMILES Cc1n[nH]c(C)c1CCCOc1cc(C(=O)O)ccc1F
REMARK SMILES IDX 11 1 12 2 14 3 18 4 13 5 19 6 20 7 21 8 15 9 16 10 17 11
REMARK SMILES IDX 10 13 9 14 8 15 7 16 5 17 2 18 4 19 3 20 6 21 1 22
REMARK H PARENT 17 12 4 23
ROOT
ATOM      1  O   UNL     1      -9.498  -1.316   3.676  1.00  0.00    -0.490 OA
ENDROOT
BRANCH   1   2
ATOM      2  C   UNL     1     -10.126  -2.003   4.667  1.00  0.00     0.155 A 
ATOM      3  C   UNL     1     -11.251  -2.042   6.791  1.00  0.00     0.063 A 
ATOM      4  C   UNL     1     -11.415  -3.425   6.676  1.00  0.00     0.019 A 
ATOM      5  C   UNL     1     -10.603  -1.333   5.778  1.00  0.00     0.065 A 
ATOM      6  C   UNL     1     -10.941  -4.084   5.561  1.00  0.00     0.044 A 
ATOM      7  C   UNL     1     -10.303  -3.378   4.554  1.00  0.00     0.165 A 
ATOM      8  F   UNL     1      -9.841  -4.030   3.464  1.00  0.00    -0.203 F 
BRANCH   3   9
ATOM      9  C   UNL     1     -11.757  -1.334   7.983  1.00  0.00     0.335 C 
ATOM     10  O   UNL     1     -11.008  -0.644   8.644  1.00  0.00    -0.246 OA
BRANCH   9  11
ATOM     11  O   UNL     1     -13.053  -1.448   8.334  1.00  0.00    -0.478 OA
ATOM     12  H   UNL     1     -13.687  -0.887   7.865  1.00  0.00     0.297 HD
ENDBRANCH   9  11
ENDBRANCH   3   9
ENDBRANCH   1   2
BRANCH   1  13
ATOM     13  C   UNL     1      -8.287  -0.641   4.022  1.00  0.00     0.230 C 
BRANCH  13  14
ATOM     14  C   UNL     1      -7.091  -1.445   3.508  1.00  0.00     0.046 C 
BRANCH  14  15
ATOM     15  C   UNL     1      -6.640  -0.883   2.158  1.00  0.00     0.043 C 
BRANCH  15  16
ATOM     16  C   UNL     1      -5.135  -0.848   2.105  1.00  0.00    -0.004 A 
ATOM     17  C   UNL     1      -4.353   0.224   2.372  1.00  0.00     0.036 A 
ATOM     18  C   UNL     1      -4.298  -1.920   1.778  1.00  0.00     0.063 A 
ATOM     19  N   UNL     1      -3.067  -0.155   2.213  1.00  0.00    -0.282 N 
ATOM     20  N   UNL     1      -3.059  -1.504   1.835  1.00  0.00    -0.181 NA
ATOM     21  C   UNL     1      -4.832   1.594   2.775  1.00  0.00     0.066 C 
ATOM     22  C   UNL     1      -4.746  -3.312   1.411  1.00  0.00     0.069 C 
ATOM     23  H   UNL     1      -2.287   0.408   2.336  1.00  0.00     0.190 HD
ENDBRANCH  15  16
ENDBRANCH  14  15
ENDBRANCH  13  14
ENDBRANCH   1  13
TORSDOF 7
ENDMDL
MODEL 7
REMARK VINA RESULT:    -5.929      4.502      8.048
REMARK INTER + INTRA:          -8.780
REMARK INTER:                  -8.061
REMARK INTRA:                  -0.720
REMARK UNBOUND:                -0.599
REMARK SMILES Cc1n[nH]c(C)c1CCCOc1cc(C(=O)O)ccc1F
REMARK SMILES IDX 11 1 12 2 14 3 18 4 13 5 19 6 20 7 21 8 15 9 16 10 17 11
REMARK SMILES IDX 10 13 9 14 8 15 7 16 5 17 2 18 4 19 3 20 6 21 1 22
REMARK H PARENT 17 12 4 23
ROOT
ATOM      1  O   UNL     1      -9.492  -2.058   3.278  1.00  0.00    -0.490 OA
ENDROOT
BRANCH   1   2
ATOM      2  C   UNL     1     -10.662  -1.583   2.775  1.00  0.00     0.155 A 
ATOM      3  C   UNL     1     -12.673  -1.912   1.499  1.00  0.00     0.063 A 
ATOM      4  C   UNL     1     -13.053  -0.594   1.764  1.00  0.00     0.019 A 
ATOM      5  C   UNL     1     -11.470  -2.403   2.010  1.00  0.00     0.065 A 
ATOM      6  C   UNL     1     -12.243   0.215   2.533  1.00  0.00     0.044 A 
ATOM      7  C   UNL     1     -11.053  -0.275   3.043  1.00  0.00     0.165 A 
ATOM      8  F   UNL     1     -10.264   0.523   3.795  1.00  0.00    -0.203 F 
BRANCH   3   9
ATOM      9  C   UNL     1     -13.538  -2.781   0.677  1.00  0.00     0.335 C 
ATOM     10  O   UNL     1     -14.679  -3.007   1.024  1.00  0.00    -0.246 OA
BRANCH   9  11
ATOM     11  O   UNL     1     -13.062  -3.320  -0.464  1.00  0.00    -0.478 OA
ATOM     12  H   UNL     1     -13.000  -2.736  -1.233  1.00  0.00     0.297 HD
ENDBRANCH   9  11
ENDBRANCH   3   9
ENDBRANCH   1   2
BRANCH   1  13
ATOM     13  C   UNL     1      -8.460  -2.369   2.339  1.00  0.00     0.230 C 
BRANCH  13  14
ATOM     14  C   UNL     1      -7.451  -1.220   2.292  1.00  0.00     0.046 C 
BRANCH  14  15
ATOM     15  C   UNL     1      -6.308  -1.505   3.268  1.00  0.00     0.043 C 
BRANCH  15  16
ATOM     16  C   UNL     1      -4.993  -1.161   2.618  1.00  0.00    -0.004 A 
ATOM     17  C   UNL     1      -4.412   0.060   2.595  1.00  0.00     0.036 A 
ATOM     18  C   UNL     1      -4.155  -2.050   1.936  1.00  0.00     0.063 A 
ATOM     19  N   UNL     1      -3.250  -0.050   1.917  1.00  0.00    -0.282 N 
ATOM     20  N   UNL     1      -3.113  -1.383   1.510  1.00  0.00    -0.181 NA
ATOM     21  C   UNL     1      -4.962   1.318   3.216  1.00  0.00     0.066 C 
ATOM     22  C   UNL     1      -4.413  -3.519   1.719  1.00  0.00     0.069 C 
ATOM     23  H   UNL     1      -2.621   0.668   1.742  1.00  0.00     0.190 HD
ENDBRANCH  15  16
ENDBRANCH  14  15
ENDBRANCH  13  14
ENDBRANCH   1  13
TORSDOF 7
ENDMDL
MODEL 8
REMARK VINA RESULT:    -5.894      2.928      3.843
REMARK INTER + INTRA:          -8.732
REMARK INTER:                  -8.132
REMARK INTRA:                  -0.600
REMARK UNBOUND:                -0.599
REMARK SMILES Cc1n[nH]c(C)c1CCCOc1cc(C(=O)O)ccc1F
REMARK SMILES IDX 11 1 12 2 14 3 18 4 13 5 19 6 20 7 21 8 15 9 16 10 17 11
REMARK SMILES IDX 10 13 9 14 8 15 7 16 5 17 2 18 4 19 3 20 6 21 1 22
REMARK H PARENT 17 12 4 23
ROOT
ATOM      1  O   UNL     1      -8.507  -2.005   1.754  1.00  0.00    -0.490 OA
ENDROOT
BRANCH   1   2
ATOM      2  C   UNL     1      -7.244  -1.960   2.256  1.00  0.00     0.155 A 
ATOM      3  C   UNL     1      -4.956  -2.698   2.219  1.00  0.00     0.063 A 
ATOM      4  C   UNL     1      -4.668  -1.846   3.289  1.00  0.00     0.019 A 
ATOM      5  C   UNL     1      -6.253  -2.750   1.704  1.00  0.00     0.065 A 
ATOM      6  C   UNL     1      -5.662  -1.058   3.829  1.00  0.00     0.044 A 
ATOM      7  C   UNL     1      -6.947  -1.108   3.313  1.00  0.00     0.165 A 
ATOM      8  F   UNL     1      -7.916  -0.332   3.847  1.00  0.00    -0.203 F 
BRANCH   3   9
ATOM      9  C   UNL     1      -3.894  -3.543   1.638  1.00  0.00     0.335 C 
ATOM     10  O   UNL     1      -2.758  -3.464   2.057  1.00  0.00    -0.246 OA
BRANCH   9  11
ATOM     11  O   UNL     1      -4.188  -4.407   0.647  1.00  0.00    -0.478 OA
ATOM     12  H   UNL     1      -5.093  -4.748   0.615  1.00  0.00     0.297 HD
ENDBRANCH   9  11
ENDBRANCH   3   9
ENDBRANCH   1   2
BRANCH   1  13
ATOM     13  C   UNL     1      -9.487  -2.705   2.525  1.00  0.00     0.230 C 
BRANCH  13  14
ATOM     14  C   UNL     1     -10.829  -2.675   1.791  1.00  0.00     0.046 C 
BRANCH  14  15
ATOM     15  C   UNL     1     -11.888  -2.034   2.690  1.00  0.00     0.043 C 
BRANCH  15  16
ATOM     16  C   UNL     1     -12.683  -1.031   1.896  1.00  0.00    -0.004 A 
ATOM     17  C   UNL     1     -12.503   0.310   1.899  1.00  0.00     0.036 A 
ATOM     18  C   UNL     1     -13.733  -1.322   1.019  1.00  0.00     0.063 A 
ATOM     19  N   UNL     1     -13.412   0.850   1.059  1.00  0.00    -0.282 N 
ATOM     20  N   UNL     1     -14.176  -0.195   0.522  1.00  0.00    -0.181 NA
ATOM     21  C   UNL     1     -11.472   1.066   2.697  1.00  0.00     0.066 C 
ATOM     22  C   UNL     1     -14.272  -2.695   0.709  1.00  0.00     0.069 C 
ATOM     23  H   UNL     1     -13.518   1.793   0.863  1.00  0.00     0.190 HD
ENDBRANCH  15  16
ENDBRANCH  14  15
ENDBRANCH  13  14
ENDBRANCH   1  13
TORSDOF 7
ENDMDL
MODEL 9
REMARK VINA RESULT:    -5.782      4.580      7.900
REMARK INTER + INTRA:          -8.578
REMARK INTER:                  -7.760
REMARK INTRA:                  -0.818
REMARK UNBOUND:                -0.599
REMARK SMILES Cc1n[nH]c(C)c1CCCOc1cc(C(=O)O)ccc1F
REMARK SMILES IDX 11 1 12 2 14 3 18 4 13 5 19 6 20 7 21 8 15 9 16 10 17 11
REMARK SMILES IDX 10 13 9 14 8 15 7 16 5 17 2 18 4 19 3 20 6 21 1 22
REMARK H PARENT 17 12 4 23
ROOT
ATOM      1  O   UNL     1      -9.540  -1.785   2.565  1.00  0.00    -0.490 OA
ENDROOT
BRANCH   1   2
ATOM      2  C   UNL     1     -10.020  -2.021   3.814  1.00  0.00     0.155 A 
ATOM      3  C   UNL     1     -10.664  -3.559   5.548  1.00  0.00     0.063 A 
ATOM      4  C   UNL     1     -10.994  -2.482   6.375  1.00  0.00     0.019 A 
ATOM      5  C   UNL     1     -10.175  -3.320   4.262  1.00  0.00     0.065 A 
ATOM      6  C   UNL     1     -10.831  -1.190   5.922  1.00  0.00     0.044 A 
ATOM      7  C   UNL     1     -10.341  -0.956   4.648  1.00  0.00     0.165 A 
ATOM      8  F   UNL     1     -10.183   0.313   4.211  1.00  0.00    -0.203 F 
BRANCH   3   9
ATOM      9  C   UNL     1     -10.837  -4.943   6.029  1.00  0.00     0.335 C 
ATOM     10  O   UNL     1     -11.897  -5.292   6.507  1.00  0.00    -0.246 OA
BRANCH   9  11
ATOM     11  O   UNL     1      -9.820  -5.822   5.932  1.00  0.00    -0.478 OA
ATOM     12  H   UNL     1     -10.010  -6.668   5.502  1.00  0.00     0.297 HD
ENDBRANCH   9  11
ENDBRANCH   3   9
ENDBRANCH   1   2
BRANCH   1  13
ATOM     13  C   UNL     1      -8.187  -2.168   2.307  1.00  0.00     0.230 C 
BRANCH  13  14
ATOM     14  C   UNL     1      -7.282  -0.939   2.405  1.00  0.00     0.046 C 
BRANCH  14  15
ATOM     15  C   UNL     1      -6.101  -1.247   3.328  1.00  0.00     0.043 C 
BRANCH  15  16
ATOM     16  C   UNL     1      -4.811  -0.933   2.617  1.00  0.00    -0.004 A 
ATOM     17  C   UNL     1      -4.023  -1.822   1.968  1.00  0.00     0.036 A 
ATOM     18  C   UNL     1      -4.218   0.329   2.505  1.00  0.00     0.063 A 
ATOM     19  N   UNL     1      -2.966  -1.147   1.469  1.00  0.00    -0.282 N 
ATOM     20  N   UNL     1      -3.109   0.201   1.823  1.00  0.00    -0.181 NA
ATOM     21  C   UNL     1      -4.279  -3.299   1.828  1.00  0.00     0.066 C 
ATOM     22  C   UNL     1      -4.759   1.613   3.081  1.00  0.00     0.069 C 
ATOM     23  H   UNL     1      -2.236  -1.527   0.957  1.00  0.00     0.190 HD
ENDBRANCH  15  16
ENDBRANCH  14  15
ENDBRANCH  13  14
ENDBRANCH   1  13
TORSDOF 7
ENDMDL
