MODEL 1
REMARK VINA RESULT:    -4.456      0.000      0.000
REMARK INTER + INTRA:          -5.403
REMARK INTER:                  -5.108
REMARK INTRA:                  -0.295
REMARK UNBOUND:                -0.295
REMARK SMILES O=C(O)c1ccc2nc(-c3cc(Cl)cc(Cl)c3)oc2c1
REMARK SMILES IDX 5 1 6 2 20 3 8 4 18 5 4 6 9 7 7 8 19 9 2 10 1 11 3 12 10 14
REMARK SMILES IDX 11 15 17 16 12 17 15 18 14 19 13 20 16 21
REMARK H PARENT 3 13
ROOT
ATOM      1  C   UNL     1     -10.235  -9.704  -5.303  1.00  0.00     0.018 A 
ATOM      2  C   UNL     1      -9.064  -9.023  -5.453  1.00  0.00     0.033 A 
ATOM      3  C   UNL     1     -10.630  -8.605  -3.178  1.00  0.00     0.065 A 
ATOM      4  N   UNL     1      -7.568  -7.319  -4.338  1.00  0.00    -0.209 NA
ATOM      5  O   UNL     1      -8.791  -7.003  -2.567  1.00  0.00    -0.436 OA
ATOM      6  C   UNL     1     -11.032  -9.504  -4.168  1.00  0.00     0.063 A 
ATOM      7  C   UNL     1      -7.659  -6.660  -3.210  1.00  0.00     0.227 A 
ATOM      8  C   UNL     1      -8.649  -8.119  -4.468  1.00  0.00     0.110 A 
ATOM      9  C   UNL     1      -9.441  -7.916  -3.324  1.00  0.00     0.156 A 
ENDROOT
BRANCH   6  10
ATOM     10  C   UNL     1     -12.300 -10.242  -4.020  1.00  0.00     0.335 C 
ATOM     11  O   UNL     1     -12.903 -10.208  -2.966  1.00  0.00    -0.246 OA
BRANCH  10  12
ATOM     12  O   UNL     1     -12.789 -10.956  -5.053  1.00  0.00    -0.478 OA
ATOM     13  H   UNL     1     -13.401 -11.673  -4.840  1.00  0.00     0.297 HD
ENDBRANCH  10  12
ENDBRANCH   6  10
BRANCH   7  14
ATOM     14  C   UNL     1      -6.665  -5.686  -2.716  1.00  0.00     0.040 A 
ATOM     15  C   UNL     1      -5.872  -4.974  -3.617  1.00  0.00     0.034 A 
ATOM     16  C   UNL     1      -6.514  -5.473  -1.344  1.00  0.00     0.034 A 
ATOM     17  C   UNL     1      -4.946  -4.064  -3.149  1.00  0.00     0.043 A 
ATOM     18  C   UNL     1      -5.584  -4.561  -0.888  1.00  0.00     0.043 A 
ATOM     19  C   UNL     1      -4.801  -3.858  -1.787  1.00  0.00     0.041 A 
ATOM     20  Cl  UNL     1      -3.959  -3.177  -4.269  1.00  0.00    -0.084 Cl
ATOM     21  Cl  UNL     1      -5.395  -4.295   0.818  1.00  0.00    -0.084 Cl
ENDBRANCH   7  14
TORSDOF 3
ENDMDL
MODEL 2
REMARK VINA RESULT:    -4.451      0.027      2.020
REMARK INTER + INTRA:          -5.397
REMARK INTER:                  -5.101
REMARK INTRA:                  -0.296
REMARK UNBOUND:                -0.295
REMARK SMILES O=C(O)c1ccc2nc(-c3cc(Cl)cc(Cl)c3)oc2c1
REMARK SMILES IDX 5 1 6 2 20 3 8 4 18 5 4 6 9 7 7 8 19 9 2 10 1 11 3 12 10 14
REMARK SMILES IDX 11 15 17 16 12 17 15 18 14 19 13 20 16 21
REMARK H PARENT 3 13
ROOT
ATOM      1  C   UNL     1     -10.241  -9.720  -5.283  1.00  0.00     0.018 A 
ATOM      2  C   UNL     1      -9.072  -9.036  -5.433  1.00  0.00     0.033 A 
ATOM      3  C   UNL     1     -10.638  -8.620  -3.158  1.00  0.00     0.065 A 
ATOM      4  N   UNL     1      -7.579  -7.330  -4.320  1.00  0.00    -0.209 NA
ATOM      5  O   UNL     1      -8.801  -7.015  -2.548  1.00  0.00    -0.436 OA
ATOM      6  C   UNL     1     -11.039  -9.520  -4.147  1.00  0.00     0.063 A 
ATOM      7  C   UNL     1      -7.670  -6.671  -3.192  1.00  0.00     0.227 A 
ATOM      8  C   UNL     1      -8.658  -8.131  -4.449  1.00  0.00     0.110 A 
ATOM      9  C   UNL     1      -9.449  -7.929  -3.304  1.00  0.00     0.156 A 
ENDROOT
BRANCH   6  10
ATOM     10  C   UNL     1     -12.305 -10.260  -3.998  1.00  0.00     0.335 C 
ATOM     11  O   UNL     1     -12.915 -10.214  -2.949  1.00  0.00    -0.246 OA
BRANCH  10  12
ATOM     12  O   UNL     1     -12.785 -10.989  -5.025  1.00  0.00    -0.478 OA
ATOM     13  H   UNL     1     -12.493 -10.743  -5.913  1.00  0.00     0.297 HD
ENDBRANCH  10  12
ENDBRANCH   6  10
BRANCH   7  14
ATOM     14  C   UNL     1      -6.677  -5.694  -2.699  1.00  0.00     0.040 A 
ATOM     15  C   UNL     1      -6.535  -5.470  -1.329  1.00  0.00     0.034 A 
ATOM     16  C   UNL     1      -5.878  -4.991  -3.602  1.00  0.00     0.034 A 
ATOM     17  C   UNL     1      -5.604  -4.556  -0.874  1.00  0.00     0.043 A 
ATOM     18  C   UNL     1      -4.951  -4.080  -3.136  1.00  0.00     0.043 A 
ATOM     19  C   UNL     1      -4.815  -3.862  -1.775  1.00  0.00     0.041 A 
ATOM     20  Cl  UNL     1      -5.425  -4.276   0.829  1.00  0.00    -0.084 Cl
ATOM     21  Cl  UNL     1      -3.956  -3.205  -4.257  1.00  0.00    -0.084 Cl
ENDBRANCH   7  14
TORSDOF 3
ENDMDL
MODEL 3
REMARK VINA RESULT:    -4.450      1.767      3.162
REMARK INTER + INTRA:          -5.396
REMARK INTER:                  -5.101
REMARK INTRA:                  -0.296
REMARK UNBOUND:                -0.295
REMARK SMILES O=C(O)c1ccc2nc(-c3cc(Cl)cc(Cl)c3)oc2c1
REMARK SMILES IDX 5 1 6 2 20 3 8 4 18 5 4 6 9 7 7 8 19 9 2 10 1 11 3 12 10 14
REMARK SMILES IDX 11 15 17 16 12 17 15 18 14 19 13 20 16 21
REMARK H PARENT 3 13
ROOT
ATOM      1  C   UNL     1     -10.362  -9.647  -5.245  1.00  0.00     0.018 A 
ATOM      2  C   UNL     1     -10.136  -8.903  -4.125  1.00  0.00     0.033 A 
ATOM      3  C   UNL     1      -8.222  -8.965  -6.159  1.00  0.00     0.065 A 
ATOM      4  N   UNL     1      -8.455  -7.365  -3.035  1.00  0.00    -0.209 NA
ATOM      5  O   UNL     1      -6.972  -7.414  -4.625  1.00  0.00    -0.436 OA
ATOM      6  C   UNL     1      -9.410  -9.690  -6.273  1.00  0.00     0.063 A 
ATOM      7  C   UNL     1      -7.283  -6.920  -3.412  1.00  0.00     0.227 A 
ATOM      8  C   UNL     1      -8.949  -8.172  -3.998  1.00  0.00     0.110 A 
ATOM      9  C   UNL     1      -7.991  -8.205  -5.027  1.00  0.00     0.156 A 
ENDROOT
BRANCH   6  10
ATOM     10  C   UNL     1      -9.663 -10.503  -7.476  1.00  0.00     0.335 C 
ATOM     11  O   UNL     1      -8.937 -10.396  -8.444  1.00  0.00    -0.246 OA
BRANCH  10  12
ATOM     12  O   UNL     1     -10.699 -11.364  -7.503  1.00  0.00    -0.478 OA
ATOM     13  H   UNL     1     -10.488 -12.303  -7.594  1.00  0.00     0.297 HD
ENDBRANCH  10  12
ENDBRANCH   6  10
BRANCH   7  14
ATOM     14  C   UNL     1      -6.429  -6.008  -2.623  1.00  0.00     0.040 A 
ATOM     15  C   UNL     1      -6.521  -5.990  -1.231  1.00  0.00     0.034 A 
ATOM     16  C   UNL     1      -5.526  -5.160  -3.269  1.00  0.00     0.034 A 
ATOM     17  C   UNL     1      -5.719  -5.136  -0.500  1.00  0.00     0.043 A 
ATOM     18  C   UNL     1      -4.730  -4.311  -2.526  1.00  0.00     0.043 A 
ATOM     19  C   UNL     1      -4.826  -4.298  -1.145  1.00  0.00     0.041 A 
ATOM     20  Cl  UNL     1      -5.832  -5.112   1.232  1.00  0.00    -0.084 Cl
ATOM     21  Cl  UNL     1      -3.607  -3.256  -3.327  1.00  0.00    -0.084 Cl
ENDBRANCH   7  14
TORSDOF 3
ENDMDL
MODEL 4
REMARK VINA RESULT:    -4.450      1.767      2.453
REMARK INTER + INTRA:          -5.396
REMARK INTER:                  -5.100
REMARK INTRA:                  -0.296
REMARK UNBOUND:                -0.295
REMARK SMILES O=C(O)c1ccc2nc(-c3cc(Cl)cc(Cl)c3)oc2c1
REMARK SMILES IDX 5 1 6 2 20 3 8 4 18 5 4 6 9 7 7 8 19 9 2 10 1 11 3 12 10 14
REMARK SMILES IDX 11 15 17 16 12 17 15 18 14 19 13 20 16 21
REMARK H PARENT 3 13
ROOT
ATOM      1  C   UNL     1     -10.363  -9.648  -5.244  1.00  0.00     0.018 A 
ATOM      2  C   UNL     1     -10.136  -8.904  -4.125  1.00  0.00     0.033 A 
ATOM      3  C   UNL     1      -8.223  -8.966  -6.160  1.00  0.00     0.065 A 
ATOM      4  N   UNL     1      -8.455  -7.366  -3.035  1.00  0.00    -0.209 NA
ATOM      5  O   UNL     1      -6.972  -7.415  -4.627  1.00  0.00    -0.436 OA
ATOM      6  C   UNL     1      -9.411  -9.690  -6.273  1.00  0.00     0.063 A 
ATOM      7  C   UNL     1      -7.282  -6.920  -3.414  1.00  0.00     0.227 A 
ATOM      8  C   UNL     1      -8.949  -8.173  -3.999  1.00  0.00     0.110 A 
ATOM      9  C   UNL     1      -7.992  -8.206  -5.028  1.00  0.00     0.156 A 
ENDROOT
BRANCH   6  10
ATOM     10  C   UNL     1      -9.665 -10.503  -7.476  1.00  0.00     0.335 C 
ATOM     11  O   UNL     1      -8.940 -10.395  -8.446  1.00  0.00    -0.246 OA
BRANCH  10  12
ATOM     12  O   UNL     1     -10.700 -11.365  -7.502  1.00  0.00    -0.478 OA
ATOM     13  H   UNL     1     -11.221 -11.402  -8.316  1.00  0.00     0.297 HD
ENDBRANCH  10  12
ENDBRANCH   6  10
BRANCH   7  14
ATOM     14  C   UNL     1      -6.428  -6.009  -2.625  1.00  0.00     0.040 A 
ATOM     15  C   UNL     1      -5.525  -5.162  -3.269  1.00  0.00     0.034 A 
ATOM     16  C   UNL     1      -6.520  -5.993  -1.232  1.00  0.00     0.034 A 
ATOM     17  C   UNL     1      -4.730  -4.311  -2.526  1.00  0.00     0.043 A 
ATOM     18  C   UNL     1      -5.720  -5.138  -0.500  1.00  0.00     0.043 A 
ATOM     19  C   UNL     1      -4.826  -4.300  -1.144  1.00  0.00     0.041 A 
ATOM     20  Cl  UNL     1      -3.607  -3.256  -3.324  1.00  0.00    -0.084 Cl
ATOM     21  Cl  UNL     1      -5.833  -5.116   1.233  1.00  0.00    -0.084 Cl
ENDBRANCH   7  14
TORSDOF 3
ENDMDL
MODEL 5
REMARK VINA RESULT:    -4.289      5.160      6.628
REMARK INTER + INTRA:          -5.211
REMARK INTER:                  -4.928
REMARK INTRA:                  -0.284
REMARK UNBOUND:                -0.295
REMARK SMILES O=C(O)c1ccc2nc(-c3cc(Cl)cc(Cl)c3)oc2c1
REMARK SMILES IDX 5 1 6 2 20 3 8 4 18 5 4 6 9 7 7 8 19 9 2 10 1 11 3 12 10 14
REMARK SMILES IDX 11 15 17 16 12 17 15 18 14 19 13 20 16 21
REMARK H PARENT 3 13
ROOT
ATOM      1  C   UNL     1      -8.767 -13.021  -9.972  1.00  0.00     0.018 A 
ATOM      2  C   UNL     1      -9.571 -12.224  -9.214  1.00  0.00     0.033 A 
ATOM      3  C   UNL     1      -6.822 -12.289  -8.723  1.00  0.00     0.065 A 
ATOM      4  N   UNL     1      -9.544 -10.574  -7.300  1.00  0.00    -0.209 NA
ATOM      5  O   UNL     1      -7.402 -10.627  -6.927  1.00  0.00    -0.436 OA
ATOM      6  C   UNL     1      -7.386 -13.066  -9.736  1.00  0.00     0.063 A 
ATOM      7  C   UNL     1      -8.581 -10.097  -6.552  1.00  0.00     0.227 A 
ATOM      8  C   UNL     1      -9.019 -11.439  -8.194  1.00  0.00     0.110 A 
ATOM      9  C   UNL     1      -7.634 -11.475  -7.954  1.00  0.00     0.156 A 
ENDROOT
BRANCH   6  10
ATOM     10  C   UNL     1      -6.528 -13.937 -10.559  1.00  0.00     0.335 C 
ATOM     11  O   UNL     1      -6.393 -15.108 -10.267  1.00  0.00    -0.246 OA
BRANCH  10  12
ATOM     12  O   UNL     1      -5.891 -13.434 -11.635  1.00  0.00    -0.478 OA
ATOM     13  H   UNL     1      -5.062 -12.964 -11.475  1.00  0.00     0.297 HD
ENDBRANCH  10  12
ENDBRANCH   6  10
BRANCH   7  14
ATOM     14  C   UNL     1      -8.762  -9.120  -5.459  1.00  0.00     0.040 A 
ATOM     15  C   UNL     1      -7.768  -8.179  -5.187  1.00  0.00     0.034 A 
ATOM     16  C   UNL     1      -9.930  -9.134  -4.693  1.00  0.00     0.034 A 
ATOM     17  C   UNL     1      -7.944  -7.268  -4.165  1.00  0.00     0.043 A 
ATOM     18  C   UNL     1     -10.094  -8.218  -3.673  1.00  0.00     0.043 A 
ATOM     19  C   UNL     1      -9.104  -7.288  -3.409  1.00  0.00     0.041 A 
ATOM     20  Cl  UNL     1      -6.708  -6.097  -3.825  1.00  0.00    -0.084 Cl
ATOM     21  Cl  UNL     1     -11.545  -8.234  -2.720  1.00  0.00    -0.084 Cl
ENDBRANCH   7  14
TORSDOF 3
ENDMDL
MODEL 6
REMARK VINA RESULT:    -4.286      5.164      6.791
REMARK INTER + INTRA:          -5.208
REMARK INTER:                  -4.924
REMARK INTRA:                  -0.284
REMARK UNBOUND:                -0.295
REMARK SMILES O=C(O)c1ccc2nc(-c3cc(Cl)cc(Cl)c3)oc2c1
REMARK SMILES IDX 5 1 6 2 20 3 8 4 18 5 4 6 9 7 7 8 19 9 2 10 1 11 3 12 10 14
REMARK SMILES IDX 11 15 17 16 12 17 15 18 14 19 13 20 16 21
REMARK H PARENT 3 13
ROOT
ATOM      1  C   UNL     1      -8.755 -13.024  -9.976  1.00  0.00     0.018 A 
ATOM      2  C   UNL     1      -9.563 -12.226  -9.223  1.00  0.00     0.033 A 
ATOM      3  C   UNL     1      -6.818 -12.294  -8.713  1.00  0.00     0.065 A 
ATOM      4  N   UNL     1      -9.549 -10.577  -7.310  1.00  0.00    -0.209 NA
ATOM      5  O   UNL     1      -7.409 -10.632  -6.922  1.00  0.00    -0.436 OA
ATOM      6  C   UNL     1      -7.376 -13.071  -9.730  1.00  0.00     0.063 A 
ATOM      7  C   UNL     1      -8.590 -10.100  -6.555  1.00  0.00     0.227 A 
ATOM      8  C   UNL     1      -9.017 -11.442  -8.200  1.00  0.00     0.110 A 
ATOM      9  C   UNL     1      -7.634 -11.479  -7.950  1.00  0.00     0.156 A 
ENDROOT
BRANCH   6  10
ATOM     10  C   UNL     1      -6.512 -13.942 -10.547  1.00  0.00     0.335 C 
ATOM     11  O   UNL     1      -6.315 -15.092 -10.208  1.00  0.00    -0.246 OA
BRANCH  10  12
ATOM     12  O   UNL     1      -5.940 -13.464 -11.670  1.00  0.00    -0.478 OA
ATOM     13  H   UNL     1      -6.268 -12.619 -12.005  1.00  0.00     0.297 HD
ENDBRANCH  10  12
ENDBRANCH   6  10
BRANCH   7  14
ATOM     14  C   UNL     1      -8.778  -9.122  -5.464  1.00  0.00     0.040 A 
ATOM     15  C   UNL     1      -9.945  -9.142  -4.698  1.00  0.00     0.034 A 
ATOM     16  C   UNL     1      -7.789  -8.175  -5.194  1.00  0.00     0.034 A 
ATOM     17  C   UNL     1     -10.114  -8.226  -3.679  1.00  0.00     0.043 A 
ATOM     18  C   UNL     1      -7.970  -7.264  -4.172  1.00  0.00     0.043 A 
ATOM     19  C   UNL     1      -9.129  -7.289  -3.417  1.00  0.00     0.041 A 
ATOM     20  Cl  UNL     1     -11.564  -8.249  -2.725  1.00  0.00    -0.084 Cl
ATOM     21  Cl  UNL     1      -6.741  -6.085  -3.835  1.00  0.00    -0.084 Cl
ENDBRANCH   7  14
TORSDOF 3
ENDMDL
MODEL 7
REMARK VINA RESULT:    -4.244      3.744      7.654
REMARK INTER + INTRA:          -5.160
REMARK INTER:                  -4.863
REMARK INTRA:                  -0.298
REMARK UNBOUND:                -0.295
REMARK SMILES O=C(O)c1ccc2nc(-c3cc(Cl)cc(Cl)c3)oc2c1
REMARK SMILES IDX 5 1 6 2 20 3 8 4 18 5 4 6 9 7 7 8 19 9 2 10 1 11 3 12 10 14
REMARK SMILES IDX 11 15 17 16 12 17 15 18 14 19 13 20 16 21
REMARK H PARENT 3 13
ROOT
ATOM      1  C   UNL     1      -4.471  -4.154  -2.573  1.00  0.00     0.018 A 
ATOM      2  C   UNL     1      -4.917  -4.926  -3.603  1.00  0.00     0.033 A 
ATOM      3  C   UNL     1      -6.294  -4.925  -1.173  1.00  0.00     0.065 A 
ATOM      4  N   UNL     1      -6.730  -6.559  -4.257  1.00  0.00    -0.209 NA
ATOM      5  O   UNL     1      -7.800  -6.549  -2.363  1.00  0.00    -0.436 OA
ATOM      6  C   UNL     1      -5.150  -4.144  -1.347  1.00  0.00     0.063 A 
ATOM      7  C   UNL     1      -7.758  -7.051  -3.611  1.00  0.00     0.227 A 
ATOM      8  C   UNL     1      -6.064  -5.714  -3.442  1.00  0.00     0.110 A 
ATOM      9  C   UNL     1      -6.754  -5.706  -2.217  1.00  0.00     0.156 A 
ENDROOT
BRANCH   6  10
ATOM     10  C   UNL     1      -4.654  -3.309  -0.238  1.00  0.00     0.335 C 
ATOM     11  O   UNL     1      -3.683  -2.598  -0.400  1.00  0.00    -0.246 OA
BRANCH  10  12
ATOM     12  O   UNL     1      -5.277  -3.336   0.957  1.00  0.00    -0.478 OA
ATOM     13  H   UNL     1      -6.106  -2.844   1.031  1.00  0.00     0.297 HD
ENDBRANCH  10  12
ENDBRANCH   6  10
BRANCH   7  14
ATOM     14  C   UNL     1      -8.729  -8.014  -4.171  1.00  0.00     0.040 A 
ATOM     15  C   UNL     1      -9.913  -8.295  -3.488  1.00  0.00     0.034 A 
ATOM     16  C   UNL     1      -8.464  -8.649  -5.387  1.00  0.00     0.034 A 
ATOM     17  C   UNL     1     -10.816  -9.195  -4.017  1.00  0.00     0.043 A 
ATOM     18  C   UNL     1      -9.375  -9.547  -5.906  1.00  0.00     0.043 A 
ATOM     19  C   UNL     1     -10.547  -9.820  -5.223  1.00  0.00     0.041 A 
ATOM     20  Cl  UNL     1     -12.289  -9.544  -3.169  1.00  0.00    -0.084 Cl
ATOM     21  Cl  UNL     1      -9.048 -10.337  -7.417  1.00  0.00    -0.084 Cl
ENDBRANCH   7  14
TORSDOF 3
ENDMDL
MODEL 8
REMARK VINA RESULT:    -4.244      3.744      7.419
REMARK INTER + INTRA:          -5.159
REMARK INTER:                  -4.862
REMARK INTRA:                  -0.298
REMARK UNBOUND:                -0.295
REMARK SMILES O=C(O)c1ccc2nc(-c3cc(Cl)cc(Cl)c3)oc2c1
REMARK SMILES IDX 5 1 6 2 20 3 8 4 18 5 4 6 9 7 7 8 19 9 2 10 1 11 3 12 10 14
REMARK SMILES IDX 11 15 17 16 12 17 15 18 14 19 13 20 16 21
REMARK H PARENT 3 13
ROOT
ATOM      1  C   UNL     1      -4.457  -4.146  -2.581  1.00  0.00     0.018 A 
ATOM      2  C   UNL     1      -4.901  -4.914  -3.615  1.00  0.00     0.033 A 
ATOM      3  C   UNL     1      -6.277  -4.932  -1.184  1.00  0.00     0.065 A 
ATOM      4  N   UNL     1      -6.708  -6.551  -4.277  1.00  0.00    -0.209 NA
ATOM      5  O   UNL     1      -7.777  -6.555  -2.382  1.00  0.00    -0.436 OA
ATOM      6  C   UNL     1      -5.136  -4.145  -1.354  1.00  0.00     0.063 A 
ATOM      7  C   UNL     1      -7.733  -7.051  -3.633  1.00  0.00     0.227 A 
ATOM      8  C   UNL     1      -6.044  -5.708  -3.457  1.00  0.00     0.110 A 
ATOM      9  C   UNL     1      -6.733  -5.709  -2.232  1.00  0.00     0.156 A 
ENDROOT
BRANCH   6  10
ATOM     10  C   UNL     1      -4.643  -3.315  -0.241  1.00  0.00     0.335 C 
ATOM     11  O   UNL     1      -3.667  -2.608  -0.396  1.00  0.00    -0.246 OA
BRANCH  10  12
ATOM     12  O   UNL     1      -5.274  -3.339   0.950  1.00  0.00    -0.478 OA
ATOM     13  H   UNL     1      -6.126  -3.793   0.986  1.00  0.00     0.297 HD
ENDBRANCH  10  12
ENDBRANCH   6  10
BRANCH   7  14
ATOM     14  C   UNL     1      -8.700  -8.015  -4.198  1.00  0.00     0.040 A 
ATOM     15  C   UNL     1      -8.438  -8.637  -5.419  1.00  0.00     0.034 A 
ATOM     16  C   UNL     1      -9.881  -8.306  -3.511  1.00  0.00     0.034 A 
ATOM     17  C   UNL     1      -9.345  -9.538  -5.940  1.00  0.00     0.043 A 
ATOM     18  C   UNL     1     -10.780  -9.208  -4.043  1.00  0.00     0.043 A 
ATOM     19  C   UNL     1     -10.514  -9.822  -5.255  1.00  0.00     0.041 A 
ATOM     20  Cl  UNL     1      -9.020 -10.314  -7.459  1.00  0.00    -0.084 Cl
ATOM     21  Cl  UNL     1     -12.249  -9.572  -3.192  1.00  0.00    -0.084 Cl
ENDBRANCH   7  14
TORSDOF 3
ENDMDL
MODEL 9
REMARK VINA RESULT:    -4.141      4.000      7.352
REMARK INTER + INTRA:          -5.041
REMARK INTER:                  -4.755
REMARK INTRA:                  -0.286
REMARK UNBOUND:                -0.295
REMARK SMILES O=C(O)c1ccc2nc(-c3cc(Cl)cc(Cl)c3)oc2c1
REMARK SMILES IDX 5 1 6 2 20 3 8 4 18 5 4 6 9 7 7 8 19 9 2 10 1 11 3 12 10 14
REMARK SMILES IDX 11 15 17 16 12 17 15 18 14 19 13 20 16 21
REMARK H PARENT 3 13
ROOT
ATOM      1  C   UNL     1      -6.664  -4.171  -1.348  1.00  0.00     0.018 A 
ATOM      2  C   UNL     1      -7.214  -4.433  -2.567  1.00  0.00     0.033 A 
ATOM      3  C   UNL     1      -6.429  -6.546  -0.917  1.00  0.00     0.065 A 
ATOM      4  N   UNL     1      -7.889  -6.317  -4.109  1.00  0.00    -0.209 NA
ATOM      5  O   UNL     1      -7.279  -7.957  -2.816  1.00  0.00    -0.436 OA
ATOM      6  C   UNL     1      -6.263  -5.221  -0.510  1.00  0.00     0.063 A 
ATOM      7  C   UNL     1      -7.822  -7.621  -4.002  1.00  0.00     0.227 A 
ATOM      8  C   UNL     1      -7.387  -5.758  -2.988  1.00  0.00     0.110 A 
ATOM      9  C   UNL     1      -6.992  -6.816  -2.151  1.00  0.00     0.156 A 
ENDROOT
BRANCH   6  10
ATOM     10  C   UNL     1      -5.663  -4.925   0.804  1.00  0.00     0.335 C 
ATOM     11  O   UNL     1      -5.686  -3.792   1.240  1.00  0.00    -0.246 OA
BRANCH  10  12
ATOM     12  O   UNL     1      -5.089  -5.912   1.521  1.00  0.00    -0.478 OA
ATOM     13  H   UNL     1      -5.635  -6.343   2.191  1.00  0.00     0.297 HD
ENDBRANCH  10  12
ENDBRANCH   6  10
BRANCH   7  14
ATOM     14  C   UNL     1      -8.276  -8.580  -5.030  1.00  0.00     0.040 A 
ATOM     15  C   UNL     1      -9.572  -9.095  -4.984  1.00  0.00     0.034 A 
ATOM     16  C   UNL     1      -7.409  -8.975  -6.050  1.00  0.00     0.034 A 
ATOM     17  C   UNL     1      -9.990  -9.991  -5.949  1.00  0.00     0.043 A 
ATOM     18  C   UNL     1      -7.838  -9.871  -7.009  1.00  0.00     0.043 A 
ATOM     19  C   UNL     1      -9.125 -10.379  -6.958  1.00  0.00     0.041 A 
ATOM     20  Cl  UNL     1     -11.602 -10.632  -5.895  1.00  0.00    -0.084 Cl
ATOM     21  Cl  UNL     1      -6.762 -10.364  -8.279  1.00  0.00    -0.084 Cl
ENDBRANCH   7  14
TORSDOF 3
ENDMDL
