MODEL 1
REMARK VINA RESULT:    -5.822      0.000      0.000
REMARK INTER + INTRA:          -8.538
REMARK INTER:                  -8.034
REMARK INTRA:                  -0.504
REMARK UNBOUND:                -0.504
REMARK SMILES Cc1n[nH]c(C)c1CCCOc1cc(C(=O)O)ccc1F
REMARK SMILES IDX 11 1 12 2 14 3 18 4 13 5 19 6 20 7 21 8 15 9 16 10 17 11
REMARK SMILES IDX 10 13 9 14 8 15 7 16 5 17 2 18 4 19 3 20 6 21 1 22
REMARK H PARENT 17 12 4 23
ROOT
ATOM      1  O   UNL     1      -7.768  -4.228  -3.714  1.00  0.00    -0.490 OA
ENDROOT
BRANCH   1   2
ATOM      2  C   UNL     1      -6.718  -4.268  -2.851  1.00  0.00     0.155 A 
ATOM      3  C   UNL     1      -5.808  -4.826  -0.696  1.00  0.00     0.063 A 
ATOM      4  C   UNL     1      -4.559  -4.350  -1.105  1.00  0.00     0.019 A 
ATOM      5  C   UNL     1      -6.889  -4.782  -1.579  1.00  0.00     0.065 A 
ATOM      6  C   UNL     1      -4.397  -3.845  -2.378  1.00  0.00     0.044 A 
ATOM      7  C   UNL     1      -5.470  -3.807  -3.253  1.00  0.00     0.165 A 
ATOM      8  F   UNL     1      -5.304  -3.310  -4.499  1.00  0.00    -0.203 F 
BRANCH   3   9
ATOM      9  C   UNL     1      -5.985  -5.368   0.665  1.00  0.00     0.335 C 
ATOM     10  O   UNL     1      -7.093  -5.428   1.156  1.00  0.00    -0.246 OA
BRANCH   9  11
ATOM     11  O   UNL     1      -4.916  -5.803   1.361  1.00  0.00    -0.478 OA
ATOM     12  H   UNL     1      -4.540  -5.196   2.014  1.00  0.00     0.297 HD
ENDBRANCH   9  11
ENDBRANCH   3   9
ENDBRANCH   1   2
BRANCH   1  13
ATOM     13  C   UNL     1      -7.664  -5.024  -4.898  1.00  0.00     0.230 C 
BRANCH  13  14
ATOM     14  C   UNL     1      -8.802  -6.045  -4.925  1.00  0.00     0.046 C 
BRANCH  14  15
ATOM     15  C   UNL     1      -8.319  -7.364  -4.318  1.00  0.00     0.043 C 
BRANCH  15  16
ATOM     16  C   UNL     1      -9.190  -8.492  -4.807  1.00  0.00    -0.004 A 
ATOM     17  C   UNL     1     -10.337  -8.920  -4.230  1.00  0.00     0.036 A 
ATOM     18  C   UNL     1      -8.960  -9.279  -5.940  1.00  0.00     0.063 A 
ATOM     19  N   UNL     1     -10.812  -9.945  -4.968  1.00  0.00    -0.282 N 
ATOM     20  N   UNL     1      -9.927 -10.154  -6.034  1.00  0.00    -0.181 NA
ATOM     21  C   UNL     1     -10.970  -8.353  -2.986  1.00  0.00     0.066 C 
ATOM     22  C   UNL     1      -7.791  -9.149  -6.884  1.00  0.00     0.069 C 
ATOM     23  H   UNL     1     -11.622 -10.448  -4.792  1.00  0.00     0.190 HD
ENDBRANCH  15  16
ENDBRANCH  14  15
ENDBRANCH  13  14
ENDBRANCH   1  13
TORSDOF 7
ENDMDL
MODEL 2
REMARK VINA RESULT:    -5.800      2.157      3.751
REMARK INTER + INTRA:          -8.508
REMARK INTER:                  -7.839
REMARK INTRA:                  -0.669
REMARK UNBOUND:                -0.504
REMARK SMILES Cc1n[nH]c(C)c1CCCOc1cc(C(=O)O)ccc1F
REMARK SMILES IDX 11 1 12 2 14 3 18 4 13 5 19 6 20 7 21 8 15 9 16 10 17 11
REMARK SMILES IDX 10 13 9 14 8 15 7 16 5 17 2 18 4 19 3 20 6 21 1 22
REMARK H PARENT 17 12 4 23
ROOT
ATOM      1  O   UNL     1      -7.269  -6.718  -1.759  1.00  0.00    -0.490 OA
ENDROOT
BRANCH   1   2
ATOM      2  C   UNL     1      -6.355  -5.711  -1.731  1.00  0.00     0.155 A 
ATOM      3  C   UNL     1      -4.975  -4.112  -2.881  1.00  0.00     0.063 A 
ATOM      4  C   UNL     1      -4.496  -3.648  -1.653  1.00  0.00     0.019 A 
ATOM      5  C   UNL     1      -5.910  -5.150  -2.913  1.00  0.00     0.065 A 
ATOM      6  C   UNL     1      -4.951  -4.211  -0.479  1.00  0.00     0.044 A 
ATOM      7  C   UNL     1      -5.882  -5.236  -0.513  1.00  0.00     0.165 A 
ATOM      8  F   UNL     1      -6.323  -5.783   0.641  1.00  0.00    -0.203 F 
BRANCH   3   9
ATOM      9  C   UNL     1      -4.491  -3.512  -4.139  1.00  0.00     0.335 C 
ATOM     10  O   UNL     1      -4.000  -4.216  -4.998  1.00  0.00    -0.246 OA
BRANCH   9  11
ATOM     11  O   UNL     1      -4.600  -2.184  -4.337  1.00  0.00    -0.478 OA
ATOM     12  H   UNL     1      -3.804  -1.652  -4.198  1.00  0.00     0.297 HD
ENDBRANCH   9  11
ENDBRANCH   3   9
ENDBRANCH   1   2
BRANCH   1  13
ATOM     13  C   UNL     1      -6.766  -8.045  -1.935  1.00  0.00     0.230 C 
BRANCH  13  14
ATOM     14  C   UNL     1      -7.810  -8.892  -2.664  1.00  0.00     0.046 C 
BRANCH  14  15
ATOM     15  C   UNL     1      -8.613  -8.004  -3.617  1.00  0.00     0.043 C 
BRANCH  15  16
ATOM     16  C   UNL     1      -9.545  -8.858  -4.437  1.00  0.00    -0.004 A 
ATOM     17  C   UNL     1      -9.274  -9.395  -5.649  1.00  0.00     0.036 A 
ATOM     18  C   UNL     1     -10.841  -9.241  -4.076  1.00  0.00     0.063 A 
ATOM     19  N   UNL     1     -10.363 -10.088  -6.044  1.00  0.00    -0.282 N 
ATOM     20  N   UNL     1     -11.335  -9.972  -5.042  1.00  0.00    -0.181 NA
ATOM     21  C   UNL     1      -7.988  -9.247  -6.418  1.00  0.00     0.066 C 
ATOM     22  C   UNL     1     -11.552  -8.865  -2.801  1.00  0.00     0.069 C 
ATOM     23  H   UNL     1     -10.456 -10.579  -6.875  1.00  0.00     0.190 HD
ENDBRANCH  15  16
ENDBRANCH  14  15
ENDBRANCH  13  14
ENDBRANCH   1  13
TORSDOF 7
ENDMDL
MODEL 3
REMARK VINA RESULT:    -5.717      2.297      3.444
REMARK INTER + INTRA:          -8.394
REMARK INTER:                  -7.791
REMARK INTRA:                  -0.603
REMARK UNBOUND:                -0.504
REMARK SMILES Cc1n[nH]c(C)c1CCCOc1cc(C(=O)O)ccc1F
REMARK SMILES IDX 11 1 12 2 14 3 18 4 13 5 19 6 20 7 21 8 15 9 16 10 17 11
REMARK SMILES IDX 10 13 9 14 8 15 7 16 5 17 2 18 4 19 3 20 6 21 1 22
REMARK H PARENT 17 12 4 23
ROOT
ATOM      1  O   UNL     1      -5.711  -7.665  -1.798  1.00  0.00    -0.490 OA
ENDROOT
BRANCH   1   2
ATOM      2  C   UNL     1      -5.418  -6.338  -1.763  1.00  0.00     0.155 A 
ATOM      3  C   UNL     1      -4.797  -4.306  -2.890  1.00  0.00     0.063 A 
ATOM      4  C   UNL     1      -4.833  -3.624  -1.671  1.00  0.00     0.019 A 
ATOM      5  C   UNL     1      -5.092  -5.671  -2.929  1.00  0.00     0.065 A 
ATOM      6  C   UNL     1      -5.165  -4.296  -0.514  1.00  0.00     0.044 A 
ATOM      7  C   UNL     1      -5.462  -5.648  -0.556  1.00  0.00     0.165 A 
ATOM      8  F   UNL     1      -5.787  -6.302   0.581  1.00  0.00    -0.203 F 
BRANCH   3   9
ATOM      9  C   UNL     1      -4.442  -3.589  -4.130  1.00  0.00     0.335 C 
ATOM     10  O   UNL     1      -3.961  -4.195  -5.066  1.00  0.00    -0.246 OA
BRANCH   9  11
ATOM     11  O   UNL     1      -4.658  -2.263  -4.226  1.00  0.00    -0.478 OA
ATOM     12  H   UNL     1      -5.157  -1.846  -3.509  1.00  0.00     0.297 HD
ENDBRANCH   9  11
ENDBRANCH   3   9
ENDBRANCH   1   2
BRANCH   1  13
ATOM     13  C   UNL     1      -7.090  -8.028  -1.697  1.00  0.00     0.230 C 
BRANCH  13  14
ATOM     14  C   UNL     1      -7.537  -8.697  -2.998  1.00  0.00     0.046 C 
BRANCH  14  15
ATOM     15  C   UNL     1      -8.615  -7.842  -3.668  1.00  0.00     0.043 C 
BRANCH  15  16
ATOM     16  C   UNL     1      -9.669  -8.738  -4.264  1.00  0.00    -0.004 A 
ATOM     17  C   UNL     1     -10.879  -9.013  -3.723  1.00  0.00     0.036 A 
ATOM     18  C   UNL     1      -9.574  -9.428  -5.477  1.00  0.00     0.063 A 
ATOM     19  N   UNL     1     -11.524  -9.852  -4.561  1.00  0.00    -0.282 N 
ATOM     20  N   UNL     1     -10.682 -10.101  -5.653  1.00  0.00    -0.181 NA
ATOM     21  C   UNL     1     -11.411  -8.477  -2.420  1.00  0.00     0.066 C 
ATOM     22  C   UNL     1      -8.393  -9.409  -6.414  1.00  0.00     0.069 C 
ATOM     23  H   UNL     1     -12.412 -10.218  -4.430  1.00  0.00     0.190 HD
ENDBRANCH  15  16
ENDBRANCH  14  15
ENDBRANCH  13  14
ENDBRANCH   1  13
TORSDOF 7
ENDMDL
MODEL 4
REMARK VINA RESULT:    -5.651      0.241      1.781
REMARK INTER + INTRA:          -8.303
REMARK INTER:                  -7.818
REMARK INTRA:                  -0.484
REMARK UNBOUND:                -0.504
REMARK SMILES Cc1n[nH]c(C)c1CCCOc1cc(C(=O)O)ccc1F
REMARK SMILES IDX 11 1 12 2 14 3 18 4 13 5 19 6 20 7 21 8 15 9 16 10 17 11
REMARK SMILES IDX 10 13 9 14 8 15 7 16 5 17 2 18 4 19 3 20 6 21 1 22
REMARK H PARENT 17 12 4 23
ROOT
ATOM      1  O   UNL     1      -7.771  -4.185  -3.717  1.00  0.00    -0.490 OA
ENDROOT
BRANCH   1   2
ATOM      2  C   UNL     1      -6.716  -4.251  -2.862  1.00  0.00     0.155 A 
ATOM      3  C   UNL     1      -5.802  -4.833  -0.715  1.00  0.00     0.063 A 
ATOM      4  C   UNL     1      -4.546  -4.385  -1.133  1.00  0.00     0.019 A 
ATOM      5  C   UNL     1      -6.889  -4.762  -1.589  1.00  0.00     0.065 A 
ATOM      6  C   UNL     1      -4.382  -3.881  -2.406  1.00  0.00     0.044 A 
ATOM      7  C   UNL     1      -5.461  -3.817  -3.273  1.00  0.00     0.165 A 
ATOM      8  F   UNL     1      -5.294  -3.323  -4.520  1.00  0.00    -0.203 F 
BRANCH   3   9
ATOM      9  C   UNL     1      -5.981  -5.373   0.647  1.00  0.00     0.335 C 
ATOM     10  O   UNL     1      -7.090  -5.434   1.135  1.00  0.00    -0.246 OA
BRANCH   9  11
ATOM     11  O   UNL     1      -4.912  -5.803   1.346  1.00  0.00    -0.478 OA
ATOM     12  H   UNL     1      -4.384  -5.131   1.798  1.00  0.00     0.297 HD
ENDBRANCH   9  11
ENDBRANCH   3   9
ENDBRANCH   1   2
BRANCH   1  13
ATOM     13  C   UNL     1      -7.694  -4.979  -4.904  1.00  0.00     0.230 C 
BRANCH  13  14
ATOM     14  C   UNL     1      -8.774  -6.062  -4.863  1.00  0.00     0.046 C 
BRANCH  14  15
ATOM     15  C   UNL     1      -8.145  -7.394  -4.449  1.00  0.00     0.043 C 
BRANCH  15  16
ATOM     16  C   UNL     1      -8.942  -8.530  -5.037  1.00  0.00    -0.004 A 
ATOM     17  C   UNL     1      -8.627  -9.231  -6.151  1.00  0.00     0.036 A 
ATOM     18  C   UNL     1     -10.134  -9.052  -4.523  1.00  0.00     0.063 A 
ATOM     19  N   UNL     1      -9.589 -10.158  -6.339  1.00  0.00    -0.282 N 
ATOM     20  N   UNL     1     -10.526 -10.023  -5.307  1.00  0.00    -0.181 NA
ATOM     21  C   UNL     1      -7.418  -9.015  -7.024  1.00  0.00     0.066 C 
ATOM     22  C   UNL     1     -10.850  -8.569  -3.287  1.00  0.00     0.069 C 
ATOM     23  H   UNL     1      -9.626 -10.804  -7.062  1.00  0.00     0.190 HD
ENDBRANCH  15  16
ENDBRANCH  14  15
ENDBRANCH  13  14
ENDBRANCH   1  13
TORSDOF 7
ENDMDL
MODEL 5
REMARK VINA RESULT:    -4.785      3.927      7.042
REMARK INTER + INTRA:          -7.107
REMARK INTER:                  -6.246
REMARK INTRA:                  -0.862
REMARK UNBOUND:                -0.504
REMARK SMILES Cc1n[nH]c(C)c1CCCOc1cc(C(=O)O)ccc1F
REMARK SMILES IDX 11 1 12 2 14 3 18 4 13 5 19 6 20 7 21 8 15 9 16 10 17 11
REMARK SMILES IDX 10 13 9 14 8 15 7 16 5 17 2 18 4 19 3 20 6 21 1 22
REMARK H PARENT 17 12 4 23
ROOT
ATOM      1  O   UNL     1      -8.202  -7.148  -2.336  1.00  0.00    -0.490 OA
ENDROOT
BRANCH   1   2
ATOM      2  C   UNL     1      -8.769  -7.897  -3.319  1.00  0.00     0.155 A 
ATOM      3  C   UNL     1      -8.621  -9.006  -5.447  1.00  0.00     0.063 A 
ATOM      4  C   UNL     1      -9.944  -9.437  -5.310  1.00  0.00     0.019 A 
ATOM      5  C   UNL     1      -8.037  -8.232  -4.443  1.00  0.00     0.065 A 
ATOM      6  C   UNL     1     -10.664  -9.102  -4.183  1.00  0.00     0.044 A 
ATOM      7  C   UNL     1     -10.081  -8.339  -3.186  1.00  0.00     0.165 A 
ATOM      8  F   UNL     1     -10.792  -8.015  -2.084  1.00  0.00    -0.203 F 
BRANCH   3   9
ATOM      9  C   UNL     1      -7.847  -9.363  -6.652  1.00  0.00     0.335 C 
ATOM     10  O   UNL     1      -7.097 -10.317  -6.632  1.00  0.00    -0.246 OA
BRANCH   9  11
ATOM     11  O   UNL     1      -7.978  -8.633  -7.777  1.00  0.00    -0.478 OA
ATOM     12  H   UNL     1      -8.803  -8.732  -8.272  1.00  0.00     0.297 HD
ENDBRANCH   9  11
ENDBRANCH   3   9
ENDBRANCH   1   2
BRANCH   1  13
ATOM     13  C   UNL     1      -6.798  -7.316  -2.121  1.00  0.00     0.230 C 
BRANCH  13  14
ATOM     14  C   UNL     1      -6.291  -6.216  -1.188  1.00  0.00     0.046 C 
BRANCH  14  15
ATOM     15  C   UNL     1      -6.938  -4.883  -1.571  1.00  0.00     0.043 C 
BRANCH  15  16
ATOM     16  C   UNL     1      -6.079  -4.180  -2.589  1.00  0.00    -0.004 A 
ATOM     17  C   UNL     1      -4.851  -3.656  -2.369  1.00  0.00     0.036 A 
ATOM     18  C   UNL     1      -6.406  -3.960  -3.931  1.00  0.00     0.063 A 
ATOM     19  N   UNL     1      -4.420  -3.117  -3.529  1.00  0.00    -0.282 N 
ATOM     20  N   UNL     1      -5.416  -3.317  -4.493  1.00  0.00    -0.181 NA
ATOM     21  C   UNL     1      -4.100  -3.671  -1.063  1.00  0.00     0.066 C 
ATOM     22  C   UNL     1      -7.685  -4.380  -4.609  1.00  0.00     0.069 C 
ATOM     23  H   UNL     1      -3.571  -2.670  -3.669  1.00  0.00     0.190 HD
ENDBRANCH  15  16
ENDBRANCH  14  15
ENDBRANCH  13  14
ENDBRANCH   1  13
TORSDOF 7
ENDMDL
MODEL 6
REMARK VINA RESULT:    -4.773      3.931      7.083
REMARK INTER + INTRA:          -7.091
REMARK INTER:                  -6.222
REMARK INTRA:                  -0.869
REMARK UNBOUND:                -0.504
REMARK SMILES Cc1n[nH]c(C)c1CCCOc1cc(C(=O)O)ccc1F
REMARK SMILES IDX 11 1 12 2 14 3 18 4 13 5 19 6 20 7 21 8 15 9 16 10 17 11
REMARK SMILES IDX 10 13 9 14 8 15 7 16 5 17 2 18 4 19 3 20 6 21 1 22
REMARK H PARENT 17 12 4 23
ROOT
ATOM      1  O   UNL     1      -8.268  -7.047  -2.448  1.00  0.00    -0.490 OA
ENDROOT
BRANCH   1   2
ATOM      2  C   UNL     1      -8.831  -7.852  -3.387  1.00  0.00     0.155 A 
ATOM      3  C   UNL     1      -8.691  -9.044  -5.471  1.00  0.00     0.063 A 
ATOM      4  C   UNL     1      -9.997  -9.507  -5.290  1.00  0.00     0.019 A 
ATOM      5  C   UNL     1      -8.111  -8.213  -4.511  1.00  0.00     0.065 A 
ATOM      6  C   UNL     1     -10.706  -9.147  -4.163  1.00  0.00     0.044 A 
ATOM      7  C   UNL     1     -10.127  -8.326  -3.210  1.00  0.00     0.165 A 
ATOM      8  F   UNL     1     -10.826  -7.977  -2.108  1.00  0.00    -0.203 F 
BRANCH   3   9
ATOM      9  C   UNL     1      -7.929  -9.428  -6.676  1.00  0.00     0.335 C 
ATOM     10  O   UNL     1      -7.226 -10.417  -6.660  1.00  0.00    -0.246 OA
BRANCH   9  11
ATOM     11  O   UNL     1      -8.021  -8.684  -7.795  1.00  0.00    -0.478 OA
ATOM     12  H   UNL     1      -8.064  -9.159  -8.637  1.00  0.00     0.297 HD
ENDBRANCH   9  11
ENDBRANCH   3   9
ENDBRANCH   1   2
BRANCH   1  13
ATOM     13  C   UNL     1      -6.921  -7.338  -2.067  1.00  0.00     0.230 C 
BRANCH  13  14
ATOM     14  C   UNL     1      -6.389  -6.212  -1.178  1.00  0.00     0.046 C 
BRANCH  14  15
ATOM     15  C   UNL     1      -7.007  -4.882  -1.615  1.00  0.00     0.043 C 
BRANCH  15  16
ATOM     16  C   UNL     1      -6.104  -4.214  -2.619  1.00  0.00    -0.004 A 
ATOM     17  C   UNL     1      -6.384  -4.006  -3.927  1.00  0.00     0.036 A 
ATOM     18  C   UNL     1      -4.831  -3.692  -2.363  1.00  0.00     0.063 A 
ATOM     19  N   UNL     1      -5.323  -3.382  -4.480  1.00  0.00    -0.282 N 
ATOM     20  N   UNL     1      -4.359  -3.199  -3.479  1.00  0.00    -0.181 NA
ATOM     21  C   UNL     1      -7.652  -4.401  -4.637  1.00  0.00     0.066 C 
ATOM     22  C   UNL     1      -4.121  -3.707  -1.033  1.00  0.00     0.069 C 
ATOM     23  H   UNL     1      -5.241  -3.108  -5.407  1.00  0.00     0.190 HD
ENDBRANCH  15  16
ENDBRANCH  14  15
ENDBRANCH  13  14
ENDBRANCH   1  13
TORSDOF 7
ENDMDL
MODEL 7
REMARK VINA RESULT:    -4.552      3.837      6.625
REMARK INTER + INTRA:          -6.786
REMARK INTER:                  -5.948
REMARK INTRA:                  -0.837
REMARK UNBOUND:                -0.504
REMARK SMILES Cc1n[nH]c(C)c1CCCOc1cc(C(=O)O)ccc1F
REMARK SMILES IDX 11 1 12 2 14 3 18 4 13 5 19 6 20 7 21 8 15 9 16 10 17 11
REMARK SMILES IDX 10 13 9 14 8 15 7 16 5 17 2 18 4 19 3 20 6 21 1 22
REMARK H PARENT 17 12 4 23
ROOT
ATOM      1  O   UNL     1      -7.048  -7.490  -3.278  1.00  0.00    -0.490 OA
ENDROOT
BRANCH   1   2
ATOM      2  C   UNL     1      -8.175  -8.074  -3.766  1.00  0.00     0.155 A 
ATOM      3  C   UNL     1     -10.481  -8.705  -3.505  1.00  0.00     0.063 A 
ATOM      4  C   UNL     1     -10.468  -9.265  -4.786  1.00  0.00     0.019 A 
ATOM      5  C   UNL     1      -9.324  -8.108  -2.999  1.00  0.00     0.065 A 
ATOM      6  C   UNL     1      -9.318  -9.222  -5.546  1.00  0.00     0.044 A 
ATOM      7  C   UNL     1      -8.174  -8.625  -5.043  1.00  0.00     0.165 A 
ATOM      8  F   UNL     1      -7.051  -8.586  -5.793  1.00  0.00    -0.203 F 
BRANCH   3   9
ATOM      9  C   UNL     1     -11.710  -8.749  -2.689  1.00  0.00     0.335 C 
ATOM     10  O   UNL     1     -12.569  -9.572  -2.929  1.00  0.00    -0.246 OA
BRANCH   9  11
ATOM     11  O   UNL     1     -11.875  -7.879  -1.674  1.00  0.00    -0.478 OA
ATOM     12  H   UNL     1     -11.207  -7.888  -0.974  1.00  0.00     0.297 HD
ENDBRANCH   9  11
ENDBRANCH   3   9
ENDBRANCH   1   2
BRANCH   1  13
ATOM     13  C   UNL     1      -6.810  -7.613  -1.874  1.00  0.00     0.230 C 
BRANCH  13  14
ATOM     14  C   UNL     1      -5.974  -6.425  -1.393  1.00  0.00     0.046 C 
BRANCH  14  15
ATOM     15  C   UNL     1      -6.741  -5.125  -1.646  1.00  0.00     0.043 C 
BRANCH  15  16
ATOM     16  C   UNL     1      -5.984  -4.279  -2.637  1.00  0.00    -0.004 A 
ATOM     17  C   UNL     1      -4.800  -3.662  -2.416  1.00  0.00     0.036 A 
ATOM     18  C   UNL     1      -6.377  -3.998  -3.950  1.00  0.00     0.063 A 
ATOM     19  N   UNL     1      -4.460  -3.008  -3.546  1.00  0.00    -0.282 N 
ATOM     20  N   UNL     1      -5.468  -3.231  -4.494  1.00  0.00    -0.181 NA
ATOM     21  C   UNL     1      -4.005  -3.698  -1.137  1.00  0.00     0.066 C 
ATOM     22  C   UNL     1      -7.637  -4.486  -4.618  1.00  0.00     0.069 C 
ATOM     23  H   UNL     1      -3.660  -2.476  -3.679  1.00  0.00     0.190 HD
ENDBRANCH  15  16
ENDBRANCH  14  15
ENDBRANCH  13  14
ENDBRANCH   1  13
TORSDOF 7
ENDMDL
MODEL 8
REMARK VINA RESULT:    -4.509      4.707      8.123
REMARK INTER + INTRA:          -6.727
REMARK INTER:                  -6.028
REMARK INTRA:                  -0.699
REMARK UNBOUND:                -0.504
REMARK SMILES Cc1n[nH]c(C)c1CCCOc1cc(C(=O)O)ccc1F
REMARK SMILES IDX 11 1 12 2 14 3 18 4 13 5 19 6 20 7 21 8 15 9 16 10 17 11
REMARK SMILES IDX 10 13 9 14 8 15 7 16 5 17 2 18 4 19 3 20 6 21 1 22
REMARK H PARENT 17 12 4 23
ROOT
ATOM      1  O   UNL     1      -8.426  -8.665  -5.961  1.00  0.00    -0.490 OA
ENDROOT
BRANCH   1   2
ATOM      2  C   UNL     1      -8.542  -9.703  -6.832  1.00  0.00     0.155 A 
ATOM      3  C   UNL     1      -9.905 -11.159  -8.175  1.00  0.00     0.063 A 
ATOM      4  C   UNL     1      -8.756 -11.818  -8.620  1.00  0.00     0.019 A 
ATOM      5  C   UNL     1      -9.791 -10.097  -7.276  1.00  0.00     0.065 A 
ATOM      6  C   UNL     1      -7.514 -11.414  -8.176  1.00  0.00     0.044 A 
ATOM      7  C   UNL     1      -7.403 -10.357  -7.288  1.00  0.00     0.165 A 
ATOM      8  F   UNL     1      -6.183  -9.966  -6.857  1.00  0.00    -0.203 F 
BRANCH   3   9
ATOM      9  C   UNL     1     -11.235 -11.589  -8.648  1.00  0.00     0.335 C 
ATOM     10  O   UNL     1     -11.359 -12.643  -9.237  1.00  0.00    -0.246 OA
BRANCH   9  11
ATOM     11  O   UNL     1     -12.313 -10.813  -8.421  1.00  0.00    -0.478 OA
ATOM     12  H   UNL     1     -12.240  -9.878  -8.658  1.00  0.00     0.297 HD
ENDBRANCH   9  11
ENDBRANCH   3   9
ENDBRANCH   1   2
BRANCH   1  13
ATOM     13  C   UNL     1      -9.019  -8.833  -4.670  1.00  0.00     0.230 C 
BRANCH  13  14
ATOM     14  C   UNL     1      -8.702  -7.614  -3.802  1.00  0.00     0.046 C 
BRANCH  14  15
ATOM     15  C   UNL     1      -7.245  -7.199  -4.017  1.00  0.00     0.043 C 
BRANCH  15  16
ATOM     16  C   UNL     1      -6.852  -6.186  -2.973  1.00  0.00    -0.004 A 
ATOM     17  C   UNL     1      -6.286  -6.457  -1.774  1.00  0.00     0.036 A 
ATOM     18  C   UNL     1      -7.000  -4.799  -3.074  1.00  0.00     0.063 A 
ATOM     19  N   UNL     1      -6.090  -5.284  -1.136  1.00  0.00    -0.282 N 
ATOM     20  N   UNL     1      -6.550  -4.258  -1.972  1.00  0.00    -0.181 NA
ATOM     21  C   UNL     1      -5.937  -7.824  -1.245  1.00  0.00     0.066 C 
ATOM     22  C   UNL     1      -7.588  -4.057  -4.247  1.00  0.00     0.069 C 
ATOM     23  H   UNL     1      -5.700  -5.171  -0.256  1.00  0.00     0.190 HD
ENDBRANCH  15  16
ENDBRANCH  14  15
ENDBRANCH  13  14
ENDBRANCH   1  13
TORSDOF 7
ENDMDL
MODEL 9
REMARK VINA RESULT:    -4.488      4.845      7.856
REMARK INTER + INTRA:          -6.697
REMARK INTER:                  -6.001
REMARK INTRA:                  -0.697
REMARK UNBOUND:                -0.504
REMARK SMILES Cc1n[nH]c(C)c1CCCOc1cc(C(=O)O)ccc1F
REMARK SMILES IDX 11 1 12 2 14 3 18 4 13 5 19 6 20 7 21 8 15 9 16 10 17 11
REMARK SMILES IDX 10 13 9 14 8 15 7 16 5 17 2 18 4 19 3 20 6 21 1 22
REMARK H PARENT 17 12 4 23
ROOT
ATOM      1  O   UNL     1     -10.020  -8.643  -3.301  1.00  0.00    -0.490 OA
ENDROOT
BRANCH   1   2
ATOM      2  C   UNL     1     -11.310  -9.064  -3.377  1.00  0.00     0.155 A 
ATOM      3  C   UNL     1     -12.956 -10.610  -4.204  1.00  0.00     0.063 A 
ATOM      4  C   UNL     1     -13.952  -9.914  -3.513  1.00  0.00     0.019 A 
ATOM      5  C   UNL     1     -11.630 -10.178  -4.132  1.00  0.00     0.065 A 
ATOM      6  C   UNL     1     -13.622  -8.808  -2.759  1.00  0.00     0.044 A 
ATOM      7  C   UNL     1     -12.305  -8.384  -2.684  1.00  0.00     0.165 A 
ATOM      8  F   UNL     1     -11.988  -7.299  -1.943  1.00  0.00    -0.203 F 
BRANCH   3   9
ATOM      9  C   UNL     1     -13.306 -11.795  -5.012  1.00  0.00     0.335 C 
ATOM     10  O   UNL     1     -14.177 -11.720  -5.855  1.00  0.00    -0.246 OA
BRANCH   9  11
ATOM     11  O   UNL     1     -12.654 -12.958  -4.819  1.00  0.00    -0.478 OA
ATOM     12  H   UNL     1     -11.687 -12.924  -4.818  1.00  0.00     0.297 HD
ENDBRANCH   9  11
ENDBRANCH   3   9
ENDBRANCH   1   2
BRANCH   1  13
ATOM     13  C   UNL     1      -9.297  -8.539  -4.530  1.00  0.00     0.230 C 
BRANCH  13  14
ATOM     14  C   UNL     1      -8.001  -7.761  -4.294  1.00  0.00     0.046 C 
BRANCH  14  15
ATOM     15  C   UNL     1      -8.131  -6.929  -3.017  1.00  0.00     0.043 C 
BRANCH  15  16
ATOM     16  C   UNL     1      -6.854  -6.165  -2.782  1.00  0.00    -0.004 A 
ATOM     17  C   UNL     1      -5.812  -6.570  -2.019  1.00  0.00     0.036 A 
ATOM     18  C   UNL     1      -6.532  -4.914  -3.320  1.00  0.00     0.063 A 
ATOM     19  N   UNL     1      -4.868  -5.608  -2.067  1.00  0.00    -0.282 N 
ATOM     20  N   UNL     1      -5.345  -4.576  -2.886  1.00  0.00    -0.181 NA
ATOM     21  C   UNL     1      -5.723  -7.865  -1.254  1.00  0.00     0.066 C 
ATOM     22  C   UNL     1      -7.407  -4.092  -4.232  1.00  0.00     0.069 C 
ATOM     23  H   UNL     1      -4.011  -5.626  -1.613  1.00  0.00     0.190 HD
ENDBRANCH  15  16
ENDBRANCH  14  15
ENDBRANCH  13  14
ENDBRANCH   1  13
TORSDOF 7
ENDMDL
