MODEL 1
REMARK VINA RESULT:    -4.167      0.000      0.000
REMARK INTER + INTRA:          -5.058
REMARK INTER:                  -4.776
REMARK INTRA:                  -0.282
REMARK UNBOUND:                -0.282
REMARK SMILES O=C(O)c1ccc2nc(-c3cc(Cl)cc(Cl)c3)oc2c1
REMARK SMILES IDX 5 1 6 2 20 3 8 4 18 5 4 6 9 7 7 8 19 9 2 10 1 11 3 12 10 14
REMARK SMILES IDX 11 15 17 16 12 17 15 18 14 19 13 20 16 21
REMARK H PARENT 3 13
ROOT
ATOM      1  C   UNL     1       3.581  -6.705 -16.060  1.00  0.00     0.018 A 
ATOM      2  C   UNL     1       4.500  -6.119 -15.243  1.00  0.00     0.033 A 
ATOM      3  C   UNL     1       1.777  -5.843 -14.688  1.00  0.00     0.065 A 
ATOM      4  N   UNL     1       4.735  -4.706 -13.162  1.00  0.00    -0.209 NA
ATOM      5  O   UNL     1       2.612  -4.501 -12.733  1.00  0.00    -0.436 OA
ATOM      6  C   UNL     1       2.210  -6.574 -15.796  1.00  0.00     0.063 A 
ATOM      7  C   UNL     1       3.860  -4.185 -12.338  1.00  0.00     0.227 A 
ATOM      8  C   UNL     1       4.079  -5.383 -14.128  1.00  0.00     0.110 A 
ATOM      9  C   UNL     1       2.707  -5.251 -13.853  1.00  0.00     0.156 A 
ENDROOT
BRANCH   6  10
ATOM     10  C   UNL     1       1.224  -7.207 -16.690  1.00  0.00     0.335 C 
ATOM     11  O   UNL     1       0.714  -6.563 -17.585  1.00  0.00    -0.246 OA
BRANCH  10  12
ATOM     12  O   UNL     1       0.888  -8.500 -16.516  1.00  0.00    -0.478 OA
ATOM     13  H   UNL     1       0.041  -8.680 -16.086  1.00  0.00     0.297 HD
ENDBRANCH  10  12
ENDBRANCH   6  10
BRANCH   7  14
ATOM     14  C   UNL     1       4.194  -3.372 -11.151  1.00  0.00     0.040 A 
ATOM     15  C   UNL     1       3.498  -3.558  -9.955  1.00  0.00     0.034 A 
ATOM     16  C   UNL     1       5.207  -2.413 -11.220  1.00  0.00     0.034 A 
ATOM     17  C   UNL     1       3.816  -2.795  -8.849  1.00  0.00     0.043 A 
ATOM     18  C   UNL     1       5.515  -1.657 -10.107  1.00  0.00     0.043 A 
ATOM     19  C   UNL     1       4.821  -1.846  -8.925  1.00  0.00     0.041 A 
ATOM     20  Cl  UNL     1       2.952  -3.025  -7.361  1.00  0.00    -0.084 Cl
ATOM     21  Cl  UNL     1       6.775  -0.465 -10.192  1.00  0.00    -0.084 Cl
ENDBRANCH   7  14
TORSDOF 3
ENDMDL
MODEL 2
REMARK VINA RESULT:    -4.166      0.006      2.019
REMARK INTER + INTRA:          -5.057
REMARK INTER:                  -4.775
REMARK INTRA:                  -0.282
REMARK UNBOUND:                -0.282
REMARK SMILES O=C(O)c1ccc2nc(-c3cc(Cl)cc(Cl)c3)oc2c1
REMARK SMILES IDX 5 1 6 2 20 3 8 4 18 5 4 6 9 7 7 8 19 9 2 10 1 11 3 12 10 14
REMARK SMILES IDX 11 15 17 16 12 17 15 18 14 19 13 20 16 21
REMARK H PARENT 3 13
ROOT
ATOM      1  C   UNL     1       3.580  -6.705 -16.058  1.00  0.00     0.018 A 
ATOM      2  C   UNL     1       4.501  -6.118 -15.243  1.00  0.00     0.033 A 
ATOM      3  C   UNL     1       1.778  -5.844 -14.684  1.00  0.00     0.065 A 
ATOM      4  N   UNL     1       4.737  -4.704 -13.163  1.00  0.00    -0.209 NA
ATOM      5  O   UNL     1       2.615  -4.500 -12.731  1.00  0.00    -0.436 OA
ATOM      6  C   UNL     1       2.210  -6.575 -15.792  1.00  0.00     0.063 A 
ATOM      7  C   UNL     1       3.863  -4.183 -12.338  1.00  0.00     0.227 A 
ATOM      8  C   UNL     1       4.081  -5.382 -14.128  1.00  0.00     0.110 A 
ATOM      9  C   UNL     1       2.708  -5.251 -13.851  1.00  0.00     0.156 A 
ENDROOT
BRANCH   6  10
ATOM     10  C   UNL     1       1.224  -7.210 -16.685  1.00  0.00     0.335 C 
ATOM     11  O   UNL     1       0.719  -6.569 -17.585  1.00  0.00    -0.246 OA
BRANCH  10  12
ATOM     12  O   UNL     1       0.881  -8.501 -16.502  1.00  0.00    -0.478 OA
ATOM     13  H   UNL     1       0.706  -8.784 -15.595  1.00  0.00     0.297 HD
ENDBRANCH  10  12
ENDBRANCH   6  10
BRANCH   7  14
ATOM     14  C   UNL     1       4.198  -3.368 -11.152  1.00  0.00     0.040 A 
ATOM     15  C   UNL     1       5.209  -2.410 -11.222  1.00  0.00     0.034 A 
ATOM     16  C   UNL     1       3.503  -3.556  -9.955  1.00  0.00     0.034 A 
ATOM     17  C   UNL     1       5.517  -1.651 -10.110  1.00  0.00     0.043 A 
ATOM     18  C   UNL     1       3.819  -2.791  -8.850  1.00  0.00     0.043 A 
ATOM     19  C   UNL     1       4.824  -1.842  -8.926  1.00  0.00     0.041 A 
ATOM     20  Cl  UNL     1       6.774  -0.458 -10.195  1.00  0.00    -0.084 Cl
ATOM     21  Cl  UNL     1       2.957  -3.022  -7.361  1.00  0.00    -0.084 Cl
ENDBRANCH   7  14
TORSDOF 3
ENDMDL
MODEL 3
REMARK VINA RESULT:    -3.797      3.838      7.449
REMARK INTER + INTRA:          -4.634
REMARK INTER:                  -4.354
REMARK INTRA:                  -0.279
REMARK UNBOUND:                -0.282
REMARK SMILES O=C(O)c1ccc2nc(-c3cc(Cl)cc(Cl)c3)oc2c1
REMARK SMILES IDX 5 1 6 2 20 3 8 4 18 5 4 6 9 7 7 8 19 9 2 10 1 11 3 12 10 14
REMARK SMILES IDX 11 15 17 16 12 17 15 18 14 19 13 20 16 21
REMARK H PARENT 3 13
ROOT
ATOM      1  C   UNL     1       5.056  -1.515  -9.347  1.00  0.00     0.018 A 
ATOM      2  C   UNL     1       5.426  -1.820 -10.622  1.00  0.00     0.033 A 
ATOM      3  C   UNL     1       3.566  -3.427  -9.296  1.00  0.00     0.065 A 
ATOM      4  N   UNL     1       5.037  -3.476 -12.491  1.00  0.00    -0.209 NA
ATOM      5  O   UNL     1       3.585  -4.719 -11.452  1.00  0.00    -0.436 OA
ATOM      6  C   UNL     1       4.125  -2.313  -8.667  1.00  0.00     0.063 A 
ATOM      7  C   UNL     1       4.272  -4.533 -12.595  1.00  0.00     0.227 A 
ATOM      8  C   UNL     1       4.873  -2.935 -11.264  1.00  0.00     0.110 A 
ATOM      9  C   UNL     1       3.934  -3.737 -10.592  1.00  0.00     0.156 A 
ENDROOT
BRANCH   6  10
ATOM     10  C   UNL     1       3.737  -1.976  -7.286  1.00  0.00     0.335 C 
ATOM     11  O   UNL     1       2.981  -1.049  -7.076  1.00  0.00    -0.246 OA
BRANCH  10  12
ATOM     12  O   UNL     1       4.222  -2.696  -6.255  1.00  0.00    -0.478 OA
ATOM     13  H   UNL     1       5.054  -3.167  -6.400  1.00  0.00     0.297 HD
ENDBRANCH  10  12
ENDBRANCH   6  10
BRANCH   7  14
ATOM     14  C   UNL     1       4.176  -5.395 -13.792  1.00  0.00     0.040 A 
ATOM     15  C   UNL     1       2.953  -5.556 -14.443  1.00  0.00     0.034 A 
ATOM     16  C   UNL     1       5.310  -6.051 -14.275  1.00  0.00     0.034 A 
ATOM     17  C   UNL     1       2.870  -6.362 -15.562  1.00  0.00     0.043 A 
ATOM     18  C   UNL     1       5.215  -6.853 -15.395  1.00  0.00     0.043 A 
ATOM     19  C   UNL     1       3.998  -7.010 -16.036  1.00  0.00     0.041 A 
ATOM     20  Cl  UNL     1       1.349  -6.564 -16.374  1.00  0.00    -0.084 Cl
ATOM     21  Cl  UNL     1       6.624  -7.670 -15.997  1.00  0.00    -0.084 Cl
ENDBRANCH   7  14
TORSDOF 3
ENDMDL
MODEL 4
REMARK VINA RESULT:    -3.796      3.839      7.600
REMARK INTER + INTRA:          -4.632
REMARK INTER:                  -4.352
REMARK INTRA:                  -0.280
REMARK UNBOUND:                -0.282
REMARK SMILES O=C(O)c1ccc2nc(-c3cc(Cl)cc(Cl)c3)oc2c1
REMARK SMILES IDX 5 1 6 2 20 3 8 4 18 5 4 6 9 7 7 8 19 9 2 10 1 11 3 12 10 14
REMARK SMILES IDX 11 15 17 16 12 17 15 18 14 19 13 20 16 21
REMARK H PARENT 3 13
ROOT
ATOM      1  C   UNL     1       5.053  -1.520  -9.343  1.00  0.00     0.018 A 
ATOM      2  C   UNL     1       5.418  -1.819 -10.622  1.00  0.00     0.033 A 
ATOM      3  C   UNL     1       3.579  -3.445  -9.288  1.00  0.00     0.065 A 
ATOM      4  N   UNL     1       5.032  -3.473 -12.492  1.00  0.00    -0.209 NA
ATOM      5  O   UNL     1       3.597  -4.732 -11.448  1.00  0.00    -0.436 OA
ATOM      6  C   UNL     1       4.133  -2.328  -8.660  1.00  0.00     0.063 A 
ATOM      7  C   UNL     1       4.275  -4.538 -12.595  1.00  0.00     0.227 A 
ATOM      8  C   UNL     1       4.870  -2.937 -11.263  1.00  0.00     0.110 A 
ATOM      9  C   UNL     1       3.943  -3.749 -10.587  1.00  0.00     0.156 A 
ENDROOT
BRANCH   6  10
ATOM     10  C   UNL     1       3.751  -1.998  -7.275  1.00  0.00     0.335 C 
ATOM     11  O   UNL     1       3.084  -1.009  -7.049  1.00  0.00    -0.246 OA
BRANCH  10  12
ATOM     12  O   UNL     1       4.142  -2.794  -6.260  1.00  0.00    -0.478 OA
ATOM     13  H   UNL     1       3.859  -2.542  -5.371  1.00  0.00     0.297 HD
ENDBRANCH  10  12
ENDBRANCH   6  10
BRANCH   7  14
ATOM     14  C   UNL     1       4.180  -5.396 -13.793  1.00  0.00     0.040 A 
ATOM     15  C   UNL     1       5.312  -6.050 -14.279  1.00  0.00     0.034 A 
ATOM     16  C   UNL     1       2.955  -5.556 -14.445  1.00  0.00     0.034 A 
ATOM     17  C   UNL     1       5.216  -6.853 -15.399  1.00  0.00     0.043 A 
ATOM     18  C   UNL     1       2.871  -6.361 -15.563  1.00  0.00     0.043 A 
ATOM     19  C   UNL     1       3.999  -7.007 -16.041  1.00  0.00     0.041 A 
ATOM     20  Cl  UNL     1       6.624  -7.668 -16.005  1.00  0.00    -0.084 Cl
ATOM     21  Cl  UNL     1       1.349  -6.561 -16.375  1.00  0.00    -0.084 Cl
ENDBRANCH   7  14
TORSDOF 3
ENDMDL
MODEL 5
REMARK VINA RESULT:    -3.473      5.280      8.917
REMARK INTER + INTRA:          -4.263
REMARK INTER:                  -3.965
REMARK INTRA:                  -0.298
REMARK UNBOUND:                -0.282
REMARK SMILES O=C(O)c1ccc2nc(-c3cc(Cl)cc(Cl)c3)oc2c1
REMARK SMILES IDX 5 1 6 2 20 3 8 4 18 5 4 6 9 7 7 8 19 9 2 10 1 11 3 12 10 14
REMARK SMILES IDX 11 15 17 16 12 17 15 18 14 19 13 20 16 21
REMARK H PARENT 3 13
ROOT
ATOM      1  C   UNL     1       1.508  -2.773  -4.469  1.00  0.00     0.018 A 
ATOM      2  C   UNL     1       1.740  -3.461  -5.622  1.00  0.00     0.033 A 
ATOM      3  C   UNL     1       2.899  -0.946  -5.251  1.00  0.00     0.065 A 
ATOM      4  N   UNL     1       2.962  -3.338  -7.830  1.00  0.00    -0.209 NA
ATOM      5  O   UNL     1       3.865  -1.381  -7.531  1.00  0.00    -0.436 OA
ATOM      6  C   UNL     1       2.081  -1.509  -4.269  1.00  0.00     0.063 A 
ATOM      7  C   UNL     1       3.736  -2.427  -8.368  1.00  0.00     0.227 A 
ATOM      8  C   UNL     1       2.558  -2.908  -6.615  1.00  0.00     0.110 A 
ATOM      9  C   UNL     1       3.141  -1.643  -6.420  1.00  0.00     0.156 A 
ENDROOT
BRANCH   6  10
ATOM     10  C   UNL     1       1.818  -0.771  -3.020  1.00  0.00     0.335 C 
ATOM     11  O   UNL     1       1.140  -1.277  -2.148  1.00  0.00    -0.246 OA
BRANCH  10  12
ATOM     12  O   UNL     1       2.328   0.464  -2.846  1.00  0.00    -0.478 OA
ATOM     13  H   UNL     1       1.934   1.179  -3.363  1.00  0.00     0.297 HD
ENDBRANCH  10  12
ENDBRANCH   6  10
BRANCH   7  14
ATOM     14  C   UNL     1       4.373  -2.535  -9.696  1.00  0.00     0.040 A 
ATOM     15  C   UNL     1       4.005  -3.559 -10.570  1.00  0.00     0.034 A 
ATOM     16  C   UNL     1       5.348  -1.612 -10.083  1.00  0.00     0.034 A 
ATOM     17  C   UNL     1       4.604  -3.654 -11.811  1.00  0.00     0.043 A 
ATOM     18  C   UNL     1       5.939  -1.717 -11.326  1.00  0.00     0.043 A 
ATOM     19  C   UNL     1       5.569  -2.736 -12.187  1.00  0.00     0.041 A 
ATOM     20  Cl  UNL     1       4.147  -4.926 -12.899  1.00  0.00    -0.084 Cl
ATOM     21  Cl  UNL     1       7.151  -0.571 -11.808  1.00  0.00    -0.084 Cl
ENDBRANCH   7  14
TORSDOF 3
ENDMDL
MODEL 6
REMARK VINA RESULT:    -3.468      5.282      9.071
REMARK INTER + INTRA:          -4.256
REMARK INTER:                  -3.959
REMARK INTRA:                  -0.298
REMARK UNBOUND:                -0.282
REMARK SMILES O=C(O)c1ccc2nc(-c3cc(Cl)cc(Cl)c3)oc2c1
REMARK SMILES IDX 5 1 6 2 20 3 8 4 18 5 4 6 9 7 7 8 19 9 2 10 1 11 3 12 10 14
REMARK SMILES IDX 11 15 17 16 12 17 15 18 14 19 13 20 16 21
REMARK H PARENT 3 13
ROOT
ATOM      1  C   UNL     1       1.513  -2.775  -4.463  1.00  0.00     0.018 A 
ATOM      2  C   UNL     1       1.746  -3.463  -5.616  1.00  0.00     0.033 A 
ATOM      3  C   UNL     1       2.898  -0.945  -5.247  1.00  0.00     0.065 A 
ATOM      4  N   UNL     1       2.966  -3.338  -7.825  1.00  0.00    -0.209 NA
ATOM      5  O   UNL     1       3.864  -1.379  -7.527  1.00  0.00    -0.436 OA
ATOM      6  C   UNL     1       2.082  -1.509  -4.264  1.00  0.00     0.063 A 
ATOM      7  C   UNL     1       3.737  -2.427  -8.363  1.00  0.00     0.227 A 
ATOM      8  C   UNL     1       2.562  -2.909  -6.610  1.00  0.00     0.110 A 
ATOM      9  C   UNL     1       3.141  -1.642  -6.416  1.00  0.00     0.156 A 
ENDROOT
BRANCH   6  10
ATOM     10  C   UNL     1       1.818  -0.772  -3.016  1.00  0.00     0.335 C 
ATOM     11  O   UNL     1       1.141  -1.278  -2.144  1.00  0.00    -0.246 OA
BRANCH  10  12
ATOM     12  O   UNL     1       2.327   0.464  -2.842  1.00  0.00    -0.478 OA
ATOM     13  H   UNL     1       2.401   0.784  -1.933  1.00  0.00     0.297 HD
ENDBRANCH  10  12
ENDBRANCH   6  10
BRANCH   7  14
ATOM     14  C   UNL     1       4.374  -2.534  -9.692  1.00  0.00     0.040 A 
ATOM     15  C   UNL     1       5.348  -1.612 -10.079  1.00  0.00     0.034 A 
ATOM     16  C   UNL     1       4.003  -3.557 -10.566  1.00  0.00     0.034 A 
ATOM     17  C   UNL     1       5.940  -1.718 -11.322  1.00  0.00     0.043 A 
ATOM     18  C   UNL     1       4.602  -3.653 -11.806  1.00  0.00     0.043 A 
ATOM     19  C   UNL     1       5.568  -2.736 -12.184  1.00  0.00     0.041 A 
ATOM     20  Cl  UNL     1       7.152  -0.573 -11.806  1.00  0.00    -0.084 Cl
ATOM     21  Cl  UNL     1       4.143  -4.925 -12.895  1.00  0.00    -0.084 Cl
ENDBRANCH   7  14
TORSDOF 3
ENDMDL
MODEL 7
REMARK VINA RESULT:    -3.400      3.662      5.483
REMARK INTER + INTRA:          -4.179
REMARK INTER:                  -3.882
REMARK INTRA:                  -0.297
REMARK UNBOUND:                -0.282
REMARK SMILES O=C(O)c1ccc2nc(-c3cc(Cl)cc(Cl)c3)oc2c1
REMARK SMILES IDX 5 1 6 2 20 3 8 4 18 5 4 6 9 7 7 8 19 9 2 10 1 11 3 12 10 14
REMARK SMILES IDX 11 15 17 16 12 17 15 18 14 19 13 20 16 21
REMARK H PARENT 3 13
ROOT
ATOM      1  C   UNL     1       5.642  -2.563 -11.941  1.00  0.00     0.018 A 
ATOM      2  C   UNL     1       5.540  -1.772 -10.836  1.00  0.00     0.033 A 
ATOM      3  C   UNL     1       3.957  -4.063 -11.053  1.00  0.00     0.065 A 
ATOM      4  N   UNL     1       4.330  -1.539  -8.631  1.00  0.00    -0.209 NA
ATOM      5  O   UNL     1       3.105  -3.328  -8.804  1.00  0.00    -0.436 OA
ATOM      6  C   UNL     1       4.853  -3.715 -12.065  1.00  0.00     0.063 A 
ATOM      7  C   UNL     1       3.416  -2.266  -8.038  1.00  0.00     0.227 A 
ATOM      8  C   UNL     1       4.646  -2.110  -9.813  1.00  0.00     0.110 A 
ATOM      9  C   UNL     1       3.854  -3.266  -9.927  1.00  0.00     0.156 A 
ENDROOT
BRANCH   6  10
ATOM     10  C   UNL     1       4.967  -4.559 -13.268  1.00  0.00     0.335 C 
ATOM     11  O   UNL     1       4.203  -5.489 -13.432  1.00  0.00    -0.246 OA
BRANCH  10  12
ATOM     12  O   UNL     1       5.920  -4.301 -14.185  1.00  0.00    -0.478 OA
ATOM     13  H   UNL     1       6.320  -5.060 -14.629  1.00  0.00     0.297 HD
ENDBRANCH  10  12
ENDBRANCH   6  10
BRANCH   7  14
ATOM     14  C   UNL     1       2.816  -1.964  -6.722  1.00  0.00     0.040 A 
ATOM     15  C   UNL     1       2.245  -2.985  -5.961  1.00  0.00     0.034 A 
ATOM     16  C   UNL     1       2.818  -0.655  -6.235  1.00  0.00     0.034 A 
ATOM     17  C   UNL     1       1.686  -2.697  -4.731  1.00  0.00     0.043 A 
ATOM     18  C   UNL     1       2.257  -0.380  -5.004  1.00  0.00     0.043 A 
ATOM     19  C   UNL     1       1.692  -1.397  -4.254  1.00  0.00     0.041 A 
ATOM     20  Cl  UNL     1       0.976  -3.965  -3.783  1.00  0.00    -0.084 Cl
ATOM     21  Cl  UNL     1       2.259   1.247  -4.396  1.00  0.00    -0.084 Cl
ENDBRANCH   7  14
TORSDOF 3
ENDMDL
MODEL 8
REMARK VINA RESULT:    -3.391      3.678      5.746
REMARK INTER + INTRA:          -4.169
REMARK INTER:                  -3.872
REMARK INTRA:                  -0.297
REMARK UNBOUND:                -0.282
REMARK SMILES O=C(O)c1ccc2nc(-c3cc(Cl)cc(Cl)c3)oc2c1
REMARK SMILES IDX 5 1 6 2 20 3 8 4 18 5 4 6 9 7 7 8 19 9 2 10 1 11 3 12 10 14
REMARK SMILES IDX 11 15 17 16 12 17 15 18 14 19 13 20 16 21
REMARK H PARENT 3 13
ROOT
ATOM      1  C   UNL     1       5.653  -2.545 -11.929  1.00  0.00     0.018 A 
ATOM      2  C   UNL     1       5.548  -1.756 -10.823  1.00  0.00     0.033 A 
ATOM      3  C   UNL     1       3.971  -4.051 -11.043  1.00  0.00     0.065 A 
ATOM      4  N   UNL     1       4.336  -1.529  -8.618  1.00  0.00    -0.209 NA
ATOM      5  O   UNL     1       3.115  -3.321  -8.795  1.00  0.00    -0.436 OA
ATOM      6  C   UNL     1       4.867  -3.699 -12.055  1.00  0.00     0.063 A 
ATOM      7  C   UNL     1       3.423  -2.259  -8.027  1.00  0.00     0.227 A 
ATOM      8  C   UNL     1       4.654  -2.097  -9.801  1.00  0.00     0.110 A 
ATOM      9  C   UNL     1       3.865  -3.256  -9.917  1.00  0.00     0.156 A 
ENDROOT
BRANCH   6  10
ATOM     10  C   UNL     1       4.985  -4.542 -13.258  1.00  0.00     0.335 C 
ATOM     11  O   UNL     1       4.233  -5.483 -13.417  1.00  0.00    -0.246 OA
BRANCH  10  12
ATOM     12  O   UNL     1       5.927  -4.270 -14.183  1.00  0.00    -0.478 OA
ATOM     13  H   UNL     1       6.845  -4.451 -13.940  1.00  0.00     0.297 HD
ENDBRANCH  10  12
ENDBRANCH   6  10
BRANCH   7  14
ATOM     14  C   UNL     1       2.822  -1.961  -6.711  1.00  0.00     0.040 A 
ATOM     15  C   UNL     1       2.824  -0.655  -6.219  1.00  0.00     0.034 A 
ATOM     16  C   UNL     1       2.249  -2.985  -5.954  1.00  0.00     0.034 A 
ATOM     17  C   UNL     1       2.259  -0.382  -4.989  1.00  0.00     0.043 A 
ATOM     18  C   UNL     1       1.688  -2.700  -4.726  1.00  0.00     0.043 A 
ATOM     19  C   UNL     1       1.693  -1.403  -4.243  1.00  0.00     0.041 A 
ATOM     20  Cl  UNL     1       2.260   1.241  -4.375  1.00  0.00    -0.084 Cl
ATOM     21  Cl  UNL     1       0.975  -3.972  -3.783  1.00  0.00    -0.084 Cl
ENDBRANCH   7  14
TORSDOF 3
ENDMDL
MODEL 9
REMARK VINA RESULT:    -3.380      5.172      6.639
REMARK INTER + INTRA:          -4.156
REMARK INTER:                  -3.860
REMARK INTRA:                  -0.296
REMARK UNBOUND:                -0.282
REMARK SMILES O=C(O)c1ccc2nc(-c3cc(Cl)cc(Cl)c3)oc2c1
REMARK SMILES IDX 5 1 6 2 20 3 8 4 18 5 4 6 9 7 7 8 19 9 2 10 1 11 3 12 10 14
REMARK SMILES IDX 11 15 17 16 12 17 15 18 14 19 13 20 16 21
REMARK H PARENT 3 13
ROOT
ATOM      1  C   UNL     1       5.511  -2.644 -12.083  1.00  0.00     0.018 A 
ATOM      2  C   UNL     1       4.616  -3.197 -11.218  1.00  0.00     0.033 A 
ATOM      3  C   UNL     1       6.083  -0.948 -10.447  1.00  0.00     0.065 A 
ATOM      4  N   UNL     1       3.640  -2.951  -8.900  1.00  0.00    -0.209 NA
ATOM      5  O   UNL     1       4.783  -1.197  -8.310  1.00  0.00    -0.436 OA
ATOM      6  C   UNL     1       6.257  -1.517 -11.710  1.00  0.00     0.063 A 
ATOM      7  C   UNL     1       3.853  -2.094  -7.933  1.00  0.00     0.227 A 
ATOM      8  C   UNL     1       4.432  -2.636  -9.948  1.00  0.00     0.110 A 
ATOM      9  C   UNL     1       5.172  -1.503  -9.568  1.00  0.00     0.156 A 
ENDROOT
BRANCH   6  10
ATOM     10  C   UNL     1       7.227  -0.932 -12.653  1.00  0.00     0.335 C 
ATOM     11  O   UNL     1       7.922   0.003 -12.307  1.00  0.00    -0.246 OA
BRANCH  10  12
ATOM     12  O   UNL     1       7.343  -1.433 -13.899  1.00  0.00    -0.478 OA
ATOM     13  H   UNL     1       7.362  -2.395 -13.985  1.00  0.00     0.297 HD
ENDBRANCH  10  12
ENDBRANCH   6  10
BRANCH   7  14
ATOM     14  C   UNL     1       3.172  -2.111  -6.621  1.00  0.00     0.040 A 
ATOM     15  C   UNL     1       2.712  -3.314  -6.086  1.00  0.00     0.034 A 
ATOM     16  C   UNL     1       2.986  -0.921  -5.914  1.00  0.00     0.034 A 
ATOM     17  C   UNL     1       2.077  -3.323  -4.859  1.00  0.00     0.043 A 
ATOM     18  C   UNL     1       2.350  -0.943  -4.689  1.00  0.00     0.043 A 
ATOM     19  C   UNL     1       1.896  -2.140  -4.163  1.00  0.00     0.041 A 
ATOM     20  Cl  UNL     1       1.504  -4.818  -4.190  1.00  0.00    -0.084 Cl
ATOM     21  Cl  UNL     1       2.118   0.535  -3.807  1.00  0.00    -0.084 Cl
ENDBRANCH   7  14
TORSDOF 3
ENDMDL
