MODEL 1
REMARK VINA RESULT:    -5.531      0.000      0.000
REMARK INTER + INTRA:          -8.068
REMARK INTER:                  -7.632
REMARK INTRA:                  -0.436
REMARK UNBOUND:                -0.436
REMARK SMILES Cc1n[nH]c(C)c1CCCOc1cc(C(=O)O)ccc1F
REMARK SMILES IDX 11 1 12 2 14 3 18 4 13 5 19 6 20 7 21 8 15 9 16 10 17 11
REMARK SMILES IDX 10 13 9 14 8 15 7 16 5 17 2 18 4 19 3 20 6 21 1 22
REMARK H PARENT 17 12 4 23
ROOT
ATOM      1  O   UNL     1       1.276  -0.839  -7.888  1.00  0.00    -0.490 OA
ENDROOT
BRANCH   1   2
ATOM      2  C   UNL     1       1.556  -1.246  -6.621  1.00  0.00     0.155 A 
ATOM      3  C   UNL     1       1.877  -3.008  -5.017  1.00  0.00     0.063 A 
ATOM      4  C   UNL     1       2.142  -2.056  -4.029  1.00  0.00     0.019 A 
ATOM      5  C   UNL     1       1.583  -2.594  -6.318  1.00  0.00     0.065 A 
ATOM      6  C   UNL     1       2.119  -0.713  -4.343  1.00  0.00     0.044 A 
ATOM      7  C   UNL     1       1.833  -0.305  -5.635  1.00  0.00     0.165 A 
ATOM      8  F   UNL     1       1.812   1.012  -5.935  1.00  0.00    -0.203 F 
BRANCH   3   9
ATOM      9  C   UNL     1       1.901  -4.446  -4.685  1.00  0.00     0.335 C 
ATOM     10  O   UNL     1       1.367  -5.249  -5.423  1.00  0.00    -0.246 OA
BRANCH   9  11
ATOM     11  O   UNL     1       2.521  -4.868  -3.565  1.00  0.00    -0.478 OA
ATOM     12  H   UNL     1       2.179  -4.538  -2.723  1.00  0.00     0.297 HD
ENDBRANCH   9  11
ENDBRANCH   3   9
ENDBRANCH   1   2
BRANCH   1  13
ATOM     13  C   UNL     1       2.288  -0.095  -8.569  1.00  0.00     0.230 C 
BRANCH  13  14
ATOM     14  C   UNL     1       2.801  -0.905  -9.761  1.00  0.00     0.046 C 
BRANCH  14  15
ATOM     15  C   UNL     1       4.021  -1.724  -9.335  1.00  0.00     0.043 C 
BRANCH  15  16
ATOM     16  C   UNL     1       4.806  -2.130 -10.555  1.00  0.00    -0.004 A 
ATOM     17  C   UNL     1       4.558  -3.203 -11.341  1.00  0.00     0.036 A 
ATOM     18  C   UNL     1       5.917  -1.460 -11.079  1.00  0.00     0.063 A 
ATOM     19  N   UNL     1       5.483  -3.215 -12.324  1.00  0.00    -0.282 N 
ATOM     20  N   UNL     1       6.328  -2.113 -12.135  1.00  0.00    -0.181 NA
ATOM     21  C   UNL     1       3.448  -4.204 -11.153  1.00  0.00     0.066 C 
ATOM     22  C   UNL     1       6.541  -0.208 -10.516  1.00  0.00     0.069 C 
ATOM     23  H   UNL     1       5.552  -3.872 -13.034  1.00  0.00     0.190 HD
ENDBRANCH  15  16
ENDBRANCH  14  15
ENDBRANCH  13  14
ENDBRANCH   1  13
TORSDOF 7
ENDMDL
MODEL 2
REMARK VINA RESULT:    -5.506      2.311      3.944
REMARK INTER + INTRA:          -8.035
REMARK INTER:                  -7.487
REMARK INTRA:                  -0.548
REMARK UNBOUND:                -0.436
REMARK SMILES Cc1n[nH]c(C)c1CCCOc1cc(C(=O)O)ccc1F
REMARK SMILES IDX 11 1 12 2 14 3 18 4 13 5 19 6 20 7 21 8 15 9 16 10 17 11
REMARK SMILES IDX 10 13 9 14 8 15 7 16 5 17 2 18 4 19 3 20 6 21 1 22
REMARK H PARENT 17 12 4 23
ROOT
ATOM      1  O   UNL     1       4.751  -3.336  -5.882  1.00  0.00    -0.490 OA
ENDROOT
BRANCH   1   2
ATOM      2  C   UNL     1       3.664  -2.674  -5.402  1.00  0.00     0.155 A 
ATOM      3  C   UNL     1       2.457  -0.626  -5.047  1.00  0.00     0.063 A 
ATOM      4  C   UNL     1       1.431  -1.343  -4.424  1.00  0.00     0.019 A 
ATOM      5  C   UNL     1       3.576  -1.301  -5.536  1.00  0.00     0.065 A 
ATOM      6  C   UNL     1       1.525  -2.713  -4.301  1.00  0.00     0.044 A 
ATOM      7  C   UNL     1       2.635  -3.381  -4.791  1.00  0.00     0.165 A 
ATOM      8  F   UNL     1       2.721  -4.724  -4.667  1.00  0.00    -0.203 F 
BRANCH   3   9
ATOM      9  C   UNL     1       2.359   0.841  -5.181  1.00  0.00     0.335 C 
ATOM     10  O   UNL     1       3.359   1.501  -5.374  1.00  0.00    -0.246 OA
BRANCH   9  11
ATOM     11  O   UNL     1       1.158   1.446  -5.098  1.00  0.00    -0.478 OA
ATOM     12  H   UNL     1       1.039   2.089  -4.385  1.00  0.00     0.297 HD
ENDBRANCH   9  11
ENDBRANCH   3   9
ENDBRANCH   1   2
BRANCH   1  13
ATOM     13  C   UNL     1       4.543  -4.199  -7.003  1.00  0.00     0.230 C 
BRANCH  13  14
ATOM     14  C   UNL     1       5.268  -3.631  -8.224  1.00  0.00     0.046 C 
BRANCH  14  15
ATOM     15  C   UNL     1       4.269  -2.878  -9.106  1.00  0.00     0.043 C 
BRANCH  15  16
ATOM     16  C   UNL     1       4.756  -2.879 -10.532  1.00  0.00    -0.004 A 
ATOM     17  C   UNL     1       5.642  -2.009 -11.071  1.00  0.00     0.036 A 
ATOM     18  C   UNL     1       4.379  -3.783 -11.531  1.00  0.00     0.063 A 
ATOM     19  N   UNL     1       5.813  -2.347 -12.367  1.00  0.00    -0.282 N 
ATOM     20  N   UNL     1       5.006  -3.461 -12.632  1.00  0.00    -0.181 NA
ATOM     21  C   UNL     1       6.316  -0.869 -10.354  1.00  0.00     0.066 C 
ATOM     22  C   UNL     1       3.407  -4.924 -11.368  1.00  0.00     0.069 C 
ATOM     23  H   UNL     1       6.392  -1.897 -13.002  1.00  0.00     0.190 HD
ENDBRANCH  15  16
ENDBRANCH  14  15
ENDBRANCH  13  14
ENDBRANCH   1  13
TORSDOF 7
ENDMDL
MODEL 3
REMARK VINA RESULT:    -5.426      2.344      3.543
REMARK INTER + INTRA:          -7.924
REMARK INTER:                  -7.415
REMARK INTRA:                  -0.510
REMARK UNBOUND:                -0.436
REMARK SMILES Cc1n[nH]c(C)c1CCCOc1cc(C(=O)O)ccc1F
REMARK SMILES IDX 11 1 12 2 14 3 18 4 13 5 19 6 20 7 21 8 15 9 16 10 17 11
REMARK SMILES IDX 10 13 9 14 8 15 7 16 5 17 2 18 4 19 3 20 6 21 1 22
REMARK H PARENT 17 12 4 23
ROOT
ATOM      1  O   UNL     1       4.813  -3.291  -5.907  1.00  0.00    -0.490 OA
ENDROOT
BRANCH   1   2
ATOM      2  C   UNL     1       3.711  -2.652  -5.431  1.00  0.00     0.155 A 
ATOM      3  C   UNL     1       2.469  -0.626  -5.064  1.00  0.00     0.063 A 
ATOM      4  C   UNL     1       1.448  -1.366  -4.463  1.00  0.00     0.019 A 
ATOM      5  C   UNL     1       3.604  -1.279  -5.549  1.00  0.00     0.065 A 
ATOM      6  C   UNL     1       1.560  -2.736  -4.355  1.00  0.00     0.044 A 
ATOM      7  C   UNL     1       2.685  -3.381  -4.841  1.00  0.00     0.165 A 
ATOM      8  F   UNL     1       2.789  -4.724  -4.733  1.00  0.00    -0.203 F 
BRANCH   3   9
ATOM      9  C   UNL     1       2.351   0.841  -5.181  1.00  0.00     0.335 C 
ATOM     10  O   UNL     1       3.339   1.515  -5.390  1.00  0.00    -0.246 OA
BRANCH   9  11
ATOM     11  O   UNL     1       1.146   1.431  -5.063  1.00  0.00    -0.478 OA
ATOM     12  H   UNL     1       0.543   1.069  -4.398  1.00  0.00     0.297 HD
ENDBRANCH   9  11
ENDBRANCH   3   9
ENDBRANCH   1   2
BRANCH   1  13
ATOM     13  C   UNL     1       4.620  -4.187  -7.004  1.00  0.00     0.230 C 
BRANCH  13  14
ATOM     14  C   UNL     1       5.291  -3.615  -8.253  1.00  0.00     0.046 C 
BRANCH  14  15
ATOM     15  C   UNL     1       4.231  -2.987  -9.160  1.00  0.00     0.043 C 
BRANCH  15  16
ATOM     16  C   UNL     1       4.689  -3.058 -10.594  1.00  0.00    -0.004 A 
ATOM     17  C   UNL     1       4.299  -3.974 -11.510  1.00  0.00     0.036 A 
ATOM     18  C   UNL     1       5.588  -2.184 -11.215  1.00  0.00     0.063 A 
ATOM     19  N   UNL     1       4.933  -3.694 -12.668  1.00  0.00    -0.282 N 
ATOM     20  N   UNL     1       5.740  -2.569 -12.456  1.00  0.00    -0.181 NA
ATOM     21  C   UNL     1       3.330  -5.104 -11.279  1.00  0.00     0.066 C 
ATOM     22  C   UNL     1       6.272  -1.009 -10.564  1.00  0.00     0.069 C 
ATOM     23  H   UNL     1       4.847  -4.186 -13.499  1.00  0.00     0.190 HD
ENDBRANCH  15  16
ENDBRANCH  14  15
ENDBRANCH  13  14
ENDBRANCH   1  13
TORSDOF 7
ENDMDL
MODEL 4
REMARK VINA RESULT:    -5.399      0.176      1.775
REMARK INTER + INTRA:          -7.886
REMARK INTER:                  -7.305
REMARK INTRA:                  -0.582
REMARK UNBOUND:                -0.436
REMARK SMILES Cc1n[nH]c(C)c1CCCOc1cc(C(=O)O)ccc1F
REMARK SMILES IDX 11 1 12 2 14 3 18 4 13 5 19 6 20 7 21 8 15 9 16 10 17 11
REMARK SMILES IDX 10 13 9 14 8 15 7 16 5 17 2 18 4 19 3 20 6 21 1 22
REMARK H PARENT 17 12 4 23
ROOT
ATOM      1  O   UNL     1       1.388  -0.786  -7.863  1.00  0.00    -0.490 OA
ENDROOT
BRANCH   1   2
ATOM      2  C   UNL     1       1.612  -1.207  -6.589  1.00  0.00     0.155 A 
ATOM      3  C   UNL     1       1.874  -2.988  -4.995  1.00  0.00     0.063 A 
ATOM      4  C   UNL     1       2.082  -2.046  -3.983  1.00  0.00     0.019 A 
ATOM      5  C   UNL     1       1.639  -2.559  -6.303  1.00  0.00     0.065 A 
ATOM      6  C   UNL     1       2.060  -0.700  -4.280  1.00  0.00     0.044 A 
ATOM      7  C   UNL     1       1.831  -0.277  -5.579  1.00  0.00     0.165 A 
ATOM      8  F   UNL     1       1.811   1.044  -5.863  1.00  0.00    -0.203 F 
BRANCH   3   9
ATOM      9  C   UNL     1       1.898  -4.430  -4.681  1.00  0.00     0.335 C 
ATOM     10  O   UNL     1       1.337  -5.220  -5.413  1.00  0.00    -0.246 OA
BRANCH   9  11
ATOM     11  O   UNL     1       2.547  -4.870  -3.586  1.00  0.00    -0.478 OA
ATOM     12  H   UNL     1       3.492  -4.668  -3.525  1.00  0.00     0.297 HD
ENDBRANCH   9  11
ENDBRANCH   3   9
ENDBRANCH   1   2
BRANCH   1  13
ATOM     13  C   UNL     1       2.496  -0.211  -8.560  1.00  0.00     0.230 C 
BRANCH  13  14
ATOM     14  C   UNL     1       2.896  -1.124  -9.721  1.00  0.00     0.046 C 
BRANCH  14  15
ATOM     15  C   UNL     1       4.200  -1.847  -9.375  1.00  0.00     0.043 C 
BRANCH  15  16
ATOM     16  C   UNL     1       4.980  -2.107 -10.637  1.00  0.00    -0.004 A 
ATOM     17  C   UNL     1       6.016  -1.368 -11.099  1.00  0.00     0.036 A 
ATOM     18  C   UNL     1       4.767  -3.158 -11.535  1.00  0.00     0.063 A 
ATOM     19  N   UNL     1       6.439  -1.928 -12.252  1.00  0.00    -0.282 N 
ATOM     20  N   UNL     1       5.636  -3.048 -12.507  1.00  0.00    -0.181 NA
ATOM     21  C   UNL     1       6.594  -0.141 -10.444  1.00  0.00     0.066 C 
ATOM     22  C   UNL     1       3.711  -4.226 -11.411  1.00  0.00     0.069 C 
ATOM     23  H   UNL     1       7.168  -1.611 -12.807  1.00  0.00     0.190 HD
ENDBRANCH  15  16
ENDBRANCH  14  15
ENDBRANCH  13  14
ENDBRANCH   1  13
TORSDOF 7
ENDMDL
MODEL 5
REMARK VINA RESULT:    -4.679      3.894      5.319
REMARK INTER + INTRA:          -6.893
REMARK INTER:                  -6.307
REMARK INTRA:                  -0.586
REMARK UNBOUND:                -0.436
REMARK SMILES Cc1n[nH]c(C)c1CCCOc1cc(C(=O)O)ccc1F
REMARK SMILES IDX 11 1 12 2 14 3 18 4 13 5 19 6 20 7 21 8 15 9 16 10 17 11
REMARK SMILES IDX 10 13 9 14 8 15 7 16 5 17 2 18 4 19 3 20 6 21 1 22
REMARK H PARENT 17 12 4 23
ROOT
ATOM      1  O   UNL     1       4.395  -3.280 -11.183  1.00  0.00    -0.490 OA
ENDROOT
BRANCH   1   2
ATOM      2  C   UNL     1       4.217  -2.925  -9.883  1.00  0.00     0.155 A 
ATOM      3  C   UNL     1       4.528  -3.357  -7.538  1.00  0.00     0.063 A 
ATOM      4  C   UNL     1       3.850  -2.174  -7.233  1.00  0.00     0.019 A 
ATOM      5  C   UNL     1       4.709  -3.729  -8.872  1.00  0.00     0.065 A 
ATOM      6  C   UNL     1       3.367  -1.375  -8.249  1.00  0.00     0.044 A 
ATOM      7  C   UNL     1       3.552  -1.743  -9.571  1.00  0.00     0.165 A 
ATOM      8  F   UNL     1       3.077  -0.956 -10.561  1.00  0.00    -0.203 F 
BRANCH   3   9
ATOM      9  C   UNL     1       5.047  -4.214  -6.454  1.00  0.00     0.335 C 
ATOM     10  O   UNL     1       4.794  -3.949  -5.296  1.00  0.00    -0.246 OA
BRANCH   9  11
ATOM     11  O   UNL     1       5.794  -5.295  -6.749  1.00  0.00    -0.478 OA
ATOM     12  H   UNL     1       6.043  -5.872  -6.013  1.00  0.00     0.297 HD
ENDBRANCH   9  11
ENDBRANCH   3   9
ENDBRANCH   1   2
BRANCH   1  13
ATOM     13  C   UNL     1       3.431  -4.171 -11.750  1.00  0.00     0.230 C 
BRANCH  13  14
ATOM     14  C   UNL     1       4.149  -5.374 -12.365  1.00  0.00     0.046 C 
BRANCH  14  15
ATOM     15  C   UNL     1       4.635  -5.013 -13.771  1.00  0.00     0.043 C 
BRANCH  15  16
ATOM     16  C   UNL     1       4.144  -6.045 -14.752  1.00  0.00    -0.004 A 
ATOM     17  C   UNL     1       4.859  -7.089 -15.234  1.00  0.00     0.036 A 
ATOM     18  C   UNL     1       2.868  -6.099 -15.322  1.00  0.00     0.063 A 
ATOM     19  N   UNL     1       4.065  -7.774 -16.084  1.00  0.00    -0.282 N 
ATOM     20  N   UNL     1       2.821  -7.130 -16.126  1.00  0.00    -0.181 NA
ATOM     21  C   UNL     1       6.285  -7.425 -14.885  1.00  0.00     0.066 C 
ATOM     22  C   UNL     1       1.744  -5.128 -15.065  1.00  0.00     0.069 C 
ATOM     23  H   UNL     1       4.312  -8.570 -16.579  1.00  0.00     0.190 HD
ENDBRANCH  15  16
ENDBRANCH  14  15
ENDBRANCH  13  14
ENDBRANCH   1  13
TORSDOF 7
ENDMDL
MODEL 6
REMARK VINA RESULT:    -4.679      3.289      4.635
REMARK INTER + INTRA:          -6.893
REMARK INTER:                  -6.333
REMARK INTRA:                  -0.560
REMARK UNBOUND:                -0.436
REMARK SMILES Cc1n[nH]c(C)c1CCCOc1cc(C(=O)O)ccc1F
REMARK SMILES IDX 11 1 12 2 14 3 18 4 13 5 19 6 20 7 21 8 15 9 16 10 17 11
REMARK SMILES IDX 10 13 9 14 8 15 7 16 5 17 2 18 4 19 3 20 6 21 1 22
REMARK H PARENT 17 12 4 23
ROOT
ATOM      1  O   UNL     1       4.977  -1.624 -10.548  1.00  0.00    -0.490 OA
ENDROOT
BRANCH   1   2
ATOM      2  C   UNL     1       4.239  -1.778  -9.417  1.00  0.00     0.155 A 
ATOM      3  C   UNL     1       3.876  -2.835  -7.288  1.00  0.00     0.063 A 
ATOM      4  C   UNL     1       2.722  -2.069  -7.108  1.00  0.00     0.019 A 
ATOM      5  C   UNL     1       4.635  -2.684  -8.451  1.00  0.00     0.065 A 
ATOM      6  C   UNL     1       2.338  -1.163  -8.075  1.00  0.00     0.044 A 
ATOM      7  C   UNL     1       3.094  -1.011  -9.225  1.00  0.00     0.165 A 
ATOM      8  F   UNL     1       2.713  -0.122 -10.168  1.00  0.00    -0.203 F 
BRANCH   3   9
ATOM      9  C   UNL     1       4.290  -3.805  -6.255  1.00  0.00     0.335 C 
ATOM     10  O   UNL     1       3.584  -4.001  -5.288  1.00  0.00    -0.246 OA
BRANCH   9  11
ATOM     11  O   UNL     1       5.449  -4.479  -6.390  1.00  0.00    -0.478 OA
ATOM     12  H   UNL     1       5.571  -4.984  -7.206  1.00  0.00     0.297 HD
ENDBRANCH   9  11
ENDBRANCH   3   9
ENDBRANCH   1   2
BRANCH   1  13
ATOM     13  C   UNL     1       6.333  -1.201 -10.386  1.00  0.00     0.230 C 
BRANCH  13  14
ATOM     14  C   UNL     1       6.685  -0.187 -11.475  1.00  0.00     0.046 C 
BRANCH  14  15
ATOM     15  C   UNL     1       7.389  -0.903 -12.630  1.00  0.00     0.043 C 
BRANCH  15  16
ATOM     16  C   UNL     1       8.550  -0.069 -13.105  1.00  0.00    -0.004 A 
ATOM     17  C   UNL     1       9.763   0.019 -12.511  1.00  0.00     0.036 A 
ATOM     18  C   UNL     1       8.569   0.746 -14.242  1.00  0.00     0.063 A 
ATOM     19  N   UNL     1      10.519   0.865 -13.242  1.00  0.00    -0.282 N 
ATOM     20  N   UNL     1       9.746   1.311 -14.321  1.00  0.00    -0.181 NA
ATOM     21  C   UNL     1      10.191  -0.699 -11.257  1.00  0.00     0.066 C 
ATOM     22  C   UNL     1       7.425   0.947 -15.204  1.00  0.00     0.069 C 
ATOM     23  H   UNL     1      11.436   1.119 -13.053  1.00  0.00     0.190 HD
ENDBRANCH  15  16
ENDBRANCH  14  15
ENDBRANCH  13  14
ENDBRANCH   1  13
TORSDOF 7
ENDMDL
MODEL 7
REMARK VINA RESULT:    -4.670      3.693      5.515
REMARK INTER + INTRA:          -6.880
REMARK INTER:                  -6.285
REMARK INTRA:                  -0.595
REMARK UNBOUND:                -0.436
REMARK SMILES Cc1n[nH]c(C)c1CCCOc1cc(C(=O)O)ccc1F
REMARK SMILES IDX 11 1 12 2 14 3 18 4 13 5 19 6 20 7 21 8 15 9 16 10 17 11
REMARK SMILES IDX 10 13 9 14 8 15 7 16 5 17 2 18 4 19 3 20 6 21 1 22
REMARK H PARENT 17 12 4 23
ROOT
ATOM      1  O   UNL     1       4.536  -3.416 -10.651  1.00  0.00    -0.490 OA
ENDROOT
BRANCH   1   2
ATOM      2  C   UNL     1       4.184  -2.944  -9.425  1.00  0.00     0.155 A 
ATOM      3  C   UNL     1       2.931  -1.414  -8.058  1.00  0.00     0.063 A 
ATOM      4  C   UNL     1       3.471  -2.001  -6.911  1.00  0.00     0.019 A 
ATOM      5  C   UNL     1       3.293  -1.892  -9.319  1.00  0.00     0.065 A 
ATOM      6  C   UNL     1       4.355  -3.053  -7.027  1.00  0.00     0.044 A 
ATOM      7  C   UNL     1       4.709  -3.530  -8.278  1.00  0.00     0.165 A 
ATOM      8  F   UNL     1       5.576  -4.561  -8.385  1.00  0.00    -0.203 F 
BRANCH   3   9
ATOM      9  C   UNL     1       1.984  -0.287  -7.937  1.00  0.00     0.335 C 
ATOM     10  O   UNL     1       1.677   0.134  -6.841  1.00  0.00    -0.246 OA
BRANCH   9  11
ATOM     11  O   UNL     1       1.466   0.278  -9.045  1.00  0.00    -0.478 OA
ATOM     12  H   UNL     1       0.519   0.153  -9.200  1.00  0.00     0.297 HD
ENDBRANCH   9  11
ENDBRANCH   3   9
ENDBRANCH   1   2
BRANCH   1  13
ATOM     13  C   UNL     1       3.517  -4.070 -11.411  1.00  0.00     0.230 C 
BRANCH  13  14
ATOM     14  C   UNL     1       4.112  -5.290 -12.116  1.00  0.00     0.046 C 
BRANCH  14  15
ATOM     15  C   UNL     1       4.581  -4.891 -13.516  1.00  0.00     0.043 C 
BRANCH  15  16
ATOM     16  C   UNL     1       4.113  -5.917 -14.515  1.00  0.00    -0.004 A 
ATOM     17  C   UNL     1       2.877  -5.990 -15.062  1.00  0.00     0.036 A 
ATOM     18  C   UNL     1       4.880  -6.959 -15.047  1.00  0.00     0.063 A 
ATOM     19  N   UNL     1       2.860  -7.044 -15.904  1.00  0.00    -0.282 N 
ATOM     20  N   UNL     1       4.129  -7.639 -15.874  1.00  0.00    -0.181 NA
ATOM     21  C   UNL     1       1.725  -5.060 -14.780  1.00  0.00     0.066 C 
ATOM     22  C   UNL     1       6.320  -7.255 -14.715  1.00  0.00     0.069 C 
ATOM     23  H   UNL     1       2.105  -7.338 -16.435  1.00  0.00     0.190 HD
ENDBRANCH  15  16
ENDBRANCH  14  15
ENDBRANCH  13  14
ENDBRANCH   1  13
TORSDOF 7
ENDMDL
MODEL 8
REMARK VINA RESULT:    -4.668      3.690      5.583
REMARK INTER + INTRA:          -6.878
REMARK INTER:                  -6.295
REMARK INTRA:                  -0.583
REMARK UNBOUND:                -0.436
REMARK SMILES Cc1n[nH]c(C)c1CCCOc1cc(C(=O)O)ccc1F
REMARK SMILES IDX 11 1 12 2 14 3 18 4 13 5 19 6 20 7 21 8 15 9 16 10 17 11
REMARK SMILES IDX 10 13 9 14 8 15 7 16 5 17 2 18 4 19 3 20 6 21 1 22
REMARK H PARENT 17 12 4 23
ROOT
ATOM      1  O   UNL     1       5.611  -1.931 -10.772  1.00  0.00    -0.490 OA
ENDROOT
BRANCH   1   2
ATOM      2  C   UNL     1       4.700  -1.972  -9.764  1.00  0.00     0.155 A 
ATOM      3  C   UNL     1       2.770  -1.062  -8.655  1.00  0.00     0.063 A 
ATOM      4  C   UNL     1       2.843  -2.080  -7.700  1.00  0.00     0.019 A 
ATOM      5  C   UNL     1       3.707  -1.014  -9.690  1.00  0.00     0.065 A 
ATOM      6  C   UNL     1       3.834  -3.035  -7.785  1.00  0.00     0.044 A 
ATOM      7  C   UNL     1       4.759  -2.988  -8.815  1.00  0.00     0.165 A 
ATOM      8  F   UNL     1       5.728  -3.927  -8.894  1.00  0.00    -0.203 F 
BRANCH   3   9
ATOM      9  C   UNL     1       1.710  -0.038  -8.567  1.00  0.00     0.335 C 
ATOM     10  O   UNL     1       1.014   0.031  -7.575  1.00  0.00    -0.246 OA
BRANCH   9  11
ATOM     11  O   UNL     1       1.521   0.823  -9.585  1.00  0.00    -0.478 OA
ATOM     12  H   UNL     1       0.933   0.538 -10.299  1.00  0.00     0.297 HD
ENDBRANCH   9  11
ENDBRANCH   3   9
ENDBRANCH   1   2
BRANCH   1  13
ATOM     13  C   UNL     1       6.741  -1.076 -10.591  1.00  0.00     0.230 C 
BRANCH  13  14
ATOM     14  C   UNL     1       6.861  -0.130 -11.787  1.00  0.00     0.046 C 
BRANCH  14  15
ATOM     15  C   UNL     1       7.615  -0.831 -12.919  1.00  0.00     0.043 C 
BRANCH  15  16
ATOM     16  C   UNL     1       8.778   0.022 -13.353  1.00  0.00    -0.004 A 
ATOM     17  C   UNL     1       8.800   0.856 -14.419  1.00  0.00     0.036 A 
ATOM     18  C   UNL     1      10.025   0.098 -12.723  1.00  0.00     0.063 A 
ATOM     19  N   UNL     1      10.019   1.434 -14.465  1.00  0.00    -0.282 N 
ATOM     20  N   UNL     1      10.771   0.938 -13.392  1.00  0.00    -0.181 NA
ATOM     21  C   UNL     1       7.666   1.097 -15.381  1.00  0.00     0.066 C 
ATOM     22  C   UNL     1      10.440  -0.666 -11.492  1.00  0.00     0.069 C 
ATOM     23  H   UNL     1      10.321   2.077 -15.125  1.00  0.00     0.190 HD
ENDBRANCH  15  16
ENDBRANCH  14  15
ENDBRANCH  13  14
ENDBRANCH   1  13
TORSDOF 7
ENDMDL
MODEL 9
REMARK VINA RESULT:    -4.656      3.191      4.444
REMARK INTER + INTRA:          -6.861
REMARK INTER:                  -6.341
REMARK INTRA:                  -0.520
REMARK UNBOUND:                -0.436
REMARK SMILES Cc1n[nH]c(C)c1CCCOc1cc(C(=O)O)ccc1F
REMARK SMILES IDX 11 1 12 2 14 3 18 4 13 5 19 6 20 7 21 8 15 9 16 10 17 11
REMARK SMILES IDX 10 13 9 14 8 15 7 16 5 17 2 18 4 19 3 20 6 21 1 22
REMARK H PARENT 17 12 4 23
ROOT
ATOM      1  O   UNL     1       4.726  -1.438 -10.470  1.00  0.00    -0.490 OA
ENDROOT
BRANCH   1   2
ATOM      2  C   UNL     1       4.042  -1.642  -9.313  1.00  0.00     0.155 A 
ATOM      3  C   UNL     1       3.787  -2.780  -7.210  1.00  0.00     0.063 A 
ATOM      4  C   UNL     1       2.633  -2.035  -6.951  1.00  0.00     0.019 A 
ATOM      5  C   UNL     1       4.490  -2.577  -8.399  1.00  0.00     0.065 A 
ATOM      6  C   UNL     1       2.196  -1.101  -7.866  1.00  0.00     0.044 A 
ATOM      7  C   UNL     1       2.898  -0.898  -9.043  1.00  0.00     0.165 A 
ATOM      8  F   UNL     1       2.465   0.020  -9.935  1.00  0.00    -0.203 F 
BRANCH   3   9
ATOM      9  C   UNL     1       4.258  -3.780  -6.233  1.00  0.00     0.335 C 
ATOM     10  O   UNL     1       3.591  -4.030  -5.249  1.00  0.00    -0.246 OA
BRANCH   9  11
ATOM     11  O   UNL     1       5.425  -4.422  -6.435  1.00  0.00    -0.478 OA
ATOM     12  H   UNL     1       6.236  -3.920  -6.276  1.00  0.00     0.297 HD
ENDBRANCH   9  11
ENDBRANCH   3   9
ENDBRANCH   1   2
BRANCH   1  13
ATOM     13  C   UNL     1       6.148  -1.317 -10.370  1.00  0.00     0.230 C 
BRANCH  13  14
ATOM     14  C   UNL     1       6.639  -0.259 -11.359  1.00  0.00     0.046 C 
BRANCH  14  15
ATOM     15  C   UNL     1       7.311  -0.947 -12.550  1.00  0.00     0.043 C 
BRANCH  15  16
ATOM     16  C   UNL     1       8.476  -0.115 -13.020  1.00  0.00    -0.004 A 
ATOM     17  C   UNL     1       8.499   0.674 -14.119  1.00  0.00     0.036 A 
ATOM     18  C   UNL     1       9.723  -0.017 -12.394  1.00  0.00     0.063 A 
ATOM     19  N   UNL     1       9.719   1.245 -14.190  1.00  0.00    -0.282 N 
ATOM     20  N   UNL     1      10.471   0.793 -13.098  1.00  0.00    -0.181 NA
ATOM     21  C   UNL     1       7.365   0.877 -15.090  1.00  0.00     0.066 C 
ATOM     22  C   UNL     1      10.137  -0.731 -11.132  1.00  0.00     0.069 C 
ATOM     23  H   UNL     1      10.022   1.860 -14.876  1.00  0.00     0.190 HD
ENDBRANCH  15  16
ENDBRANCH  14  15
ENDBRANCH  13  14
ENDBRANCH   1  13
TORSDOF 7
ENDMDL
