MODEL 1
REMARK VINA RESULT:    -5.601      0.000      0.000
REMARK INTER + INTRA:          -8.383
REMARK INTER:                  -7.729
REMARK INTRA:                  -0.654
REMARK UNBOUND:                -0.654
REMARK SMILES Cc1n[nH]c(C)c1CCCOc1cc(C(=O)O)ccc1F
REMARK SMILES IDX 11 1 12 2 14 3 18 4 13 5 19 6 20 7 21 8 15 9 16 10 17 11
REMARK SMILES IDX 10 13 9 14 8 15 7 16 5 17 2 18 4 19 3 20 6 21 1 22
REMARK H PARENT 17 12 4 23
ROOT
ATOM      1  O   UNL     1       1.368  -6.232  -4.769  1.00  0.00    -0.490 OA
ENDROOT
BRANCH   1   2
ATOM      2  C   UNL     1       0.905  -5.472  -3.741  1.00  0.00     0.155 A 
ATOM      3  C   UNL     1      -0.422  -5.239  -1.749  1.00  0.00     0.063 A 
ATOM      4  C   UNL     1      -0.022  -3.905  -1.643  1.00  0.00     0.019 A 
ATOM      5  C   UNL     1       0.047  -6.022  -2.806  1.00  0.00     0.065 A 
ATOM      6  C   UNL     1       0.839  -3.367  -2.577  1.00  0.00     0.044 A 
ATOM      7  C   UNL     1       1.307  -4.146  -3.622  1.00  0.00     0.165 A 
ATOM      8  F   UNL     1       2.150  -3.613  -4.533  1.00  0.00    -0.203 F 
BRANCH   3   9
ATOM      9  C   UNL     1      -1.343  -5.818  -0.751  1.00  0.00     0.335 C 
ATOM     10  O   UNL     1      -2.368  -6.359  -1.112  1.00  0.00    -0.246 OA
BRANCH   9  11
ATOM     11  O   UNL     1      -1.041  -5.752   0.561  1.00  0.00    -0.478 OA
ATOM     12  H   UNL     1      -1.751  -5.958   1.185  1.00  0.00     0.297 HD
ENDBRANCH   9  11
ENDBRANCH   3   9
ENDBRANCH   1   2
BRANCH   1  13
ATOM     13  C   UNL     1       0.540  -6.327  -5.930  1.00  0.00     0.230 C 
BRANCH  13  14
ATOM     14  C   UNL     1       0.696  -7.714  -6.555  1.00  0.00     0.046 C 
BRANCH  14  15
ATOM     15  C   UNL     1       1.079  -8.723  -5.470  1.00  0.00     0.043 C 
BRANCH  15  16
ATOM     16  C   UNL     1       1.128 -10.106  -6.064  1.00  0.00    -0.004 A 
ATOM     17  C   UNL     1       0.091 -10.972  -6.153  1.00  0.00     0.036 A 
ATOM     18  C   UNL     1       2.251 -10.721  -6.627  1.00  0.00     0.063 A 
ATOM     19  N   UNL     1       0.545 -12.097  -6.745  1.00  0.00    -0.282 N 
ATOM     20  N   UNL     1       1.905 -11.917  -7.029  1.00  0.00    -0.181 NA
ATOM     21  C   UNL     1      -1.316 -10.724  -5.676  1.00  0.00     0.066 C 
ATOM     22  C   UNL     1       3.627 -10.115  -6.740  1.00  0.00     0.069 C 
ATOM     23  H   UNL     1       0.022 -12.891  -6.938  1.00  0.00     0.190 HD
ENDBRANCH  15  16
ENDBRANCH  14  15
ENDBRANCH  13  14
ENDBRANCH   1  13
TORSDOF 7
ENDMDL
MODEL 2
REMARK VINA RESULT:    -5.585      1.964      3.695
REMARK INTER + INTRA:          -8.360
REMARK INTER:                  -7.706
REMARK INTRA:                  -0.654
REMARK UNBOUND:                -0.654
REMARK SMILES Cc1n[nH]c(C)c1CCCOc1cc(C(=O)O)ccc1F
REMARK SMILES IDX 11 1 12 2 14 3 18 4 13 5 19 6 20 7 21 8 15 9 16 10 17 11
REMARK SMILES IDX 10 13 9 14 8 15 7 16 5 17 2 18 4 19 3 20 6 21 1 22
REMARK H PARENT 17 12 4 23
ROOT
ATOM      1  O   UNL     1      -0.238  -7.482  -2.987  1.00  0.00    -0.490 OA
ENDROOT
BRANCH   1   2
ATOM      2  C   UNL     1       0.028  -6.168  -2.759  1.00  0.00     0.155 A 
ATOM      3  C   UNL     1       1.145  -4.127  -3.369  1.00  0.00     0.063 A 
ATOM      4  C   UNL     1       0.551  -3.481  -2.281  1.00  0.00     0.019 A 
ATOM      5  C   UNL     1       0.878  -5.478  -3.603  1.00  0.00     0.065 A 
ATOM      6  C   UNL     1      -0.300  -4.176  -1.448  1.00  0.00     0.044 A 
ATOM      7  C   UNL     1      -0.567  -5.515  -1.685  1.00  0.00     0.165 A 
ATOM      8  F   UNL     1      -1.402  -6.190  -0.865  1.00  0.00    -0.203 F 
BRANCH   3   9
ATOM      9  C   UNL     1       2.056  -3.386  -4.263  1.00  0.00     0.335 C 
ATOM     10  O   UNL     1       3.179  -3.800  -4.464  1.00  0.00    -0.246 OA
BRANCH   9  11
ATOM     11  O   UNL     1       1.638  -2.253  -4.861  1.00  0.00    -0.478 OA
ATOM     12  H   UNL     1       0.683  -2.137  -4.963  1.00  0.00     0.297 HD
ENDBRANCH   9  11
ENDBRANCH   3   9
ENDBRANCH   1   2
BRANCH   1  13
ATOM     13  C   UNL     1       0.731  -8.428  -2.529  1.00  0.00     0.230 C 
BRANCH  13  14
ATOM     14  C   UNL     1       0.726  -9.648  -3.452  1.00  0.00     0.046 C 
BRANCH  14  15
ATOM     15  C   UNL     1       0.605  -9.187  -4.906  1.00  0.00     0.043 C 
BRANCH  15  16
ATOM     16  C   UNL     1       0.829 -10.359  -5.826  1.00  0.00    -0.004 A 
ATOM     17  C   UNL     1       1.993 -10.683  -6.435  1.00  0.00     0.036 A 
ATOM     18  C   UNL     1      -0.128 -11.310  -6.196  1.00  0.00     0.063 A 
ATOM     19  N   UNL     1       1.779 -11.794  -7.170  1.00  0.00    -0.282 N 
ATOM     20  N   UNL     1       0.438 -12.166  -7.007  1.00  0.00    -0.181 NA
ATOM     21  C   UNL     1       3.296  -9.936  -6.314  1.00  0.00     0.066 C 
ATOM     22  C   UNL     1      -1.568 -11.336  -5.748  1.00  0.00     0.069 C 
ATOM     23  H   UNL     1       2.436 -12.253  -7.715  1.00  0.00     0.190 HD
ENDBRANCH  15  16
ENDBRANCH  14  15
ENDBRANCH  13  14
ENDBRANCH   1  13
TORSDOF 7
ENDMDL
MODEL 3
REMARK VINA RESULT:    -5.560      2.004      3.281
REMARK INTER + INTRA:          -8.326
REMARK INTER:                  -7.661
REMARK INTRA:                  -0.665
REMARK UNBOUND:                -0.654
REMARK SMILES Cc1n[nH]c(C)c1CCCOc1cc(C(=O)O)ccc1F
REMARK SMILES IDX 11 1 12 2 14 3 18 4 13 5 19 6 20 7 21 8 15 9 16 10 17 11
REMARK SMILES IDX 10 13 9 14 8 15 7 16 5 17 2 18 4 19 3 20 6 21 1 22
REMARK H PARENT 17 12 4 23
ROOT
ATOM      1  O   UNL     1      -0.224  -7.478  -2.970  1.00  0.00    -0.490 OA
ENDROOT
BRANCH   1   2
ATOM      2  C   UNL     1       0.036  -6.163  -2.747  1.00  0.00     0.155 A 
ATOM      3  C   UNL     1       1.147  -4.121  -3.363  1.00  0.00     0.063 A 
ATOM      4  C   UNL     1       0.547  -3.472  -2.281  1.00  0.00     0.019 A 
ATOM      5  C   UNL     1       0.886  -5.473  -3.592  1.00  0.00     0.065 A 
ATOM      6  C   UNL     1      -0.304  -4.167  -1.447  1.00  0.00     0.044 A 
ATOM      7  C   UNL     1      -0.565  -5.507  -1.679  1.00  0.00     0.165 A 
ATOM      8  F   UNL     1      -1.400  -6.182  -0.858  1.00  0.00    -0.203 F 
BRANCH   3   9
ATOM      9  C   UNL     1       2.058  -3.380  -4.258  1.00  0.00     0.335 C 
ATOM     10  O   UNL     1       3.184  -3.788  -4.451  1.00  0.00    -0.246 OA
BRANCH   9  11
ATOM     11  O   UNL     1       1.636  -2.254  -4.866  1.00  0.00    -0.478 OA
ATOM     12  H   UNL     1       0.738  -1.955  -4.663  1.00  0.00     0.297 HD
ENDBRANCH   9  11
ENDBRANCH   3   9
ENDBRANCH   1   2
BRANCH   1  13
ATOM     13  C   UNL     1       0.717  -8.422  -2.453  1.00  0.00     0.230 C 
BRANCH  13  14
ATOM     14  C   UNL     1       0.761  -9.650  -3.365  1.00  0.00     0.046 C 
BRANCH  14  15
ATOM     15  C   UNL     1       0.427  -9.232  -4.798  1.00  0.00     0.043 C 
BRANCH  15  16
ATOM     16  C   UNL     1       0.476 -10.439  -5.698  1.00  0.00    -0.004 A 
ATOM     17  C   UNL     1      -0.557 -11.267  -5.978  1.00  0.00     0.036 A 
ATOM     18  C   UNL     1       1.597 -10.899  -6.398  1.00  0.00     0.063 A 
ATOM     19  N   UNL     1      -0.105 -12.221  -6.819  1.00  0.00    -0.282 N 
ATOM     20  N   UNL     1       1.252 -11.971  -7.064  1.00  0.00    -0.181 NA
ATOM     21  C   UNL     1      -1.961 -11.145  -5.446  1.00  0.00     0.066 C 
ATOM     22  C   UNL     1       2.969 -10.275  -6.377  1.00  0.00     0.069 C 
ATOM     23  H   UNL     1      -0.626 -12.950  -7.188  1.00  0.00     0.190 HD
ENDBRANCH  15  16
ENDBRANCH  14  15
ENDBRANCH  13  14
ENDBRANCH   1  13
TORSDOF 7
ENDMDL
MODEL 4
REMARK VINA RESULT:    -5.523      0.222      1.774
REMARK INTER + INTRA:          -8.275
REMARK INTER:                  -7.629
REMARK INTRA:                  -0.646
REMARK UNBOUND:                -0.654
REMARK SMILES Cc1n[nH]c(C)c1CCCOc1cc(C(=O)O)ccc1F
REMARK SMILES IDX 11 1 12 2 14 3 18 4 13 5 19 6 20 7 21 8 15 9 16 10 17 11
REMARK SMILES IDX 10 13 9 14 8 15 7 16 5 17 2 18 4 19 3 20 6 21 1 22
REMARK H PARENT 17 12 4 23
ROOT
ATOM      1  O   UNL     1       1.372  -6.213  -4.771  1.00  0.00    -0.490 OA
ENDROOT
BRANCH   1   2
ATOM      2  C   UNL     1       0.914  -5.465  -3.732  1.00  0.00     0.155 A 
ATOM      3  C   UNL     1      -0.421  -5.250  -1.744  1.00  0.00     0.063 A 
ATOM      4  C   UNL     1      -0.002  -3.924  -1.611  1.00  0.00     0.019 A 
ATOM      5  C   UNL     1       0.043  -6.019  -2.813  1.00  0.00     0.065 A 
ATOM      6  C   UNL     1       0.872  -3.381  -2.529  1.00  0.00     0.044 A 
ATOM      7  C   UNL     1       1.335  -4.148  -3.586  1.00  0.00     0.165 A 
ATOM      8  F   UNL     1       2.191  -3.611  -4.482  1.00  0.00    -0.203 F 
BRANCH   3   9
ATOM      9  C   UNL     1      -1.356  -5.833  -0.763  1.00  0.00     0.335 C 
ATOM     10  O   UNL     1      -2.379  -6.367  -1.140  1.00  0.00    -0.246 OA
BRANCH   9  11
ATOM     11  O   UNL     1      -1.071  -5.780   0.553  1.00  0.00    -0.478 OA
ATOM     12  H   UNL     1      -0.512  -5.049   0.852  1.00  0.00     0.297 HD
ENDBRANCH   9  11
ENDBRANCH   3   9
ENDBRANCH   1   2
BRANCH   1  13
ATOM     13  C   UNL     1       0.551  -6.271  -5.940  1.00  0.00     0.230 C 
BRANCH  13  14
ATOM     14  C   UNL     1       0.626  -7.674  -6.546  1.00  0.00     0.046 C 
BRANCH  14  15
ATOM     15  C   UNL     1       1.080  -8.668  -5.475  1.00  0.00     0.043 C 
BRANCH  15  16
ATOM     16  C   UNL     1       1.319 -10.014  -6.108  1.00  0.00    -0.004 A 
ATOM     17  C   UNL     1       2.497 -10.465  -6.600  1.00  0.00     0.036 A 
ATOM     18  C   UNL     1       0.366 -11.022  -6.285  1.00  0.00     0.063 A 
ATOM     19  N   UNL     1       2.294 -11.711  -7.078  1.00  0.00    -0.282 N 
ATOM     20  N   UNL     1       0.947 -12.037  -6.872  1.00  0.00    -0.181 NA
ATOM     21  C   UNL     1       3.801  -9.710  -6.613  1.00  0.00     0.066 C 
ATOM     22  C   UNL     1      -1.084 -10.948  -5.879  1.00  0.00     0.069 C 
ATOM     23  H   UNL     1       2.962 -12.279  -7.491  1.00  0.00     0.190 HD
ENDBRANCH  15  16
ENDBRANCH  14  15
ENDBRANCH  13  14
ENDBRANCH   1  13
TORSDOF 7
ENDMDL
MODEL 5
REMARK VINA RESULT:    -4.881     10.349     11.144
REMARK INTER + INTRA:          -7.389
REMARK INTER:                  -7.150
REMARK INTRA:                  -0.238
REMARK UNBOUND:                -0.654
REMARK SMILES Cc1n[nH]c(C)c1CCCOc1cc(C(=O)O)ccc1F
REMARK SMILES IDX 11 1 12 2 14 3 18 4 13 5 19 6 20 7 21 8 15 9 16 10 17 11
REMARK SMILES IDX 10 13 9 14 8 15 7 16 5 17 2 18 4 19 3 20 6 21 1 22
REMARK H PARENT 17 12 4 23
ROOT
ATOM      1  O   UNL     1      -0.924   1.672   0.829  1.00  0.00    -0.490 OA
ENDROOT
BRANCH   1   2
ATOM      2  C   UNL     1      -1.868   1.783  -0.143  1.00  0.00     0.155 A 
ATOM      3  C   UNL     1      -4.138   1.512  -0.889  1.00  0.00     0.063 A 
ATOM      4  C   UNL     1      -3.784   2.026  -2.140  1.00  0.00     0.019 A 
ATOM      5  C   UNL     1      -3.170   1.392   0.110  1.00  0.00     0.065 A 
ATOM      6  C   UNL     1      -2.484   2.419  -2.381  1.00  0.00     0.044 A 
ATOM      7  C   UNL     1      -1.527   2.303  -1.387  1.00  0.00     0.165 A 
ATOM      8  F   UNL     1      -0.255   2.690  -1.630  1.00  0.00    -0.203 F 
BRANCH   3   9
ATOM      9  C   UNL     1      -5.528   1.092  -0.628  1.00  0.00     0.335 C 
ATOM     10  O   UNL     1      -6.114   0.396  -1.431  1.00  0.00    -0.246 OA
BRANCH   9  11
ATOM     11  O   UNL     1      -6.146   1.476   0.507  1.00  0.00    -0.478 OA
ATOM     12  H   UNL     1      -5.977   2.378   0.815  1.00  0.00     0.297 HD
ENDBRANCH   9  11
ENDBRANCH   3   9
ENDBRANCH   1   2
BRANCH   1  13
ATOM     13  C   UNL     1      -0.005   0.582   0.719  1.00  0.00     0.230 C 
BRANCH  13  14
ATOM     14  C   UNL     1       1.072   0.714   1.797  1.00  0.00     0.046 C 
BRANCH  14  15
ATOM     15  C   UNL     1       2.381   0.105   1.288  1.00  0.00     0.043 C 
BRANCH  15  16
ATOM     16  C   UNL     1       3.273  -0.220   2.458  1.00  0.00    -0.004 A 
ATOM     17  C   UNL     1       4.455   0.371   2.747  1.00  0.00     0.036 A 
ATOM     18  C   UNL     1       3.022  -1.183   3.441  1.00  0.00     0.063 A 
ATOM     19  N   UNL     1       4.938  -0.202   3.869  1.00  0.00    -0.282 N 
ATOM     20  N   UNL     1       4.023  -1.178   4.284  1.00  0.00    -0.181 NA
ATOM     21  C   UNL     1       5.114   1.472   1.957  1.00  0.00     0.066 C 
ATOM     22  C   UNL     1       1.813  -2.081   3.511  1.00  0.00     0.069 C 
ATOM     23  H   UNL     1       5.773   0.022   4.310  1.00  0.00     0.190 HD
ENDBRANCH  15  16
ENDBRANCH  14  15
ENDBRANCH  13  14
ENDBRANCH   1  13
TORSDOF 7
ENDMDL
MODEL 6
REMARK VINA RESULT:    -4.671      3.775      7.098
REMARK INTER + INTRA:          -7.100
REMARK INTER:                  -6.252
REMARK INTRA:                  -0.848
REMARK UNBOUND:                -0.654
REMARK SMILES Cc1n[nH]c(C)c1CCCOc1cc(C(=O)O)ccc1F
REMARK SMILES IDX 11 1 12 2 14 3 18 4 13 5 19 6 20 7 21 8 15 9 16 10 17 11
REMARK SMILES IDX 10 13 9 14 8 15 7 16 5 17 2 18 4 19 3 20 6 21 1 22
REMARK H PARENT 17 12 4 23
ROOT
ATOM      1  O   UNL     1      -0.345  -8.245  -4.001  1.00  0.00    -0.490 OA
ENDROOT
BRANCH   1   2
ATOM      2  C   UNL     1       0.154  -9.191  -4.840  1.00  0.00     0.155 A 
ATOM      3  C   UNL     1       1.999 -10.142  -6.054  1.00  0.00     0.063 A 
ATOM      4  C   UNL     1       1.156 -11.141  -6.547  1.00  0.00     0.019 A 
ATOM      5  C   UNL     1       1.490  -9.165  -5.196  1.00  0.00     0.065 A 
ATOM      6  C   UNL     1      -0.174 -11.162  -6.182  1.00  0.00     0.044 A 
ATOM      7  C   UNL     1      -0.676 -10.195  -5.327  1.00  0.00     0.165 A 
ATOM      8  F   UNL     1      -1.980 -10.222  -4.972  1.00  0.00    -0.203 F 
BRANCH   3   9
ATOM      9  C   UNL     1       3.423 -10.116  -6.443  1.00  0.00     0.335 C 
ATOM     10  O   UNL     1       3.772  -9.501  -7.429  1.00  0.00    -0.246 OA
BRANCH   9  11
ATOM     11  O   UNL     1       4.336 -10.771  -5.699  1.00  0.00    -0.478 OA
ATOM     12  H   UNL     1       4.006 -11.460  -5.106  1.00  0.00     0.297 HD
ENDBRANCH   9  11
ENDBRANCH   3   9
ENDBRANCH   1   2
BRANCH   1  13
ATOM     13  C   UNL     1       0.483  -7.849  -2.905  1.00  0.00     0.230 C 
BRANCH  13  14
ATOM     14  C   UNL     1      -0.123  -6.618  -2.228  1.00  0.00     0.046 C 
BRANCH  14  15
ATOM     15  C   UNL     1      -0.776  -5.724  -3.284  1.00  0.00     0.043 C 
BRANCH  15  16
ATOM     16  C   UNL     1       0.225  -4.710  -3.773  1.00  0.00    -0.004 A 
ATOM     17  C   UNL     1       0.750  -3.695  -3.048  1.00  0.00     0.036 A 
ATOM     18  C   UNL     1       0.782  -4.655  -5.055  1.00  0.00     0.063 A 
ATOM     19  N   UNL     1       1.603  -3.018  -3.845  1.00  0.00    -0.282 N 
ATOM     20  N   UNL     1       1.602  -3.637  -5.102  1.00  0.00    -0.181 NA
ATOM     21  C   UNL     1       0.438  -3.378  -1.609  1.00  0.00     0.066 C 
ATOM     22  C   UNL     1       0.479  -5.598  -6.192  1.00  0.00     0.069 C 
ATOM     23  H   UNL     1       2.123  -2.239  -3.593  1.00  0.00     0.190 HD
ENDBRANCH  15  16
ENDBRANCH  14  15
ENDBRANCH  13  14
ENDBRANCH   1  13
TORSDOF 7
ENDMDL
MODEL 7
REMARK VINA RESULT:    -4.643      3.728      6.573
REMARK INTER + INTRA:          -7.062
REMARK INTER:                  -6.218
REMARK INTRA:                  -0.844
REMARK UNBOUND:                -0.654
REMARK SMILES Cc1n[nH]c(C)c1CCCOc1cc(C(=O)O)ccc1F
REMARK SMILES IDX 11 1 12 2 14 3 18 4 13 5 19 6 20 7 21 8 15 9 16 10 17 11
REMARK SMILES IDX 10 13 9 14 8 15 7 16 5 17 2 18 4 19 3 20 6 21 1 22
REMARK H PARENT 17 12 4 23
ROOT
ATOM      1  O   UNL     1       1.706  -7.513  -4.954  1.00  0.00    -0.490 OA
ENDROOT
BRANCH   1   2
ATOM      2  C   UNL     1       1.400  -8.750  -5.429  1.00  0.00     0.155 A 
ATOM      3  C   UNL     1      -0.204 -10.497  -5.823  1.00  0.00     0.063 A 
ATOM      4  C   UNL     1       0.794 -11.275  -6.415  1.00  0.00     0.019 A 
ATOM      5  C   UNL     1       0.107  -9.229  -5.329  1.00  0.00     0.065 A 
ATOM      6  C   UNL     1       2.080 -10.786  -6.516  1.00  0.00     0.044 A 
ATOM      7  C   UNL     1       2.385  -9.526  -6.030  1.00  0.00     0.165 A 
ATOM      8  F   UNL     1       3.647  -9.053  -6.133  1.00  0.00    -0.203 F 
BRANCH   3   9
ATOM      9  C   UNL     1      -1.581 -11.017  -5.713  1.00  0.00     0.335 C 
ATOM     10  O   UNL     1      -2.404 -10.739  -6.561  1.00  0.00    -0.246 OA
BRANCH   9  11
ATOM     11  O   UNL     1      -1.922 -11.806  -4.676  1.00  0.00    -0.478 OA
ATOM     12  H   UNL     1      -1.683 -12.742  -4.737  1.00  0.00     0.297 HD
ENDBRANCH   9  11
ENDBRANCH   3   9
ENDBRANCH   1   2
BRANCH   1  13
ATOM     13  C   UNL     1       0.716  -6.493  -5.115  1.00  0.00     0.230 C 
BRANCH  13  14
ATOM     14  C   UNL     1       1.147  -5.240  -4.352  1.00  0.00     0.046 C 
BRANCH  14  15
ATOM     15  C   UNL     1       1.731  -5.644  -2.996  1.00  0.00     0.043 C 
BRANCH  15  16
ATOM     16  C   UNL     1       0.621  -5.749  -1.982  1.00  0.00    -0.004 A 
ATOM     17  C   UNL     1      -0.111  -4.721  -1.493  1.00  0.00     0.036 A 
ATOM     18  C   UNL     1       0.161  -6.927  -1.384  1.00  0.00     0.063 A 
ATOM     19  N   UNL     1      -0.998  -5.230  -0.612  1.00  0.00    -0.282 N 
ATOM     20  N   UNL     1      -0.804  -6.616  -0.558  1.00  0.00    -0.181 NA
ATOM     21  C   UNL     1       0.037  -3.269  -1.867  1.00  0.00     0.066 C 
ATOM     22  C   UNL     1       0.695  -8.314  -1.638  1.00  0.00     0.069 C 
ATOM     23  H   UNL     1      -1.653  -4.725  -0.106  1.00  0.00     0.190 HD
ENDBRANCH  15  16
ENDBRANCH  14  15
ENDBRANCH  13  14
ENDBRANCH   1  13
TORSDOF 7
ENDMDL
MODEL 8
REMARK VINA RESULT:    -4.441      4.827      7.971
REMARK INTER + INTRA:          -6.782
REMARK INTER:                  -6.088
REMARK INTRA:                  -0.694
REMARK UNBOUND:                -0.654
REMARK SMILES Cc1n[nH]c(C)c1CCCOc1cc(C(=O)O)ccc1F
REMARK SMILES IDX 11 1 12 2 14 3 18 4 13 5 19 6 20 7 21 8 15 9 16 10 17 11
REMARK SMILES IDX 10 13 9 14 8 15 7 16 5 17 2 18 4 19 3 20 6 21 1 22
REMARK H PARENT 17 12 4 23
ROOT
ATOM      1  O   UNL     1      -0.631 -10.557  -5.361  1.00  0.00    -0.490 OA
ENDROOT
BRANCH   1   2
ATOM      2  C   UNL     1      -1.307 -11.521  -6.040  1.00  0.00     0.155 A 
ATOM      3  C   UNL     1      -1.370 -13.689  -7.080  1.00  0.00     0.063 A 
ATOM      4  C   UNL     1      -2.710 -13.483  -7.419  1.00  0.00     0.019 A 
ATOM      5  C   UNL     1      -0.670 -12.698  -6.387  1.00  0.00     0.065 A 
ATOM      6  C   UNL     1      -3.338 -12.309  -7.063  1.00  0.00     0.044 A 
ATOM      7  C   UNL     1      -2.644 -11.330  -6.371  1.00  0.00     0.165 A 
ATOM      8  F   UNL     1      -3.266 -10.181  -6.026  1.00  0.00    -0.203 F 
BRANCH   3   9
ATOM      9  C   UNL     1      -0.694 -14.945  -7.459  1.00  0.00     0.335 C 
ATOM     10  O   UNL     1      -0.988 -15.505  -8.495  1.00  0.00    -0.246 OA
BRANCH   9  11
ATOM     11  O   UNL     1       0.254 -15.468  -6.656  1.00  0.00    -0.478 OA
ATOM     12  H   UNL     1       0.183 -15.278  -5.710  1.00  0.00     0.297 HD
ENDBRANCH   9  11
ENDBRANCH   3   9
ENDBRANCH   1   2
BRANCH   1  13
ATOM     13  C   UNL     1       0.652 -10.184  -5.870  1.00  0.00     0.230 C 
BRANCH  13  14
ATOM     14  C   UNL     1       1.167  -8.962  -5.107  1.00  0.00     0.046 C 
BRANCH  14  15
ATOM     15  C   UNL     1      -0.016  -8.199  -4.509  1.00  0.00     0.043 C 
BRANCH  15  16
ATOM     16  C   UNL     1       0.482  -6.950  -3.830  1.00  0.00    -0.004 A 
ATOM     17  C   UNL     1       0.870  -6.847  -2.537  1.00  0.00     0.036 A 
ATOM     18  C   UNL     1       0.633  -5.693  -4.425  1.00  0.00     0.063 A 
ATOM     19  N   UNL     1       1.246  -5.568  -2.321  1.00  0.00    -0.282 N 
ATOM     20  N   UNL     1       1.084  -4.863  -3.521  1.00  0.00    -0.181 NA
ATOM     21  C   UNL     1       0.880  -7.959  -1.522  1.00  0.00     0.066 C 
ATOM     22  C   UNL     1       0.318  -5.351  -5.859  1.00  0.00     0.069 C 
ATOM     23  H   UNL     1       1.570  -5.203  -1.483  1.00  0.00     0.190 HD
ENDBRANCH  15  16
ENDBRANCH  14  15
ENDBRANCH  13  14
ENDBRANCH   1  13
TORSDOF 7
ENDMDL
MODEL 9
REMARK VINA RESULT:    -4.438      4.484      8.168
REMARK INTER + INTRA:          -6.778
REMARK INTER:                  -6.111
REMARK INTRA:                  -0.667
REMARK UNBOUND:                -0.654
REMARK SMILES Cc1n[nH]c(C)c1CCCOc1cc(C(=O)O)ccc1F
REMARK SMILES IDX 11 1 12 2 14 3 18 4 13 5 19 6 20 7 21 8 15 9 16 10 17 11
REMARK SMILES IDX 10 13 9 14 8 15 7 16 5 17 2 18 4 19 3 20 6 21 1 22
REMARK H PARENT 17 12 4 23
ROOT
ATOM      1  O   UNL     1       2.522  -9.739  -6.379  1.00  0.00    -0.490 OA
ENDROOT
BRANCH   1   2
ATOM      2  C   UNL     1       3.333 -10.730  -6.834  1.00  0.00     0.155 A 
ATOM      3  C   UNL     1       3.715 -12.623  -8.267  1.00  0.00     0.063 A 
ATOM      4  C   UNL     1       5.011 -12.743  -7.757  1.00  0.00     0.019 A 
ATOM      5  C   UNL     1       2.877 -11.609  -7.799  1.00  0.00     0.065 A 
ATOM      6  C   UNL     1       5.459 -11.858  -6.798  1.00  0.00     0.044 A 
ATOM      7  C   UNL     1       4.627 -10.850  -6.339  1.00  0.00     0.165 A 
ATOM      8  F   UNL     1       5.072  -9.987  -5.400  1.00  0.00    -0.203 F 
BRANCH   3   9
ATOM      9  C   UNL     1       3.233 -13.568  -9.293  1.00  0.00     0.335 C 
ATOM     10  O   UNL     1       3.918 -14.517  -9.616  1.00  0.00    -0.246 OA
BRANCH   9  11
ATOM     11  O   UNL     1       2.028 -13.381  -9.867  1.00  0.00    -0.478 OA
ATOM     12  H   UNL     1       1.531 -14.174 -10.114  1.00  0.00     0.297 HD
ENDBRANCH   9  11
ENDBRANCH   3   9
ENDBRANCH   1   2
BRANCH   1  13
ATOM     13  C   UNL     1       1.325 -10.137  -5.706  1.00  0.00     0.230 C 
BRANCH  13  14
ATOM     14  C   UNL     1       0.524  -8.895  -5.313  1.00  0.00     0.046 C 
BRANCH  14  15
ATOM     15  C   UNL     1       1.455  -7.877  -4.649  1.00  0.00     0.043 C 
BRANCH  15  16
ATOM     16  C   UNL     1       0.634  -6.843  -3.923  1.00  0.00    -0.004 A 
ATOM     17  C   UNL     1       0.308  -6.864  -2.609  1.00  0.00     0.036 A 
ATOM     18  C   UNL     1       0.080  -5.689  -4.485  1.00  0.00     0.063 A 
ATOM     19  N   UNL     1      -0.432  -5.765  -2.352  1.00  0.00    -0.282 N 
ATOM     20  N   UNL     1      -0.565  -5.045  -3.546  1.00  0.00    -0.181 NA
ATOM     21  C   UNL     1       0.701  -7.924  -1.614  1.00  0.00     0.066 C 
ATOM     22  C   UNL     1       0.195  -5.265  -5.927  1.00  0.00     0.069 C 
ATOM     23  H   UNL     1      -0.806  -5.518  -1.492  1.00  0.00     0.190 HD
ENDBRANCH  15  16
ENDBRANCH  14  15
ENDBRANCH  13  14
ENDBRANCH   1  13
TORSDOF 7
ENDMDL
