MODEL 1
REMARK VINA RESULT:    -4.342      0.000      0.000
REMARK INTER + INTRA:          -5.259
REMARK INTER:                  -4.976
REMARK INTRA:                  -0.283
REMARK UNBOUND:                -0.283
REMARK SMILES O=C(O)c1ccc2nc(-c3cc(Cl)cc(Cl)c3)oc2c1
REMARK SMILES IDX 5 1 6 2 20 3 8 4 18 5 4 6 9 7 7 8 19 9 2 10 1 11 3 12 10 14
REMARK SMILES IDX 11 15 17 16 12 17 15 18 14 19 13 20 16 21
REMARK H PARENT 3 13
ROOT
ATOM      1  C   UNL     1      -3.610 -14.832  -8.040  1.00  0.00     0.018 A 
ATOM      2  C   UNL     1      -2.361 -14.559  -7.568  1.00  0.00     0.033 A 
ATOM      3  C   UNL     1      -4.260 -12.517  -7.727  1.00  0.00     0.065 A 
ATOM      4  N   UNL     1      -0.911 -12.697  -6.667  1.00  0.00    -0.209 NA
ATOM      5  O   UNL     1      -2.397 -11.113  -6.789  1.00  0.00    -0.436 OA
ATOM      6  C   UNL     1      -4.573 -13.817  -8.127  1.00  0.00     0.063 A 
ATOM      7  C   UNL     1      -1.133 -11.425  -6.448  1.00  0.00     0.227 A 
ATOM      8  C   UNL     1      -2.034 -13.259  -7.163  1.00  0.00     0.110 A 
ATOM      9  C   UNL     1      -2.996 -12.237  -7.243  1.00  0.00     0.156 A 
ENDROOT
BRANCH   6  10
ATOM     10  C   UNL     1      -5.919 -14.123  -8.644  1.00  0.00     0.335 C 
ATOM     11  O   UNL     1      -6.145 -14.041  -9.835  1.00  0.00    -0.246 OA
BRANCH  10  12
ATOM     12  O   UNL     1      -6.900 -14.492  -7.797  1.00  0.00    -0.478 OA
ATOM     13  H   UNL     1      -6.690 -15.188  -7.159  1.00  0.00     0.297 HD
ENDBRANCH  10  12
ENDBRANCH   6  10
BRANCH   7  14
ATOM     14  C   UNL     1      -0.141 -10.473  -5.905  1.00  0.00     0.040 A 
ATOM     15  C   UNL     1      -0.542  -9.474  -5.017  1.00  0.00     0.034 A 
ATOM     16  C   UNL     1       1.200 -10.571  -6.279  1.00  0.00     0.034 A 
ATOM     17  C   UNL     1       0.390  -8.588  -4.513  1.00  0.00     0.043 A 
ATOM     18  C   UNL     1       2.123  -9.679  -5.768  1.00  0.00     0.043 A 
ATOM     19  C   UNL     1       1.719  -8.690  -4.888  1.00  0.00     0.041 A 
ATOM     20  Cl  UNL     1      -0.105  -7.344  -3.408  1.00  0.00    -0.084 Cl
ATOM     21  Cl  UNL     1       3.792  -9.799  -6.232  1.00  0.00    -0.084 Cl
ENDBRANCH   7  14
TORSDOF 3
ENDMDL
MODEL 2
REMARK VINA RESULT:    -4.335      0.051      2.020
REMARK INTER + INTRA:          -5.252
REMARK INTER:                  -4.969
REMARK INTRA:                  -0.283
REMARK UNBOUND:                -0.283
REMARK SMILES O=C(O)c1ccc2nc(-c3cc(Cl)cc(Cl)c3)oc2c1
REMARK SMILES IDX 5 1 6 2 20 3 8 4 18 5 4 6 9 7 7 8 19 9 2 10 1 11 3 12 10 14
REMARK SMILES IDX 11 15 17 16 12 17 15 18 14 19 13 20 16 21
REMARK H PARENT 3 13
ROOT
ATOM      1  C   UNL     1      -3.616 -14.836  -8.022  1.00  0.00     0.018 A 
ATOM      2  C   UNL     1      -2.367 -14.564  -7.549  1.00  0.00     0.033 A 
ATOM      3  C   UNL     1      -4.261 -12.517  -7.727  1.00  0.00     0.065 A 
ATOM      4  N   UNL     1      -0.914 -12.699  -6.657  1.00  0.00    -0.209 NA
ATOM      5  O   UNL     1      -2.396 -11.112  -6.794  1.00  0.00    -0.436 OA
ATOM      6  C   UNL     1      -4.576 -13.820  -8.119  1.00  0.00     0.063 A 
ATOM      7  C   UNL     1      -1.133 -11.425  -6.448  1.00  0.00     0.227 A 
ATOM      8  C   UNL     1      -2.038 -13.262  -7.153  1.00  0.00     0.110 A 
ATOM      9  C   UNL     1      -2.996 -12.237  -7.242  1.00  0.00     0.156 A 
ENDROOT
BRANCH   6  10
ATOM     10  C   UNL     1      -5.922 -14.126  -8.638  1.00  0.00     0.335 C 
ATOM     11  O   UNL     1      -6.189 -13.903  -9.802  1.00  0.00    -0.246 OA
BRANCH  10  12
ATOM     12  O   UNL     1      -6.856 -14.652  -7.821  1.00  0.00    -0.478 OA
ATOM     13  H   UNL     1      -7.699 -14.184  -7.759  1.00  0.00     0.297 HD
ENDBRANCH  10  12
ENDBRANCH   6  10
BRANCH   7  14
ATOM     14  C   UNL     1      -0.141 -10.472  -5.909  1.00  0.00     0.040 A 
ATOM     15  C   UNL     1       1.200 -10.569  -6.284  1.00  0.00     0.034 A 
ATOM     16  C   UNL     1      -0.541  -9.472  -5.021  1.00  0.00     0.034 A 
ATOM     17  C   UNL     1       2.122  -9.675  -5.778  1.00  0.00     0.043 A 
ATOM     18  C   UNL     1       0.391  -8.584  -4.522  1.00  0.00     0.043 A 
ATOM     19  C   UNL     1       1.719  -8.685  -4.898  1.00  0.00     0.041 A 
ATOM     20  Cl  UNL     1       3.790  -9.793  -6.244  1.00  0.00    -0.084 Cl
ATOM     21  Cl  UNL     1      -0.104  -7.338  -3.417  1.00  0.00    -0.084 Cl
ENDBRANCH   7  14
TORSDOF 3
ENDMDL
MODEL 3
REMARK VINA RESULT:    -4.223      5.073      6.505
REMARK INTER + INTRA:          -5.123
REMARK INTER:                  -4.827
REMARK INTRA:                  -0.296
REMARK UNBOUND:                -0.283
REMARK SMILES O=C(O)c1ccc2nc(-c3cc(Cl)cc(Cl)c3)oc2c1
REMARK SMILES IDX 5 1 6 2 20 3 8 4 18 5 4 6 9 7 7 8 19 9 2 10 1 11 3 12 10 14
REMARK SMILES IDX 11 15 17 16 12 17 15 18 14 19 13 20 16 21
REMARK H PARENT 3 13
ROOT
ATOM      1  C   UNL     1       0.956 -11.517  -6.700  1.00  0.00     0.018 A 
ATOM      2  C   UNL     1       0.124 -10.773  -5.917  1.00  0.00     0.033 A 
ATOM      3  C   UNL     1       2.743  -9.911  -6.369  1.00  0.00     0.065 A 
ATOM      4  N   UNL     1       0.009  -8.654  -4.547  1.00  0.00    -0.209 NA
ATOM      5  O   UNL     1       2.049  -7.987  -4.908  1.00  0.00    -0.436 OA
ATOM      6  C   UNL     1       2.273 -11.099  -6.934  1.00  0.00     0.063 A 
ATOM      7  C   UNL     1       0.884  -7.713  -4.291  1.00  0.00     0.227 A 
ATOM      8  C   UNL     1       0.583  -9.580  -5.345  1.00  0.00     0.110 A 
ATOM      9  C   UNL     1       1.901  -9.151  -5.579  1.00  0.00     0.156 A 
ENDROOT
BRANCH   6  10
ATOM     10  C   UNL     1       3.166 -11.915  -7.777  1.00  0.00     0.335 C 
ATOM     11  O   UNL     1       4.261 -11.492  -8.089  1.00  0.00    -0.246 OA
BRANCH  10  12
ATOM     12  O   UNL     1       2.766 -13.130  -8.202  1.00  0.00    -0.478 OA
ATOM     13  H   UNL     1       3.311 -13.561  -8.874  1.00  0.00     0.297 HD
ENDBRANCH  10  12
ENDBRANCH   6  10
BRANCH   7  14
ATOM     14  C   UNL     1       0.628  -6.525  -3.450  1.00  0.00     0.040 A 
ATOM     15  C   UNL     1      -0.323  -6.579  -2.431  1.00  0.00     0.034 A 
ATOM     16  C   UNL     1       1.337  -5.343  -3.674  1.00  0.00     0.034 A 
ATOM     17  C   UNL     1      -0.557  -5.466  -1.648  1.00  0.00     0.043 A 
ATOM     18  C   UNL     1       1.095  -4.236  -2.885  1.00  0.00     0.043 A 
ATOM     19  C   UNL     1       0.150  -4.296  -1.875  1.00  0.00     0.041 A 
ATOM     20  Cl  UNL     1      -1.739  -5.531  -0.378  1.00  0.00    -0.084 Cl
ATOM     21  Cl  UNL     1       1.975  -2.765  -3.161  1.00  0.00    -0.084 Cl
ENDBRANCH   7  14
TORSDOF 3
ENDMDL
MODEL 4
REMARK VINA RESULT:    -4.220      5.075      6.673
REMARK INTER + INTRA:          -5.119
REMARK INTER:                  -4.824
REMARK INTRA:                  -0.295
REMARK UNBOUND:                -0.283
REMARK SMILES O=C(O)c1ccc2nc(-c3cc(Cl)cc(Cl)c3)oc2c1
REMARK SMILES IDX 5 1 6 2 20 3 8 4 18 5 4 6 9 7 7 8 19 9 2 10 1 11 3 12 10 14
REMARK SMILES IDX 11 15 17 16 12 17 15 18 14 19 13 20 16 21
REMARK H PARENT 3 13
ROOT
ATOM      1  C   UNL     1       0.961 -11.515  -6.701  1.00  0.00     0.018 A 
ATOM      2  C   UNL     1       0.129 -10.770  -5.920  1.00  0.00     0.033 A 
ATOM      3  C   UNL     1       2.749  -9.911  -6.368  1.00  0.00     0.065 A 
ATOM      4  N   UNL     1       0.013  -8.651  -4.550  1.00  0.00    -0.209 NA
ATOM      5  O   UNL     1       2.054  -7.986  -4.908  1.00  0.00    -0.436 OA
ATOM      6  C   UNL     1       2.279 -11.098  -6.933  1.00  0.00     0.063 A 
ATOM      7  C   UNL     1       0.888  -7.711  -4.293  1.00  0.00     0.227 A 
ATOM      8  C   UNL     1       0.587  -9.578  -5.347  1.00  0.00     0.110 A 
ATOM      9  C   UNL     1       1.906  -9.150  -5.579  1.00  0.00     0.156 A 
ENDROOT
BRANCH   6  10
ATOM     10  C   UNL     1       3.172 -11.916  -7.774  1.00  0.00     0.335 C 
ATOM     11  O   UNL     1       4.270 -11.496  -8.080  1.00  0.00    -0.246 OA
BRANCH  10  12
ATOM     12  O   UNL     1       2.769 -13.127  -8.206  1.00  0.00    -0.478 OA
ATOM     13  H   UNL     1       2.008 -13.522  -7.760  1.00  0.00     0.297 HD
ENDBRANCH  10  12
ENDBRANCH   6  10
BRANCH   7  14
ATOM     14  C   UNL     1       0.632  -6.522  -3.453  1.00  0.00     0.040 A 
ATOM     15  C   UNL     1       1.340  -5.341  -3.675  1.00  0.00     0.034 A 
ATOM     16  C   UNL     1      -0.319  -6.578  -2.432  1.00  0.00     0.034 A 
ATOM     17  C   UNL     1       1.095  -4.233  -2.887  1.00  0.00     0.043 A 
ATOM     18  C   UNL     1      -0.555  -5.465  -1.651  1.00  0.00     0.043 A 
ATOM     19  C   UNL     1       0.151  -4.295  -1.877  1.00  0.00     0.041 A 
ATOM     20  Cl  UNL     1       1.974  -2.762  -3.163  1.00  0.00    -0.084 Cl
ATOM     21  Cl  UNL     1      -1.737  -5.532  -0.381  1.00  0.00    -0.084 Cl
ENDBRANCH   7  14
TORSDOF 3
ENDMDL
MODEL 5
REMARK VINA RESULT:    -4.191      3.436      5.462
REMARK INTER + INTRA:          -5.086
REMARK INTER:                  -4.791
REMARK INTRA:                  -0.295
REMARK UNBOUND:                -0.283
REMARK SMILES O=C(O)c1ccc2nc(-c3cc(Cl)cc(Cl)c3)oc2c1
REMARK SMILES IDX 5 1 6 2 20 3 8 4 18 5 4 6 9 7 7 8 19 9 2 10 1 11 3 12 10 14
REMARK SMILES IDX 11 15 17 16 12 17 15 18 14 19 13 20 16 21
REMARK H PARENT 3 13
ROOT
ATOM      1  C   UNL     1       0.932 -11.590  -6.632  1.00  0.00     0.018 A 
ATOM      2  C   UNL     1       1.610 -10.464  -6.271  1.00  0.00     0.033 A 
ATOM      3  C   UNL     1      -1.081 -10.743  -5.579  1.00  0.00     0.065 A 
ATOM      4  N   UNL     1       1.355  -8.257  -5.069  1.00  0.00    -0.209 NA
ATOM      5  O   UNL     1      -0.741  -8.484  -4.529  1.00  0.00    -0.436 OA
ATOM      6  C   UNL     1      -0.420 -11.743  -6.294  1.00  0.00     0.063 A 
ATOM      7  C   UNL     1       0.342  -7.688  -4.463  1.00  0.00     0.227 A 
ATOM      8  C   UNL     1       0.959  -9.454  -5.554  1.00  0.00     0.110 A 
ATOM      9  C   UNL     1      -0.396  -9.602  -5.206  1.00  0.00     0.156 A 
ENDROOT
BRANCH   6  10
ATOM     10  C   UNL     1      -1.145 -12.962  -6.695  1.00  0.00     0.335 C 
ATOM     11  O   UNL     1      -2.279 -13.151  -6.304  1.00  0.00    -0.246 OA
BRANCH  10  12
ATOM     12  O   UNL     1      -0.549 -13.869  -7.495  1.00  0.00    -0.478 OA
ATOM     13  H   UNL     1       0.271 -13.599  -7.930  1.00  0.00     0.297 HD
ENDBRANCH  10  12
ENDBRANCH   6  10
BRANCH   7  14
ATOM     14  C   UNL     1       0.385  -6.366  -3.804  1.00  0.00     0.040 A 
ATOM     15  C   UNL     1       1.252  -5.377  -4.270  1.00  0.00     0.034 A 
ATOM     16  C   UNL     1      -0.443  -6.102  -2.711  1.00  0.00     0.034 A 
ATOM     17  C   UNL     1       1.286  -4.144  -3.650  1.00  0.00     0.043 A 
ATOM     18  C   UNL     1      -0.400  -4.865  -2.099  1.00  0.00     0.043 A 
ATOM     19  C   UNL     1       0.462  -3.888  -2.566  1.00  0.00     0.041 A 
ATOM     20  Cl  UNL     1       2.364  -2.912  -4.228  1.00  0.00    -0.084 Cl
ATOM     21  Cl  UNL     1      -1.429  -4.534  -0.740  1.00  0.00    -0.084 Cl
ENDBRANCH   7  14
TORSDOF 3
ENDMDL
MODEL 6
REMARK VINA RESULT:    -4.191      3.435      5.189
REMARK INTER + INTRA:          -5.086
REMARK INTER:                  -4.790
REMARK INTRA:                  -0.295
REMARK UNBOUND:                -0.283
REMARK SMILES O=C(O)c1ccc2nc(-c3cc(Cl)cc(Cl)c3)oc2c1
REMARK SMILES IDX 5 1 6 2 20 3 8 4 18 5 4 6 9 7 7 8 19 9 2 10 1 11 3 12 10 14
REMARK SMILES IDX 11 15 17 16 12 17 15 18 14 19 13 20 16 21
REMARK H PARENT 3 13
ROOT
ATOM      1  C   UNL     1       0.931 -11.592  -6.630  1.00  0.00     0.018 A 
ATOM      2  C   UNL     1       1.608 -10.466  -6.265  1.00  0.00     0.033 A 
ATOM      3  C   UNL     1      -1.085 -10.750  -5.577  1.00  0.00     0.065 A 
ATOM      4  N   UNL     1       1.348  -8.262  -5.059  1.00  0.00    -0.209 NA
ATOM      5  O   UNL     1      -0.748  -8.493  -4.522  1.00  0.00    -0.436 OA
ATOM      6  C   UNL     1      -0.421 -11.747  -6.293  1.00  0.00     0.063 A 
ATOM      7  C   UNL     1       0.334  -7.695  -4.453  1.00  0.00     0.227 A 
ATOM      8  C   UNL     1       0.954  -9.458  -5.547  1.00  0.00     0.110 A 
ATOM      9  C   UNL     1      -0.400  -9.609  -5.201  1.00  0.00     0.156 A 
ENDROOT
BRANCH   6  10
ATOM     10  C   UNL     1      -1.144 -12.967  -6.698  1.00  0.00     0.335 C 
ATOM     11  O   UNL     1      -2.280 -13.155  -6.313  1.00  0.00    -0.246 OA
BRANCH  10  12
ATOM     12  O   UNL     1      -0.543 -13.874  -7.494  1.00  0.00    -0.478 OA
ATOM     13  H   UNL     1      -0.717 -13.809  -8.443  1.00  0.00     0.297 HD
ENDBRANCH  10  12
ENDBRANCH   6  10
BRANCH   7  14
ATOM     14  C   UNL     1       0.374  -6.375  -3.790  1.00  0.00     0.040 A 
ATOM     15  C   UNL     1      -0.456  -6.112  -2.700  1.00  0.00     0.034 A 
ATOM     16  C   UNL     1       1.243  -5.384  -4.254  1.00  0.00     0.034 A 
ATOM     17  C   UNL     1      -0.413  -4.876  -2.085  1.00  0.00     0.043 A 
ATOM     18  C   UNL     1       1.276  -4.153  -3.631  1.00  0.00     0.043 A 
ATOM     19  C   UNL     1       0.450  -3.899  -2.550  1.00  0.00     0.041 A 
ATOM     20  Cl  UNL     1      -1.445  -4.547  -0.728  1.00  0.00    -0.084 Cl
ATOM     21  Cl  UNL     1       2.356  -2.920  -4.206  1.00  0.00    -0.084 Cl
ENDBRANCH   7  14
TORSDOF 3
ENDMDL
MODEL 7
REMARK VINA RESULT:    -4.001      4.984      8.730
REMARK INTER + INTRA:          -4.869
REMARK INTER:                  -4.572
REMARK INTRA:                  -0.297
REMARK UNBOUND:                -0.283
REMARK SMILES O=C(O)c1ccc2nc(-c3cc(Cl)cc(Cl)c3)oc2c1
REMARK SMILES IDX 5 1 6 2 20 3 8 4 18 5 4 6 9 7 7 8 19 9 2 10 1 11 3 12 10 14
REMARK SMILES IDX 11 15 17 16 12 17 15 18 14 19 13 20 16 21
REMARK H PARENT 3 13
ROOT
ATOM      1  C   UNL     1       1.299  -3.902  -2.917  1.00  0.00     0.018 A 
ATOM      2  C   UNL     1       1.936  -4.753  -3.770  1.00  0.00     0.033 A 
ATOM      3  C   UNL     1      -0.474  -5.523  -2.588  1.00  0.00     0.065 A 
ATOM      4  N   UNL     1       1.770  -7.037  -4.835  1.00  0.00    -0.209 NA
ATOM      5  O   UNL     1      -0.111  -7.628  -3.914  1.00  0.00    -0.436 OA
ATOM      6  C   UNL     1       0.089  -4.276  -2.315  1.00  0.00     0.063 A 
ATOM      7  C   UNL     1       0.880  -7.995  -4.748  1.00  0.00     0.227 A 
ATOM      8  C   UNL     1       1.382  -6.007  -4.053  1.00  0.00     0.110 A 
ATOM      9  C   UNL     1       0.167  -6.387  -3.457  1.00  0.00     0.156 A 
ENDROOT
BRANCH   6  10
ATOM     10  C   UNL     1      -0.588  -3.350  -1.389  1.00  0.00     0.335 C 
ATOM     11  O   UNL     1      -0.075  -2.285  -1.112  1.00  0.00    -0.246 OA
BRANCH  10  12
ATOM     12  O   UNL     1      -1.777  -3.685  -0.850  1.00  0.00    -0.478 OA
ATOM     13  H   UNL     1      -2.364  -2.961  -0.596  1.00  0.00     0.297 HD
ENDBRANCH  10  12
ENDBRANCH   6  10
BRANCH   7  14
ATOM     14  C   UNL     1       0.955  -9.287  -5.461  1.00  0.00     0.040 A 
ATOM     15  C   UNL     1       2.155  -9.700  -6.040  1.00  0.00     0.034 A 
ATOM     16  C   UNL     1      -0.177 -10.100  -5.558  1.00  0.00     0.034 A 
ATOM     17  C   UNL     1       2.218 -10.909  -6.704  1.00  0.00     0.043 A 
ATOM     18  C   UNL     1      -0.101 -11.307  -6.224  1.00  0.00     0.043 A 
ATOM     19  C   UNL     1       1.093 -11.710  -6.797  1.00  0.00     0.041 A 
ATOM     20  Cl  UNL     1       3.711 -11.425  -7.426  1.00  0.00    -0.084 Cl
ATOM     21  Cl  UNL     1      -1.507 -12.319  -6.345  1.00  0.00    -0.084 Cl
ENDBRANCH   7  14
TORSDOF 3
ENDMDL
MODEL 8
REMARK VINA RESULT:    -3.987      4.958      8.612
REMARK INTER + INTRA:          -4.853
REMARK INTER:                  -4.555
REMARK INTRA:                  -0.297
REMARK UNBOUND:                -0.283
REMARK SMILES O=C(O)c1ccc2nc(-c3cc(Cl)cc(Cl)c3)oc2c1
REMARK SMILES IDX 5 1 6 2 20 3 8 4 18 5 4 6 9 7 7 8 19 9 2 10 1 11 3 12 10 14
REMARK SMILES IDX 11 15 17 16 12 17 15 18 14 19 13 20 16 21
REMARK H PARENT 3 13
ROOT
ATOM      1  C   UNL     1       1.337  -3.851  -2.923  1.00  0.00     0.018 A 
ATOM      2  C   UNL     1       1.938  -4.728  -3.775  1.00  0.00     0.033 A 
ATOM      3  C   UNL     1      -0.471  -5.422  -2.544  1.00  0.00     0.065 A 
ATOM      4  N   UNL     1       1.696  -7.020  -4.808  1.00  0.00    -0.209 NA
ATOM      5  O   UNL     1      -0.183  -7.552  -3.849  1.00  0.00    -0.436 OA
ATOM      6  C   UNL     1       0.128  -4.186  -2.296  1.00  0.00     0.063 A 
ATOM      7  C   UNL     1       0.785  -7.954  -4.694  1.00  0.00     0.227 A 
ATOM      8  C   UNL     1       1.348  -5.971  -4.033  1.00  0.00     0.110 A 
ATOM      9  C   UNL     1       0.134  -6.313  -3.412  1.00  0.00     0.156 A 
ENDROOT
BRANCH   6  10
ATOM     10  C   UNL     1      -0.510  -3.232  -1.371  1.00  0.00     0.335 C 
ATOM     11  O   UNL     1       0.078  -2.222  -1.039  1.00  0.00    -0.246 OA
BRANCH  10  12
ATOM     12  O   UNL     1      -1.745  -3.480  -0.893  1.00  0.00    -0.478 OA
ATOM     13  H   UNL     1      -2.257  -4.171  -1.335  1.00  0.00     0.297 HD
ENDBRANCH  10  12
ENDBRANCH   6  10
BRANCH   7  14
ATOM     14  C   UNL     1       0.815  -9.257  -5.392  1.00  0.00     0.040 A 
ATOM     15  C   UNL     1      -0.336 -10.042  -5.459  1.00  0.00     0.034 A 
ATOM     16  C   UNL     1       1.996  -9.706  -5.985  1.00  0.00     0.034 A 
ATOM     17  C   UNL     1      -0.302 -11.258  -6.113  1.00  0.00     0.043 A 
ATOM     18  C   UNL     1       2.018 -10.923  -6.636  1.00  0.00     0.043 A 
ATOM     19  C   UNL     1       0.873 -11.698  -6.700  1.00  0.00     0.041 A 
ATOM     20  Cl  UNL     1      -1.733 -12.237  -6.200  1.00  0.00    -0.084 Cl
ATOM     21  Cl  UNL     1       3.486 -11.485  -7.374  1.00  0.00    -0.084 Cl
ENDBRANCH   7  14
TORSDOF 3
ENDMDL
MODEL 9
REMARK VINA RESULT:    -3.937      5.098      7.726
REMARK INTER + INTRA:          -4.795
REMARK INTER:                  -4.513
REMARK INTRA:                  -0.282
REMARK UNBOUND:                -0.283
REMARK SMILES O=C(O)c1ccc2nc(-c3cc(Cl)cc(Cl)c3)oc2c1
REMARK SMILES IDX 5 1 6 2 20 3 8 4 18 5 4 6 9 7 7 8 19 9 2 10 1 11 3 12 10 14
REMARK SMILES IDX 11 15 17 16 12 17 15 18 14 19 13 20 16 21
REMARK H PARENT 3 13
ROOT
ATOM      1  C   UNL     1       6.902 -12.938  -7.287  1.00  0.00     0.018 A 
ATOM      2  C   UNL     1       6.306 -12.148  -6.351  1.00  0.00     0.033 A 
ATOM      3  C   UNL     1       4.886 -12.904  -8.634  1.00  0.00     0.065 A 
ATOM      4  N   UNL     1       4.150 -10.952  -5.802  1.00  0.00    -0.209 NA
ATOM      5  O   UNL     1       3.049 -11.549  -7.580  1.00  0.00    -0.436 OA
ATOM      6  C   UNL     1       6.203 -13.324  -8.439  1.00  0.00     0.063 A 
ATOM      7  C   UNL     1       3.004 -10.854  -6.428  1.00  0.00     0.227 A 
ATOM      8  C   UNL     1       4.986 -11.719  -6.533  1.00  0.00     0.110 A 
ATOM      9  C   UNL     1       4.276 -12.106  -7.684  1.00  0.00     0.156 A 
ENDROOT
BRANCH   6  10
ATOM     10  C   UNL     1       6.860 -14.175  -9.448  1.00  0.00     0.335 C 
ATOM     11  O   UNL     1       6.577 -15.354  -9.526  1.00  0.00    -0.246 OA
BRANCH  10  12
ATOM     12  O   UNL     1       7.775 -13.645 -10.284  1.00  0.00    -0.478 OA
ATOM     13  H   UNL     1       8.503 -13.151  -9.882  1.00  0.00     0.297 HD
ENDBRANCH  10  12
ENDBRANCH   6  10
BRANCH   7  14
ATOM     14  C   UNL     1       1.834 -10.094  -5.941  1.00  0.00     0.040 A 
ATOM     15  C   UNL     1       1.993  -8.792  -5.465  1.00  0.00     0.034 A 
ATOM     16  C   UNL     1       0.566 -10.678  -5.953  1.00  0.00     0.034 A 
ATOM     17  C   UNL     1       0.895  -8.087  -5.012  1.00  0.00     0.043 A 
ATOM     18  C   UNL     1      -0.524  -9.962  -5.497  1.00  0.00     0.043 A 
ATOM     19  C   UNL     1      -0.360  -8.671  -5.027  1.00  0.00     0.041 A 
ATOM     20  Cl  UNL     1       1.090  -6.466  -4.421  1.00  0.00    -0.084 Cl
ATOM     21  Cl  UNL     1      -2.102 -10.686  -5.512  1.00  0.00    -0.084 Cl
ENDBRANCH   7  14
TORSDOF 3
ENDMDL
