MODEL 1
REMARK VINA RESULT:    -5.622      0.000      0.000
REMARK INTER + INTRA:          -8.416
REMARK INTER:                  -7.758
REMARK INTRA:                  -0.657
REMARK UNBOUND:                -0.657
REMARK SMILES Cc1n[nH]c(C)c1CCCOc1cc(C(=O)O)ccc1F
REMARK SMILES IDX 11 1 12 2 14 3 18 4 13 5 19 6 20 7 21 8 15 9 16 10 17 11
REMARK SMILES IDX 10 13 9 14 8 15 7 16 5 17 2 18 4 19 3 20 6 21 1 22
REMARK H PARENT 17 12 4 23
ROOT
ATOM      1  O   UNL     1       5.992  -7.249  -2.383  1.00  0.00    -0.490 OA
ENDROOT
BRANCH   1   2
ATOM      2  C   UNL     1       5.568  -6.033  -1.946  1.00  0.00     0.155 A 
ATOM      3  C   UNL     1       5.998  -3.951  -0.823  1.00  0.00     0.063 A 
ATOM      4  C   UNL     1       4.683  -3.549  -1.072  1.00  0.00     0.019 A 
ATOM      5  C   UNL     1       6.436  -5.201  -1.265  1.00  0.00     0.065 A 
ATOM      6  C   UNL     1       3.826  -4.383  -1.758  1.00  0.00     0.044 A 
ATOM      7  C   UNL     1       4.264  -5.621  -2.200  1.00  0.00     0.165 A 
ATOM      8  F   UNL     1       3.419  -6.433  -2.872  1.00  0.00    -0.203 F 
BRANCH   3   9
ATOM      9  C   UNL     1       6.918  -3.061  -0.089  1.00  0.00     0.335 C 
ATOM     10  O   UNL     1       7.542  -3.483   0.863  1.00  0.00    -0.246 OA
BRANCH   9  11
ATOM     11  O   UNL     1       7.071  -1.780  -0.480  1.00  0.00    -0.478 OA
ATOM     12  H   UNL     1       6.398  -1.420  -1.075  1.00  0.00     0.297 HD
ENDBRANCH   9  11
ENDBRANCH   3   9
ENDBRANCH   1   2
BRANCH   1  13
ATOM     13  C   UNL     1       6.095  -8.289  -1.407  1.00  0.00     0.230 C 
BRANCH  13  14
ATOM     14  C   UNL     1       7.252  -9.220  -1.774  1.00  0.00     0.046 C 
BRANCH  14  15
ATOM     15  C   UNL     1       8.417  -8.393  -2.323  1.00  0.00     0.043 C 
BRANCH  15  16
ATOM     16  C   UNL     1       9.611  -9.287  -2.536  1.00  0.00    -0.004 A 
ATOM     17  C   UNL     1      10.611  -9.504  -1.650  1.00  0.00     0.036 A 
ATOM     18  C   UNL     1       9.879 -10.044  -3.681  1.00  0.00     0.063 A 
ATOM     19  N   UNL     1      11.484 -10.362  -2.218  1.00  0.00    -0.282 N 
ATOM     20  N   UNL     1      11.005 -10.683  -3.495  1.00  0.00    -0.181 NA
ATOM     21  C   UNL     1      10.728  -8.896  -0.277  1.00  0.00     0.066 C 
ATOM     22  C   UNL     1       9.025 -10.102  -4.922  1.00  0.00     0.069 C 
ATOM     23  H   UNL     1      12.300 -10.697  -1.814  1.00  0.00     0.190 HD
ENDBRANCH  15  16
ENDBRANCH  14  15
ENDBRANCH  13  14
ENDBRANCH   1  13
TORSDOF 7
ENDMDL
MODEL 2
REMARK VINA RESULT:    -5.594      2.115      3.747
REMARK INTER + INTRA:          -8.377
REMARK INTER:                  -7.773
REMARK INTRA:                  -0.604
REMARK UNBOUND:                -0.657
REMARK SMILES Cc1n[nH]c(C)c1CCCOc1cc(C(=O)O)ccc1F
REMARK SMILES IDX 11 1 12 2 14 3 18 4 13 5 19 6 20 7 21 8 15 9 16 10 17 11
REMARK SMILES IDX 10 13 9 14 8 15 7 16 5 17 2 18 4 19 3 20 6 21 1 22
REMARK H PARENT 17 12 4 23
ROOT
ATOM      1  O   UNL     1       8.064  -4.679  -2.734  1.00  0.00    -0.490 OA
ENDROOT
BRANCH   1   2
ATOM      2  C   UNL     1       6.803  -4.592  -2.233  1.00  0.00     0.155 A 
ATOM      3  C   UNL     1       4.504  -5.297  -2.231  1.00  0.00     0.063 A 
ATOM      4  C   UNL     1       4.235  -4.407  -1.188  1.00  0.00     0.019 A 
ATOM      5  C   UNL     1       5.796  -5.385  -2.752  1.00  0.00     0.065 A 
ATOM      6  C   UNL     1       5.247  -3.624  -0.673  1.00  0.00     0.044 A 
ATOM      7  C   UNL     1       6.529  -3.717  -1.188  1.00  0.00     0.165 A 
ATOM      8  F   UNL     1       7.516  -2.947  -0.679  1.00  0.00    -0.203 F 
BRANCH   3   9
ATOM      9  C   UNL     1       3.423  -6.137  -2.785  1.00  0.00     0.335 C 
ATOM     10  O   UNL     1       3.523  -6.595  -3.904  1.00  0.00    -0.246 OA
BRANCH   9  11
ATOM     11  O   UNL     1       2.329  -6.401  -2.044  1.00  0.00    -0.478 OA
ATOM     12  H   UNL     1       1.633  -5.729  -2.034  1.00  0.00     0.297 HD
ENDBRANCH   9  11
ENDBRANCH   3   9
ENDBRANCH   1   2
BRANCH   1  13
ATOM     13  C   UNL     1       9.052  -5.292  -1.902  1.00  0.00     0.230 C 
BRANCH  13  14
ATOM     14  C   UNL     1       9.631  -6.514  -2.616  1.00  0.00     0.046 C 
BRANCH  14  15
ATOM     15  C   UNL     1       8.954  -7.781  -2.088  1.00  0.00     0.043 C 
BRANCH  15  16
ATOM     16  C   UNL     1       9.886  -8.954  -2.248  1.00  0.00    -0.004 A 
ATOM     17  C   UNL     1       9.977  -9.757  -3.333  1.00  0.00     0.036 A 
ATOM     18  C   UNL     1      10.815  -9.401  -1.303  1.00  0.00     0.063 A 
ATOM     19  N   UNL     1      10.926 -10.684  -3.081  1.00  0.00    -0.282 N 
ATOM     20  N   UNL     1      11.434 -10.442  -1.798  1.00  0.00    -0.181 NA
ATOM     21  C   UNL     1       9.166  -9.638  -4.596  1.00  0.00     0.066 C 
ATOM     22  C   UNL     1      11.054  -8.796   0.057  1.00  0.00     0.069 C 
ATOM     23  H   UNL     1      11.205 -11.392  -3.681  1.00  0.00     0.190 HD
ENDBRANCH  15  16
ENDBRANCH  14  15
ENDBRANCH  13  14
ENDBRANCH   1  13
TORSDOF 7
ENDMDL
MODEL 3
REMARK VINA RESULT:    -5.566      2.116      3.281
REMARK INTER + INTRA:          -8.338
REMARK INTER:                  -7.670
REMARK INTRA:                  -0.668
REMARK UNBOUND:                -0.657
REMARK SMILES Cc1n[nH]c(C)c1CCCOc1cc(C(=O)O)ccc1F
REMARK SMILES IDX 11 1 12 2 14 3 18 4 13 5 19 6 20 7 21 8 15 9 16 10 17 11
REMARK SMILES IDX 10 13 9 14 8 15 7 16 5 17 2 18 4 19 3 20 6 21 1 22
REMARK H PARENT 17 12 4 23
ROOT
ATOM      1  O   UNL     1       8.090  -4.789  -2.621  1.00  0.00    -0.490 OA
ENDROOT
BRANCH   1   2
ATOM      2  C   UNL     1       6.820  -4.662  -2.152  1.00  0.00     0.155 A 
ATOM      3  C   UNL     1       4.505  -5.310  -2.191  1.00  0.00     0.063 A 
ATOM      4  C   UNL     1       4.234  -4.392  -1.173  1.00  0.00     0.019 A 
ATOM      5  C   UNL     1       5.807  -5.441  -2.679  1.00  0.00     0.065 A 
ATOM      6  C   UNL     1       5.252  -3.623  -0.650  1.00  0.00     0.044 A 
ATOM      7  C   UNL     1       6.544  -3.758  -1.132  1.00  0.00     0.165 A 
ATOM      8  F   UNL     1       7.537  -3.002  -0.615  1.00  0.00    -0.203 F 
BRANCH   3   9
ATOM      9  C   UNL     1       3.417  -6.135  -2.753  1.00  0.00     0.335 C 
ATOM     10  O   UNL     1       3.515  -6.586  -3.876  1.00  0.00    -0.246 OA
BRANCH   9  11
ATOM     11  O   UNL     1       2.319  -6.394  -2.017  1.00  0.00    -0.478 OA
ATOM     12  H   UNL     1       1.519  -5.892  -2.229  1.00  0.00     0.297 HD
ENDBRANCH   9  11
ENDBRANCH   3   9
ENDBRANCH   1   2
BRANCH   1  13
ATOM     13  C   UNL     1       9.002  -5.547  -1.822  1.00  0.00     0.230 C 
BRANCH  13  14
ATOM     14  C   UNL     1       9.505  -6.748  -2.625  1.00  0.00     0.046 C 
BRANCH  14  15
ATOM     15  C   UNL     1       8.977  -8.039  -1.997  1.00  0.00     0.043 C 
BRANCH  15  16
ATOM     16  C   UNL     1      10.044  -9.101  -2.056  1.00  0.00    -0.004 A 
ATOM     17  C   UNL     1      10.939  -9.385  -1.082  1.00  0.00     0.036 A 
ATOM     18  C   UNL     1      10.280  -9.972  -3.125  1.00  0.00     0.063 A 
ATOM     19  N   UNL     1      11.719 -10.396  -1.521  1.00  0.00    -0.282 N 
ATOM     20  N   UNL     1      11.288 -10.744  -2.808  1.00  0.00    -0.181 NA
ATOM     21  C   UNL     1      11.046  -8.698   0.254  1.00  0.00     0.066 C 
ATOM     22  C   UNL     1       9.514 -10.007  -4.423  1.00  0.00     0.069 C 
ATOM     23  H   UNL     1      12.448 -10.807  -1.033  1.00  0.00     0.190 HD
ENDBRANCH  15  16
ENDBRANCH  14  15
ENDBRANCH  13  14
ENDBRANCH   1  13
TORSDOF 7
ENDMDL
MODEL 4
REMARK VINA RESULT:    -5.531      0.160      1.771
REMARK INTER + INTRA:          -8.290
REMARK INTER:                  -7.623
REMARK INTRA:                  -0.667
REMARK UNBOUND:                -0.657
REMARK SMILES Cc1n[nH]c(C)c1CCCOc1cc(C(=O)O)ccc1F
REMARK SMILES IDX 11 1 12 2 14 3 18 4 13 5 19 6 20 7 21 8 15 9 16 10 17 11
REMARK SMILES IDX 10 13 9 14 8 15 7 16 5 17 2 18 4 19 3 20 6 21 1 22
REMARK H PARENT 17 12 4 23
ROOT
ATOM      1  O   UNL     1       6.046  -7.254  -2.396  1.00  0.00    -0.490 OA
ENDROOT
BRANCH   1   2
ATOM      2  C   UNL     1       5.608  -6.043  -1.963  1.00  0.00     0.155 A 
ATOM      3  C   UNL     1       6.009  -3.960  -0.829  1.00  0.00     0.063 A 
ATOM      4  C   UNL     1       4.695  -3.567  -1.095  1.00  0.00     0.019 A 
ATOM      5  C   UNL     1       6.462  -5.206  -1.268  1.00  0.00     0.065 A 
ATOM      6  C   UNL     1       3.852  -4.405  -1.794  1.00  0.00     0.044 A 
ATOM      7  C   UNL     1       4.305  -5.638  -2.232  1.00  0.00     0.165 A 
ATOM      8  F   UNL     1       3.474  -6.455  -2.917  1.00  0.00    -0.203 F 
BRANCH   3   9
ATOM      9  C   UNL     1       6.914  -3.065  -0.081  1.00  0.00     0.335 C 
ATOM     10  O   UNL     1       7.540  -3.489   0.868  1.00  0.00    -0.246 OA
BRANCH   9  11
ATOM     11  O   UNL     1       7.049  -1.778  -0.457  1.00  0.00    -0.478 OA
ATOM     12  H   UNL     1       6.742  -1.104   0.165  1.00  0.00     0.297 HD
ENDBRANCH   9  11
ENDBRANCH   3   9
ENDBRANCH   1   2
BRANCH   1  13
ATOM     13  C   UNL     1       6.158  -8.291  -1.418  1.00  0.00     0.230 C 
BRANCH  13  14
ATOM     14  C   UNL     1       7.290  -9.242  -1.811  1.00  0.00     0.046 C 
BRANCH  14  15
ATOM     15  C   UNL     1       8.473  -8.433  -2.349  1.00  0.00     0.043 C 
BRANCH  15  16
ATOM     16  C   UNL     1       9.610  -9.363  -2.681  1.00  0.00    -0.004 A 
ATOM     17  C   UNL     1       9.788 -10.017  -3.852  1.00  0.00     0.036 A 
ATOM     18  C   UNL     1      10.672  -9.699  -1.834  1.00  0.00     0.063 A 
ATOM     19  N   UNL     1      10.920 -10.746  -3.748  1.00  0.00    -0.282 N 
ATOM     20  N   UNL     1      11.454 -10.534  -2.470  1.00  0.00    -0.181 NA
ATOM     21  C   UNL     1       8.886  -9.944  -5.056  1.00  0.00     0.066 C 
ATOM     22  C   UNL     1      10.874  -9.197  -0.428  1.00  0.00     0.069 C 
ATOM     23  H   UNL     1      11.295 -11.317  -4.436  1.00  0.00     0.190 HD
ENDBRANCH  15  16
ENDBRANCH  14  15
ENDBRANCH  13  14
ENDBRANCH   1  13
TORSDOF 7
ENDMDL
MODEL 5
REMARK VINA RESULT:    -4.686      3.784      7.102
REMARK INTER + INTRA:          -7.124
REMARK INTER:                  -6.288
REMARK INTRA:                  -0.836
REMARK UNBOUND:                -0.657
REMARK SMILES Cc1n[nH]c(C)c1CCCOc1cc(C(=O)O)ccc1F
REMARK SMILES IDX 11 1 12 2 14 3 18 4 13 5 19 6 20 7 21 8 15 9 16 10 17 11
REMARK SMILES IDX 10 13 9 14 8 15 7 16 5 17 2 18 4 19 3 20 6 21 1 22
REMARK H PARENT 17 12 4 23
ROOT
ATOM      1  O   UNL     1       8.429  -6.875  -1.043  1.00  0.00    -0.490 OA
ENDROOT
BRANCH   1   2
ATOM      2  C   UNL     1       9.108  -7.908  -1.610  1.00  0.00     0.155 A 
ATOM      3  C   UNL     1       9.506  -9.370  -3.477  1.00  0.00     0.063 A 
ATOM      4  C   UNL     1      10.515 -10.012  -2.754  1.00  0.00     0.019 A 
ATOM      5  C   UNL     1       8.803  -8.313  -2.896  1.00  0.00     0.065 A 
ATOM      6  C   UNL     1      10.817  -9.597  -1.474  1.00  0.00     0.044 A 
ATOM      7  C   UNL     1      10.121  -8.545  -0.902  1.00  0.00     0.165 A 
ATOM      8  F   UNL     1      10.422  -8.142   0.353  1.00  0.00    -0.203 F 
BRANCH   3   9
ATOM      9  C   UNL     1       9.181  -9.812  -4.847  1.00  0.00     0.335 C 
ATOM     10  O   UNL     1       8.303 -10.630  -5.029  1.00  0.00    -0.246 OA
BRANCH   9  11
ATOM     11  O   UNL     1       9.855  -9.302  -5.896  1.00  0.00    -0.478 OA
ATOM     12  H   UNL     1       9.400  -9.298  -6.751  1.00  0.00     0.297 HD
ENDBRANCH   9  11
ENDBRANCH   3   9
ENDBRANCH   1   2
BRANCH   1  13
ATOM     13  C   UNL     1       8.136  -5.754  -1.880  1.00  0.00     0.230 C 
BRANCH  13  14
ATOM     14  C   UNL     1       7.222  -4.784  -1.130  1.00  0.00     0.046 C 
BRANCH  14  15
ATOM     15  C   UNL     1       6.211  -5.575  -0.298  1.00  0.00     0.043 C 
BRANCH  15  16
ATOM     16  C   UNL     1       4.994  -5.873  -1.133  1.00  0.00    -0.004 A 
ATOM     17  C   UNL     1       4.104  -4.964  -1.597  1.00  0.00     0.036 A 
ATOM     18  C   UNL     1       4.586  -7.137  -1.574  1.00  0.00     0.063 A 
ATOM     19  N   UNL     1       3.164  -5.630  -2.299  1.00  0.00    -0.282 N 
ATOM     20  N   UNL     1       3.486  -6.993  -2.266  1.00  0.00    -0.181 NA
ATOM     21  C   UNL     1       4.155  -3.476  -1.369  1.00  0.00     0.066 C 
ATOM     22  C   UNL     1       5.287  -8.440  -1.288  1.00  0.00     0.069 C 
ATOM     23  H   UNL     1       2.400  -5.235  -2.747  1.00  0.00     0.190 HD
ENDBRANCH  15  16
ENDBRANCH  14  15
ENDBRANCH  13  14
ENDBRANCH   1  13
TORSDOF 7
ENDMDL
MODEL 6
REMARK VINA RESULT:    -4.618      3.740      6.596
REMARK INTER + INTRA:          -7.029
REMARK INTER:                  -6.202
REMARK INTRA:                  -0.827
REMARK UNBOUND:                -0.657
REMARK SMILES Cc1n[nH]c(C)c1CCCOc1cc(C(=O)O)ccc1F
REMARK SMILES IDX 11 1 12 2 14 3 18 4 13 5 19 6 20 7 21 8 15 9 16 10 17 11
REMARK SMILES IDX 10 13 9 14 8 15 7 16 5 17 2 18 4 19 3 20 6 21 1 22
REMARK H PARENT 17 12 4 23
ROOT
ATOM      1  O   UNL     1       7.278  -7.662  -2.926  1.00  0.00    -0.490 OA
ENDROOT
BRANCH   1   2
ATOM      2  C   UNL     1       8.408  -8.395  -2.738  1.00  0.00     0.155 A 
ATOM      3  C   UNL     1      10.229  -9.102  -1.337  1.00  0.00     0.063 A 
ATOM      4  C   UNL     1      10.708  -9.909  -2.373  1.00  0.00     0.019 A 
ATOM      5  C   UNL     1       9.072  -8.344  -1.527  1.00  0.00     0.065 A 
ATOM      6  C   UNL     1      10.036  -9.958  -3.575  1.00  0.00     0.044 A 
ATOM      7  C   UNL     1       8.885  -9.208  -3.760  1.00  0.00     0.165 A 
ATOM      8  F   UNL     1       8.231  -9.261  -4.941  1.00  0.00    -0.203 F 
BRANCH   3   9
ATOM      9  C   UNL     1      10.947  -9.048  -0.048  1.00  0.00     0.335 C 
ATOM     10  O   UNL     1      10.661  -9.825   0.840  1.00  0.00    -0.246 OA
BRANCH   9  11
ATOM     11  O   UNL     1      11.923  -8.139   0.141  1.00  0.00    -0.478 OA
ATOM     12  H   UNL     1      11.648  -7.238   0.362  1.00  0.00     0.297 HD
ENDBRANCH   9  11
ENDBRANCH   3   9
ENDBRANCH   1   2
BRANCH   1  13
ATOM     13  C   UNL     1       6.388  -7.546  -1.813  1.00  0.00     0.230 C 
BRANCH  13  14
ATOM     14  C   UNL     1       5.251  -6.587  -2.168  1.00  0.00     0.046 C 
BRANCH  14  15
ATOM     15  C   UNL     1       5.823  -5.357  -2.875  1.00  0.00     0.043 C 
BRANCH  15  16
ATOM     16  C   UNL     1       6.286  -4.356  -1.848  1.00  0.00    -0.004 A 
ATOM     17  C   UNL     1       5.491  -3.634  -1.025  1.00  0.00     0.036 A 
ATOM     18  C   UNL     1       7.614  -4.015  -1.573  1.00  0.00     0.063 A 
ATOM     19  N   UNL     1       6.288  -2.858  -0.260  1.00  0.00    -0.282 N 
ATOM     20  N   UNL     1       7.616  -3.112  -0.626  1.00  0.00    -0.181 NA
ATOM     21  C   UNL     1       3.987  -3.687  -0.972  1.00  0.00     0.066 C 
ATOM     22  C   UNL     1       8.833  -4.580  -2.257  1.00  0.00     0.069 C 
ATOM     23  H   UNL     1       5.993  -2.234   0.421  1.00  0.00     0.190 HD
ENDBRANCH  15  16
ENDBRANCH  14  15
ENDBRANCH  13  14
ENDBRANCH   1  13
TORSDOF 7
ENDMDL
MODEL 7
REMARK VINA RESULT:    -4.587      3.761      6.612
REMARK INTER + INTRA:          -6.988
REMARK INTER:                  -6.100
REMARK INTRA:                  -0.888
REMARK UNBOUND:                -0.657
REMARK SMILES Cc1n[nH]c(C)c1CCCOc1cc(C(=O)O)ccc1F
REMARK SMILES IDX 11 1 12 2 14 3 18 4 13 5 19 6 20 7 21 8 15 9 16 10 17 11
REMARK SMILES IDX 10 13 9 14 8 15 7 16 5 17 2 18 4 19 3 20 6 21 1 22
REMARK H PARENT 17 12 4 23
ROOT
ATOM      1  O   UNL     1       7.347  -7.739  -2.845  1.00  0.00    -0.490 OA
ENDROOT
BRANCH   1   2
ATOM      2  C   UNL     1       8.487  -8.460  -2.670  1.00  0.00     0.155 A 
ATOM      3  C   UNL     1      10.333  -9.143  -1.289  1.00  0.00     0.063 A 
ATOM      4  C   UNL     1      10.806  -9.949  -2.328  1.00  0.00     0.019 A 
ATOM      5  C   UNL     1       9.166  -8.397  -1.468  1.00  0.00     0.065 A 
ATOM      6  C   UNL     1      10.118 -10.010  -3.522  1.00  0.00     0.044 A 
ATOM      7  C   UNL     1       8.959  -9.273  -3.695  1.00  0.00     0.165 A 
ATOM      8  F   UNL     1       8.289  -9.337  -4.866  1.00  0.00    -0.203 F 
BRANCH   3   9
ATOM      9  C   UNL     1      11.067  -9.077  -0.010  1.00  0.00     0.335 C 
ATOM     10  O   UNL     1      12.091  -9.710   0.136  1.00  0.00    -0.246 OA
BRANCH   9  11
ATOM     11  O   UNL     1      10.602  -8.306   0.993  1.00  0.00    -0.478 OA
ATOM     12  H   UNL     1       9.817  -8.623   1.463  1.00  0.00     0.297 HD
ENDBRANCH   9  11
ENDBRANCH   3   9
ENDBRANCH   1   2
BRANCH   1  13
ATOM     13  C   UNL     1       6.456  -7.653  -1.731  1.00  0.00     0.230 C 
BRANCH  13  14
ATOM     14  C   UNL     1       5.332  -6.666  -2.053  1.00  0.00     0.046 C 
BRANCH  14  15
ATOM     15  C   UNL     1       5.906  -5.470  -2.814  1.00  0.00     0.043 C 
BRANCH  15  16
ATOM     16  C   UNL     1       6.351  -4.416  -1.834  1.00  0.00    -0.004 A 
ATOM     17  C   UNL     1       7.629  -4.047  -1.587  1.00  0.00     0.036 A 
ATOM     18  C   UNL     1       5.515  -3.640  -1.024  1.00  0.00     0.063 A 
ATOM     19  N   UNL     1       7.604  -3.078  -0.648  1.00  0.00    -0.282 N 
ATOM     20  N   UNL     1       6.265  -2.843  -0.307  1.00  0.00    -0.181 NA
ATOM     21  C   UNL     1       8.860  -4.616  -2.243  1.00  0.00     0.066 C 
ATOM     22  C   UNL     1       4.011  -3.719  -0.974  1.00  0.00     0.069 C 
ATOM     23  H   UNL     1       8.375  -2.624  -0.275  1.00  0.00     0.190 HD
ENDBRANCH  15  16
ENDBRANCH  14  15
ENDBRANCH  13  14
ENDBRANCH   1  13
TORSDOF 7
ENDMDL
MODEL 8
REMARK VINA RESULT:    -4.484      2.133      3.482
REMARK INTER + INTRA:          -6.845
REMARK INTER:                  -6.217
REMARK INTRA:                  -0.627
REMARK UNBOUND:                -0.657
REMARK SMILES Cc1n[nH]c(C)c1CCCOc1cc(C(=O)O)ccc1F
REMARK SMILES IDX 11 1 12 2 14 3 18 4 13 5 19 6 20 7 21 8 15 9 16 10 17 11
REMARK SMILES IDX 10 13 9 14 8 15 7 16 5 17 2 18 4 19 3 20 6 21 1 22
REMARK H PARENT 17 12 4 23
ROOT
ATOM      1  O   UNL     1       6.530  -7.713  -0.712  1.00  0.00    -0.490 OA
ENDROOT
BRANCH   1   2
ATOM      2  C   UNL     1       5.835  -6.575  -0.979  1.00  0.00     0.155 A 
ATOM      3  C   UNL     1       4.014  -5.448  -2.073  1.00  0.00     0.063 A 
ATOM      4  C   UNL     1       4.423  -4.240  -1.503  1.00  0.00     0.019 A 
ATOM      5  C   UNL     1       4.728  -6.618  -1.806  1.00  0.00     0.065 A 
ATOM      6  C   UNL     1       5.525  -4.208  -0.674  1.00  0.00     0.044 A 
ATOM      7  C   UNL     1       6.229  -5.370  -0.406  1.00  0.00     0.165 A 
ATOM      8  F   UNL     1       7.308  -5.331   0.406  1.00  0.00    -0.203 F 
BRANCH   3   9
ATOM      9  C   UNL     1       2.835  -5.487  -2.960  1.00  0.00     0.335 C 
ATOM     10  O   UNL     1       2.309  -4.453  -3.316  1.00  0.00    -0.246 OA
BRANCH   9  11
ATOM     11  O   UNL     1       2.347  -6.671  -3.380  1.00  0.00    -0.478 OA
ATOM     12  H   UNL     1       2.629  -7.459  -2.895  1.00  0.00     0.297 HD
ENDBRANCH   9  11
ENDBRANCH   3   9
ENDBRANCH   1   2
BRANCH   1  13
ATOM     13  C   UNL     1       6.052  -8.920  -1.311  1.00  0.00     0.230 C 
BRANCH  13  14
ATOM     14  C   UNL     1       7.236  -9.720  -1.857  1.00  0.00     0.046 C 
BRANCH  14  15
ATOM     15  C   UNL     1       8.336  -8.758  -2.312  1.00  0.00     0.043 C 
BRANCH  15  16
ATOM     16  C   UNL     1       9.591  -9.535  -2.614  1.00  0.00    -0.004 A 
ATOM     17  C   UNL     1       9.878 -10.164  -3.777  1.00  0.00     0.036 A 
ATOM     18  C   UNL     1      10.669  -9.729  -1.743  1.00  0.00     0.063 A 
ATOM     19  N   UNL     1      11.091 -10.741  -3.645  1.00  0.00    -0.282 N 
ATOM     20  N   UNL     1      11.565 -10.457  -2.358  1.00  0.00    -0.181 NA
ATOM     21  C   UNL     1       9.000 -10.211  -5.001  1.00  0.00     0.066 C 
ATOM     22  C   UNL     1      10.774  -9.200  -0.335  1.00  0.00     0.069 C 
ATOM     23  H   UNL     1      11.552 -11.260  -4.322  1.00  0.00     0.190 HD
ENDBRANCH  15  16
ENDBRANCH  14  15
ENDBRANCH  13  14
ENDBRANCH   1  13
TORSDOF 7
ENDMDL
MODEL 9
REMARK VINA RESULT:    -4.393      4.497      8.137
REMARK INTER + INTRA:          -6.719
REMARK INTER:                  -6.020
REMARK INTRA:                  -0.699
REMARK UNBOUND:                -0.657
REMARK SMILES Cc1n[nH]c(C)c1CCCOc1cc(C(=O)O)ccc1F
REMARK SMILES IDX 11 1 12 2 14 3 18 4 13 5 19 6 20 7 21 8 15 9 16 10 17 11
REMARK SMILES IDX 10 13 9 14 8 15 7 16 5 17 2 18 4 19 3 20 6 21 1 22
REMARK H PARENT 17 12 4 23
ROOT
ATOM      1  O   UNL     1       8.954  -9.694  -3.652  1.00  0.00    -0.490 OA
ENDROOT
BRANCH   1   2
ATOM      2  C   UNL     1       9.666 -10.355  -4.603  1.00  0.00     0.155 A 
ATOM      3  C   UNL     1      11.174 -12.119  -5.233  1.00  0.00     0.063 A 
ATOM      4  C   UNL     1      11.106 -11.697  -6.563  1.00  0.00     0.019 A 
ATOM      5  C   UNL     1      10.448 -11.440  -4.252  1.00  0.00     0.065 A 
ATOM      6  C   UNL     1      10.319 -10.618  -6.905  1.00  0.00     0.044 A 
ATOM      7  C   UNL     1       9.596  -9.948  -5.931  1.00  0.00     0.165 A 
ATOM      8  F   UNL     1       8.827  -8.891  -6.272  1.00  0.00    -0.203 F 
BRANCH   3   9
ATOM      9  C   UNL     1      12.015 -13.275  -4.864  1.00  0.00     0.335 C 
ATOM     10  O   UNL     1      12.802 -13.734  -5.666  1.00  0.00    -0.246 OA
BRANCH   9  11
ATOM     11  O   UNL     1      11.913 -13.817  -3.634  1.00  0.00    -0.478 OA
ATOM     12  H   UNL     1      12.353 -14.666  -3.491  1.00  0.00     0.297 HD
ENDBRANCH   9  11
ENDBRANCH   3   9
ENDBRANCH   1   2
BRANCH   1  13
ATOM     13  C   UNL     1       9.694  -8.894  -2.726  1.00  0.00     0.230 C 
BRANCH  13  14
ATOM     14  C   UNL     1       8.724  -8.130  -1.824  1.00  0.00     0.046 C 
BRANCH  14  15
ATOM     15  C   UNL     1       7.696  -7.395  -2.687  1.00  0.00     0.043 C 
BRANCH  15  16
ATOM     16  C   UNL     1       6.934  -6.413  -1.836  1.00  0.00    -0.004 A 
ATOM     17  C   UNL     1       7.242  -5.107  -1.658  1.00  0.00     0.036 A 
ATOM     18  C   UNL     1       5.781  -6.687  -1.094  1.00  0.00     0.063 A 
ATOM     19  N   UNL     1       6.320  -4.576  -0.829  1.00  0.00    -0.282 N 
ATOM     20  N   UNL     1       5.415  -5.589  -0.484  1.00  0.00    -0.181 NA
ATOM     21  C   UNL     1       8.406  -4.377  -2.277  1.00  0.00     0.066 C 
ATOM     22  C   UNL     1       5.085  -8.022  -1.002  1.00  0.00     0.069 C 
ATOM     23  H   UNL     1       6.289  -3.656  -0.524  1.00  0.00     0.190 HD
ENDBRANCH  15  16
ENDBRANCH  14  15
ENDBRANCH  13  14
ENDBRANCH   1  13
TORSDOF 7
ENDMDL
