MODEL 1
REMARK VINA RESULT:    -4.328      0.000      0.000
REMARK INTER + INTRA:          -5.256
REMARK INTER:                  -4.960
REMARK INTRA:                  -0.296
REMARK UNBOUND:                -0.296
REMARK SMILES O=C(O)c1ccc2nc(-c3cc(Cl)cc(Cl)c3)oc2c1
REMARK SMILES IDX 5 1 6 2 20 3 8 4 18 5 4 6 9 7 7 8 19 9 2 10 1 11 3 12 10 14
REMARK SMILES IDX 11 15 17 16 12 17 15 18 14 19 13 20 16 21
REMARK H PARENT 3 13
ROOT
ATOM      1  C   UNL     1      10.892 -10.214  -2.640  1.00  0.00     0.018 A 
ATOM      2  C   UNL     1       9.753  -9.674  -3.158  1.00  0.00     0.033 A 
ATOM      3  C   UNL     1      10.694  -8.809  -0.674  1.00  0.00     0.065 A 
ATOM      4  N   UNL     1       7.933  -7.984  -2.692  1.00  0.00    -0.209 NA
ATOM      5  O   UNL     1       8.675  -7.313  -0.760  1.00  0.00    -0.436 OA
ATOM      6  C   UNL     1      11.375  -9.792  -1.394  1.00  0.00     0.063 A 
ATOM      7  C   UNL     1       7.711  -7.171  -1.689  1.00  0.00     0.227 A 
ATOM      8  C   UNL     1       9.059  -8.687  -2.445  1.00  0.00     0.110 A 
ATOM      9  C   UNL     1       9.540  -8.255  -1.197  1.00  0.00     0.156 A 
ENDROOT
BRANCH   6  10
ATOM     10  C   UNL     1      12.605 -10.388  -0.842  1.00  0.00     0.335 C 
ATOM     11  O   UNL     1      13.107  -9.924   0.162  1.00  0.00    -0.246 OA
BRANCH  10  12
ATOM     12  O   UNL     1      13.174 -11.447  -1.452  1.00  0.00    -0.478 OA
ATOM     13  H   UNL     1      13.989 -11.792  -1.064  1.00  0.00     0.297 HD
ENDBRANCH  10  12
ENDBRANCH   6  10
BRANCH   7  14
ATOM     14  C   UNL     1       6.571  -6.237  -1.592  1.00  0.00     0.040 A 
ATOM     15  C   UNL     1       5.369  -6.528  -2.240  1.00  0.00     0.034 A 
ATOM     16  C   UNL     1       6.692  -5.058  -0.853  1.00  0.00     0.034 A 
ATOM     17  C   UNL     1       4.307  -5.651  -2.145  1.00  0.00     0.043 A 
ATOM     18  C   UNL     1       5.622  -4.189  -0.766  1.00  0.00     0.043 A 
ATOM     19  C   UNL     1       4.433  -4.484  -1.410  1.00  0.00     0.041 A 
ATOM     20  Cl  UNL     1       2.811  -6.011  -2.948  1.00  0.00    -0.084 Cl
ATOM     21  Cl  UNL     1       5.770  -2.723   0.153  1.00  0.00    -0.084 Cl
ENDBRANCH   7  14
TORSDOF 3
ENDMDL
MODEL 2
REMARK VINA RESULT:    -4.322      0.011      2.019
REMARK INTER + INTRA:          -5.249
REMARK INTER:                  -4.954
REMARK INTRA:                  -0.296
REMARK UNBOUND:                -0.296
REMARK SMILES O=C(O)c1ccc2nc(-c3cc(Cl)cc(Cl)c3)oc2c1
REMARK SMILES IDX 5 1 6 2 20 3 8 4 18 5 4 6 9 7 7 8 19 9 2 10 1 11 3 12 10 14
REMARK SMILES IDX 11 15 17 16 12 17 15 18 14 19 13 20 16 21
REMARK H PARENT 3 13
ROOT
ATOM      1  C   UNL     1      10.897 -10.216  -2.633  1.00  0.00     0.018 A 
ATOM      2  C   UNL     1       9.758  -9.676  -3.152  1.00  0.00     0.033 A 
ATOM      3  C   UNL     1      10.693  -8.814  -0.665  1.00  0.00     0.065 A 
ATOM      4  N   UNL     1       7.936  -7.988  -2.690  1.00  0.00    -0.209 NA
ATOM      5  O   UNL     1       8.673  -7.318  -0.755  1.00  0.00    -0.436 OA
ATOM      6  C   UNL     1      11.377  -9.795  -1.385  1.00  0.00     0.063 A 
ATOM      7  C   UNL     1       7.711  -7.177  -1.686  1.00  0.00     0.227 A 
ATOM      8  C   UNL     1       9.062  -8.691  -2.441  1.00  0.00     0.110 A 
ATOM      9  C   UNL     1       9.540  -8.260  -1.191  1.00  0.00     0.156 A 
ENDROOT
BRANCH   6  10
ATOM     10  C   UNL     1      12.606 -10.391  -0.830  1.00  0.00     0.335 C 
ATOM     11  O   UNL     1      13.102  -9.930   0.178  1.00  0.00    -0.246 OA
BRANCH  10  12
ATOM     12  O   UNL     1      13.180 -11.445  -1.443  1.00  0.00    -0.478 OA
ATOM     13  H   UNL     1      12.823 -11.701  -2.304  1.00  0.00     0.297 HD
ENDBRANCH  10  12
ENDBRANCH   6  10
BRANCH   7  14
ATOM     14  C   UNL     1       6.570  -6.243  -1.592  1.00  0.00     0.040 A 
ATOM     15  C   UNL     1       6.687  -5.065  -0.853  1.00  0.00     0.034 A 
ATOM     16  C   UNL     1       5.369  -6.538  -2.241  1.00  0.00     0.034 A 
ATOM     17  C   UNL     1       5.617  -4.197  -0.770  1.00  0.00     0.043 A 
ATOM     18  C   UNL     1       4.306  -5.661  -2.150  1.00  0.00     0.043 A 
ATOM     19  C   UNL     1       4.429  -4.494  -1.415  1.00  0.00     0.041 A 
ATOM     20  Cl  UNL     1       5.760  -2.730   0.148  1.00  0.00    -0.084 Cl
ATOM     21  Cl  UNL     1       2.812  -6.025  -2.956  1.00  0.00    -0.084 Cl
ENDBRANCH   7  14
TORSDOF 3
ENDMDL
MODEL 3
REMARK VINA RESULT:    -4.313      1.792      3.180
REMARK INTER + INTRA:          -5.240
REMARK INTER:                  -4.944
REMARK INTRA:                  -0.296
REMARK UNBOUND:                -0.296
REMARK SMILES O=C(O)c1ccc2nc(-c3cc(Cl)cc(Cl)c3)oc2c1
REMARK SMILES IDX 5 1 6 2 20 3 8 4 18 5 4 6 9 7 7 8 19 9 2 10 1 11 3 12 10 14
REMARK SMILES IDX 11 15 17 16 12 17 15 18 14 19 13 20 16 21
REMARK H PARENT 3 13
ROOT
ATOM      1  C   UNL     1      10.865 -10.240  -2.533  1.00  0.00     0.018 A 
ATOM      2  C   UNL     1      10.430  -9.263  -1.688  1.00  0.00     0.033 A 
ATOM      3  C   UNL     1       9.107  -9.690  -4.110  1.00  0.00     0.065 A 
ATOM      4  N   UNL     1       8.676  -7.465  -1.419  1.00  0.00    -0.209 NA
ATOM      5  O   UNL     1       7.647  -7.807  -3.305  1.00  0.00    -0.436 OA
ATOM      6  C   UNL     1      10.212 -10.464  -3.753  1.00  0.00     0.063 A 
ATOM      7  C   UNL     1       7.684  -7.071  -2.179  1.00  0.00     0.227 A 
ATOM      8  C   UNL     1       9.323  -8.479  -2.033  1.00  0.00     0.110 A 
ATOM      9  C   UNL     1       8.660  -8.701  -3.253  1.00  0.00     0.156 A 
ENDROOT
BRANCH   6  10
ATOM     10  C   UNL     1      10.695 -11.519  -4.663  1.00  0.00     0.335 C 
ATOM     11  O   UNL     1      10.089 -11.762  -5.687  1.00  0.00    -0.246 OA
BRANCH  10  12
ATOM     12  O   UNL     1      11.808 -12.215  -4.358  1.00  0.00    -0.478 OA
ATOM     13  H   UNL     1      11.967 -13.028  -4.854  1.00  0.00     0.297 HD
ENDBRANCH  10  12
ENDBRANCH   6  10
BRANCH   7  14
ATOM     14  C   UNL     1       6.745  -5.980  -1.847  1.00  0.00     0.040 A 
ATOM     15  C   UNL     1       7.156  -4.924  -1.032  1.00  0.00     0.034 A 
ATOM     16  C   UNL     1       5.441  -6.003  -2.346  1.00  0.00     0.034 A 
ATOM     17  C   UNL     1       6.273  -3.907  -0.727  1.00  0.00     0.043 A 
ATOM     18  C   UNL     1       4.568  -4.980  -2.033  1.00  0.00     0.043 A 
ATOM     19  C   UNL     1       4.982  -3.935  -1.225  1.00  0.00     0.041 A 
ATOM     20  Cl  UNL     1       6.783  -2.592   0.285  1.00  0.00    -0.084 Cl
ATOM     21  Cl  UNL     1       2.946  -5.006  -2.653  1.00  0.00    -0.084 Cl
ENDBRANCH   7  14
TORSDOF 3
ENDMDL
MODEL 4
REMARK VINA RESULT:    -4.306      1.788      2.475
REMARK INTER + INTRA:          -5.232
REMARK INTER:                  -4.936
REMARK INTRA:                  -0.296
REMARK UNBOUND:                -0.296
REMARK SMILES O=C(O)c1ccc2nc(-c3cc(Cl)cc(Cl)c3)oc2c1
REMARK SMILES IDX 5 1 6 2 20 3 8 4 18 5 4 6 9 7 7 8 19 9 2 10 1 11 3 12 10 14
REMARK SMILES IDX 11 15 17 16 12 17 15 18 14 19 13 20 16 21
REMARK H PARENT 3 13
ROOT
ATOM      1  C   UNL     1      10.861 -10.229  -2.525  1.00  0.00     0.018 A 
ATOM      2  C   UNL     1      10.423  -9.255  -1.679  1.00  0.00     0.033 A 
ATOM      3  C   UNL     1       9.109  -9.677  -4.108  1.00  0.00     0.065 A 
ATOM      4  N   UNL     1       8.667  -7.458  -1.414  1.00  0.00    -0.209 NA
ATOM      5  O   UNL     1       7.646  -7.797  -3.305  1.00  0.00    -0.436 OA
ATOM      6  C   UNL     1      10.213 -10.452  -3.748  1.00  0.00     0.063 A 
ATOM      7  C   UNL     1       7.678  -7.063  -2.176  1.00  0.00     0.227 A 
ATOM      8  C   UNL     1       9.316  -8.471  -2.027  1.00  0.00     0.110 A 
ATOM      9  C   UNL     1       8.658  -8.691  -3.250  1.00  0.00     0.156 A 
ENDROOT
BRANCH   6  10
ATOM     10  C   UNL     1      10.700 -11.505  -4.658  1.00  0.00     0.335 C 
ATOM     11  O   UNL     1      10.091 -11.753  -5.679  1.00  0.00    -0.246 OA
BRANCH  10  12
ATOM     12  O   UNL     1      11.819 -12.192  -4.356  1.00  0.00    -0.478 OA
ATOM     13  H   UNL     1      12.297 -12.598  -5.091  1.00  0.00     0.297 HD
ENDBRANCH  10  12
ENDBRANCH   6  10
BRANCH   7  14
ATOM     14  C   UNL     1       6.737  -5.973  -1.845  1.00  0.00     0.040 A 
ATOM     15  C   UNL     1       5.435  -5.994  -2.348  1.00  0.00     0.034 A 
ATOM     16  C   UNL     1       7.147  -4.917  -1.029  1.00  0.00     0.034 A 
ATOM     17  C   UNL     1       4.560  -4.973  -2.034  1.00  0.00     0.043 A 
ATOM     18  C   UNL     1       6.263  -3.902  -0.723  1.00  0.00     0.043 A 
ATOM     19  C   UNL     1       4.973  -3.929  -1.224  1.00  0.00     0.041 A 
ATOM     20  Cl  UNL     1       2.940  -4.998  -2.657  1.00  0.00    -0.084 Cl
ATOM     21  Cl  UNL     1       6.771  -2.588   0.292  1.00  0.00    -0.084 Cl
ENDBRANCH   7  14
TORSDOF 3
ENDMDL
MODEL 5
REMARK VINA RESULT:    -4.258      3.571      5.559
REMARK INTER + INTRA:          -5.176
REMARK INTER:                  -4.893
REMARK INTRA:                  -0.284
REMARK UNBOUND:                -0.296
REMARK SMILES O=C(O)c1ccc2nc(-c3cc(Cl)cc(Cl)c3)oc2c1
REMARK SMILES IDX 5 1 6 2 20 3 8 4 18 5 4 6 9 7 7 8 19 9 2 10 1 11 3 12 10 14
REMARK SMILES IDX 11 15 17 16 12 17 15 18 14 19 13 20 16 21
REMARK H PARENT 3 13
ROOT
ATOM      1  C   UNL     1      14.524 -12.058   1.654  1.00  0.00     0.018 A 
ATOM      2  C   UNL     1      14.163 -11.651   0.405  1.00  0.00     0.033 A 
ATOM      3  C   UNL     1      12.493 -11.106   2.577  1.00  0.00     0.065 A 
ATOM      4  N   UNL     1      12.349 -10.445  -0.876  1.00  0.00    -0.209 NA
ATOM      5  O   UNL     1      11.057 -10.020   0.822  1.00  0.00    -0.436 OA
ATOM      6  C   UNL     1      13.695 -11.794   2.754  1.00  0.00     0.063 A 
ATOM      7  C   UNL     1      11.222  -9.889  -0.508  1.00  0.00     0.227 A 
ATOM      8  C   UNL     1      12.959 -10.961   0.213  1.00  0.00     0.110 A 
ATOM      9  C   UNL     1      12.125 -10.688   1.311  1.00  0.00     0.156 A 
ENDROOT
BRANCH   6  10
ATOM     10  C   UNL     1      14.093 -12.244   4.100  1.00  0.00     0.335 C 
ATOM     11  O   UNL     1      14.675 -11.483   4.847  1.00  0.00    -0.246 OA
BRANCH  10  12
ATOM     12  O   UNL     1      13.812 -13.499   4.501  1.00  0.00    -0.478 OA
ATOM     13  H   UNL     1      12.996 -13.628   5.002  1.00  0.00     0.297 HD
ENDBRANCH  10  12
ENDBRANCH   6  10
BRANCH   7  14
ATOM     14  C   UNL     1      10.272  -9.217  -1.419  1.00  0.00     0.040 A 
ATOM     15  C   UNL     1       9.533  -8.120  -0.975  1.00  0.00     0.034 A 
ATOM     16  C   UNL     1      10.110  -9.678  -2.727  1.00  0.00     0.034 A 
ATOM     17  C   UNL     1       8.648  -7.495  -1.832  1.00  0.00     0.043 A 
ATOM     18  C   UNL     1       9.222  -9.046  -3.573  1.00  0.00     0.043 A 
ATOM     19  C   UNL     1       8.492  -7.957  -3.128  1.00  0.00     0.041 A 
ATOM     20  Cl  UNL     1       7.728  -6.129  -1.283  1.00  0.00    -0.084 Cl
ATOM     21  Cl  UNL     1       9.020  -9.617  -5.200  1.00  0.00    -0.084 Cl
ENDBRANCH   7  14
TORSDOF 3
ENDMDL
MODEL 6
REMARK VINA RESULT:    -4.254      3.571      5.304
REMARK INTER + INTRA:          -5.172
REMARK INTER:                  -4.888
REMARK INTRA:                  -0.284
REMARK UNBOUND:                -0.296
REMARK SMILES O=C(O)c1ccc2nc(-c3cc(Cl)cc(Cl)c3)oc2c1
REMARK SMILES IDX 5 1 6 2 20 3 8 4 18 5 4 6 9 7 7 8 19 9 2 10 1 11 3 12 10 14
REMARK SMILES IDX 11 15 17 16 12 17 15 18 14 19 13 20 16 21
REMARK H PARENT 3 13
ROOT
ATOM      1  C   UNL     1      14.524 -12.057   1.655  1.00  0.00     0.018 A 
ATOM      2  C   UNL     1      14.162 -11.651   0.406  1.00  0.00     0.033 A 
ATOM      3  C   UNL     1      12.494 -11.105   2.578  1.00  0.00     0.065 A 
ATOM      4  N   UNL     1      12.348 -10.445  -0.874  1.00  0.00    -0.209 NA
ATOM      5  O   UNL     1      11.056 -10.019   0.824  1.00  0.00    -0.436 OA
ATOM      6  C   UNL     1      13.696 -11.792   2.755  1.00  0.00     0.063 A 
ATOM      7  C   UNL     1      11.221  -9.889  -0.506  1.00  0.00     0.227 A 
ATOM      8  C   UNL     1      12.959 -10.961   0.214  1.00  0.00     0.110 A 
ATOM      9  C   UNL     1      12.125 -10.687   1.313  1.00  0.00     0.156 A 
ENDROOT
BRANCH   6  10
ATOM     10  C   UNL     1      14.095 -12.241   4.101  1.00  0.00     0.335 C 
ATOM     11  O   UNL     1      14.667 -11.476   4.852  1.00  0.00    -0.246 OA
BRANCH  10  12
ATOM     12  O   UNL     1      13.826 -13.500   4.499  1.00  0.00    -0.478 OA
ATOM     13  H   UNL     1      13.250 -13.604   5.268  1.00  0.00     0.297 HD
ENDBRANCH  10  12
ENDBRANCH   6  10
BRANCH   7  14
ATOM     14  C   UNL     1      10.270  -9.217  -1.416  1.00  0.00     0.040 A 
ATOM     15  C   UNL     1      10.111  -9.674  -2.725  1.00  0.00     0.034 A 
ATOM     16  C   UNL     1       9.528  -8.122  -0.970  1.00  0.00     0.034 A 
ATOM     17  C   UNL     1       9.221  -9.043  -3.571  1.00  0.00     0.043 A 
ATOM     18  C   UNL     1       8.641  -7.499  -1.825  1.00  0.00     0.043 A 
ATOM     19  C   UNL     1       8.488  -7.957  -3.122  1.00  0.00     0.041 A 
ATOM     20  Cl  UNL     1       9.020  -9.610  -5.199  1.00  0.00    -0.084 Cl
ATOM     21  Cl  UNL     1       7.718  -6.136  -1.272  1.00  0.00    -0.084 Cl
ENDBRANCH   7  14
TORSDOF 3
ENDMDL
MODEL 7
REMARK VINA RESULT:    -4.151      3.936      7.594
REMARK INTER + INTRA:          -5.054
REMARK INTER:                  -4.756
REMARK INTRA:                  -0.297
REMARK UNBOUND:                -0.296
REMARK SMILES O=C(O)c1ccc2nc(-c3cc(Cl)cc(Cl)c3)oc2c1
REMARK SMILES IDX 5 1 6 2 20 3 8 4 18 5 4 6 9 7 7 8 19 9 2 10 1 11 3 12 10 14
REMARK SMILES IDX 11 15 17 16 12 17 15 18 14 19 13 20 16 21
REMARK H PARENT 3 13
ROOT
ATOM      1  C   UNL     1       5.633  -3.923  -0.652  1.00  0.00     0.018 A 
ATOM      2  C   UNL     1       6.813  -4.546  -0.374  1.00  0.00     0.033 A 
ATOM      3  C   UNL     1       5.184  -5.512  -2.427  1.00  0.00     0.065 A 
ATOM      4  N   UNL     1       8.288  -6.473  -1.079  1.00  0.00    -0.209 NA
ATOM      5  O   UNL     1       7.015  -7.215  -2.680  1.00  0.00    -0.436 OA
ATOM      6  C   UNL     1       4.804  -4.397  -1.678  1.00  0.00     0.063 A 
ATOM      7  C   UNL     1       8.168  -7.389  -2.007  1.00  0.00     0.227 A 
ATOM      8  C   UNL     1       7.205  -5.666  -1.118  1.00  0.00     0.110 A 
ATOM      9  C   UNL     1       6.382  -6.144  -2.152  1.00  0.00     0.156 A 
ENDROOT
BRANCH   6  10
ATOM     10  C   UNL     1       3.528  -3.718  -1.965  1.00  0.00     0.335 C 
ATOM     11  O   UNL     1       3.177  -2.772  -1.288  1.00  0.00    -0.246 OA
BRANCH  10  12
ATOM     12  O   UNL     1       2.749  -4.146  -2.978  1.00  0.00    -0.478 OA
ATOM     13  H   UNL     1       2.575  -5.096  -3.027  1.00  0.00     0.297 HD
ENDBRANCH  10  12
ENDBRANCH   6  10
BRANCH   7  14
ATOM     14  C   UNL     1       9.155  -8.456  -2.275  1.00  0.00     0.040 A 
ATOM     15  C   UNL     1       9.104  -9.174  -3.471  1.00  0.00     0.034 A 
ATOM     16  C   UNL     1      10.142  -8.751  -1.333  1.00  0.00     0.034 A 
ATOM     17  C   UNL     1      10.029 -10.169  -3.716  1.00  0.00     0.043 A 
ATOM     18  C   UNL     1      11.062  -9.748  -1.589  1.00  0.00     0.043 A 
ATOM     19  C   UNL     1      11.005 -10.456  -2.777  1.00  0.00     0.041 A 
ATOM     20  Cl  UNL     1       9.968 -11.062  -5.203  1.00  0.00    -0.084 Cl
ATOM     21  Cl  UNL     1      12.290 -10.115  -0.418  1.00  0.00    -0.084 Cl
ENDBRANCH   7  14
TORSDOF 3
ENDMDL
MODEL 8
REMARK VINA RESULT:    -4.148      3.935      7.819
REMARK INTER + INTRA:          -5.050
REMARK INTER:                  -4.753
REMARK INTRA:                  -0.297
REMARK UNBOUND:                -0.296
REMARK SMILES O=C(O)c1ccc2nc(-c3cc(Cl)cc(Cl)c3)oc2c1
REMARK SMILES IDX 5 1 6 2 20 3 8 4 18 5 4 6 9 7 7 8 19 9 2 10 1 11 3 12 10 14
REMARK SMILES IDX 11 15 17 16 12 17 15 18 14 19 13 20 16 21
REMARK H PARENT 3 13
ROOT
ATOM      1  C   UNL     1       5.628  -3.934  -0.650  1.00  0.00     0.018 A 
ATOM      2  C   UNL     1       6.806  -4.558  -0.369  1.00  0.00     0.033 A 
ATOM      3  C   UNL     1       5.185  -5.519  -2.431  1.00  0.00     0.065 A 
ATOM      4  N   UNL     1       8.284  -6.482  -1.073  1.00  0.00    -0.209 NA
ATOM      5  O   UNL     1       7.019  -7.221  -2.681  1.00  0.00    -0.436 OA
ATOM      6  C   UNL     1       4.803  -4.406  -1.680  1.00  0.00     0.063 A 
ATOM      7  C   UNL     1       8.169  -7.397  -2.003  1.00  0.00     0.227 A 
ATOM      8  C   UNL     1       7.202  -5.675  -1.114  1.00  0.00     0.110 A 
ATOM      9  C   UNL     1       6.383  -6.152  -2.153  1.00  0.00     0.156 A 
ENDROOT
BRANCH   6  10
ATOM     10  C   UNL     1       3.527  -3.727  -1.971  1.00  0.00     0.335 C 
ATOM     11  O   UNL     1       3.177  -2.778  -1.298  1.00  0.00    -0.246 OA
BRANCH  10  12
ATOM     12  O   UNL     1       2.748  -4.158  -2.983  1.00  0.00    -0.478 OA
ATOM     13  H   UNL     1       1.795  -4.176  -2.826  1.00  0.00     0.297 HD
ENDBRANCH  10  12
ENDBRANCH   6  10
BRANCH   7  14
ATOM     14  C   UNL     1       9.157  -8.462  -2.270  1.00  0.00     0.040 A 
ATOM     15  C   UNL     1      10.145  -8.755  -1.329  1.00  0.00     0.034 A 
ATOM     16  C   UNL     1       9.106  -9.181  -3.467  1.00  0.00     0.034 A 
ATOM     17  C   UNL     1      11.064  -9.753  -1.584  1.00  0.00     0.043 A 
ATOM     18  C   UNL     1      10.031 -10.176  -3.711  1.00  0.00     0.043 A 
ATOM     19  C   UNL     1      11.008 -10.461  -2.773  1.00  0.00     0.041 A 
ATOM     20  Cl  UNL     1      12.293 -10.119  -0.415  1.00  0.00    -0.084 Cl
ATOM     21  Cl  UNL     1       9.970 -11.071  -5.198  1.00  0.00    -0.084 Cl
ENDBRANCH   7  14
TORSDOF 3
ENDMDL
MODEL 9
REMARK VINA RESULT:    -3.529      4.311      7.686
REMARK INTER + INTRA:          -4.341
REMARK INTER:                  -4.054
REMARK INTRA:                  -0.287
REMARK UNBOUND:                -0.296
REMARK SMILES O=C(O)c1ccc2nc(-c3cc(Cl)cc(Cl)c3)oc2c1
REMARK SMILES IDX 5 1 6 2 20 3 8 4 18 5 4 6 9 7 7 8 19 9 2 10 1 11 3 12 10 14
REMARK SMILES IDX 11 15 17 16 12 17 15 18 14 19 13 20 16 21
REMARK H PARENT 3 13
ROOT
ATOM      1  C   UNL     1       7.440  -5.578  -2.508  1.00  0.00     0.018 A 
ATOM      2  C   UNL     1       8.757  -5.774  -2.218  1.00  0.00     0.033 A 
ATOM      3  C   UNL     1       6.927  -7.848  -1.827  1.00  0.00     0.065 A 
ATOM      4  N   UNL     1      10.396  -7.495  -1.360  1.00  0.00    -0.209 NA
ATOM      5  O   UNL     1       8.965  -9.107  -1.064  1.00  0.00    -0.436 OA
ATOM      6  C   UNL     1       6.510  -6.609  -2.315  1.00  0.00     0.063 A 
ATOM      7  C   UNL     1      10.256  -8.737  -0.967  1.00  0.00     0.227 A 
ATOM      8  C   UNL     1       9.190  -7.013  -1.728  1.00  0.00     0.110 A 
ATOM      9  C   UNL     1       8.263  -8.053  -1.537  1.00  0.00     0.156 A 
ENDROOT
BRANCH   6  10
ATOM     10  C   UNL     1       5.087  -6.383  -2.627  1.00  0.00     0.335 C 
ATOM     11  O   UNL     1       4.243  -7.141  -2.194  1.00  0.00    -0.246 OA
BRANCH  10  12
ATOM     12  O   UNL     1       4.722  -5.335  -3.393  1.00  0.00    -0.478 OA
ATOM     13  H   UNL     1       4.673  -4.472  -2.961  1.00  0.00     0.297 HD
ENDBRANCH  10  12
ENDBRANCH   6  10
BRANCH   7  14
ATOM     14  C   UNL     1      11.354  -9.603  -0.490  1.00  0.00     0.040 A 
ATOM     15  C   UNL     1      12.303 -10.092  -1.388  1.00  0.00     0.034 A 
ATOM     16  C   UNL     1      11.444  -9.937   0.863  1.00  0.00     0.034 A 
ATOM     17  C   UNL     1      13.327 -10.900  -0.935  1.00  0.00     0.043 A 
ATOM     18  C   UNL     1      12.473 -10.746   1.304  1.00  0.00     0.043 A 
ATOM     19  C   UNL     1      13.411 -11.227   0.408  1.00  0.00     0.041 A 
ATOM     20  Cl  UNL     1      14.509 -11.509  -2.051  1.00  0.00    -0.084 Cl
ATOM     21  Cl  UNL     1      12.588 -11.162   2.986  1.00  0.00    -0.084 Cl
ENDBRANCH   7  14
TORSDOF 3
ENDMDL
