MODEL 1
REMARK VINA RESULT:    -4.485      0.000      0.000
REMARK INTER + INTRA:          -5.435
REMARK INTER:                  -5.140
REMARK INTRA:                  -0.295
REMARK UNBOUND:                -0.295
REMARK SMILES O=C(O)c1ccc2nc(-c3cc(Cl)cc(Cl)c3)oc2c1
REMARK SMILES IDX 5 1 6 2 20 3 8 4 18 5 4 6 9 7 7 8 19 9 2 10 1 11 3 12 10 14
REMARK SMILES IDX 11 15 17 16 12 17 15 18 14 19 13 20 16 21
REMARK H PARENT 3 13
ROOT
ATOM      1  C   UNL     1      -1.330  -2.843  -0.089  1.00  0.00     0.018 A 
ATOM      2  C   UNL     1      -2.052  -1.693   0.024  1.00  0.00     0.033 A 
ATOM      3  C   UNL     1       0.698  -1.562  -0.446  1.00  0.00     0.065 A 
ATOM      4  N   UNL     1      -1.853   0.825  -0.035  1.00  0.00    -0.209 NA
ATOM      5  O   UNL     1       0.289   0.919  -0.406  1.00  0.00    -0.436 OA
ATOM      6  C   UNL     1       0.052  -2.793  -0.323  1.00  0.00     0.063 A 
ATOM      7  C   UNL     1      -0.837   1.632  -0.218  1.00  0.00     0.227 A 
ATOM      8  C   UNL     1      -1.416  -0.451  -0.098  1.00  0.00     0.110 A 
ATOM      9  C   UNL     1      -0.032  -0.393  -0.337  1.00  0.00     0.156 A 
ENDROOT
BRANCH   6  10
ATOM     10  C   UNL     1       0.824  -4.043  -0.437  1.00  0.00     0.335 C 
ATOM     11  O   UNL     1       1.968  -4.090  -0.032  1.00  0.00    -0.246 OA
BRANCH  10  12
ATOM     12  O   UNL     1       0.261  -5.135  -0.992  1.00  0.00    -0.478 OA
ATOM     13  H   UNL     1       0.589  -5.405  -1.861  1.00  0.00     0.297 HD
ENDBRANCH  10  12
ENDBRANCH   6  10
BRANCH   7  14
ATOM     14  C   UNL     1      -0.917   3.107  -0.219  1.00  0.00     0.040 A 
ATOM     15  C   UNL     1       0.242   3.872  -0.355  1.00  0.00     0.034 A 
ATOM     16  C   UNL     1      -2.154   3.742  -0.082  1.00  0.00     0.034 A 
ATOM     17  C   UNL     1       0.160   5.251  -0.356  1.00  0.00     0.043 A 
ATOM     18  C   UNL     1      -2.222   5.121  -0.084  1.00  0.00     0.043 A 
ATOM     19  C   UNL     1      -1.069   5.874  -0.220  1.00  0.00     0.041 A 
ATOM     20  Cl  UNL     1       1.601   6.204  -0.526  1.00  0.00    -0.084 Cl
ATOM     21  Cl  UNL     1      -3.759   5.912   0.086  1.00  0.00    -0.084 Cl
ENDBRANCH   7  14
TORSDOF 3
ENDMDL
MODEL 2
REMARK VINA RESULT:    -4.479      0.005      2.019
REMARK INTER + INTRA:          -5.429
REMARK INTER:                  -5.134
REMARK INTRA:                  -0.295
REMARK UNBOUND:                -0.295
REMARK SMILES O=C(O)c1ccc2nc(-c3cc(Cl)cc(Cl)c3)oc2c1
REMARK SMILES IDX 5 1 6 2 20 3 8 4 18 5 4 6 9 7 7 8 19 9 2 10 1 11 3 12 10 14
REMARK SMILES IDX 11 15 17 16 12 17 15 18 14 19 13 20 16 21
REMARK H PARENT 3 13
ROOT
ATOM      1  C   UNL     1      -1.330  -2.840  -0.090  1.00  0.00     0.018 A 
ATOM      2  C   UNL     1      -2.053  -1.691   0.022  1.00  0.00     0.033 A 
ATOM      3  C   UNL     1       0.698  -1.559  -0.443  1.00  0.00     0.065 A 
ATOM      4  N   UNL     1      -1.855   0.827  -0.037  1.00  0.00    -0.209 NA
ATOM      5  O   UNL     1       0.288   0.921  -0.404  1.00  0.00    -0.436 OA
ATOM      6  C   UNL     1       0.052  -2.790  -0.322  1.00  0.00     0.063 A 
ATOM      7  C   UNL     1      -0.839   1.634  -0.218  1.00  0.00     0.227 A 
ATOM      8  C   UNL     1      -1.417  -0.449  -0.098  1.00  0.00     0.110 A 
ATOM      9  C   UNL     1      -0.033  -0.390  -0.335  1.00  0.00     0.156 A 
ENDROOT
BRANCH   6  10
ATOM     10  C   UNL     1       0.825  -4.040  -0.435  1.00  0.00     0.335 C 
ATOM     11  O   UNL     1       1.972  -4.083  -0.039  1.00  0.00    -0.246 OA
BRANCH  10  12
ATOM     12  O   UNL     1       0.259  -5.136  -0.978  1.00  0.00    -0.478 OA
ATOM     13  H   UNL     1      -0.558  -5.456  -0.572  1.00  0.00     0.297 HD
ENDBRANCH  10  12
ENDBRANCH   6  10
BRANCH   7  14
ATOM     14  C   UNL     1      -0.920   3.110  -0.218  1.00  0.00     0.040 A 
ATOM     15  C   UNL     1      -2.155   3.745  -0.084  1.00  0.00     0.034 A 
ATOM     16  C   UNL     1       0.241   3.874  -0.355  1.00  0.00     0.034 A 
ATOM     17  C   UNL     1      -2.223   5.124  -0.084  1.00  0.00     0.043 A 
ATOM     18  C   UNL     1       0.160   5.252  -0.354  1.00  0.00     0.043 A 
ATOM     19  C   UNL     1      -1.068   5.876  -0.220  1.00  0.00     0.041 A 
ATOM     20  Cl  UNL     1      -3.758   5.916   0.084  1.00  0.00    -0.084 Cl
ATOM     21  Cl  UNL     1       1.602   6.205  -0.524  1.00  0.00    -0.084 Cl
ENDBRANCH   7  14
TORSDOF 3
ENDMDL
MODEL 3
REMARK VINA RESULT:    -4.190     14.658     16.080
REMARK INTER + INTRA:          -5.097
REMARK INTER:                  -4.814
REMARK INTRA:                  -0.283
REMARK UNBOUND:                -0.295
REMARK SMILES O=C(O)c1ccc2nc(-c3cc(Cl)cc(Cl)c3)oc2c1
REMARK SMILES IDX 5 1 6 2 20 3 8 4 18 5 4 6 9 7 7 8 19 9 2 10 1 11 3 12 10 14
REMARK SMILES IDX 11 15 17 16 12 17 15 18 14 19 13 20 16 21
REMARK H PARENT 3 13
ROOT
ATOM      1  C   UNL     1       0.072   5.222 -17.794  1.00  0.00     0.018 A 
ATOM      2  C   UNL     1       0.537   4.023 -17.344  1.00  0.00     0.033 A 
ATOM      3  C   UNL     1      -0.020   6.066 -15.523  1.00  0.00     0.065 A 
ATOM      4  N   UNL     1       1.170   2.768 -15.245  1.00  0.00    -0.209 NA
ATOM      5  O   UNL     1       0.729   4.363 -13.833  1.00  0.00    -0.436 OA
ATOM      6  C   UNL     1      -0.211   6.258 -16.892  1.00  0.00     0.063 A 
ATOM      7  C   UNL     1       1.166   3.097 -13.978  1.00  0.00     0.227 A 
ATOM      8  C   UNL     1       0.733   3.818 -15.973  1.00  0.00     0.110 A 
ATOM      9  C   UNL     1       0.448   4.850 -15.062  1.00  0.00     0.156 A 
ENDROOT
BRANCH   6  10
ATOM     10  C   UNL     1      -0.708   7.553 -17.391  1.00  0.00     0.335 C 
ATOM     11  O   UNL     1       0.074   8.384 -17.808  1.00  0.00    -0.246 OA
BRANCH  10  12
ATOM     12  O   UNL     1      -2.030   7.815 -17.385  1.00  0.00    -0.478 OA
ATOM     13  H   UNL     1      -2.569   7.373 -18.054  1.00  0.00     0.297 HD
ENDBRANCH  10  12
ENDBRANCH   6  10
BRANCH   7  14
ATOM     14  C   UNL     1       1.580   2.211 -12.870  1.00  0.00     0.040 A 
ATOM     15  C   UNL     1       0.931   2.280 -11.637  1.00  0.00     0.034 A 
ATOM     16  C   UNL     1       2.622   1.300 -13.055  1.00  0.00     0.034 A 
ATOM     17  C   UNL     1       1.322   1.448 -10.607  1.00  0.00     0.043 A 
ATOM     18  C   UNL     1       3.004   0.473 -12.017  1.00  0.00     0.043 A 
ATOM     19  C   UNL     1       2.356   0.547 -10.796  1.00  0.00     0.041 A 
ATOM     20  Cl  UNL     1       0.516   1.532  -9.071  1.00  0.00    -0.084 Cl
ATOM     21  Cl  UNL     1       4.300  -0.660 -12.244  1.00  0.00    -0.084 Cl
ENDBRANCH   7  14
TORSDOF 3
ENDMDL
MODEL 4
REMARK VINA RESULT:    -4.187     14.661     15.985
REMARK INTER + INTRA:          -5.094
REMARK INTER:                  -4.810
REMARK INTRA:                  -0.284
REMARK UNBOUND:                -0.295
REMARK SMILES O=C(O)c1ccc2nc(-c3cc(Cl)cc(Cl)c3)oc2c1
REMARK SMILES IDX 5 1 6 2 20 3 8 4 18 5 4 6 9 7 7 8 19 9 2 10 1 11 3 12 10 14
REMARK SMILES IDX 11 15 17 16 12 17 15 18 14 19 13 20 16 21
REMARK H PARENT 3 13
ROOT
ATOM      1  C   UNL     1       0.085   5.194 -17.804  1.00  0.00     0.018 A 
ATOM      2  C   UNL     1       0.552   3.998 -17.349  1.00  0.00     0.033 A 
ATOM      3  C   UNL     1      -0.012   6.046 -15.535  1.00  0.00     0.065 A 
ATOM      4  N   UNL     1       1.185   2.750 -15.245  1.00  0.00    -0.209 NA
ATOM      5  O   UNL     1       0.738   4.349 -13.839  1.00  0.00    -0.436 OA
ATOM      6  C   UNL     1      -0.201   6.232 -16.906  1.00  0.00     0.063 A 
ATOM      7  C   UNL     1       1.178   3.084 -13.979  1.00  0.00     0.227 A 
ATOM      8  C   UNL     1       0.746   3.797 -15.977  1.00  0.00     0.110 A 
ATOM      9  C   UNL     1       0.457   4.831 -15.070  1.00  0.00     0.156 A 
ENDROOT
BRANCH   6  10
ATOM     10  C   UNL     1      -0.700   7.524 -17.410  1.00  0.00     0.335 C 
ATOM     11  O   UNL     1       0.081   8.358 -17.822  1.00  0.00    -0.246 OA
BRANCH  10  12
ATOM     12  O   UNL     1      -2.023   7.781 -17.413  1.00  0.00    -0.478 OA
ATOM     13  H   UNL     1      -2.312   8.593 -17.851  1.00  0.00     0.297 HD
ENDBRANCH  10  12
ENDBRANCH   6  10
BRANCH   7  14
ATOM     14  C   UNL     1       1.592   2.202 -12.868  1.00  0.00     0.040 A 
ATOM     15  C   UNL     1       2.632   1.289 -13.048  1.00  0.00     0.034 A 
ATOM     16  C   UNL     1       0.942   2.278 -11.634  1.00  0.00     0.034 A 
ATOM     17  C   UNL     1       3.014   0.468 -12.005  1.00  0.00     0.043 A 
ATOM     18  C   UNL     1       1.333   1.451 -10.600  1.00  0.00     0.043 A 
ATOM     19  C   UNL     1       2.366   0.548 -10.784  1.00  0.00     0.041 A 
ATOM     20  Cl  UNL     1       4.308  -0.668 -12.226  1.00  0.00    -0.084 Cl
ATOM     21  Cl  UNL     1       0.527   1.544  -9.065  1.00  0.00    -0.084 Cl
ENDBRANCH   7  14
TORSDOF 3
ENDMDL
MODEL 5
REMARK VINA RESULT:    -4.149     14.272     14.837
REMARK INTER + INTRA:          -5.050
REMARK INTER:                  -4.765
REMARK INTRA:                  -0.285
REMARK UNBOUND:                -0.295
REMARK SMILES O=C(O)c1ccc2nc(-c3cc(Cl)cc(Cl)c3)oc2c1
REMARK SMILES IDX 5 1 6 2 20 3 8 4 18 5 4 6 9 7 7 8 19 9 2 10 1 11 3 12 10 14
REMARK SMILES IDX 11 15 17 16 12 17 15 18 14 19 13 20 16 21
REMARK H PARENT 3 13
ROOT
ATOM      1  C   UNL     1       6.693  -2.052 -16.550  1.00  0.00     0.018 A 
ATOM      2  C   UNL     1       6.036  -0.890 -16.276  1.00  0.00     0.033 A 
ATOM      3  C   UNL     1       5.806  -3.059 -14.530  1.00  0.00     0.065 A 
ATOM      4  N   UNL     1       4.502   0.208 -14.595  1.00  0.00    -0.209 NA
ATOM      5  O   UNL     1       4.332  -1.484 -13.238  1.00  0.00    -0.436 OA
ATOM      6  C   UNL     1       6.586  -3.150 -15.684  1.00  0.00     0.063 A 
ATOM      7  C   UNL     1       3.960  -0.213 -13.480  1.00  0.00     0.227 A 
ATOM      8  C   UNL     1       5.251  -0.785 -15.121  1.00  0.00     0.110 A 
ATOM      9  C   UNL     1       5.142  -1.880 -14.245  1.00  0.00     0.156 A 
ENDROOT
BRANCH   6  10
ATOM     10  C   UNL     1       7.296  -4.403 -15.995  1.00  0.00     0.335 C 
ATOM     11  O   UNL     1       6.897  -5.122 -16.889  1.00  0.00    -0.246 OA
BRANCH  10  12
ATOM     12  O   UNL     1       8.387  -4.754 -15.285  1.00  0.00    -0.478 OA
ATOM     13  H   UNL     1       8.379  -4.555 -14.339  1.00  0.00     0.297 HD
ENDBRANCH  10  12
ENDBRANCH   6  10
BRANCH   7  14
ATOM     14  C   UNL     1       3.072   0.590 -12.614  1.00  0.00     0.040 A 
ATOM     15  C   UNL     1       3.088   0.407 -11.231  1.00  0.00     0.034 A 
ATOM     16  C   UNL     1       2.212   1.536 -13.177  1.00  0.00     0.034 A 
ATOM     17  C   UNL     1       2.256   1.162 -10.427  1.00  0.00     0.043 A 
ATOM     18  C   UNL     1       1.385   2.284 -12.364  1.00  0.00     0.043 A 
ATOM     19  C   UNL     1       1.406   2.097 -10.992  1.00  0.00     0.041 A 
ATOM     20  Cl  UNL     1       2.275   0.936  -8.706  1.00  0.00    -0.084 Cl
ATOM     21  Cl  UNL     1       0.316   3.460 -13.062  1.00  0.00    -0.084 Cl
ENDBRANCH   7  14
TORSDOF 3
ENDMDL
MODEL 6
REMARK VINA RESULT:    -4.143     14.257     14.858
REMARK INTER + INTRA:          -5.044
REMARK INTER:                  -4.759
REMARK INTRA:                  -0.285
REMARK UNBOUND:                -0.295
REMARK SMILES O=C(O)c1ccc2nc(-c3cc(Cl)cc(Cl)c3)oc2c1
REMARK SMILES IDX 5 1 6 2 20 3 8 4 18 5 4 6 9 7 7 8 19 9 2 10 1 11 3 12 10 14
REMARK SMILES IDX 11 15 17 16 12 17 15 18 14 19 13 20 16 21
REMARK H PARENT 3 13
ROOT
ATOM      1  C   UNL     1       6.695  -2.044 -16.537  1.00  0.00     0.018 A 
ATOM      2  C   UNL     1       6.039  -0.883 -16.256  1.00  0.00     0.033 A 
ATOM      3  C   UNL     1       5.800  -3.064 -14.527  1.00  0.00     0.065 A 
ATOM      4  N   UNL     1       4.502   0.205 -14.572  1.00  0.00    -0.209 NA
ATOM      5  O   UNL     1       4.325  -1.497 -13.228  1.00  0.00    -0.436 OA
ATOM      6  C   UNL     1       6.583  -3.148 -15.680  1.00  0.00     0.063 A 
ATOM      7  C   UNL     1       3.956  -0.223 -13.461  1.00  0.00     0.227 A 
ATOM      8  C   UNL     1       5.250  -0.785 -15.103  1.00  0.00     0.110 A 
ATOM      9  C   UNL     1       5.137  -1.886 -14.236  1.00  0.00     0.156 A 
ENDROOT
BRANCH   6  10
ATOM     10  C   UNL     1       7.292  -4.400 -15.998  1.00  0.00     0.335 C 
ATOM     11  O   UNL     1       6.888  -5.116 -16.893  1.00  0.00    -0.246 OA
BRANCH  10  12
ATOM     12  O   UNL     1       8.387  -4.752 -15.296  1.00  0.00    -0.478 OA
ATOM     13  H   UNL     1       9.191  -4.239 -15.449  1.00  0.00     0.297 HD
ENDBRANCH  10  12
ENDBRANCH   6  10
BRANCH   7  14
ATOM     14  C   UNL     1       3.066   0.575 -12.592  1.00  0.00     0.040 A 
ATOM     15  C   UNL     1       2.207   1.523 -13.149  1.00  0.00     0.034 A 
ATOM     16  C   UNL     1       3.083   0.384 -11.209  1.00  0.00     0.034 A 
ATOM     17  C   UNL     1       1.377   2.265 -12.332  1.00  0.00     0.043 A 
ATOM     18  C   UNL     1       2.249   1.132 -10.402  1.00  0.00     0.043 A 
ATOM     19  C   UNL     1       1.399   2.071 -10.961  1.00  0.00     0.041 A 
ATOM     20  Cl  UNL     1       0.307   3.443 -13.023  1.00  0.00    -0.084 Cl
ATOM     21  Cl  UNL     1       2.269   0.896  -8.681  1.00  0.00    -0.084 Cl
ENDBRANCH   7  14
TORSDOF 3
ENDMDL
MODEL 7
REMARK VINA RESULT:    -3.895     10.991     11.640
REMARK INTER + INTRA:          -4.759
REMARK INTER:                  -4.463
REMARK INTRA:                  -0.296
REMARK UNBOUND:                -0.295
REMARK SMILES O=C(O)c1ccc2nc(-c3cc(Cl)cc(Cl)c3)oc2c1
REMARK SMILES IDX 5 1 6 2 20 3 8 4 18 5 4 6 9 7 7 8 19 9 2 10 1 11 3 12 10 14
REMARK SMILES IDX 11 15 17 16 12 17 15 18 14 19 13 20 16 21
REMARK H PARENT 3 13
ROOT
ATOM      1  C   UNL     1       2.694   1.486 -14.052  1.00  0.00     0.018 A 
ATOM      2  C   UNL     1       1.777   1.873 -13.121  1.00  0.00     0.033 A 
ATOM      3  C   UNL     1       3.886   0.200 -12.377  1.00  0.00     0.065 A 
ATOM      4  N   UNL     1       1.162   1.643 -10.682  1.00  0.00    -0.209 NA
ATOM      5  O   UNL     1       2.811   0.344 -10.109  1.00  0.00    -0.436 OA
ATOM      6  C   UNL     1       3.757   0.645 -13.694  1.00  0.00     0.063 A 
ATOM      7  C   UNL     1       1.710   0.994  -9.685  1.00  0.00     0.227 A 
ATOM      8  C   UNL     1       1.894   1.434 -11.797  1.00  0.00     0.110 A 
ATOM      9  C   UNL     1       2.960   0.595 -11.428  1.00  0.00     0.156 A 
ENDROOT
BRANCH   6  10
ATOM     10  C   UNL     1       4.740   0.229 -14.710  1.00  0.00     0.335 C 
ATOM     11  O   UNL     1       5.690  -0.458 -14.391  1.00  0.00    -0.246 OA
BRANCH  10  12
ATOM     12  O   UNL     1       4.585   0.609 -15.994  1.00  0.00    -0.478 OA
ATOM     13  H   UNL     1       3.799   1.130 -16.206  1.00  0.00     0.297 HD
ENDBRANCH  10  12
ENDBRANCH   6  10
BRANCH   7  14
ATOM     14  C   UNL     1       1.196   0.978  -8.300  1.00  0.00     0.040 A 
ATOM     15  C   UNL     1      -0.169   1.135  -8.056  1.00  0.00     0.034 A 
ATOM     16  C   UNL     1       2.076   0.806  -7.228  1.00  0.00     0.034 A 
ATOM     17  C   UNL     1      -0.643   1.118  -6.759  1.00  0.00     0.043 A 
ATOM     18  C   UNL     1       1.590   0.791  -5.936  1.00  0.00     0.043 A 
ATOM     19  C   UNL     1       0.234   0.947  -5.702  1.00  0.00     0.041 A 
ATOM     20  Cl  UNL     1      -2.340   1.313  -6.454  1.00  0.00    -0.084 Cl
ATOM     21  Cl  UNL     1       2.681   0.577  -4.603  1.00  0.00    -0.084 Cl
ENDBRANCH   7  14
TORSDOF 3
ENDMDL
MODEL 8
REMARK VINA RESULT:    -3.887     11.075     11.984
REMARK INTER + INTRA:          -4.750
REMARK INTER:                  -4.454
REMARK INTRA:                  -0.296
REMARK UNBOUND:                -0.295
REMARK SMILES O=C(O)c1ccc2nc(-c3cc(Cl)cc(Cl)c3)oc2c1
REMARK SMILES IDX 5 1 6 2 20 3 8 4 18 5 4 6 9 7 7 8 19 9 2 10 1 11 3 12 10 14
REMARK SMILES IDX 11 15 17 16 12 17 15 18 14 19 13 20 16 21
REMARK H PARENT 3 13
ROOT
ATOM      1  C   UNL     1       2.575   1.445 -14.081  1.00  0.00     0.018 A 
ATOM      2  C   UNL     1       2.977   0.961 -12.871  1.00  0.00     0.033 A 
ATOM      3  C   UNL     1       0.728   2.611 -13.028  1.00  0.00     0.065 A 
ATOM      4  N   UNL     1       2.412   0.972 -10.409  1.00  0.00    -0.209 NA
ATOM      5  O   UNL     1       0.658   2.254 -10.540  1.00  0.00    -0.436 OA
ATOM      6  C   UNL     1       1.450   2.276 -14.175  1.00  0.00     0.063 A 
ATOM      7  C   UNL     1       1.458   1.548  -9.719  1.00  0.00     0.227 A 
ATOM      8  C   UNL     1       2.262   1.290 -11.713  1.00  0.00     0.110 A 
ATOM      9  C   UNL     1       1.130   2.119 -11.800  1.00  0.00     0.156 A 
ENDROOT
BRANCH   6  10
ATOM     10  C   UNL     1       1.029   2.798 -15.487  1.00  0.00     0.335 C 
ATOM     11  O   UNL     1       0.034   3.489 -15.575  1.00  0.00    -0.246 OA
BRANCH  10  12
ATOM     12  O   UNL     1       1.747   2.508 -16.590  1.00  0.00    -0.478 OA
ATOM     13  H   UNL     1       2.696   2.368 -16.472  1.00  0.00     0.297 HD
ENDBRANCH  10  12
ENDBRANCH   6  10
BRANCH   7  14
ATOM     14  C   UNL     1       1.286   1.436  -8.256  1.00  0.00     0.040 A 
ATOM     15  C   UNL     1       0.015   1.538  -7.690  1.00  0.00     0.034 A 
ATOM     16  C   UNL     1       2.396   1.229  -7.434  1.00  0.00     0.034 A 
ATOM     17  C   UNL     1      -0.139   1.432  -6.322  1.00  0.00     0.043 A 
ATOM     18  C   UNL     1       2.229   1.124  -6.068  1.00  0.00     0.043 A 
ATOM     19  C   UNL     1       0.965   1.226  -5.512  1.00  0.00     0.041 A 
ATOM     20  Cl  UNL     1      -1.720   1.557  -5.615  1.00  0.00    -0.084 Cl
ATOM     21  Cl  UNL     1       3.608   0.867  -5.044  1.00  0.00    -0.084 Cl
ENDBRANCH   7  14
TORSDOF 3
ENDMDL
MODEL 9
REMARK VINA RESULT:    -3.885     11.076     11.821
REMARK INTER + INTRA:          -4.747
REMARK INTER:                  -4.452
REMARK INTRA:                  -0.296
REMARK UNBOUND:                -0.295
REMARK SMILES O=C(O)c1ccc2nc(-c3cc(Cl)cc(Cl)c3)oc2c1
REMARK SMILES IDX 5 1 6 2 20 3 8 4 18 5 4 6 9 7 7 8 19 9 2 10 1 11 3 12 10 14
REMARK SMILES IDX 11 15 17 16 12 17 15 18 14 19 13 20 16 21
REMARK H PARENT 3 13
ROOT
ATOM      1  C   UNL     1       2.578   1.442 -14.082  1.00  0.00     0.018 A 
ATOM      2  C   UNL     1       2.980   0.959 -12.872  1.00  0.00     0.033 A 
ATOM      3  C   UNL     1       0.730   2.607 -13.028  1.00  0.00     0.065 A 
ATOM      4  N   UNL     1       2.416   0.970 -10.410  1.00  0.00    -0.209 NA
ATOM      5  O   UNL     1       0.661   2.250 -10.541  1.00  0.00    -0.436 OA
ATOM      6  C   UNL     1       1.452   2.271 -14.175  1.00  0.00     0.063 A 
ATOM      7  C   UNL     1       1.462   1.544  -9.720  1.00  0.00     0.227 A 
ATOM      8  C   UNL     1       2.266   1.287 -11.714  1.00  0.00     0.110 A 
ATOM      9  C   UNL     1       1.132   2.115 -11.800  1.00  0.00     0.156 A 
ENDROOT
BRANCH   6  10
ATOM     10  C   UNL     1       1.030   2.793 -15.488  1.00  0.00     0.335 C 
ATOM     11  O   UNL     1       0.023   3.466 -15.579  1.00  0.00    -0.246 OA
BRANCH  10  12
ATOM     12  O   UNL     1       1.760   2.521 -16.588  1.00  0.00    -0.478 OA
ATOM     13  H   UNL     1       1.289   2.490 -17.431  1.00  0.00     0.297 HD
ENDBRANCH  10  12
ENDBRANCH   6  10
BRANCH   7  14
ATOM     14  C   UNL     1       1.291   1.433  -8.256  1.00  0.00     0.040 A 
ATOM     15  C   UNL     1       2.399   1.226  -7.434  1.00  0.00     0.034 A 
ATOM     16  C   UNL     1       0.018   1.533  -7.691  1.00  0.00     0.034 A 
ATOM     17  C   UNL     1       2.232   1.124  -6.067  1.00  0.00     0.043 A 
ATOM     18  C   UNL     1      -0.136   1.430  -6.323  1.00  0.00     0.043 A 
ATOM     19  C   UNL     1       0.968   1.224  -5.513  1.00  0.00     0.041 A 
ATOM     20  Cl  UNL     1       3.610   0.867  -5.043  1.00  0.00    -0.084 Cl
ATOM     21  Cl  UNL     1      -1.718   1.555  -5.617  1.00  0.00    -0.084 Cl
ENDBRANCH   7  14
TORSDOF 3
ENDMDL
