MODEL 1
REMARK VINA RESULT:    -5.626      0.000      0.000
REMARK INTER + INTRA:          -8.269
REMARK INTER:                  -7.765
REMARK INTRA:                  -0.505
REMARK UNBOUND:                -0.505
REMARK SMILES Cc1n[nH]c(C)c1CCCOc1cc(C(=O)O)ccc1F
REMARK SMILES IDX 11 1 12 2 14 3 18 4 13 5 19 6 20 7 21 8 15 9 16 10 17 11
REMARK SMILES IDX 10 13 9 14 8 15 7 16 5 17 2 18 4 19 3 20 6 21 1 22
REMARK H PARENT 17 12 4 23
ROOT
ATOM      1  O   UNL     1       2.509   3.179  -8.008  1.00  0.00    -0.490 OA
ENDROOT
BRANCH   1   2
ATOM      2  C   UNL     1       1.765   2.364  -7.214  1.00  0.00     0.155 A 
ATOM      3  C   UNL     1      -0.352   1.388  -6.625  1.00  0.00     0.063 A 
ATOM      4  C   UNL     1       0.265   0.685  -5.587  1.00  0.00     0.019 A 
ATOM      5  C   UNL     1       0.408   2.230  -7.439  1.00  0.00     0.065 A 
ATOM      6  C   UNL     1       1.621   0.821  -5.373  1.00  0.00     0.044 A 
ATOM      7  C   UNL     1       2.373   1.653  -6.186  1.00  0.00     0.165 A 
ATOM      8  F   UNL     1       3.701   1.781  -5.971  1.00  0.00    -0.203 F 
BRANCH   3   9
ATOM      9  C   UNL     1      -1.803   1.245  -6.856  1.00  0.00     0.335 C 
ATOM     10  O   UNL     1      -2.400   2.083  -7.500  1.00  0.00    -0.246 OA
BRANCH   9  11
ATOM     11  O   UNL     1      -2.462   0.181  -6.358  1.00  0.00    -0.478 OA
ATOM     12  H   UNL     1      -1.967  -0.646  -6.282  1.00  0.00     0.297 HD
ENDBRANCH   9  11
ENDBRANCH   3   9
ENDBRANCH   1   2
BRANCH   1  13
ATOM     13  C   UNL     1       3.506   2.558  -8.823  1.00  0.00     0.230 C 
BRANCH  13  14
ATOM     14  C   UNL     1       3.143   2.738 -10.298  1.00  0.00     0.046 C 
BRANCH  14  15
ATOM     15  C   UNL     1       2.414   1.490 -10.800  1.00  0.00     0.043 C 
BRANCH  15  16
ATOM     16  C   UNL     1       2.564   1.386 -12.295  1.00  0.00    -0.004 A 
ATOM     17  C   UNL     1       1.794   2.009 -13.218  1.00  0.00     0.036 A 
ATOM     18  C   UNL     1       3.528   0.635 -12.976  1.00  0.00     0.063 A 
ATOM     19  N   UNL     1       2.250   1.659 -14.439  1.00  0.00    -0.282 N 
ATOM     20  N   UNL     1       3.337   0.792 -14.261  1.00  0.00    -0.181 NA
ATOM     21  C   UNL     1       0.635   2.929 -12.933  1.00  0.00     0.066 C 
ATOM     22  C   UNL     1       4.595  -0.218 -12.339  1.00  0.00     0.069 C 
ATOM     23  H   UNL     1       1.890   1.954 -15.289  1.00  0.00     0.190 HD
ENDBRANCH  15  16
ENDBRANCH  14  15
ENDBRANCH  13  14
ENDBRANCH   1  13
TORSDOF 7
ENDMDL
MODEL 2
REMARK VINA RESULT:    -5.596      2.275      3.898
REMARK INTER + INTRA:          -8.227
REMARK INTER:                  -7.632
REMARK INTRA:                  -0.595
REMARK UNBOUND:                -0.505
REMARK SMILES Cc1n[nH]c(C)c1CCCOc1cc(C(=O)O)ccc1F
REMARK SMILES IDX 11 1 12 2 14 3 18 4 13 5 19 6 20 7 21 8 15 9 16 10 17 11
REMARK SMILES IDX 10 13 9 14 8 15 7 16 5 17 2 18 4 19 3 20 6 21 1 22
REMARK H PARENT 17 12 4 23
ROOT
ATOM      1  O   UNL     1      -0.005  -0.669  -8.771  1.00  0.00    -0.490 OA
ENDROOT
BRANCH   1   2
ATOM      2  C   UNL     1       0.291   0.025  -7.639  1.00  0.00     0.155 A 
ATOM      3  C   UNL     1       1.905   0.865  -6.068  1.00  0.00     0.063 A 
ATOM      4  C   UNL     1       0.875   1.454  -5.330  1.00  0.00     0.019 A 
ATOM      5  C   UNL     1       1.604   0.148  -7.228  1.00  0.00     0.065 A 
ATOM      6  C   UNL     1      -0.432   1.331  -5.752  1.00  0.00     0.044 A 
ATOM      7  C   UNL     1      -0.728   0.623  -6.905  1.00  0.00     0.165 A 
ATOM      8  F   UNL     1      -2.010   0.506  -7.313  1.00  0.00    -0.203 F 
BRANCH   3   9
ATOM      9  C   UNL     1       3.305   0.996  -5.620  1.00  0.00     0.335 C 
ATOM     10  O   UNL     1       4.138   0.192  -5.987  1.00  0.00    -0.246 OA
BRANCH   9  11
ATOM     11  O   UNL     1       3.660   2.011  -4.808  1.00  0.00    -0.478 OA
ATOM     12  H   UNL     1       4.242   2.689  -5.181  1.00  0.00     0.297 HD
ENDBRANCH   9  11
ENDBRANCH   3   9
ENDBRANCH   1   2
BRANCH   1  13
ATOM     13  C   UNL     1      -0.393   0.094  -9.916  1.00  0.00     0.230 C 
BRANCH  13  14
ATOM     14  C   UNL     1       0.671  -0.049 -11.006  1.00  0.00     0.046 C 
BRANCH  14  15
ATOM     15  C   UNL     1       1.492   1.239 -11.090  1.00  0.00     0.043 C 
BRANCH  15  16
ATOM     16  C   UNL     1       1.978   1.435 -12.503  1.00  0.00    -0.004 A 
ATOM     17  C   UNL     1       3.065   0.852 -13.059  1.00  0.00     0.036 A 
ATOM     18  C   UNL     1       1.382   2.247 -13.473  1.00  0.00     0.063 A 
ATOM     19  N   UNL     1       3.158   1.285 -14.334  1.00  0.00    -0.282 N 
ATOM     20  N   UNL     1       2.092   2.163 -14.569  1.00  0.00    -0.181 NA
ATOM     21  C   UNL     1       4.004  -0.109 -12.377  1.00  0.00     0.066 C 
ATOM     22  C   UNL     1       0.143   3.084 -13.285  1.00  0.00     0.069 C 
ATOM     23  H   UNL     1       3.841   1.033 -14.974  1.00  0.00     0.190 HD
ENDBRANCH  15  16
ENDBRANCH  14  15
ENDBRANCH  13  14
ENDBRANCH   1  13
TORSDOF 7
ENDMDL
MODEL 3
REMARK VINA RESULT:    -5.521      0.158      1.773
REMARK INTER + INTRA:          -8.123
REMARK INTER:                  -7.541
REMARK INTRA:                  -0.581
REMARK UNBOUND:                -0.505
REMARK SMILES Cc1n[nH]c(C)c1CCCOc1cc(C(=O)O)ccc1F
REMARK SMILES IDX 11 1 12 2 14 3 18 4 13 5 19 6 20 7 21 8 15 9 16 10 17 11
REMARK SMILES IDX 10 13 9 14 8 15 7 16 5 17 2 18 4 19 3 20 6 21 1 22
REMARK H PARENT 17 12 4 23
ROOT
ATOM      1  O   UNL     1       2.496   3.097  -8.074  1.00  0.00    -0.490 OA
ENDROOT
BRANCH   1   2
ATOM      2  C   UNL     1       1.748   2.317  -7.249  1.00  0.00     0.155 A 
ATOM      3  C   UNL     1      -0.374   1.376  -6.622  1.00  0.00     0.063 A 
ATOM      4  C   UNL     1       0.240   0.709  -5.559  1.00  0.00     0.019 A 
ATOM      5  C   UNL     1       0.390   2.183  -7.468  1.00  0.00     0.065 A 
ATOM      6  C   UNL     1       1.597   0.844  -5.352  1.00  0.00     0.044 A 
ATOM      7  C   UNL     1       2.353   1.641  -6.195  1.00  0.00     0.165 A 
ATOM      8  F   UNL     1       3.682   1.769  -5.987  1.00  0.00    -0.203 F 
BRANCH   3   9
ATOM      9  C   UNL     1      -1.826   1.233  -6.846  1.00  0.00     0.335 C 
ATOM     10  O   UNL     1      -2.423   2.059  -7.505  1.00  0.00    -0.246 OA
BRANCH   9  11
ATOM     11  O   UNL     1      -2.487   0.181  -6.325  1.00  0.00    -0.478 OA
ATOM     12  H   UNL     1      -2.807   0.270  -5.416  1.00  0.00     0.297 HD
ENDBRANCH   9  11
ENDBRANCH   3   9
ENDBRANCH   1   2
BRANCH   1  13
ATOM     13  C   UNL     1       3.423   2.430  -8.934  1.00  0.00     0.230 C 
BRANCH  13  14
ATOM     14  C   UNL     1       3.028   2.670 -10.392  1.00  0.00     0.046 C 
BRANCH  14  15
ATOM     15  C   UNL     1       2.356   1.414 -10.952  1.00  0.00     0.043 C 
BRANCH  15  16
ATOM     16  C   UNL     1       2.643   1.304 -12.427  1.00  0.00    -0.004 A 
ATOM     17  C   UNL     1       3.627   0.570 -12.995  1.00  0.00     0.036 A 
ATOM     18  C   UNL     1       1.934   1.939 -13.452  1.00  0.00     0.063 A 
ATOM     19  N   UNL     1       3.548   0.739 -14.331  1.00  0.00    -0.282 N 
ATOM     20  N   UNL     1       2.480   1.607 -14.594  1.00  0.00    -0.181 NA
ATOM     21  C   UNL     1       4.631  -0.284 -12.265  1.00  0.00     0.066 C 
ATOM     22  C   UNL     1       0.752   2.858 -13.273  1.00  0.00     0.069 C 
ATOM     23  H   UNL     1       4.129   0.333 -14.993  1.00  0.00     0.190 HD
ENDBRANCH  15  16
ENDBRANCH  14  15
ENDBRANCH  13  14
ENDBRANCH   1  13
TORSDOF 7
ENDMDL
MODEL 4
REMARK VINA RESULT:    -4.575      3.920      6.975
REMARK INTER + INTRA:          -6.819
REMARK INTER:                  -6.014
REMARK INTRA:                  -0.804
REMARK UNBOUND:                -0.505
REMARK SMILES Cc1n[nH]c(C)c1CCCOc1cc(C(=O)O)ccc1F
REMARK SMILES IDX 11 1 12 2 14 3 18 4 13 5 19 6 20 7 21 8 15 9 16 10 17 11
REMARK SMILES IDX 10 13 9 14 8 15 7 16 5 17 2 18 4 19 3 20 6 21 1 22
REMARK H PARENT 17 12 4 23
ROOT
ATOM      1  O   UNL     1       0.659   1.700 -10.073  1.00  0.00    -0.490 OA
ENDROOT
BRANCH   1   2
ATOM      2  C   UNL     1       1.355   1.564 -11.234  1.00  0.00     0.155 A 
ATOM      3  C   UNL     1       3.152   0.573 -12.487  1.00  0.00     0.063 A 
ATOM      4  C   UNL     1       2.756   1.294 -13.617  1.00  0.00     0.019 A 
ATOM      5  C   UNL     1       2.443   0.714 -11.292  1.00  0.00     0.065 A 
ATOM      6  C   UNL     1       1.666   2.135 -13.551  1.00  0.00     0.044 A 
ATOM      7  C   UNL     1       0.962   2.269 -12.366  1.00  0.00     0.165 A 
ATOM      8  F   UNL     1      -0.106   3.095 -12.307  1.00  0.00    -0.203 F 
BRANCH   3   9
ATOM      9  C   UNL     1       4.319  -0.329 -12.555  1.00  0.00     0.335 C 
ATOM     10  O   UNL     1       5.426   0.089 -12.283  1.00  0.00    -0.246 OA
BRANCH   9  11
ATOM     11  O   UNL     1       4.153  -1.617 -12.912  1.00  0.00    -0.478 OA
ATOM     12  H   UNL     1       4.948  -2.169 -12.948  1.00  0.00     0.297 HD
ENDBRANCH   9  11
ENDBRANCH   3   9
ENDBRANCH   1   2
BRANCH   1  13
ATOM     13  C   UNL     1       0.368   0.502  -9.348  1.00  0.00     0.230 C 
BRANCH  13  14
ATOM     14  C   UNL     1      -0.264   0.863  -8.003  1.00  0.00     0.046 C 
BRANCH  14  15
ATOM     15  C   UNL     1       0.321   2.186  -7.503  1.00  0.00     0.043 C 
BRANCH  15  16
ATOM     16  C   UNL     1       1.554   1.913  -6.681  1.00  0.00    -0.004 A 
ATOM     17  C   UNL     1       1.588   1.291  -5.480  1.00  0.00     0.036 A 
ATOM     18  C   UNL     1       2.866   2.253  -7.027  1.00  0.00     0.063 A 
ATOM     19  N   UNL     1       2.876   1.244  -5.078  1.00  0.00    -0.282 N 
ATOM     20  N   UNL     1       3.658   1.859  -6.064  1.00  0.00    -0.181 NA
ATOM     21  C   UNL     1       0.402   0.747  -4.727  1.00  0.00     0.066 C 
ATOM     22  C   UNL     1       3.291   2.963  -8.288  1.00  0.00     0.069 C 
ATOM     23  H   UNL     1       3.202   0.855  -4.252  1.00  0.00     0.190 HD
ENDBRANCH  15  16
ENDBRANCH  14  15
ENDBRANCH  13  14
ENDBRANCH   1  13
TORSDOF 7
ENDMDL
MODEL 5
REMARK VINA RESULT:    -4.538      3.818      6.528
REMARK INTER + INTRA:          -6.766
REMARK INTER:                  -5.931
REMARK INTRA:                  -0.836
REMARK UNBOUND:                -0.505
REMARK SMILES Cc1n[nH]c(C)c1CCCOc1cc(C(=O)O)ccc1F
REMARK SMILES IDX 11 1 12 2 14 3 18 4 13 5 19 6 20 7 21 8 15 9 16 10 17 11
REMARK SMILES IDX 10 13 9 14 8 15 7 16 5 17 2 18 4 19 3 20 6 21 1 22
REMARK H PARENT 17 12 4 23
ROOT
ATOM      1  O   UNL     1       2.586   0.847  -9.765  1.00  0.00    -0.490 OA
ENDROOT
BRANCH   1   2
ATOM      2  C   UNL     1       2.500   1.088 -11.101  1.00  0.00     0.155 A 
ATOM      3  C   UNL     1       1.444   2.189 -12.959  1.00  0.00     0.063 A 
ATOM      4  C   UNL     1       2.346   1.574 -13.831  1.00  0.00     0.019 A 
ATOM      5  C   UNL     1       1.526   1.940 -11.588  1.00  0.00     0.065 A 
ATOM      6  C   UNL     1       3.317   0.730 -13.336  1.00  0.00     0.044 A 
ATOM      7  C   UNL     1       3.400   0.488 -11.974  1.00  0.00     0.165 A 
ATOM      8  F   UNL     1       4.354  -0.340 -11.495  1.00  0.00    -0.203 F 
BRANCH   3   9
ATOM      9  C   UNL     1       0.403   3.093 -13.487  1.00  0.00     0.335 C 
ATOM     10  O   UNL     1      -0.249   3.778 -12.726  1.00  0.00    -0.246 OA
BRANCH   9  11
ATOM     11  O   UNL     1       0.182   3.163 -14.814  1.00  0.00    -0.478 OA
ATOM     12  H   UNL     1       0.123   2.325 -15.294  1.00  0.00     0.297 HD
ENDBRANCH   9  11
ENDBRANCH   3   9
ENDBRANCH   1   2
BRANCH   1  13
ATOM     13  C   UNL     1       2.415   1.966  -8.892  1.00  0.00     0.230 C 
BRANCH  13  14
ATOM     14  C   UNL     1       2.447   1.488  -7.439  1.00  0.00     0.046 C 
BRANCH  14  15
ATOM     15  C   UNL     1       1.734   0.138  -7.331  1.00  0.00     0.043 C 
BRANCH  15  16
ATOM     16  C   UNL     1       0.260   0.363  -7.118  1.00  0.00    -0.004 A 
ATOM     17  C   UNL     1      -0.315   0.879  -6.007  1.00  0.00     0.036 A 
ATOM     18  C   UNL     1      -0.757   0.081  -8.037  1.00  0.00     0.063 A 
ATOM     19  N   UNL     1      -1.648   0.917  -6.213  1.00  0.00    -0.282 N 
ATOM     20  N   UNL     1      -1.901   0.406  -7.493  1.00  0.00    -0.181 NA
ATOM     21  C   UNL     1       0.405   1.332  -4.763  1.00  0.00     0.066 C 
ATOM     22  C   UNL     1      -0.568  -0.507  -9.412  1.00  0.00     0.069 C 
ATOM     23  H   UNL     1      -2.314   1.239  -5.585  1.00  0.00     0.190 HD
ENDBRANCH  15  16
ENDBRANCH  14  15
ENDBRANCH  13  14
ENDBRANCH   1  13
TORSDOF 7
ENDMDL
MODEL 6
REMARK VINA RESULT:    -4.476      4.925      7.856
REMARK INTER + INTRA:          -6.682
REMARK INTER:                  -5.975
REMARK INTRA:                  -0.707
REMARK UNBOUND:                -0.505
REMARK SMILES Cc1n[nH]c(C)c1CCCOc1cc(C(=O)O)ccc1F
REMARK SMILES IDX 11 1 12 2 14 3 18 4 13 5 19 6 20 7 21 8 15 9 16 10 17 11
REMARK SMILES IDX 10 13 9 14 8 15 7 16 5 17 2 18 4 19 3 20 6 21 1 22
REMARK H PARENT 17 12 4 23
ROOT
ATOM      1  O   UNL     1       0.849   2.149 -12.795  1.00  0.00    -0.490 OA
ENDROOT
BRANCH   1   2
ATOM      2  C   UNL     1       0.735   2.893 -13.926  1.00  0.00     0.155 A 
ATOM      3  C   UNL     1       0.936   3.109 -16.313  1.00  0.00     0.063 A 
ATOM      4  C   UNL     1       0.485   4.429 -16.228  1.00  0.00     0.019 A 
ATOM      5  C   UNL     1       1.059   2.342 -15.152  1.00  0.00     0.065 A 
ATOM      6  C   UNL     1       0.158   4.968 -15.001  1.00  0.00     0.044 A 
ATOM      7  C   UNL     1       0.277   4.204 -13.852  1.00  0.00     0.165 A 
ATOM      8  F   UNL     1      -0.045   4.738 -12.653  1.00  0.00    -0.203 F 
BRANCH   3   9
ATOM      9  C   UNL     1       1.286   2.529 -17.624  1.00  0.00     0.335 C 
ATOM     10  O   UNL     1       1.341   3.239 -18.607  1.00  0.00    -0.246 OA
BRANCH   9  11
ATOM     11  O   UNL     1       1.550   1.211 -17.729  1.00  0.00    -0.478 OA
ATOM     12  H   UNL     1       1.542   0.695 -16.910  1.00  0.00     0.297 HD
ENDBRANCH   9  11
ENDBRANCH   3   9
ENDBRANCH   1   2
BRANCH   1  13
ATOM     13  C   UNL     1       2.132   1.581 -12.519  1.00  0.00     0.230 C 
BRANCH  13  14
ATOM     14  C   UNL     1       2.127   0.969 -11.117  1.00  0.00     0.046 C 
BRANCH  14  15
ATOM     15  C   UNL     1       1.144   1.735 -10.229  1.00  0.00     0.043 C 
BRANCH  15  16
ATOM     16  C   UNL     1       1.253   1.237  -8.811  1.00  0.00    -0.004 A 
ATOM     17  C   UNL     1       0.561   0.205  -8.275  1.00  0.00     0.036 A 
ATOM     18  C   UNL     1       2.091   1.755  -7.819  1.00  0.00     0.063 A 
ATOM     19  N   UNL     1       0.943   0.079  -6.986  1.00  0.00    -0.282 N 
ATOM     20  N   UNL     1       1.901   1.067  -6.723  1.00  0.00    -0.181 NA
ATOM     21  C   UNL     1      -0.453  -0.651  -8.988  1.00  0.00     0.066 C 
ATOM     22  C   UNL     1       3.040   2.915  -7.981  1.00  0.00     0.069 C 
ATOM     23  H   UNL     1       0.613  -0.578  -6.355  1.00  0.00     0.190 HD
ENDBRANCH  15  16
ENDBRANCH  14  15
ENDBRANCH  13  14
ENDBRANCH   1  13
TORSDOF 7
ENDMDL
MODEL 7
REMARK VINA RESULT:    -4.471      4.678      8.051
REMARK INTER + INTRA:          -6.675
REMARK INTER:                  -5.967
REMARK INTRA:                  -0.708
REMARK UNBOUND:                -0.505
REMARK SMILES Cc1n[nH]c(C)c1CCCOc1cc(C(=O)O)ccc1F
REMARK SMILES IDX 11 1 12 2 14 3 18 4 13 5 19 6 20 7 21 8 15 9 16 10 17 11
REMARK SMILES IDX 10 13 9 14 8 15 7 16 5 17 2 18 4 19 3 20 6 21 1 22
REMARK H PARENT 17 12 4 23
ROOT
ATOM      1  O   UNL     1       3.633   0.623 -12.173  1.00  0.00    -0.490 OA
ENDROOT
BRANCH   1   2
ATOM      2  C   UNL     1       4.277  -0.021 -13.183  1.00  0.00     0.155 A 
ATOM      3  C   UNL     1       5.188  -0.027 -15.408  1.00  0.00     0.063 A 
ATOM      4  C   UNL     1       5.603  -1.350 -15.230  1.00  0.00     0.019 A 
ATOM      5  C   UNL     1       4.522   0.635 -14.375  1.00  0.00     0.065 A 
ATOM      6  C   UNL     1       5.360  -1.994 -14.036  1.00  0.00     0.044 A 
ATOM      7  C   UNL     1       4.703  -1.333 -13.011  1.00  0.00     0.165 A 
ATOM      8  F   UNL     1       4.467  -1.970 -11.842  1.00  0.00    -0.203 F 
BRANCH   3   9
ATOM      9  C   UNL     1       5.448   0.665 -16.686  1.00  0.00     0.335 C 
ATOM     10  O   UNL     1       5.661   0.022 -17.693  1.00  0.00    -0.246 OA
BRANCH   9  11
ATOM     11  O   UNL     1       5.442   2.012 -16.735  1.00  0.00    -0.478 OA
ATOM     12  H   UNL     1       4.720   2.430 -17.224  1.00  0.00     0.297 HD
ENDBRANCH   9  11
ENDBRANCH   3   9
ENDBRANCH   1   2
BRANCH   1  13
ATOM     13  C   UNL     1       2.406   1.280 -12.501  1.00  0.00     0.230 C 
BRANCH  13  14
ATOM     14  C   UNL     1       1.678   1.670 -11.214  1.00  0.00     0.046 C 
BRANCH  14  15
ATOM     15  C   UNL     1       2.218   0.838 -10.049  1.00  0.00     0.043 C 
BRANCH  15  16
ATOM     16  C   UNL     1       1.495   1.214  -8.783  1.00  0.00    -0.004 A 
ATOM     17  C   UNL     1       1.863   2.184  -7.914  1.00  0.00     0.036 A 
ATOM     18  C   UNL     1       0.320   0.628  -8.301  1.00  0.00     0.063 A 
ATOM     19  N   UNL     1       0.957   2.206  -6.914  1.00  0.00    -0.282 N 
ATOM     20  N   UNL     1       0.000   1.217  -7.177  1.00  0.00    -0.181 NA
ATOM     21  C   UNL     1       3.067   3.079  -8.040  1.00  0.00     0.066 C 
ATOM     22  C   UNL     1      -0.440  -0.497  -8.956  1.00  0.00     0.069 C 
ATOM     23  H   UNL     1       0.966   2.801  -6.148  1.00  0.00     0.190 HD
ENDBRANCH  15  16
ENDBRANCH  14  15
ENDBRANCH  13  14
ENDBRANCH   1  13
TORSDOF 7
ENDMDL
MODEL 8
REMARK VINA RESULT:    -4.463      4.674      8.016
REMARK INTER + INTRA:          -6.664
REMARK INTER:                  -5.941
REMARK INTRA:                  -0.723
REMARK UNBOUND:                -0.505
REMARK SMILES Cc1n[nH]c(C)c1CCCOc1cc(C(=O)O)ccc1F
REMARK SMILES IDX 11 1 12 2 14 3 18 4 13 5 19 6 20 7 21 8 15 9 16 10 17 11
REMARK SMILES IDX 10 13 9 14 8 15 7 16 5 17 2 18 4 19 3 20 6 21 1 22
REMARK H PARENT 17 12 4 23
ROOT
ATOM      1  O   UNL     1       3.630   0.679 -12.176  1.00  0.00    -0.490 OA
ENDROOT
BRANCH   1   2
ATOM      2  C   UNL     1       4.272   0.014 -13.174  1.00  0.00     0.155 A 
ATOM      3  C   UNL     1       5.196  -0.035 -15.393  1.00  0.00     0.063 A 
ATOM      4  C   UNL     1       5.592  -1.360 -15.195  1.00  0.00     0.019 A 
ATOM      5  C   UNL     1       4.532   0.650 -14.373  1.00  0.00     0.065 A 
ATOM      6  C   UNL     1       5.333  -1.984 -13.993  1.00  0.00     0.044 A 
ATOM      7  C   UNL     1       4.679  -1.301 -12.981  1.00  0.00     0.165 A 
ATOM      8  F   UNL     1       4.429  -1.919 -11.806  1.00  0.00    -0.203 F 
BRANCH   3   9
ATOM      9  C   UNL     1       5.472   0.637 -16.679  1.00  0.00     0.335 C 
ATOM     10  O   UNL     1       5.890  -0.004 -17.621  1.00  0.00    -0.246 OA
BRANCH   9  11
ATOM     11  O   UNL     1       5.253   1.960 -16.807  1.00  0.00    -0.478 OA
ATOM     12  H   UNL     1       4.997   2.280 -17.684  1.00  0.00     0.297 HD
ENDBRANCH   9  11
ENDBRANCH   3   9
ENDBRANCH   1   2
BRANCH   1  13
ATOM     13  C   UNL     1       2.401   1.326 -12.514  1.00  0.00     0.230 C 
BRANCH  13  14
ATOM     14  C   UNL     1       1.635   1.665 -11.234  1.00  0.00     0.046 C 
BRANCH  14  15
ATOM     15  C   UNL     1       2.170   0.815 -10.079  1.00  0.00     0.043 C 
BRANCH  15  16
ATOM     16  C   UNL     1       1.457   1.189  -8.806  1.00  0.00    -0.004 A 
ATOM     17  C   UNL     1       0.324   0.620  -8.332  1.00  0.00     0.036 A 
ATOM     18  C   UNL     1       1.851   2.181  -7.903  1.00  0.00     0.063 A 
ATOM     19  N   UNL     1       0.009   1.235  -7.172  1.00  0.00    -0.282 N 
ATOM     20  N   UNL     1       0.980   2.214  -6.926  1.00  0.00    -0.181 NA
ATOM     21  C   UNL     1      -0.447  -0.500  -8.981  1.00  0.00     0.066 C 
ATOM     22  C   UNL     1       3.062   3.068  -8.037  1.00  0.00     0.069 C 
ATOM     23  H   UNL     1      -0.755   1.035  -6.609  1.00  0.00     0.190 HD
ENDBRANCH  15  16
ENDBRANCH  14  15
ENDBRANCH  13  14
ENDBRANCH   1  13
TORSDOF 7
ENDMDL
MODEL 9
REMARK VINA RESULT:    -4.419      9.661     10.731
REMARK INTER + INTRA:          -6.602
REMARK INTER:                  -6.226
REMARK INTRA:                  -0.376
REMARK UNBOUND:                -0.505
REMARK SMILES Cc1n[nH]c(C)c1CCCOc1cc(C(=O)O)ccc1F
REMARK SMILES IDX 11 1 12 2 14 3 18 4 13 5 19 6 20 7 21 8 15 9 16 10 17 11
REMARK SMILES IDX 10 13 9 14 8 15 7 16 5 17 2 18 4 19 3 20 6 21 1 22
REMARK H PARENT 17 12 4 23
ROOT
ATOM      1  O   UNL     1      -0.434   0.144  -1.348  1.00  0.00    -0.490 OA
ENDROOT
BRANCH   1   2
ATOM      2  C   UNL     1      -0.176  -1.147  -1.011  1.00  0.00     0.155 A 
ATOM      3  C   UNL     1      -0.876  -3.442  -0.844  1.00  0.00     0.063 A 
ATOM      4  C   UNL     1       0.376  -3.782  -0.325  1.00  0.00     0.019 A 
ATOM      5  C   UNL     1      -1.147  -2.115  -1.187  1.00  0.00     0.065 A 
ATOM      6  C   UNL     1       1.340  -2.811  -0.159  1.00  0.00     0.044 A 
ATOM      7  C   UNL     1       1.071  -1.497  -0.504  1.00  0.00     0.165 A 
ATOM      8  F   UNL     1       2.021  -0.550  -0.338  1.00  0.00    -0.203 F 
BRANCH   3   9
ATOM      9  C   UNL     1      -1.911  -4.479  -1.024  1.00  0.00     0.335 C 
ATOM     10  O   UNL     1      -2.231  -5.186  -0.091  1.00  0.00    -0.246 OA
BRANCH   9  11
ATOM     11  O   UNL     1      -2.505  -4.637  -2.223  1.00  0.00    -0.478 OA
ATOM     12  H   UNL     1      -1.927  -4.663  -2.999  1.00  0.00     0.297 HD
ENDBRANCH   9  11
ENDBRANCH   3   9
ENDBRANCH   1   2
BRANCH   1  13
ATOM     13  C   UNL     1      -0.746   1.043  -0.281  1.00  0.00     0.230 C 
BRANCH  13  14
ATOM     14  C   UNL     1      -0.803   2.473  -0.820  1.00  0.00     0.046 C 
BRANCH  14  15
ATOM     15  C   UNL     1      -0.455   3.456   0.301  1.00  0.00     0.043 C 
BRANCH  15  16
ATOM     16  C   UNL     1      -0.922   4.837  -0.077  1.00  0.00    -0.004 A 
ATOM     17  C   UNL     1      -0.134   5.865  -0.469  1.00  0.00     0.036 A 
ATOM     18  C   UNL     1      -2.249   5.282  -0.092  1.00  0.00     0.063 A 
ATOM     19  N   UNL     1      -0.933   6.925  -0.716  1.00  0.00    -0.282 N 
ATOM     20  N   UNL     1      -2.255   6.535  -0.468  1.00  0.00    -0.181 NA
ATOM     21  C   UNL     1       1.366   5.832  -0.605  1.00  0.00     0.066 C 
ATOM     22  C   UNL     1      -3.460   4.463   0.274  1.00  0.00     0.069 C 
ATOM     23  H   UNL     1      -0.642   7.801  -1.013  1.00  0.00     0.190 HD
ENDBRANCH  15  16
ENDBRANCH  14  15
ENDBRANCH  13  14
ENDBRANCH   1  13
TORSDOF 7
ENDMDL
