MODEL 1
REMARK VINA RESULT:    -4.463      0.000      0.000
REMARK INTER + INTRA:          -5.411
REMARK INTER:                  -5.115
REMARK INTRA:                  -0.296
REMARK UNBOUND:                -0.296
REMARK SMILES O=C(O)c1ccc2nc(-c3cc(Cl)cc(Cl)c3)oc2c1
REMARK SMILES IDX 5 1 6 2 20 3 8 4 18 5 4 6 9 7 7 8 19 9 2 10 1 11 3 12 10 14
REMARK SMILES IDX 11 15 17 16 12 17 15 18 14 19 13 20 16 21
REMARK H PARENT 3 13
ROOT
ATOM      1  C   UNL     1       9.622   6.554   7.894  1.00  0.00     0.018 A 
ATOM      2  C   UNL     1       8.757   6.725   6.854  1.00  0.00     0.033 A 
ATOM      3  C   UNL     1       9.426   4.146   7.692  1.00  0.00     0.065 A 
ATOM      4  N   UNL     1       7.345   5.464   5.181  1.00  0.00    -0.209 NA
ATOM      5  O   UNL     1       7.868   3.459   5.843  1.00  0.00    -0.436 OA
ATOM      6  C   UNL     1       9.969   5.266   8.325  1.00  0.00     0.063 A 
ATOM      7  C   UNL     1       7.149   4.187   4.968  1.00  0.00     0.227 A 
ATOM      8  C   UNL     1       8.206   5.610   6.211  1.00  0.00     0.110 A 
ATOM      9  C   UNL     1       8.545   4.314   6.640  1.00  0.00     0.156 A 
ENDROOT
BRANCH   6  10
ATOM     10  C   UNL     1      10.909   5.094   9.446  1.00  0.00     0.335 C 
ATOM     11  O   UNL     1      11.105   3.988   9.911  1.00  0.00    -0.246 OA
BRANCH  10  12
ATOM     12  O   UNL     1      11.552   6.163   9.958  1.00  0.00    -0.478 OA
ATOM     13  H   UNL     1      11.631   6.209  10.920  1.00  0.00     0.297 HD
ENDBRANCH  10  12
ENDBRANCH   6  10
BRANCH   7  14
ATOM     14  C   UNL     1       6.269   3.628   3.921  1.00  0.00     0.040 A 
ATOM     15  C   UNL     1       6.019   4.353   2.755  1.00  0.00     0.034 A 
ATOM     16  C   UNL     1       5.682   2.373   4.096  1.00  0.00     0.034 A 
ATOM     17  C   UNL     1       5.195   3.825   1.780  1.00  0.00     0.043 A 
ATOM     18  C   UNL     1       4.861   1.856   3.114  1.00  0.00     0.043 A 
ATOM     19  C   UNL     1       4.617   2.580   1.959  1.00  0.00     0.041 A 
ATOM     20  Cl  UNL     1       4.884   4.724   0.329  1.00  0.00    -0.084 Cl
ATOM     21  Cl  UNL     1       4.131   0.295   3.329  1.00  0.00    -0.084 Cl
ENDBRANCH   7  14
TORSDOF 3
ENDMDL
MODEL 2
REMARK VINA RESULT:    -4.462      0.018      2.020
REMARK INTER + INTRA:          -5.409
REMARK INTER:                  -5.114
REMARK INTRA:                  -0.296
REMARK UNBOUND:                -0.296
REMARK SMILES O=C(O)c1ccc2nc(-c3cc(Cl)cc(Cl)c3)oc2c1
REMARK SMILES IDX 5 1 6 2 20 3 8 4 18 5 4 6 9 7 7 8 19 9 2 10 1 11 3 12 10 14
REMARK SMILES IDX 11 15 17 16 12 17 15 18 14 19 13 20 16 21
REMARK H PARENT 3 13
ROOT
ATOM      1  C   UNL     1       9.625   6.552   7.888  1.00  0.00     0.018 A 
ATOM      2  C   UNL     1       8.758   6.718   6.850  1.00  0.00     0.033 A 
ATOM      3  C   UNL     1       9.434   4.142   7.693  1.00  0.00     0.065 A 
ATOM      4  N   UNL     1       7.346   5.451   5.183  1.00  0.00    -0.209 NA
ATOM      5  O   UNL     1       7.873   3.448   5.849  1.00  0.00    -0.436 OA
ATOM      6  C   UNL     1       9.975   5.265   8.321  1.00  0.00     0.063 A 
ATOM      7  C   UNL     1       7.152   4.172   4.973  1.00  0.00     0.227 A 
ATOM      8  C   UNL     1       8.208   5.601   6.211  1.00  0.00     0.110 A 
ATOM      9  C   UNL     1       8.550   4.307   6.642  1.00  0.00     0.156 A 
ENDROOT
BRANCH   6  10
ATOM     10  C   UNL     1      10.919   5.098   9.442  1.00  0.00     0.335 C 
ATOM     11  O   UNL     1      11.117   3.994   9.908  1.00  0.00    -0.246 OA
BRANCH  10  12
ATOM     12  O   UNL     1      11.560   6.169   9.949  1.00  0.00    -0.478 OA
ATOM     13  H   UNL     1      12.519   6.100  10.050  1.00  0.00     0.297 HD
ENDBRANCH  10  12
ENDBRANCH   6  10
BRANCH   7  14
ATOM     14  C   UNL     1       6.270   3.610   3.929  1.00  0.00     0.040 A 
ATOM     15  C   UNL     1       5.688   2.354   4.105  1.00  0.00     0.034 A 
ATOM     16  C   UNL     1       6.017   4.333   2.761  1.00  0.00     0.034 A 
ATOM     17  C   UNL     1       4.864   1.834   3.126  1.00  0.00     0.043 A 
ATOM     18  C   UNL     1       5.192   3.802   1.790  1.00  0.00     0.043 A 
ATOM     19  C   UNL     1       4.618   2.556   1.971  1.00  0.00     0.041 A 
ATOM     20  Cl  UNL     1       4.138   0.272   3.344  1.00  0.00    -0.084 Cl
ATOM     21  Cl  UNL     1       4.876   4.699   0.337  1.00  0.00    -0.084 Cl
ENDBRANCH   7  14
TORSDOF 3
ENDMDL
MODEL 3
REMARK VINA RESULT:    -4.458      1.773      3.166
REMARK INTER + INTRA:          -5.405
REMARK INTER:                  -5.109
REMARK INTRA:                  -0.296
REMARK UNBOUND:                -0.296
REMARK SMILES O=C(O)c1ccc2nc(-c3cc(Cl)cc(Cl)c3)oc2c1
REMARK SMILES IDX 5 1 6 2 20 3 8 4 18 5 4 6 9 7 7 8 19 9 2 10 1 11 3 12 10 14
REMARK SMILES IDX 11 15 17 16 12 17 15 18 14 19 13 20 16 21
REMARK H PARENT 3 13
ROOT
ATOM      1  C   UNL     1       9.722   6.451   7.882  1.00  0.00     0.018 A 
ATOM      2  C   UNL     1       9.271   5.229   7.481  1.00  0.00     0.033 A 
ATOM      3  C   UNL     1       8.232   7.542   6.311  1.00  0.00     0.065 A 
ATOM      4  N   UNL     1       7.664   4.096   5.895  1.00  0.00    -0.209 NA
ATOM      5  O   UNL     1       6.863   5.902   4.985  1.00  0.00    -0.436 OA
ATOM      6  C   UNL     1       9.208   7.621   7.305  1.00  0.00     0.063 A 
ATOM      7  C   UNL     1       6.818   4.557   5.007  1.00  0.00     0.227 A 
ATOM      8  C   UNL     1       8.291   5.136   6.485  1.00  0.00     0.110 A 
ATOM      9  C   UNL     1       7.775   6.304   5.898  1.00  0.00     0.156 A 
ENDROOT
BRANCH   6  10
ATOM     10  C   UNL     1       9.699   8.937   7.751  1.00  0.00     0.335 C 
ATOM     11  O   UNL     1       9.319   9.948   7.194  1.00  0.00    -0.246 OA
BRANCH  10  12
ATOM     12  O   UNL     1      10.571   9.020   8.776  1.00  0.00    -0.478 OA
ATOM     13  H   UNL     1      11.464   9.329   8.569  1.00  0.00     0.297 HD
ENDBRANCH  10  12
ENDBRANCH   6  10
BRANCH   7  14
ATOM     14  C   UNL     1       5.945   3.723   4.156  1.00  0.00     0.040 A 
ATOM     15  C   UNL     1       5.522   2.469   4.600  1.00  0.00     0.034 A 
ATOM     16  C   UNL     1       5.541   4.185   2.902  1.00  0.00     0.034 A 
ATOM     17  C   UNL     1       4.706   1.695   3.800  1.00  0.00     0.043 A 
ATOM     18  C   UNL     1       4.725   3.402   2.111  1.00  0.00     0.043 A 
ATOM     19  C   UNL     1       4.308   2.160   2.558  1.00  0.00     0.041 A 
ATOM     20  Cl  UNL     1       4.177   0.136   4.352  1.00  0.00    -0.084 Cl
ATOM     21  Cl  UNL     1       4.220   3.976   0.551  1.00  0.00    -0.084 Cl
ENDBRANCH   7  14
TORSDOF 3
ENDMDL
MODEL 4
REMARK VINA RESULT:    -4.453      1.774      2.460
REMARK INTER + INTRA:          -5.399
REMARK INTER:                  -5.104
REMARK INTRA:                  -0.296
REMARK UNBOUND:                -0.296
REMARK SMILES O=C(O)c1ccc2nc(-c3cc(Cl)cc(Cl)c3)oc2c1
REMARK SMILES IDX 5 1 6 2 20 3 8 4 18 5 4 6 9 7 7 8 19 9 2 10 1 11 3 12 10 14
REMARK SMILES IDX 11 15 17 16 12 17 15 18 14 19 13 20 16 21
REMARK H PARENT 3 13
ROOT
ATOM      1  C   UNL     1       9.730   6.451   7.893  1.00  0.00     0.018 A 
ATOM      2  C   UNL     1       9.272   5.229   7.498  1.00  0.00     0.033 A 
ATOM      3  C   UNL     1       8.253   7.543   6.310  1.00  0.00     0.065 A 
ATOM      4  N   UNL     1       7.661   4.098   5.915  1.00  0.00    -0.209 NA
ATOM      5  O   UNL     1       6.876   5.904   4.991  1.00  0.00    -0.436 OA
ATOM      6  C   UNL     1       9.227   7.621   7.307  1.00  0.00     0.063 A 
ATOM      7  C   UNL     1       6.822   4.559   5.022  1.00  0.00     0.227 A 
ATOM      8  C   UNL     1       8.294   5.137   6.500  1.00  0.00     0.110 A 
ATOM      9  C   UNL     1       7.788   6.306   5.904  1.00  0.00     0.156 A 
ENDROOT
BRANCH   6  10
ATOM     10  C   UNL     1       9.726   8.936   7.746  1.00  0.00     0.335 C 
ATOM     11  O   UNL     1       9.399   9.941   7.146  1.00  0.00    -0.246 OA
BRANCH  10  12
ATOM     12  O   UNL     1      10.547   9.025   8.811  1.00  0.00    -0.478 OA
ATOM     13  H   UNL     1      10.132   9.135   9.677  1.00  0.00     0.297 HD
ENDBRANCH  10  12
ENDBRANCH   6  10
BRANCH   7  14
ATOM     14  C   UNL     1       5.945   3.726   4.173  1.00  0.00     0.040 A 
ATOM     15  C   UNL     1       5.538   4.186   2.920  1.00  0.00     0.034 A 
ATOM     16  C   UNL     1       5.519   2.474   4.623  1.00  0.00     0.034 A 
ATOM     17  C   UNL     1       4.720   3.402   2.131  1.00  0.00     0.043 A 
ATOM     18  C   UNL     1       4.701   1.700   3.825  1.00  0.00     0.043 A 
ATOM     19  C   UNL     1       4.301   2.162   2.583  1.00  0.00     0.041 A 
ATOM     20  Cl  UNL     1       4.214   3.973   0.572  1.00  0.00    -0.084 Cl
ATOM     21  Cl  UNL     1       4.170   0.143   4.382  1.00  0.00    -0.084 Cl
ENDBRANCH   7  14
TORSDOF 3
ENDMDL
MODEL 5
REMARK VINA RESULT:    -4.261      3.935      7.594
REMARK INTER + INTRA:          -5.180
REMARK INTER:                  -4.882
REMARK INTRA:                  -0.298
REMARK UNBOUND:                -0.296
REMARK SMILES O=C(O)c1ccc2nc(-c3cc(Cl)cc(Cl)c3)oc2c1
REMARK SMILES IDX 5 1 6 2 20 3 8 4 18 5 4 6 9 7 7 8 19 9 2 10 1 11 3 12 10 14
REMARK SMILES IDX 11 15 17 16 12 17 15 18 14 19 13 20 16 21
REMARK H PARENT 3 13
ROOT
ATOM      1  C   UNL     1       4.768   1.592   3.078  1.00  0.00     0.018 A 
ATOM      2  C   UNL     1       5.610   1.665   4.148  1.00  0.00     0.033 A 
ATOM      3  C   UNL     1       5.024   3.971   2.683  1.00  0.00     0.065 A 
ATOM      4  N   UNL     1       7.022   3.271   5.493  1.00  0.00    -0.209 NA
ATOM      5  O   UNL     1       6.556   5.063   4.350  1.00  0.00    -0.436 OA
ATOM      6  C   UNL     1       4.466   2.740   2.332  1.00  0.00     0.063 A 
ATOM      7  C   UNL     1       7.244   4.558   5.392  1.00  0.00     0.227 A 
ATOM      8  C   UNL     1       6.176   2.893   4.510  1.00  0.00     0.110 A 
ATOM      9  C   UNL     1       5.874   4.050   3.770  1.00  0.00     0.156 A 
ENDROOT
BRANCH   6  10
ATOM     10  C   UNL     1       3.559   2.647   1.174  1.00  0.00     0.335 C 
ATOM     11  O   UNL     1       3.060   1.580   0.878  1.00  0.00    -0.246 OA
BRANCH  10  12
ATOM     12  O   UNL     1       3.284   3.745   0.443  1.00  0.00    -0.478 OA
ATOM     13  H   UNL     1       3.874   3.938  -0.299  1.00  0.00     0.297 HD
ENDBRANCH  10  12
ENDBRANCH   6  10
BRANCH   7  14
ATOM     14  C   UNL     1       8.118   5.340   6.290  1.00  0.00     0.040 A 
ATOM     15  C   UNL     1       8.094   6.734   6.254  1.00  0.00     0.034 A 
ATOM     16  C   UNL     1       8.974   4.685   7.179  1.00  0.00     0.034 A 
ATOM     17  C   UNL     1       8.913   7.459   7.097  1.00  0.00     0.043 A 
ATOM     18  C   UNL     1       9.788   5.420   8.016  1.00  0.00     0.043 A 
ATOM     19  C   UNL     1       9.759   6.804   7.975  1.00  0.00     0.041 A 
ATOM     20  Cl  UNL     1       8.883   9.194   7.054  1.00  0.00    -0.084 Cl
ATOM     21  Cl  UNL     1      10.853   4.608   9.122  1.00  0.00    -0.084 Cl
ENDBRANCH   7  14
TORSDOF 3
ENDMDL
MODEL 6
REMARK VINA RESULT:    -4.260      3.934      7.821
REMARK INTER + INTRA:          -5.179
REMARK INTER:                  -4.881
REMARK INTRA:                  -0.298
REMARK UNBOUND:                -0.296
REMARK SMILES O=C(O)c1ccc2nc(-c3cc(Cl)cc(Cl)c3)oc2c1
REMARK SMILES IDX 5 1 6 2 20 3 8 4 18 5 4 6 9 7 7 8 19 9 2 10 1 11 3 12 10 14
REMARK SMILES IDX 11 15 17 16 12 17 15 18 14 19 13 20 16 21
REMARK H PARENT 3 13
ROOT
ATOM      1  C   UNL     1       4.771   1.592   3.076  1.00  0.00     0.018 A 
ATOM      2  C   UNL     1       5.612   1.664   4.146  1.00  0.00     0.033 A 
ATOM      3  C   UNL     1       5.031   3.971   2.682  1.00  0.00     0.065 A 
ATOM      4  N   UNL     1       7.025   3.267   5.493  1.00  0.00    -0.209 NA
ATOM      5  O   UNL     1       6.564   5.060   4.350  1.00  0.00    -0.436 OA
ATOM      6  C   UNL     1       4.472   2.741   2.330  1.00  0.00     0.063 A 
ATOM      7  C   UNL     1       7.250   4.553   5.393  1.00  0.00     0.227 A 
ATOM      8  C   UNL     1       6.180   2.891   4.509  1.00  0.00     0.110 A 
ATOM      9  C   UNL     1       5.881   4.048   3.770  1.00  0.00     0.156 A 
ENDROOT
BRANCH   6  10
ATOM     10  C   UNL     1       3.566   2.650   1.171  1.00  0.00     0.335 C 
ATOM     11  O   UNL     1       3.063   1.584   0.875  1.00  0.00    -0.246 OA
BRANCH  10  12
ATOM     12  O   UNL     1       3.295   3.749   0.438  1.00  0.00    -0.478 OA
ATOM     13  H   UNL     1       3.209   4.585   0.916  1.00  0.00     0.297 HD
ENDBRANCH  10  12
ENDBRANCH   6  10
BRANCH   7  14
ATOM     14  C   UNL     1       8.125   5.333   6.292  1.00  0.00     0.040 A 
ATOM     15  C   UNL     1       8.980   4.679   7.179  1.00  0.00     0.034 A 
ATOM     16  C   UNL     1       8.099   6.729   6.258  1.00  0.00     0.034 A 
ATOM     17  C   UNL     1       9.796   5.413   8.017  1.00  0.00     0.043 A 
ATOM     18  C   UNL     1       8.920   7.452   7.099  1.00  0.00     0.043 A 
ATOM     19  C   UNL     1       9.766   6.797   7.978  1.00  0.00     0.041 A 
ATOM     20  Cl  UNL     1      10.861   4.601   9.121  1.00  0.00    -0.084 Cl
ATOM     21  Cl  UNL     1       8.889   9.188   7.058  1.00  0.00    -0.084 Cl
ENDBRANCH   7  14
TORSDOF 3
ENDMDL
MODEL 7
REMARK VINA RESULT:    -4.155      4.801      6.536
REMARK INTER + INTRA:          -5.058
REMARK INTER:                  -4.770
REMARK INTRA:                  -0.288
REMARK UNBOUND:                -0.296
REMARK SMILES O=C(O)c1ccc2nc(-c3cc(Cl)cc(Cl)c3)oc2c1
REMARK SMILES IDX 5 1 6 2 20 3 8 4 18 5 4 6 9 7 7 8 19 9 2 10 1 11 3 12 10 14
REMARK SMILES IDX 11 15 17 16 12 17 15 18 14 19 13 20 16 21
REMARK H PARENT 3 13
ROOT
ATOM      1  C   UNL     1       8.083  12.650   8.656  1.00  0.00     0.018 A 
ATOM      2  C   UNL     1       7.375  11.626   8.100  1.00  0.00     0.033 A 
ATOM      3  C   UNL     1      10.060  11.250   8.774  1.00  0.00     0.065 A 
ATOM      4  N   UNL     1       7.563   9.222   7.350  1.00  0.00    -0.209 NA
ATOM      5  O   UNL     1       9.653   8.935   7.882  1.00  0.00    -0.436 OA
ATOM      6  C   UNL     1       9.432  12.477   8.998  1.00  0.00     0.063 A 
ATOM      7  C   UNL     1       8.553   8.363   7.359  1.00  0.00     0.227 A 
ATOM      8  C   UNL     1       7.993  10.391   7.871  1.00  0.00     0.110 A 
ATOM      9  C   UNL     1       9.344  10.208   8.215  1.00  0.00     0.156 A 
ENDROOT
BRANCH   6  10
ATOM     10  C   UNL     1      10.189  13.593   9.592  1.00  0.00     0.335 C 
ATOM     11  O   UNL     1       9.776  14.140  10.595  1.00  0.00    -0.246 OA
BRANCH  10  12
ATOM     12  O   UNL     1      11.338  14.007   9.023  1.00  0.00    -0.478 OA
ATOM     13  H   UNL     1      12.148  13.550   9.287  1.00  0.00     0.297 HD
ENDBRANCH  10  12
ENDBRANCH   6  10
BRANCH   7  14
ATOM     14  C   UNL     1       8.471   6.972   6.867  1.00  0.00     0.040 A 
ATOM     15  C   UNL     1       9.269   5.979   7.437  1.00  0.00     0.034 A 
ATOM     16  C   UNL     1       7.595   6.646   5.830  1.00  0.00     0.034 A 
ATOM     17  C   UNL     1       9.188   4.681   6.974  1.00  0.00     0.043 A 
ATOM     18  C   UNL     1       7.523   5.344   5.376  1.00  0.00     0.043 A 
ATOM     19  C   UNL     1       8.317   4.364   5.945  1.00  0.00     0.041 A 
ATOM     20  Cl  UNL     1      10.179   3.444   7.682  1.00  0.00    -0.084 Cl
ATOM     21  Cl  UNL     1       6.434   4.936   4.086  1.00  0.00    -0.084 Cl
ENDBRANCH   7  14
TORSDOF 3
ENDMDL
MODEL 8
REMARK VINA RESULT:    -4.148      4.775      6.347
REMARK INTER + INTRA:          -5.050
REMARK INTER:                  -4.761
REMARK INTRA:                  -0.289
REMARK UNBOUND:                -0.296
REMARK SMILES O=C(O)c1ccc2nc(-c3cc(Cl)cc(Cl)c3)oc2c1
REMARK SMILES IDX 5 1 6 2 20 3 8 4 18 5 4 6 9 7 7 8 19 9 2 10 1 11 3 12 10 14
REMARK SMILES IDX 11 15 17 16 12 17 15 18 14 19 13 20 16 21
REMARK H PARENT 3 13
ROOT
ATOM      1  C   UNL     1       8.049  12.607   8.640  1.00  0.00     0.018 A 
ATOM      2  C   UNL     1       7.345  11.580   8.087  1.00  0.00     0.033 A 
ATOM      3  C   UNL     1      10.033  11.217   8.752  1.00  0.00     0.065 A 
ATOM      4  N   UNL     1       7.542   9.176   7.337  1.00  0.00    -0.209 NA
ATOM      5  O   UNL     1       9.635   8.899   7.863  1.00  0.00    -0.436 OA
ATOM      6  C   UNL     1       9.400  12.441   8.977  1.00  0.00     0.063 A 
ATOM      7  C   UNL     1       8.535   8.322   7.344  1.00  0.00     0.227 A 
ATOM      8  C   UNL     1       7.967  10.348   7.856  1.00  0.00     0.110 A 
ATOM      9  C   UNL     1       9.320  10.171   8.196  1.00  0.00     0.156 A 
ENDROOT
BRANCH   6  10
ATOM     10  C   UNL     1      10.154  13.561   9.569  1.00  0.00     0.335 C 
ATOM     11  O   UNL     1       9.713  14.144  10.539  1.00  0.00    -0.246 OA
BRANCH  10  12
ATOM     12  O   UNL     1      11.331  13.939   9.033  1.00  0.00    -0.478 OA
ATOM     13  H   UNL     1      11.299  14.574   8.305  1.00  0.00     0.297 HD
ENDBRANCH  10  12
ENDBRANCH   6  10
BRANCH   7  14
ATOM     14  C   UNL     1       8.459   6.930   6.854  1.00  0.00     0.040 A 
ATOM     15  C   UNL     1       7.592   6.600   5.811  1.00  0.00     0.034 A 
ATOM     16  C   UNL     1       9.253   5.939   7.434  1.00  0.00     0.034 A 
ATOM     17  C   UNL     1       7.526   5.298   5.358  1.00  0.00     0.043 A 
ATOM     18  C   UNL     1       9.178   4.640   6.971  1.00  0.00     0.043 A 
ATOM     19  C   UNL     1       8.316   4.320   5.937  1.00  0.00     0.041 A 
ATOM     20  Cl  UNL     1       6.449   4.885   4.060  1.00  0.00    -0.084 Cl
ATOM     21  Cl  UNL     1      10.166   3.406   7.691  1.00  0.00    -0.084 Cl
ENDBRANCH   7  14
TORSDOF 3
ENDMDL
MODEL 9
REMARK VINA RESULT:    -4.045      4.013      7.165
REMARK INTER + INTRA:          -4.931
REMARK INTER:                  -4.645
REMARK INTRA:                  -0.286
REMARK UNBOUND:                -0.296
REMARK SMILES O=C(O)c1ccc2nc(-c3cc(Cl)cc(Cl)c3)oc2c1
REMARK SMILES IDX 5 1 6 2 20 3 8 4 18 5 4 6 9 7 7 8 19 9 2 10 1 11 3 12 10 14
REMARK SMILES IDX 11 15 17 16 12 17 15 18 14 19 13 20 16 21
REMARK H PARENT 3 13
ROOT
ATOM      1  C   UNL     1       6.038   1.844   3.016  1.00  0.00     0.018 A 
ATOM      2  C   UNL     1       6.930   2.873   3.049  1.00  0.00     0.033 A 
ATOM      3  C   UNL     1       5.177   2.488   5.189  1.00  0.00     0.065 A 
ATOM      4  N   UNL     1       7.719   4.810   4.467  1.00  0.00    -0.209 NA
ATOM      5  O   UNL     1       6.353   4.500   6.132  1.00  0.00    -0.436 OA
ATOM      6  C   UNL     1       5.151   1.639   4.082  1.00  0.00     0.063 A 
ATOM      7  C   UNL     1       7.349   5.261   5.640  1.00  0.00     0.227 A 
ATOM      8  C   UNL     1       6.968   3.732   4.154  1.00  0.00     0.110 A 
ATOM      9  C   UNL     1       6.084   3.531   5.229  1.00  0.00     0.156 A 
ENDROOT
BRANCH   6  10
ATOM     10  C   UNL     1       4.186   0.525   4.032  1.00  0.00     0.335 C 
ATOM     11  O   UNL     1       4.296  -0.336   3.182  1.00  0.00    -0.246 OA
BRANCH  10  12
ATOM     12  O   UNL     1       3.181   0.463   4.928  1.00  0.00    -0.478 OA
ATOM     13  H   UNL     1       2.299   0.265   4.585  1.00  0.00     0.297 HD
ENDBRANCH  10  12
ENDBRANCH   6  10
BRANCH   7  14
ATOM     14  C   UNL     1       7.940   6.430   6.322  1.00  0.00     0.040 A 
ATOM     15  C   UNL     1       7.432   7.709   6.089  1.00  0.00     0.034 A 
ATOM     16  C   UNL     1       9.010   6.261   7.203  1.00  0.00     0.034 A 
ATOM     17  C   UNL     1       7.988   8.798   6.731  1.00  0.00     0.043 A 
ATOM     18  C   UNL     1       9.557   7.357   7.839  1.00  0.00     0.043 A 
ATOM     19  C   UNL     1       9.049   8.623   7.603  1.00  0.00     0.041 A 
ATOM     20  Cl  UNL     1       7.357  10.389   6.443  1.00  0.00    -0.084 Cl
ATOM     21  Cl  UNL     1      10.888   7.149   8.935  1.00  0.00    -0.084 Cl
ENDBRANCH   7  14
TORSDOF 3
ENDMDL
