MODEL 1
REMARK VINA RESULT:    -5.799      0.000      0.000
REMARK INTER + INTRA:          -8.538
REMARK INTER:                  -8.003
REMARK INTRA:                  -0.535
REMARK UNBOUND:                -0.535
REMARK SMILES Cc1n[nH]c(C)c1CCCOc1cc(C(=O)O)ccc1F
REMARK SMILES IDX 11 1 12 2 14 3 18 4 13 5 19 6 20 7 21 8 15 9 16 10 17 11
REMARK SMILES IDX 10 13 9 14 8 15 7 16 5 17 2 18 4 19 3 20 6 21 1 22
REMARK H PARENT 17 12 4 23
ROOT
ATOM      1  O   UNL     1       7.909   3.652   2.650  1.00  0.00    -0.490 OA
ENDROOT
BRANCH   1   2
ATOM      2  C   UNL     1       6.643   3.160   2.592  1.00  0.00     0.155 A 
ATOM      3  C   UNL     1       4.920   1.722   3.456  1.00  0.00     0.063 A 
ATOM      4  C   UNL     1       4.049   2.175   2.461  1.00  0.00     0.019 A 
ATOM      5  C   UNL     1       6.222   2.222   3.516  1.00  0.00     0.065 A 
ATOM      6  C   UNL     1       4.475   3.115   1.547  1.00  0.00     0.044 A 
ATOM      7  C   UNL     1       5.766   3.612   1.611  1.00  0.00     0.165 A 
ATOM      8  F   UNL     1       6.178   4.534   0.713  1.00  0.00    -0.203 F 
BRANCH   3   9
ATOM      9  C   UNL     1       4.466   0.716   4.436  1.00  0.00     0.335 C 
ATOM     10  O   UNL     1       5.272  -0.019   4.969  1.00  0.00    -0.246 OA
BRANCH   9  11
ATOM     11  O   UNL     1       3.158   0.619   4.744  1.00  0.00    -0.478 OA
ATOM     12  H   UNL     1       2.780   1.326   5.286  1.00  0.00     0.297 HD
ENDBRANCH   9  11
ENDBRANCH   3   9
ENDBRANCH   1   2
BRANCH   1  13
ATOM     13  C   UNL     1       8.052   5.036   2.979  1.00  0.00     0.230 C 
BRANCH  13  14
ATOM     14  C   UNL     1       8.898   5.173   4.247  1.00  0.00     0.046 C 
BRANCH  14  15
ATOM     15  C   UNL     1       7.978   5.281   5.465  1.00  0.00     0.043 C 
BRANCH  15  16
ATOM     16  C   UNL     1       8.718   5.944   6.597  1.00  0.00    -0.004 A 
ATOM     17  C   UNL     1       9.485   5.320   7.521  1.00  0.00     0.036 A 
ATOM     18  C   UNL     1       8.741   7.315   6.875  1.00  0.00     0.063 A 
ATOM     19  N   UNL     1       9.969   6.261   8.358  1.00  0.00    -0.282 N 
ATOM     20  N   UNL     1       9.484   7.505   7.934  1.00  0.00    -0.181 NA
ATOM     21  C   UNL     1       9.750   3.839   7.601  1.00  0.00     0.066 C 
ATOM     22  C   UNL     1       8.022   8.387   6.096  1.00  0.00     0.069 C 
ATOM     23  H   UNL     1      10.549   6.104   9.119  1.00  0.00     0.190 HD
ENDBRANCH  15  16
ENDBRANCH  14  15
ENDBRANCH  13  14
ENDBRANCH   1  13
TORSDOF 7
ENDMDL
MODEL 2
REMARK VINA RESULT:    -5.786      2.165      3.772
REMARK INTER + INTRA:          -8.519
REMARK INTER:                  -7.870
REMARK INTRA:                  -0.649
REMARK UNBOUND:                -0.535
REMARK SMILES Cc1n[nH]c(C)c1CCCOc1cc(C(=O)O)ccc1F
REMARK SMILES IDX 11 1 12 2 14 3 18 4 13 5 19 6 20 7 21 8 15 9 16 10 17 11
REMARK SMILES IDX 10 13 9 14 8 15 7 16 5 17 2 18 4 19 3 20 6 21 1 22
REMARK H PARENT 17 12 4 23
ROOT
ATOM      1  O   UNL     1       6.040   2.916   5.311  1.00  0.00    -0.490 OA
ENDROOT
BRANCH   1   2
ATOM      2  C   UNL     1       5.452   2.771   4.094  1.00  0.00     0.155 A 
ATOM      3  C   UNL     1       5.042   3.571   1.864  1.00  0.00     0.063 A 
ATOM      4  C   UNL     1       4.249   2.449   1.611  1.00  0.00     0.019 A 
ATOM      5  C   UNL     1       5.644   3.727   3.114  1.00  0.00     0.065 A 
ATOM      6  C   UNL     1       4.068   1.497   2.593  1.00  0.00     0.044 A 
ATOM      7  C   UNL     1       4.670   1.651   3.830  1.00  0.00     0.165 A 
ATOM      8  F   UNL     1       4.489   0.715   4.788  1.00  0.00    -0.203 F 
BRANCH   3   9
ATOM      9  C   UNL     1       5.238   4.591   0.815  1.00  0.00     0.335 C 
ATOM     10  O   UNL     1       4.994   5.757   1.049  1.00  0.00    -0.246 OA
BRANCH   9  11
ATOM     11  O   UNL     1       5.693   4.229  -0.400  1.00  0.00    -0.478 OA
ATOM     12  H   UNL     1       5.066   3.789  -0.991  1.00  0.00     0.297 HD
ENDBRANCH   9  11
ENDBRANCH   3   9
ENDBRANCH   1   2
BRANCH   1  13
ATOM     13  C   UNL     1       5.396   3.789   6.243  1.00  0.00     0.230 C 
BRANCH  13  14
ATOM     14  C   UNL     1       6.453   4.493   7.095  1.00  0.00     0.046 C 
BRANCH  14  15
ATOM     15  C   UNL     1       7.694   4.770   6.244  1.00  0.00     0.043 C 
BRANCH  15  16
ATOM     16  C   UNL     1       8.717   5.507   7.070  1.00  0.00    -0.004 A 
ATOM     17  C   UNL     1       8.849   6.851   7.160  1.00  0.00     0.036 A 
ATOM     18  C   UNL     1       9.693   4.923   7.883  1.00  0.00     0.063 A 
ATOM     19  N   UNL     1       9.877   7.108   7.996  1.00  0.00    -0.282 N 
ATOM     20  N   UNL     1      10.394   5.881   8.434  1.00  0.00    -0.181 NA
ATOM     21  C   UNL     1       8.001   7.876   6.454  1.00  0.00     0.066 C 
ATOM     22  C   UNL     1       9.909   3.444   8.082  1.00  0.00     0.069 C 
ATOM     23  H   UNL     1      10.201   7.986   8.248  1.00  0.00     0.190 HD
ENDBRANCH  15  16
ENDBRANCH  14  15
ENDBRANCH  13  14
ENDBRANCH   1  13
TORSDOF 7
ENDMDL
MODEL 3
REMARK VINA RESULT:    -5.706      2.181      3.338
REMARK INTER + INTRA:          -8.409
REMARK INTER:                  -7.746
REMARK INTRA:                  -0.664
REMARK UNBOUND:                -0.535
REMARK SMILES Cc1n[nH]c(C)c1CCCOc1cc(C(=O)O)ccc1F
REMARK SMILES IDX 11 1 12 2 14 3 18 4 13 5 19 6 20 7 21 8 15 9 16 10 17 11
REMARK SMILES IDX 10 13 9 14 8 15 7 16 5 17 2 18 4 19 3 20 6 21 1 22
REMARK H PARENT 17 12 4 23
ROOT
ATOM      1  O   UNL     1       6.067   2.964   5.306  1.00  0.00    -0.490 OA
ENDROOT
BRANCH   1   2
ATOM      2  C   UNL     1       5.482   2.799   4.090  1.00  0.00     0.155 A 
ATOM      3  C   UNL     1       5.056   3.576   1.855  1.00  0.00     0.063 A 
ATOM      4  C   UNL     1       4.285   2.437   1.609  1.00  0.00     0.019 A 
ATOM      5  C   UNL     1       5.654   3.752   3.104  1.00  0.00     0.065 A 
ATOM      6  C   UNL     1       4.124   1.488   2.597  1.00  0.00     0.044 A 
ATOM      7  C   UNL     1       4.723   1.662   3.833  1.00  0.00     0.165 A 
ATOM      8  F   UNL     1       4.560   0.729   4.797  1.00  0.00    -0.203 F 
BRANCH   3   9
ATOM      9  C   UNL     1       5.231   4.594   0.800  1.00  0.00     0.335 C 
ATOM     10  O   UNL     1       4.975   5.758   1.030  1.00  0.00    -0.246 OA
BRANCH   9  11
ATOM     11  O   UNL     1       5.681   4.231  -0.417  1.00  0.00    -0.478 OA
ATOM     12  H   UNL     1       5.113   3.648  -0.940  1.00  0.00     0.297 HD
ENDBRANCH   9  11
ENDBRANCH   3   9
ENDBRANCH   1   2
BRANCH   1  13
ATOM     13  C   UNL     1       5.413   3.840   6.227  1.00  0.00     0.230 C 
BRANCH  13  14
ATOM     14  C   UNL     1       6.459   4.531   7.103  1.00  0.00     0.046 C 
BRANCH  14  15
ATOM     15  C   UNL     1       7.743   4.740   6.297  1.00  0.00     0.043 C 
BRANCH  15  16
ATOM     16  C   UNL     1       8.779   5.407   7.163  1.00  0.00    -0.004 A 
ATOM     17  C   UNL     1       9.693   4.778   7.938  1.00  0.00     0.036 A 
ATOM     18  C   UNL     1       8.970   6.785   7.305  1.00  0.00     0.063 A 
ATOM     19  N   UNL     1      10.432   5.725   8.553  1.00  0.00    -0.282 N 
ATOM     20  N   UNL     1       9.956   6.977   8.143  1.00  0.00    -0.181 NA
ATOM     21  C   UNL     1       9.857   3.288   8.086  1.00  0.00     0.066 C 
ATOM     22  C   UNL     1       8.169   7.864   6.621  1.00  0.00     0.069 C 
ATOM     23  H   UNL     1      11.163   5.567   9.170  1.00  0.00     0.190 HD
ENDBRANCH  15  16
ENDBRANCH  14  15
ENDBRANCH  13  14
ENDBRANCH   1  13
TORSDOF 7
ENDMDL
MODEL 4
REMARK VINA RESULT:    -5.704      0.638      1.878
REMARK INTER + INTRA:          -8.406
REMARK INTER:                  -7.756
REMARK INTRA:                  -0.650
REMARK UNBOUND:                -0.535
REMARK SMILES Cc1n[nH]c(C)c1CCCOc1cc(C(=O)O)ccc1F
REMARK SMILES IDX 11 1 12 2 14 3 18 4 13 5 19 6 20 7 21 8 15 9 16 10 17 11
REMARK SMILES IDX 10 13 9 14 8 15 7 16 5 17 2 18 4 19 3 20 6 21 1 22
REMARK H PARENT 17 12 4 23
ROOT
ATOM      1  O   UNL     1       6.680   4.861   3.474  1.00  0.00    -0.490 OA
ENDROOT
BRANCH   1   2
ATOM      2  C   UNL     1       5.840   3.862   3.091  1.00  0.00     0.155 A 
ATOM      3  C   UNL     1       4.684   1.809   3.569  1.00  0.00     0.063 A 
ATOM      4  C   UNL     1       4.114   1.837   2.294  1.00  0.00     0.019 A 
ATOM      5  C   UNL     1       5.551   2.830   3.964  1.00  0.00     0.065 A 
ATOM      6  C   UNL     1       4.404   2.874   1.432  1.00  0.00     0.044 A 
ATOM      7  C   UNL     1       5.260   3.889   1.828  1.00  0.00     0.165 A 
ATOM      8  F   UNL     1       5.539   4.902   0.979  1.00  0.00    -0.203 F 
BRANCH   3   9
ATOM      9  C   UNL     1       4.376   0.700   4.494  1.00  0.00     0.335 C 
ATOM     10  O   UNL     1       5.276   0.045   4.978  1.00  0.00    -0.246 OA
BRANCH   9  11
ATOM     11  O   UNL     1       3.095   0.420   4.805  1.00  0.00    -0.478 OA
ATOM     12  H   UNL     1       2.724   0.864   5.581  1.00  0.00     0.297 HD
ENDBRANCH   9  11
ENDBRANCH   3   9
ENDBRANCH   1   2
BRANCH   1  13
ATOM     13  C   UNL     1       8.076   4.658   3.243  1.00  0.00     0.230 C 
BRANCH  13  14
ATOM     14  C   UNL     1       8.878   5.307   4.373  1.00  0.00     0.046 C 
BRANCH  14  15
ATOM     15  C   UNL     1       7.984   5.473   5.603  1.00  0.00     0.043 C 
BRANCH  15  16
ATOM     16  C   UNL     1       8.730   6.231   6.670  1.00  0.00    -0.004 A 
ATOM     17  C   UNL     1       8.699   7.570   6.865  1.00  0.00     0.036 A 
ATOM     18  C   UNL     1       9.573   5.675   7.638  1.00  0.00     0.063 A 
ATOM     19  N   UNL     1       9.500   7.851   7.915  1.00  0.00    -0.282 N 
ATOM     20  N   UNL     1      10.040   6.645   8.380  1.00  0.00    -0.181 NA
ATOM     21  C   UNL     1       7.912   8.567   6.056  1.00  0.00     0.066 C 
ATOM     22  C   UNL     1       9.898   4.210   7.791  1.00  0.00     0.069 C 
ATOM     23  H   UNL     1       9.671   8.732   8.281  1.00  0.00     0.190 HD
ENDBRANCH  15  16
ENDBRANCH  14  15
ENDBRANCH  13  14
ENDBRANCH   1  13
TORSDOF 7
ENDMDL
MODEL 5
REMARK VINA RESULT:    -4.796      3.848      6.609
REMARK INTER + INTRA:          -7.153
REMARK INTER:                  -6.313
REMARK INTRA:                  -0.840
REMARK UNBOUND:                -0.535
REMARK SMILES Cc1n[nH]c(C)c1CCCOc1cc(C(=O)O)ccc1F
REMARK SMILES IDX 11 1 12 2 14 3 18 4 13 5 19 6 20 7 21 8 15 9 16 10 17 11
REMARK SMILES IDX 10 13 9 14 8 15 7 16 5 17 2 18 4 19 3 20 6 21 1 22
REMARK H PARENT 17 12 4 23
ROOT
ATOM      1  O   UNL     1       6.990   5.394   4.725  1.00  0.00    -0.490 OA
ENDROOT
BRANCH   1   2
ATOM      2  C   UNL     1       7.845   5.631   5.755  1.00  0.00     0.155 A 
ATOM      3  C   UNL     1       9.383   4.826   7.419  1.00  0.00     0.063 A 
ATOM      4  C   UNL     1       9.595   6.137   7.853  1.00  0.00     0.019 A 
ATOM      5  C   UNL     1       8.503   4.578   6.364  1.00  0.00     0.065 A 
ATOM      6  C   UNL     1       8.939   7.182   7.235  1.00  0.00     0.044 A 
ATOM      7  C   UNL     1       8.069   6.934   6.186  1.00  0.00     0.165 A 
ATOM      8  F   UNL     1       7.430   7.961   5.585  1.00  0.00    -0.203 F 
BRANCH   3   9
ATOM      9  C   UNL     1      10.084   3.706   8.077  1.00  0.00     0.335 C 
ATOM     10  O   UNL     1       9.967   2.578   7.644  1.00  0.00    -0.246 OA
BRANCH   9  11
ATOM     11  O   UNL     1      10.860   3.937   9.155  1.00  0.00    -0.478 OA
ATOM     12  H   UNL     1      10.945   3.219   9.797  1.00  0.00     0.297 HD
ENDBRANCH   9  11
ENDBRANCH   3   9
ENDBRANCH   1   2
BRANCH   1  13
ATOM     13  C   UNL     1       7.407   4.443   3.742  1.00  0.00     0.230 C 
BRANCH  13  14
ATOM     14  C   UNL     1       6.295   4.259   2.707  1.00  0.00     0.046 C 
BRANCH  14  15
ATOM     15  C   UNL     1       4.934   4.332   3.403  1.00  0.00     0.043 C 
BRANCH  15  16
ATOM     16  C   UNL     1       4.542   2.960   3.887  1.00  0.00    -0.004 A 
ATOM     17  C   UNL     1       4.199   1.909   3.107  1.00  0.00     0.036 A 
ATOM     18  C   UNL     1       4.475   2.546   5.221  1.00  0.00     0.063 A 
ATOM     19  N   UNL     1       3.918   0.868   3.919  1.00  0.00    -0.282 N 
ATOM     20  N   UNL     1       4.094   1.294   5.242  1.00  0.00    -0.181 NA
ATOM     21  C   UNL     1       4.141   1.901   1.602  1.00  0.00     0.066 C 
ATOM     22  C   UNL     1       4.777   3.398   6.427  1.00  0.00     0.069 C 
ATOM     23  H   UNL     1       3.641  -0.018   3.637  1.00  0.00     0.190 HD
ENDBRANCH  15  16
ENDBRANCH  14  15
ENDBRANCH  13  14
ENDBRANCH   1  13
TORSDOF 7
ENDMDL
MODEL 6
REMARK VINA RESULT:    -4.777      3.931      7.051
REMARK INTER + INTRA:          -7.127
REMARK INTER:                  -6.267
REMARK INTRA:                  -0.861
REMARK UNBOUND:                -0.535
REMARK SMILES Cc1n[nH]c(C)c1CCCOc1cc(C(=O)O)ccc1F
REMARK SMILES IDX 11 1 12 2 14 3 18 4 13 5 19 6 20 7 21 8 15 9 16 10 17 11
REMARK SMILES IDX 10 13 9 14 8 15 7 16 5 17 2 18 4 19 3 20 6 21 1 22
REMARK H PARENT 17 12 4 23
ROOT
ATOM      1  O   UNL     1       7.242   3.466   5.797  1.00  0.00    -0.490 OA
ENDROOT
BRANCH   1   2
ATOM      2  C   UNL     1       7.956   4.468   6.376  1.00  0.00     0.155 A 
ATOM      3  C   UNL     1       8.347   6.812   6.738  1.00  0.00     0.063 A 
ATOM      4  C   UNL     1       9.421   6.500   7.577  1.00  0.00     0.019 A 
ATOM      5  C   UNL     1       7.615   5.786   6.137  1.00  0.00     0.065 A 
ATOM      6  C   UNL     1       9.749   5.181   7.813  1.00  0.00     0.044 A 
ATOM      7  C   UNL     1       9.018   4.165   7.220  1.00  0.00     0.165 A 
ATOM      8  F   UNL     1       9.345   2.875   7.456  1.00  0.00    -0.203 F 
BRANCH   3   9
ATOM      9  C   UNL     1       7.993   8.222   6.483  1.00  0.00     0.335 C 
ATOM     10  O   UNL     1       7.201   8.790   7.207  1.00  0.00    -0.246 OA
BRANCH   9  11
ATOM     11  O   UNL     1       8.553   8.881   5.450  1.00  0.00    -0.478 OA
ATOM     12  H   UNL     1       9.479   8.680   5.251  1.00  0.00     0.297 HD
ENDBRANCH   9  11
ENDBRANCH   3   9
ENDBRANCH   1   2
BRANCH   1  13
ATOM     13  C   UNL     1       5.848   3.702   5.584  1.00  0.00     0.230 C 
BRANCH  13  14
ATOM     14  C   UNL     1       5.264   2.572   4.733  1.00  0.00     0.046 C 
BRANCH  14  15
ATOM     15  C   UNL     1       6.255   2.202   3.627  1.00  0.00     0.043 C 
BRANCH  15  16
ATOM     16  C   UNL     1       5.992   3.053   2.412  1.00  0.00    -0.004 A 
ATOM     17  C   UNL     1       4.904   2.982   1.610  1.00  0.00     0.036 A 
ATOM     18  C   UNL     1       6.827   4.061   1.916  1.00  0.00     0.063 A 
ATOM     19  N   UNL     1       5.049   3.907   0.638  1.00  0.00    -0.282 N 
ATOM     20  N   UNL     1       6.266   4.569   0.849  1.00  0.00    -0.181 NA
ATOM     21  C   UNL     1       3.741   2.039   1.773  1.00  0.00     0.066 C 
ATOM     22  C   UNL     1       8.150   4.481   2.504  1.00  0.00     0.069 C 
ATOM     23  H   UNL     1       4.421   4.083  -0.081  1.00  0.00     0.190 HD
ENDBRANCH  15  16
ENDBRANCH  14  15
ENDBRANCH  13  14
ENDBRANCH   1  13
TORSDOF 7
ENDMDL
MODEL 7
REMARK VINA RESULT:    -4.770      9.050     11.617
REMARK INTER + INTRA:          -7.118
REMARK INTER:                  -6.618
REMARK INTRA:                  -0.501
REMARK UNBOUND:                -0.535
REMARK SMILES Cc1n[nH]c(C)c1CCCOc1cc(C(=O)O)ccc1F
REMARK SMILES IDX 11 1 12 2 14 3 18 4 13 5 19 6 20 7 21 8 15 9 16 10 17 11
REMARK SMILES IDX 10 13 9 14 8 15 7 16 5 17 2 18 4 19 3 20 6 21 1 22
REMARK H PARENT 17 12 4 23
ROOT
ATOM      1  O   UNL     1      10.188  13.224  11.353  1.00  0.00    -0.490 OA
ENDROOT
BRANCH   1   2
ATOM      2  C   UNL     1      10.805  12.108  11.825  1.00  0.00     0.155 A 
ATOM      3  C   UNL     1      11.782   9.944  11.446  1.00  0.00     0.063 A 
ATOM      4  C   UNL     1      12.075   9.842  12.809  1.00  0.00     0.019 A 
ATOM      5  C   UNL     1      11.144  11.086  10.958  1.00  0.00     0.065 A 
ATOM      6  C   UNL     1      11.739  10.869  13.665  1.00  0.00     0.044 A 
ATOM      7  C   UNL     1      11.110  12.003  13.178  1.00  0.00     0.165 A 
ATOM      8  F   UNL     1      10.783  13.006  14.022  1.00  0.00    -0.203 F 
BRANCH   3   9
ATOM      9  C   UNL     1      12.141   8.847  10.527  1.00  0.00     0.335 C 
ATOM     10  O   UNL     1      11.415   7.879  10.423  1.00  0.00    -0.246 OA
BRANCH   9  11
ATOM     11  O   UNL     1      13.272   8.922   9.798  1.00  0.00    -0.478 OA
ATOM     12  H   UNL     1      14.012   9.412  10.184  1.00  0.00     0.297 HD
ENDBRANCH   9  11
ENDBRANCH   3   9
ENDBRANCH   1   2
BRANCH   1  13
ATOM     13  C   UNL     1      10.529  13.643  10.030  1.00  0.00     0.230 C 
BRANCH  13  14
ATOM     14  C   UNL     1       9.480  13.124   9.045  1.00  0.00     0.046 C 
BRANCH  14  15
ATOM     15  C   UNL     1       8.091  13.592   9.486  1.00  0.00     0.043 C 
BRANCH  15  16
ATOM     16  C   UNL     1       7.343  12.438  10.101  1.00  0.00    -0.004 A 
ATOM     17  C   UNL     1       6.884  12.374  11.372  1.00  0.00     0.036 A 
ATOM     18  C   UNL     1       6.994  11.246   9.457  1.00  0.00     0.063 A 
ATOM     19  N   UNL     1       6.273  11.181  11.529  1.00  0.00    -0.282 N 
ATOM     20  N   UNL     1       6.359  10.489  10.314  1.00  0.00    -0.181 NA
ATOM     21  C   UNL     1       7.029  13.443  12.424  1.00  0.00     0.066 C 
ATOM     22  C   UNL     1       7.308  10.890   8.026  1.00  0.00     0.069 C 
ATOM     23  H   UNL     1       5.849  10.859  12.340  1.00  0.00     0.190 HD
ENDBRANCH  15  16
ENDBRANCH  14  15
ENDBRANCH  13  14
ENDBRANCH   1  13
TORSDOF 7
ENDMDL
MODEL 8
REMARK VINA RESULT:    -4.521      4.897      7.914
REMARK INTER + INTRA:          -6.774
REMARK INTER:                  -6.046
REMARK INTRA:                  -0.729
REMARK UNBOUND:                -0.535
REMARK SMILES Cc1n[nH]c(C)c1CCCOc1cc(C(=O)O)ccc1F
REMARK SMILES IDX 11 1 12 2 14 3 18 4 13 5 19 6 20 7 21 8 15 9 16 10 17 11
REMARK SMILES IDX 10 13 9 14 8 15 7 16 5 17 2 18 4 19 3 20 6 21 1 22
REMARK H PARENT 17 12 4 23
ROOT
ATOM      1  O   UNL     1       8.935   4.459   7.612  1.00  0.00    -0.490 OA
ENDROOT
BRANCH   1   2
ATOM      2  C   UNL     1      10.084   4.302   8.322  1.00  0.00     0.155 A 
ATOM      3  C   UNL     1      11.614   5.065  10.013  1.00  0.00     0.063 A 
ATOM      4  C   UNL     1      12.431   3.958   9.768  1.00  0.00     0.019 A 
ATOM      5  C   UNL     1      10.436   5.232   9.282  1.00  0.00     0.065 A 
ATOM      6  C   UNL     1      12.069   3.032   8.811  1.00  0.00     0.044 A 
ATOM      7  C   UNL     1      10.898   3.197   8.092  1.00  0.00     0.165 A 
ATOM      8  F   UNL     1      10.548   2.287   7.156  1.00  0.00    -0.203 F 
BRANCH   3   9
ATOM      9  C   UNL     1      11.999   6.057  11.036  1.00  0.00     0.335 C 
ATOM     10  O   UNL     1      13.154   6.138  11.399  1.00  0.00    -0.246 OA
BRANCH   9  11
ATOM     11  O   UNL     1      11.068   6.877  11.561  1.00  0.00    -0.478 OA
ATOM     12  H   UNL     1      11.005   6.909  12.526  1.00  0.00     0.297 HD
ENDBRANCH   9  11
ENDBRANCH   3   9
ENDBRANCH   1   2
BRANCH   1  13
ATOM     13  C   UNL     1       8.899   5.529   6.665  1.00  0.00     0.230 C 
BRANCH  13  14
ATOM     14  C   UNL     1       7.658   5.386   5.782  1.00  0.00     0.046 C 
BRANCH  14  15
ATOM     15  C   UNL     1       7.503   3.925   5.353  1.00  0.00     0.043 C 
BRANCH  15  16
ATOM     16  C   UNL     1       6.376   3.810   4.359  1.00  0.00    -0.004 A 
ATOM     17  C   UNL     1       6.489   3.899   3.014  1.00  0.00     0.036 A 
ATOM     18  C   UNL     1       5.030   3.585   4.664  1.00  0.00     0.063 A 
ATOM     19  N   UNL     1       5.256   3.743   2.486  1.00  0.00    -0.282 N 
ATOM     20  N   UNL     1       4.357   3.551   3.543  1.00  0.00    -0.181 NA
ATOM     21  C   UNL     1       7.762   4.131   2.243  1.00  0.00     0.066 C 
ATOM     22  C   UNL     1       4.452   3.421   6.047  1.00  0.00     0.069 C 
ATOM     23  H   UNL     1       5.033   3.761   1.543  1.00  0.00     0.190 HD
ENDBRANCH  15  16
ENDBRANCH  14  15
ENDBRANCH  13  14
ENDBRANCH   1  13
TORSDOF 7
ENDMDL
MODEL 9
REMARK VINA RESULT:    -4.460      9.170     11.099
REMARK INTER + INTRA:          -6.690
REMARK INTER:                  -5.165
REMARK INTRA:                  -1.525
REMARK UNBOUND:                -0.535
REMARK SMILES Cc1n[nH]c(C)c1CCCOc1cc(C(=O)O)ccc1F
REMARK SMILES IDX 11 1 12 2 14 3 18 4 13 5 19 6 20 7 21 8 15 9 16 10 17 11
REMARK SMILES IDX 10 13 9 14 8 15 7 16 5 17 2 18 4 19 3 20 6 21 1 22
REMARK H PARENT 17 12 4 23
ROOT
ATOM      1  O   UNL     1       9.255  11.982  13.260  1.00  0.00    -0.490 OA
ENDROOT
BRANCH   1   2
ATOM      2  C   UNL     1       8.461  12.226  12.183  1.00  0.00     0.155 A 
ATOM      3  C   UNL     1       7.859  11.802   9.894  1.00  0.00     0.063 A 
ATOM      4  C   UNL     1       6.820  12.731   9.999  1.00  0.00     0.019 A 
ATOM      5  C   UNL     1       8.680  11.553  10.996  1.00  0.00     0.065 A 
ATOM      6  C   UNL     1       6.605  13.393  11.190  1.00  0.00     0.044 A 
ATOM      7  C   UNL     1       7.418  13.140  12.282  1.00  0.00     0.165 A 
ATOM      8  F   UNL     1       7.202  13.792  13.446  1.00  0.00    -0.203 F 
BRANCH   3   9
ATOM      9  C   UNL     1       8.091  11.091   8.621  1.00  0.00     0.335 C 
ATOM     10  O   UNL     1       7.410  11.347   7.650  1.00  0.00    -0.246 OA
BRANCH   9  11
ATOM     11  O   UNL     1       9.064  10.163   8.537  1.00  0.00    -0.478 OA
ATOM     12  H   UNL     1       9.978  10.479   8.582  1.00  0.00     0.297 HD
ENDBRANCH   9  11
ENDBRANCH   3   9
ENDBRANCH   1   2
BRANCH   1  13
ATOM     13  C   UNL     1      10.658  12.200  13.093  1.00  0.00     0.230 C 
BRANCH  13  14
ATOM     14  C   UNL     1      11.393  10.860  13.162  1.00  0.00     0.046 C 
BRANCH  14  15
ATOM     15  C   UNL     1      12.662  10.930  12.311  1.00  0.00     0.043 C 
BRANCH  15  16
ATOM     16  C   UNL     1      12.410  10.276  10.977  1.00  0.00    -0.004 A 
ATOM     17  C   UNL     1      12.221  10.916   9.800  1.00  0.00     0.036 A 
ATOM     18  C   UNL     1      12.337   8.900  10.736  1.00  0.00     0.063 A 
ATOM     19  N   UNL     1      12.028   9.978   8.848  1.00  0.00    -0.282 N 
ATOM     20  N   UNL     1      12.101   8.721   9.462  1.00  0.00    -0.181 NA
ATOM     21  C   UNL     1      12.225  12.408   9.589  1.00  0.00     0.066 C 
ATOM     22  C   UNL     1      12.491   7.813  11.768  1.00  0.00     0.069 C 
ATOM     23  H   UNL     1      11.866  10.146   7.907  1.00  0.00     0.190 HD
ENDBRANCH  15  16
ENDBRANCH  14  15
ENDBRANCH  13  14
ENDBRANCH   1  13
TORSDOF 7
ENDMDL
