MODEL 1
REMARK VINA RESULT:    -4.248      0.000      0.000
REMARK INTER + INTRA:          -5.151
REMARK INTER:                  -4.869
REMARK INTRA:                  -0.282
REMARK UNBOUND:                -0.282
REMARK SMILES O=C(O)c1ccc2nc(-c3cc(Cl)cc(Cl)c3)oc2c1
REMARK SMILES IDX 5 1 6 2 20 3 8 4 18 5 4 6 9 7 7 8 19 9 2 10 1 11 3 12 10 14
REMARK SMILES IDX 11 15 17 16 12 17 15 18 14 19 13 20 16 21
REMARK H PARENT 3 13
ROOT
ATOM      1  C   UNL     1      10.356 -16.434  -6.067  1.00  0.00     0.018 A 
ATOM      2  C   UNL     1      10.583 -15.908  -4.830  1.00  0.00     0.033 A 
ATOM      3  C   UNL     1       9.330 -14.358  -6.787  1.00  0.00     0.065 A 
ATOM      4  N   UNL     1      10.273 -13.821  -3.441  1.00  0.00    -0.209 NA
ATOM      5  O   UNL     1       9.293 -12.622  -4.969  1.00  0.00    -0.436 OA
ATOM      6  C   UNL     1       9.730 -15.667  -7.060  1.00  0.00     0.063 A 
ATOM      7  C   UNL     1       9.742 -12.652  -3.700  1.00  0.00     0.227 A 
ATOM      8  C   UNL     1      10.187 -14.596  -4.543  1.00  0.00     0.110 A 
ATOM      9  C   UNL     1       9.554 -13.823  -5.532  1.00  0.00     0.156 A 
ENDROOT
BRANCH   6  10
ATOM     10  C   UNL     1       9.496 -16.245  -8.396  1.00  0.00     0.335 C 
ATOM     11  O   UNL     1      10.379 -16.223  -9.230  1.00  0.00    -0.246 OA
BRANCH  10  12
ATOM     12  O   UNL     1       8.302 -16.795  -8.692  1.00  0.00    -0.478 OA
ATOM     13  H   UNL     1       8.235 -17.275  -9.529  1.00  0.00     0.297 HD
ENDBRANCH  10  12
ENDBRANCH   6  10
BRANCH   7  14
ATOM     14  C   UNL     1       9.649 -11.532  -2.740  1.00  0.00     0.040 A 
ATOM     15  C   UNL     1      10.728 -11.230  -1.909  1.00  0.00     0.034 A 
ATOM     16  C   UNL     1       8.480 -10.773  -2.662  1.00  0.00     0.034 A 
ATOM     17  C   UNL     1      10.635 -10.182  -1.015  1.00  0.00     0.043 A 
ATOM     18  C   UNL     1       8.399  -9.727  -1.764  1.00  0.00     0.043 A 
ATOM     19  C   UNL     1       9.473  -9.433  -0.941  1.00  0.00     0.041 A 
ATOM     20  Cl  UNL     1      11.976  -9.804   0.020  1.00  0.00    -0.084 Cl
ATOM     21  Cl  UNL     1       6.946  -8.781  -1.664  1.00  0.00    -0.084 Cl
ENDBRANCH   7  14
TORSDOF 3
ENDMDL
MODEL 2
REMARK VINA RESULT:    -4.245      0.012      2.019
REMARK INTER + INTRA:          -5.148
REMARK INTER:                  -4.866
REMARK INTRA:                  -0.282
REMARK UNBOUND:                -0.282
REMARK SMILES O=C(O)c1ccc2nc(-c3cc(Cl)cc(Cl)c3)oc2c1
REMARK SMILES IDX 5 1 6 2 20 3 8 4 18 5 4 6 9 7 7 8 19 9 2 10 1 11 3 12 10 14
REMARK SMILES IDX 11 15 17 16 12 17 15 18 14 19 13 20 16 21
REMARK H PARENT 3 13
ROOT
ATOM      1  C   UNL     1      10.335 -16.442  -6.059  1.00  0.00     0.018 A 
ATOM      2  C   UNL     1      10.560 -15.917  -4.822  1.00  0.00     0.033 A 
ATOM      3  C   UNL     1       9.328 -14.359  -6.787  1.00  0.00     0.065 A 
ATOM      4  N   UNL     1      10.258 -13.826  -3.436  1.00  0.00    -0.209 NA
ATOM      5  O   UNL     1       9.295 -12.621  -4.971  1.00  0.00    -0.436 OA
ATOM      6  C   UNL     1       9.720 -15.672  -7.056  1.00  0.00     0.063 A 
ATOM      7  C   UNL     1       9.737 -12.653  -3.699  1.00  0.00     0.227 A 
ATOM      8  C   UNL     1      10.172 -14.601  -4.538  1.00  0.00     0.110 A 
ATOM      9  C   UNL     1       9.550 -13.824  -5.531  1.00  0.00     0.156 A 
ENDROOT
BRANCH   6  10
ATOM     10  C   UNL     1       9.488 -16.249  -8.393  1.00  0.00     0.335 C 
ATOM     11  O   UNL     1      10.369 -16.217  -9.229  1.00  0.00    -0.246 OA
BRANCH  10  12
ATOM     12  O   UNL     1       8.299 -16.810  -8.688  1.00  0.00    -0.478 OA
ATOM     13  H   UNL     1       8.221 -17.247  -9.546  1.00  0.00     0.297 HD
ENDBRANCH  10  12
ENDBRANCH   6  10
BRANCH   7  14
ATOM     14  C   UNL     1       9.648 -11.532  -2.741  1.00  0.00     0.040 A 
ATOM     15  C   UNL     1       8.482 -10.768  -2.663  1.00  0.00     0.034 A 
ATOM     16  C   UNL     1      10.730 -11.231  -1.912  1.00  0.00     0.034 A 
ATOM     17  C   UNL     1       8.405  -9.722  -1.764  1.00  0.00     0.043 A 
ATOM     18  C   UNL     1      10.640 -10.183  -1.018  1.00  0.00     0.043 A 
ATOM     19  C   UNL     1       9.481  -9.430  -0.944  1.00  0.00     0.041 A 
ATOM     20  Cl  UNL     1       6.956  -8.771  -1.664  1.00  0.00    -0.084 Cl
ATOM     21  Cl  UNL     1      11.985  -9.808   0.015  1.00  0.00    -0.084 Cl
ENDBRANCH   7  14
TORSDOF 3
ENDMDL
MODEL 3
REMARK VINA RESULT:    -3.965      1.295      2.680
REMARK INTER + INTRA:          -4.826
REMARK INTER:                  -4.541
REMARK INTRA:                  -0.285
REMARK UNBOUND:                -0.282
REMARK SMILES O=C(O)c1ccc2nc(-c3cc(Cl)cc(Cl)c3)oc2c1
REMARK SMILES IDX 5 1 6 2 20 3 8 4 18 5 4 6 9 7 7 8 19 9 2 10 1 11 3 12 10 14
REMARK SMILES IDX 11 15 17 16 12 17 15 18 14 19 13 20 16 21
REMARK H PARENT 3 13
ROOT
ATOM      1  C   UNL     1       9.637 -15.445  -7.064  1.00  0.00     0.018 A 
ATOM      2  C   UNL     1       9.329 -14.152  -6.760  1.00  0.00     0.033 A 
ATOM      3  C   UNL     1      10.353 -15.836  -4.780  1.00  0.00     0.065 A 
ATOM      4  N   UNL     1       9.323 -12.474  -4.872  1.00  0.00    -0.209 NA
ATOM      5  O   UNL     1      10.125 -13.790  -3.337  1.00  0.00    -0.436 OA
ATOM      6  C   UNL     1      10.150 -16.302  -6.080  1.00  0.00     0.063 A 
ATOM      7  C   UNL     1       9.679 -12.551  -3.614  1.00  0.00     0.227 A 
ATOM      8  C   UNL     1       9.528 -13.672  -5.460  1.00  0.00     0.110 A 
ATOM      9  C   UNL     1      10.046 -14.524  -4.469  1.00  0.00     0.156 A 
ENDROOT
BRANCH   6  10
ATOM     10  C   UNL     1      10.473 -17.700  -6.419  1.00  0.00     0.335 C 
ATOM     11  O   UNL     1      11.563 -18.156  -6.137  1.00  0.00    -0.246 OA
BRANCH  10  12
ATOM     12  O   UNL     1       9.561 -18.471  -7.043  1.00  0.00    -0.478 OA
ATOM     13  H   UNL     1       9.693 -18.631  -7.987  1.00  0.00     0.297 HD
ENDBRANCH  10  12
ENDBRANCH   6  10
BRANCH   7  14
ATOM     14  C   UNL     1       9.602 -11.440  -2.642  1.00  0.00     0.040 A 
ATOM     15  C   UNL     1       8.427 -10.698  -2.517  1.00  0.00     0.034 A 
ATOM     16  C   UNL     1      10.706 -11.128  -1.846  1.00  0.00     0.034 A 
ATOM     17  C   UNL     1       8.361  -9.662  -1.607  1.00  0.00     0.043 A 
ATOM     18  C   UNL     1      10.627 -10.090  -0.939  1.00  0.00     0.043 A 
ATOM     19  C   UNL     1       9.459  -9.358  -0.820  1.00  0.00     0.041 A 
ATOM     20  Cl  UNL     1       6.900  -8.738  -1.450  1.00  0.00    -0.084 Cl
ATOM     21  Cl  UNL     1      11.999  -9.701   0.052  1.00  0.00    -0.084 Cl
ENDBRANCH   7  14
TORSDOF 3
ENDMDL
MODEL 4
REMARK VINA RESULT:    -3.495      3.958      7.842
REMARK INTER + INTRA:          -4.288
REMARK INTER:                  -4.001
REMARK INTRA:                  -0.287
REMARK UNBOUND:                -0.282
REMARK SMILES O=C(O)c1ccc2nc(-c3cc(Cl)cc(Cl)c3)oc2c1
REMARK SMILES IDX 5 1 6 2 20 3 8 4 18 5 4 6 9 7 7 8 19 9 2 10 1 11 3 12 10 14
REMARK SMILES IDX 11 15 17 16 12 17 15 18 14 19 13 20 16 21
REMARK H PARENT 3 13
ROOT
ATOM      1  C   UNL     1       8.633  -8.431  -1.311  1.00  0.00     0.018 A 
ATOM      2  C   UNL     1       9.419  -9.033  -2.249  1.00  0.00     0.033 A 
ATOM      3  C   UNL     1       7.505 -10.532  -0.872  1.00  0.00     0.065 A 
ATOM      4  N   UNL     1       9.876 -11.250  -3.370  1.00  0.00    -0.209 NA
ATOM      5  O   UNL     1       8.380 -12.410  -2.297  1.00  0.00    -0.436 OA
ATOM      6  C   UNL     1       7.670  -9.171  -0.611  1.00  0.00     0.063 A 
ATOM      7  C   UNL     1       9.348 -12.441  -3.232  1.00  0.00     0.227 A 
ATOM      8  C   UNL     1       9.263 -10.398  -2.520  1.00  0.00     0.110 A 
ATOM      9  C   UNL     1       8.296 -11.146  -1.826  1.00  0.00     0.156 A 
ENDROOT
BRANCH   6  10
ATOM     10  C   UNL     1       6.831  -8.510   0.404  1.00  0.00     0.335 C 
ATOM     11  O   UNL     1       6.815  -7.298   0.484  1.00  0.00    -0.246 OA
BRANCH  10  12
ATOM     12  O   UNL     1       6.081  -9.250   1.246  1.00  0.00    -0.478 OA
ATOM     13  H   UNL     1       6.387  -9.320   2.160  1.00  0.00     0.297 HD
ENDBRANCH  10  12
ENDBRANCH   6  10
BRANCH   7  14
ATOM     14  C   UNL     1       9.755 -13.641  -3.992  1.00  0.00     0.040 A 
ATOM     15  C   UNL     1       9.441 -13.754  -5.346  1.00  0.00     0.034 A 
ATOM     16  C   UNL     1      10.456 -14.669  -3.356  1.00  0.00     0.034 A 
ATOM     17  C   UNL     1       9.825 -14.877  -6.051  1.00  0.00     0.043 A 
ATOM     18  C   UNL     1      10.835 -15.787  -4.071  1.00  0.00     0.043 A 
ATOM     19  C   UNL     1      10.520 -15.892  -5.415  1.00  0.00     0.041 A 
ATOM     20  Cl  UNL     1       9.436 -15.019  -7.737  1.00  0.00    -0.084 Cl
ATOM     21  Cl  UNL     1      11.706 -17.065  -3.282  1.00  0.00    -0.084 Cl
ENDBRANCH   7  14
TORSDOF 3
ENDMDL
MODEL 5
REMARK VINA RESULT:    -3.495      3.957      7.652
REMARK INTER + INTRA:          -4.287
REMARK INTER:                  -4.000
REMARK INTRA:                  -0.287
REMARK UNBOUND:                -0.282
REMARK SMILES O=C(O)c1ccc2nc(-c3cc(Cl)cc(Cl)c3)oc2c1
REMARK SMILES IDX 5 1 6 2 20 3 8 4 18 5 4 6 9 7 7 8 19 9 2 10 1 11 3 12 10 14
REMARK SMILES IDX 11 15 17 16 12 17 15 18 14 19 13 20 16 21
REMARK H PARENT 3 13
ROOT
ATOM      1  C   UNL     1       8.636  -8.435  -1.308  1.00  0.00     0.018 A 
ATOM      2  C   UNL     1       9.423  -9.038  -2.243  1.00  0.00     0.033 A 
ATOM      3  C   UNL     1       7.502 -10.534  -0.875  1.00  0.00     0.065 A 
ATOM      4  N   UNL     1       9.880 -11.254  -3.365  1.00  0.00    -0.209 NA
ATOM      5  O   UNL     1       8.378 -12.412  -2.298  1.00  0.00    -0.436 OA
ATOM      6  C   UNL     1       7.669  -9.173  -0.612  1.00  0.00     0.063 A 
ATOM      7  C   UNL     1       9.349 -12.444  -3.230  1.00  0.00     0.227 A 
ATOM      8  C   UNL     1       9.266 -10.402  -2.517  1.00  0.00     0.110 A 
ATOM      9  C   UNL     1       8.295 -11.148  -1.826  1.00  0.00     0.156 A 
ENDROOT
BRANCH   6  10
ATOM     10  C   UNL     1       6.828  -8.512   0.402  1.00  0.00     0.335 C 
ATOM     11  O   UNL     1       6.806  -7.300   0.476  1.00  0.00    -0.246 OA
BRANCH  10  12
ATOM     12  O   UNL     1       6.083  -9.252   1.247  1.00  0.00    -0.478 OA
ATOM     13  H   UNL     1       5.152  -9.376   1.019  1.00  0.00     0.297 HD
ENDBRANCH  10  12
ENDBRANCH   6  10
BRANCH   7  14
ATOM     14  C   UNL     1       9.757 -13.645  -3.990  1.00  0.00     0.040 A 
ATOM     15  C   UNL     1      10.458 -14.671  -3.356  1.00  0.00     0.034 A 
ATOM     16  C   UNL     1       9.442 -13.755  -5.346  1.00  0.00     0.034 A 
ATOM     17  C   UNL     1      10.835 -15.790  -4.072  1.00  0.00     0.043 A 
ATOM     18  C   UNL     1       9.824 -14.879  -6.050  1.00  0.00     0.043 A 
ATOM     19  C   UNL     1      10.520 -15.894  -5.416  1.00  0.00     0.041 A 
ATOM     20  Cl  UNL     1      11.707 -17.069  -3.285  1.00  0.00    -0.084 Cl
ATOM     21  Cl  UNL     1       9.433 -15.019  -7.736  1.00  0.00    -0.084 Cl
ENDBRANCH   7  14
TORSDOF 3
ENDMDL
MODEL 6
REMARK VINA RESULT:    -3.463      5.463      6.733
REMARK INTER + INTRA:          -4.251
REMARK INTER:                  -3.968
REMARK INTRA:                  -0.284
REMARK UNBOUND:                -0.282
REMARK SMILES O=C(O)c1ccc2nc(-c3cc(Cl)cc(Cl)c3)oc2c1
REMARK SMILES IDX 5 1 6 2 20 3 8 4 18 5 4 6 9 7 7 8 19 9 2 10 1 11 3 12 10 14
REMARK SMILES IDX 11 15 17 16 12 17 15 18 14 19 13 20 16 21
REMARK H PARENT 3 13
ROOT
ATOM      1  C   UNL     1      11.646 -11.970  -1.905  1.00  0.00     0.018 A 
ATOM      2  C   UNL     1      10.367 -11.633  -2.234  1.00  0.00     0.033 A 
ATOM      3  C   UNL     1      11.814 -10.024  -0.467  1.00  0.00     0.065 A 
ATOM      4  N   UNL     1       8.569  -9.906  -1.821  1.00  0.00    -0.209 NA
ATOM      5  O   UNL     1       9.705  -8.656  -0.450  1.00  0.00    -0.436 OA
ATOM      6  C   UNL     1      12.384 -11.173  -1.019  1.00  0.00     0.063 A 
ATOM      7  C   UNL     1       8.530  -8.824  -1.084  1.00  0.00     0.227 A 
ATOM      8  C   UNL     1       9.783 -10.483  -1.688  1.00  0.00     0.110 A 
ATOM      9  C   UNL     1      10.519  -9.676  -0.802  1.00  0.00     0.156 A 
ENDROOT
BRANCH   6  10
ATOM     10  C   UNL     1      13.765 -11.551  -0.666  1.00  0.00     0.335 C 
ATOM     11  O   UNL     1      14.691 -11.180  -1.358  1.00  0.00    -0.246 OA
BRANCH  10  12
ATOM     12  O   UNL     1      13.999 -12.309   0.424  1.00  0.00    -0.478 OA
ATOM     13  H   UNL     1      13.529 -13.151   0.482  1.00  0.00     0.297 HD
ENDBRANCH  10  12
ENDBRANCH   6  10
BRANCH   7  14
ATOM     14  C   UNL     1       7.366  -7.921  -0.967  1.00  0.00     0.040 A 
ATOM     15  C   UNL     1       7.556  -6.556  -0.754  1.00  0.00     0.034 A 
ATOM     16  C   UNL     1       6.070  -8.432  -1.069  1.00  0.00     0.034 A 
ATOM     17  C   UNL     1       6.464  -5.717  -0.646  1.00  0.00     0.043 A 
ATOM     18  C   UNL     1       4.986  -7.584  -0.960  1.00  0.00     0.043 A 
ATOM     19  C   UNL     1       5.182  -6.230  -0.748  1.00  0.00     0.041 A 
ATOM     20  Cl  UNL     1       6.699  -4.018  -0.382  1.00  0.00    -0.084 Cl
ATOM     21  Cl  UNL     1       3.374  -8.217  -1.086  1.00  0.00    -0.084 Cl
ENDBRANCH   7  14
TORSDOF 3
ENDMDL
MODEL 7
REMARK VINA RESULT:    -3.462      5.460      6.871
REMARK INTER + INTRA:          -4.249
REMARK INTER:                  -3.966
REMARK INTRA:                  -0.284
REMARK UNBOUND:                -0.282
REMARK SMILES O=C(O)c1ccc2nc(-c3cc(Cl)cc(Cl)c3)oc2c1
REMARK SMILES IDX 5 1 6 2 20 3 8 4 18 5 4 6 9 7 7 8 19 9 2 10 1 11 3 12 10 14
REMARK SMILES IDX 11 15 17 16 12 17 15 18 14 19 13 20 16 21
REMARK H PARENT 3 13
ROOT
ATOM      1  C   UNL     1      11.638 -11.970  -1.911  1.00  0.00     0.018 A 
ATOM      2  C   UNL     1      10.359 -11.633  -2.239  1.00  0.00     0.033 A 
ATOM      3  C   UNL     1      11.807 -10.025  -0.472  1.00  0.00     0.065 A 
ATOM      4  N   UNL     1       8.561  -9.906  -1.825  1.00  0.00    -0.209 NA
ATOM      5  O   UNL     1       9.698  -8.656  -0.454  1.00  0.00    -0.436 OA
ATOM      6  C   UNL     1      12.376 -11.174  -1.024  1.00  0.00     0.063 A 
ATOM      7  C   UNL     1       8.522  -8.824  -1.087  1.00  0.00     0.227 A 
ATOM      8  C   UNL     1       9.775 -10.483  -1.693  1.00  0.00     0.110 A 
ATOM      9  C   UNL     1      10.511  -9.676  -0.807  1.00  0.00     0.156 A 
ENDROOT
BRANCH   6  10
ATOM     10  C   UNL     1      13.757 -11.552  -0.672  1.00  0.00     0.335 C 
ATOM     11  O   UNL     1      14.683 -11.183  -1.366  1.00  0.00    -0.246 OA
BRANCH  10  12
ATOM     12  O   UNL     1      13.992 -12.307   0.420  1.00  0.00    -0.478 OA
ATOM     13  H   UNL     1      14.911 -12.391   0.706  1.00  0.00     0.297 HD
ENDBRANCH  10  12
ENDBRANCH   6  10
BRANCH   7  14
ATOM     14  C   UNL     1       7.358  -7.921  -0.970  1.00  0.00     0.040 A 
ATOM     15  C   UNL     1       6.063  -8.430  -1.073  1.00  0.00     0.034 A 
ATOM     16  C   UNL     1       7.551  -6.555  -0.757  1.00  0.00     0.034 A 
ATOM     17  C   UNL     1       4.979  -7.581  -0.961  1.00  0.00     0.043 A 
ATOM     18  C   UNL     1       6.459  -5.716  -0.646  1.00  0.00     0.043 A 
ATOM     19  C   UNL     1       5.177  -6.227  -0.749  1.00  0.00     0.041 A 
ATOM     20  Cl  UNL     1       3.367  -8.212  -1.087  1.00  0.00    -0.084 Cl
ATOM     21  Cl  UNL     1       6.696  -4.017  -0.381  1.00  0.00    -0.084 Cl
ENDBRANCH   7  14
TORSDOF 3
ENDMDL
MODEL 8
REMARK VINA RESULT:    -3.420      5.237      9.013
REMARK INTER + INTRA:          -4.202
REMARK INTER:                  -3.904
REMARK INTRA:                  -0.298
REMARK UNBOUND:                -0.282
REMARK SMILES O=C(O)c1ccc2nc(-c3cc(Cl)cc(Cl)c3)oc2c1
REMARK SMILES IDX 5 1 6 2 20 3 8 4 18 5 4 6 9 7 7 8 19 9 2 10 1 11 3 12 10 14
REMARK SMILES IDX 11 15 17 16 12 17 15 18 14 19 13 20 16 21
REMARK H PARENT 3 13
ROOT
ATOM      1  C   UNL     1       4.775  -6.549  -1.310  1.00  0.00     0.018 A 
ATOM      2  C   UNL     1       5.154  -7.767  -1.788  1.00  0.00     0.033 A 
ATOM      3  C   UNL     1       7.018  -6.149  -0.481  1.00  0.00     0.065 A 
ATOM      4  N   UNL     1       7.130  -9.331  -1.977  1.00  0.00    -0.209 NA
ATOM      5  O   UNL     1       8.574  -8.066  -0.953  1.00  0.00    -0.436 OA
ATOM      6  C   UNL     1       5.699  -5.725  -0.653  1.00  0.00     0.063 A 
ATOM      7  C   UNL     1       8.374  -9.242  -1.578  1.00  0.00     0.227 A 
ATOM      8  C   UNL     1       6.474  -8.205  -1.622  1.00  0.00     0.110 A 
ATOM      9  C   UNL     1       7.406  -7.386  -0.960  1.00  0.00     0.156 A 
ENDROOT
BRANCH   6  10
ATOM     10  C   UNL     1       5.278  -4.406  -0.146  1.00  0.00     0.335 C 
ATOM     11  O   UNL     1       4.118  -4.060  -0.243  1.00  0.00    -0.246 OA
BRANCH  10  12
ATOM     12  O   UNL     1       6.181  -3.584   0.426  1.00  0.00    -0.478 OA
ATOM     13  H   UNL     1       6.430  -3.773   1.340  1.00  0.00     0.297 HD
ENDBRANCH  10  12
ENDBRANCH   6  10
BRANCH   7  14
ATOM     14  C   UNL     1       9.406 -10.280  -1.783  1.00  0.00     0.040 A 
ATOM     15  C   UNL     1       9.150 -11.366  -2.621  1.00  0.00     0.034 A 
ATOM     16  C   UNL     1      10.640 -10.178  -1.138  1.00  0.00     0.034 A 
ATOM     17  C   UNL     1      10.119 -12.332  -2.810  1.00  0.00     0.043 A 
ATOM     18  C   UNL     1      11.600 -11.150  -1.334  1.00  0.00     0.043 A 
ATOM     19  C   UNL     1      11.341 -12.225  -2.167  1.00  0.00     0.041 A 
ATOM     20  Cl  UNL     1       9.804 -13.683  -3.852  1.00  0.00    -0.084 Cl
ATOM     21  Cl  UNL     1      13.136 -11.025  -0.533  1.00  0.00    -0.084 Cl
ENDBRANCH   7  14
TORSDOF 3
ENDMDL
MODEL 9
REMARK VINA RESULT:    -3.410      5.250      8.875
REMARK INTER + INTRA:          -4.190
REMARK INTER:                  -3.892
REMARK INTRA:                  -0.298
REMARK UNBOUND:                -0.282
REMARK SMILES O=C(O)c1ccc2nc(-c3cc(Cl)cc(Cl)c3)oc2c1
REMARK SMILES IDX 5 1 6 2 20 3 8 4 18 5 4 6 9 7 7 8 19 9 2 10 1 11 3 12 10 14
REMARK SMILES IDX 11 15 17 16 12 17 15 18 14 19 13 20 16 21
REMARK H PARENT 3 13
ROOT
ATOM      1  C   UNL     1       4.759  -6.524  -1.319  1.00  0.00     0.018 A 
ATOM      2  C   UNL     1       5.142  -7.738  -1.803  1.00  0.00     0.033 A 
ATOM      3  C   UNL     1       6.995  -6.131  -0.467  1.00  0.00     0.065 A 
ATOM      4  N   UNL     1       7.118  -9.302  -1.986  1.00  0.00    -0.209 NA
ATOM      5  O   UNL     1       8.554  -8.046  -0.940  1.00  0.00    -0.436 OA
ATOM      6  C   UNL     1       5.678  -5.705  -0.648  1.00  0.00     0.063 A 
ATOM      7  C   UNL     1       8.359  -9.217  -1.575  1.00  0.00     0.227 A 
ATOM      8  C   UNL     1       6.460  -8.178  -1.628  1.00  0.00     0.110 A 
ATOM      9  C   UNL     1       7.387  -7.365  -0.952  1.00  0.00     0.156 A 
ENDROOT
BRANCH   6  10
ATOM     10  C   UNL     1       5.254  -4.390  -0.134  1.00  0.00     0.335 C 
ATOM     11  O   UNL     1       4.093  -4.046  -0.233  1.00  0.00    -0.246 OA
BRANCH  10  12
ATOM     12  O   UNL     1       6.153  -3.570   0.445  1.00  0.00    -0.478 OA
ATOM     13  H   UNL     1       6.403  -3.766   1.358  1.00  0.00     0.297 HD
ENDBRANCH  10  12
ENDBRANCH   6  10
BRANCH   7  14
ATOM     14  C   UNL     1       9.392 -10.254  -1.779  1.00  0.00     0.040 A 
ATOM     15  C   UNL     1      10.627 -10.149  -1.139  1.00  0.00     0.034 A 
ATOM     16  C   UNL     1       9.135 -11.343  -2.614  1.00  0.00     0.034 A 
ATOM     17  C   UNL     1      11.587 -11.122  -1.333  1.00  0.00     0.043 A 
ATOM     18  C   UNL     1      10.103 -12.310  -2.800  1.00  0.00     0.043 A 
ATOM     19  C   UNL     1      11.327 -12.199  -2.162  1.00  0.00     0.041 A 
ATOM     20  Cl  UNL     1      13.125 -10.993  -0.537  1.00  0.00    -0.084 Cl
ATOM     21  Cl  UNL     1       9.786 -13.665  -3.837  1.00  0.00    -0.084 Cl
ENDBRANCH   7  14
TORSDOF 3
ENDMDL
