MODEL 1
REMARK VINA RESULT:    -5.366      0.000      0.000
REMARK INTER + INTRA:          -7.920
REMARK INTER:                  -7.405
REMARK INTRA:                  -0.516
REMARK UNBOUND:                -0.516
REMARK SMILES Cc1n[nH]c(C)c1CCCOc1cc(C(=O)O)ccc1F
REMARK SMILES IDX 11 1 12 2 14 3 18 4 13 5 19 6 20 7 21 8 15 9 16 10 17 11
REMARK SMILES IDX 10 13 9 14 8 15 7 16 5 17 2 18 4 19 3 20 6 21 1 22
REMARK H PARENT 17 12 4 23
ROOT
ATOM      1  O   UNL     1       6.584  -8.950   0.617  1.00  0.00    -0.490 OA
ENDROOT
BRANCH   1   2
ATOM      2  C   UNL     1       6.262  -7.778   0.008  1.00  0.00     0.155 A 
ATOM      3  C   UNL     1       6.875  -5.574  -0.734  1.00  0.00     0.063 A 
ATOM      4  C   UNL     1       5.588  -5.393  -1.248  1.00  0.00     0.019 A 
ATOM      5  C   UNL     1       7.207  -6.775  -0.104  1.00  0.00     0.065 A 
ATOM      6  C   UNL     1       4.654  -6.402  -1.136  1.00  0.00     0.044 A 
ATOM      7  C   UNL     1       4.987  -7.594  -0.515  1.00  0.00     0.165 A 
ATOM      8  F   UNL     1       4.067  -8.578  -0.409  1.00  0.00    -0.203 F 
BRANCH   3   9
ATOM      9  C   UNL     1       7.877  -4.497  -0.852  1.00  0.00     0.335 C 
ATOM     10  O   UNL     1       8.842  -4.482  -0.116  1.00  0.00    -0.246 OA
BRANCH   9  11
ATOM     11  O   UNL     1       7.725  -3.534  -1.782  1.00  0.00    -0.478 OA
ATOM     12  H   UNL     1       7.292  -2.716  -1.500  1.00  0.00     0.297 HD
ENDBRANCH   9  11
ENDBRANCH   3   9
ENDBRANCH   1   2
BRANCH   1  13
ATOM     13  C   UNL     1       6.586 -10.125  -0.199  1.00  0.00     0.230 C 
BRANCH  13  14
ATOM     14  C   UNL     1       8.005 -10.691  -0.273  1.00  0.00     0.046 C 
BRANCH  14  15
ATOM     15  C   UNL     1       8.693 -10.179  -1.540  1.00  0.00     0.043 C 
BRANCH  15  16
ATOM     16  C   UNL     1       9.815 -11.111  -1.915  1.00  0.00    -0.004 A 
ATOM     17  C   UNL     1      11.080 -11.070  -1.435  1.00  0.00     0.036 A 
ATOM     18  C   UNL     1       9.732 -12.178  -2.817  1.00  0.00     0.063 A 
ATOM     19  N   UNL     1      11.774 -12.070  -2.017  1.00  0.00    -0.282 N 
ATOM     20  N   UNL     1      10.908 -12.748  -2.884  1.00  0.00    -0.181 NA
ATOM     21  C   UNL     1      11.616 -10.084  -0.430  1.00  0.00     0.066 C 
ATOM     22  C   UNL     1       8.504 -12.590  -3.588  1.00  0.00     0.069 C 
ATOM     23  H   UNL     1      12.708 -12.281  -1.864  1.00  0.00     0.190 HD
ENDBRANCH  15  16
ENDBRANCH  14  15
ENDBRANCH  13  14
ENDBRANCH   1  13
TORSDOF 7
ENDMDL
MODEL 2
REMARK VINA RESULT:    -5.324      2.313      3.942
REMARK INTER + INTRA:          -7.863
REMARK INTER:                  -7.404
REMARK INTRA:                  -0.459
REMARK UNBOUND:                -0.516
REMARK SMILES Cc1n[nH]c(C)c1CCCOc1cc(C(=O)O)ccc1F
REMARK SMILES IDX 11 1 12 2 14 3 18 4 13 5 19 6 20 7 21 8 15 9 16 10 17 11
REMARK SMILES IDX 10 13 9 14 8 15 7 16 5 17 2 18 4 19 3 20 6 21 1 22
REMARK H PARENT 17 12 4 23
ROOT
ATOM      1  O   UNL     1       8.098  -6.715  -3.285  1.00  0.00    -0.490 OA
ENDROOT
BRANCH   1   2
ATOM      2  C   UNL     1       7.128  -6.476  -2.363  1.00  0.00     0.155 A 
ATOM      3  C   UNL     1       5.073  -7.105  -1.284  1.00  0.00     0.063 A 
ATOM      4  C   UNL     1       5.162  -5.977  -0.464  1.00  0.00     0.019 A 
ATOM      5  C   UNL     1       6.065  -7.351  -2.236  1.00  0.00     0.065 A 
ATOM      6  C   UNL     1       6.230  -5.114  -0.594  1.00  0.00     0.044 A 
ATOM      7  C   UNL     1       7.215  -5.362  -1.536  1.00  0.00     0.165 A 
ATOM      8  F   UNL     1       8.258  -4.512  -1.658  1.00  0.00    -0.203 F 
BRANCH   3   9
ATOM      9  C   UNL     1       3.932  -8.031  -1.147  1.00  0.00     0.335 C 
ATOM     10  O   UNL     1       3.678  -8.818  -2.036  1.00  0.00    -0.246 OA
BRANCH   9  11
ATOM     11  O   UNL     1       3.175  -8.007  -0.032  1.00  0.00    -0.478 OA
ATOM     12  H   UNL     1       3.466  -8.558   0.708  1.00  0.00     0.297 HD
ENDBRANCH   9  11
ENDBRANCH   3   9
ENDBRANCH   1   2
BRANCH   1  13
ATOM     13  C   UNL     1       9.405  -7.013  -2.790  1.00  0.00     0.230 C 
BRANCH  13  14
ATOM     14  C   UNL     1       9.726  -8.485  -3.052  1.00  0.00     0.046 C 
BRANCH  14  15
ATOM     15  C   UNL     1       9.534  -9.287  -1.763  1.00  0.00     0.043 C 
BRANCH  15  16
ATOM     16  C   UNL     1      10.365 -10.542  -1.823  1.00  0.00    -0.004 A 
ATOM     17  C   UNL     1      10.062 -11.666  -2.514  1.00  0.00     0.036 A 
ATOM     18  C   UNL     1      11.589 -10.751  -1.178  1.00  0.00     0.063 A 
ATOM     19  N   UNL     1      11.056 -12.555  -2.309  1.00  0.00    -0.282 N 
ATOM     20  N   UNL     1      12.000 -11.960  -1.464  1.00  0.00    -0.181 NA
ATOM     21  C   UNL     1       8.836 -11.883  -3.362  1.00  0.00     0.066 C 
ATOM     22  C   UNL     1      12.304  -9.759  -0.297  1.00  0.00     0.069 C 
ATOM     23  H   UNL     1      11.106 -13.450  -2.681  1.00  0.00     0.190 HD
ENDBRANCH  15  16
ENDBRANCH  14  15
ENDBRANCH  13  14
ENDBRANCH   1  13
TORSDOF 7
ENDMDL
MODEL 3
REMARK VINA RESULT:    -5.257      8.541     10.812
REMARK INTER + INTRA:          -7.771
REMARK INTER:                  -5.603
REMARK INTRA:                  -2.168
REMARK UNBOUND:                -0.516
REMARK SMILES Cc1n[nH]c(C)c1CCCOc1cc(C(=O)O)ccc1F
REMARK SMILES IDX 11 1 12 2 14 3 18 4 13 5 19 6 20 7 21 8 15 9 16 10 17 11
REMARK SMILES IDX 10 13 9 14 8 15 7 16 5 17 2 18 4 19 3 20 6 21 1 22
REMARK H PARENT 17 12 4 23
ROOT
ATOM      1  O   UNL     1      10.415 -18.081  -7.366  1.00  0.00    -0.490 OA
ENDROOT
BRANCH   1   2
ATOM      2  C   UNL     1      10.320 -16.922  -6.662  1.00  0.00     0.155 A 
ATOM      3  C   UNL     1      10.763 -15.644  -4.674  1.00  0.00     0.063 A 
ATOM      4  C   UNL     1      10.123 -14.541  -5.245  1.00  0.00     0.019 A 
ATOM      5  C   UNL     1      10.859 -16.838  -5.392  1.00  0.00     0.065 A 
ATOM      6  C   UNL     1       9.593 -14.632  -6.515  1.00  0.00     0.044 A 
ATOM      7  C   UNL     1       9.694 -15.816  -7.227  1.00  0.00     0.165 A 
ATOM      8  F   UNL     1       9.173 -15.899  -8.471  1.00  0.00    -0.203 F 
BRANCH   3   9
ATOM      9  C   UNL     1      11.332 -15.549  -3.315  1.00  0.00     0.335 C 
ATOM     10  O   UNL     1      11.869 -14.524  -2.951  1.00  0.00    -0.246 OA
BRANCH   9  11
ATOM     11  O   UNL     1      11.248 -16.600  -2.476  1.00  0.00    -0.478 OA
ATOM     12  H   UNL     1      10.674 -17.332  -2.743  1.00  0.00     0.297 HD
ENDBRANCH   9  11
ENDBRANCH   3   9
ENDBRANCH   1   2
BRANCH   1  13
ATOM     13  C   UNL     1      11.732 -18.540  -7.684  1.00  0.00     0.230 C 
BRANCH  13  14
ATOM     14  C   UNL     1      12.089 -18.113  -9.109  1.00  0.00     0.046 C 
BRANCH  14  15
ATOM     15  C   UNL     1      13.429 -17.374  -9.099  1.00  0.00     0.043 C 
BRANCH  15  16
ATOM     16  C   UNL     1      13.208 -15.937  -8.708  1.00  0.00    -0.004 A 
ATOM     17  C   UNL     1      12.519 -15.014  -9.420  1.00  0.00     0.036 A 
ATOM     18  C   UNL     1      13.672 -15.320  -7.541  1.00  0.00     0.063 A 
ATOM     19  N   UNL     1      12.553 -13.854  -8.731  1.00  0.00    -0.282 N 
ATOM     20  N   UNL     1      13.286 -14.070  -7.557  1.00  0.00    -0.181 NA
ATOM     21  C   UNL     1      11.837 -15.242 -10.743  1.00  0.00     0.066 C 
ATOM     22  C   UNL     1      14.488 -15.979  -6.458  1.00  0.00     0.069 C 
ATOM     23  H   UNL     1      12.143 -13.018  -9.001  1.00  0.00     0.190 HD
ENDBRANCH  15  16
ENDBRANCH  14  15
ENDBRANCH  13  14
ENDBRANCH   1  13
TORSDOF 7
ENDMDL
MODEL 4
REMARK VINA RESULT:    -5.251      2.285      3.475
REMARK INTER + INTRA:          -7.762
REMARK INTER:                  -7.161
REMARK INTRA:                  -0.601
REMARK UNBOUND:                -0.516
REMARK SMILES Cc1n[nH]c(C)c1CCCOc1cc(C(=O)O)ccc1F
REMARK SMILES IDX 11 1 12 2 14 3 18 4 13 5 19 6 20 7 21 8 15 9 16 10 17 11
REMARK SMILES IDX 10 13 9 14 8 15 7 16 5 17 2 18 4 19 3 20 6 21 1 22
REMARK H PARENT 17 12 4 23
ROOT
ATOM      1  O   UNL     1       8.201  -6.794  -3.124  1.00  0.00    -0.490 OA
ENDROOT
BRANCH   1   2
ATOM      2  C   UNL     1       7.184  -6.511  -2.268  1.00  0.00     0.155 A 
ATOM      3  C   UNL     1       5.080  -7.094  -1.260  1.00  0.00     0.063 A 
ATOM      4  C   UNL     1       5.120  -5.919  -0.505  1.00  0.00     0.019 A 
ATOM      5  C   UNL     1       6.121  -7.386  -2.144  1.00  0.00     0.065 A 
ATOM      6  C   UNL     1       6.188  -5.056  -0.630  1.00  0.00     0.044 A 
ATOM      7  C   UNL     1       7.221  -5.349  -1.504  1.00  0.00     0.165 A 
ATOM      8  F   UNL     1       8.265  -4.499  -1.622  1.00  0.00    -0.203 F 
BRANCH   3   9
ATOM      9  C   UNL     1       3.939  -8.021  -1.128  1.00  0.00     0.335 C 
ATOM     10  O   UNL     1       3.678  -8.796  -2.025  1.00  0.00    -0.246 OA
BRANCH   9  11
ATOM     11  O   UNL     1       3.190  -8.011  -0.008  1.00  0.00    -0.478 OA
ATOM     12  H   UNL     1       2.288  -8.355  -0.079  1.00  0.00     0.297 HD
ENDBRANCH   9  11
ENDBRANCH   3   9
ENDBRANCH   1   2
BRANCH   1  13
ATOM     13  C   UNL     1       9.422  -7.264  -2.548  1.00  0.00     0.230 C 
BRANCH  13  14
ATOM     14  C   UNL     1       9.630  -8.733  -2.922  1.00  0.00     0.046 C 
BRANCH  14  15
ATOM     15  C   UNL     1       9.522  -9.600  -1.665  1.00  0.00     0.043 C 
BRANCH  15  16
ATOM     16  C   UNL     1      10.504 -10.739  -1.754  1.00  0.00    -0.004 A 
ATOM     17  C   UNL     1      11.701 -10.810  -1.127  1.00  0.00     0.036 A 
ATOM     18  C   UNL     1      10.336 -11.914  -2.495  1.00  0.00     0.063 A 
ATOM     19  N   UNL     1      12.274 -11.985  -1.465  1.00  0.00    -0.282 N 
ATOM     20  N   UNL     1      11.399 -12.658  -2.328  1.00  0.00    -0.181 NA
ATOM     21  C   UNL     1      12.289  -9.765  -0.216  1.00  0.00     0.066 C 
ATOM     22  C   UNL     1       9.143 -12.258  -3.349  1.00  0.00     0.069 C 
ATOM     23  H   UNL     1      13.138 -12.305  -1.164  1.00  0.00     0.190 HD
ENDBRANCH  15  16
ENDBRANCH  14  15
ENDBRANCH  13  14
ENDBRANCH   1  13
TORSDOF 7
ENDMDL
MODEL 5
REMARK VINA RESULT:    -4.504      9.026     11.339
REMARK INTER + INTRA:          -6.732
REMARK INTER:                  -4.930
REMARK INTRA:                  -1.802
REMARK UNBOUND:                -0.516
REMARK SMILES Cc1n[nH]c(C)c1CCCOc1cc(C(=O)O)ccc1F
REMARK SMILES IDX 11 1 12 2 14 3 18 4 13 5 19 6 20 7 21 8 15 9 16 10 17 11
REMARK SMILES IDX 10 13 9 14 8 15 7 16 5 17 2 18 4 19 3 20 6 21 1 22
REMARK H PARENT 17 12 4 23
ROOT
ATOM      1  O   UNL     1      11.150 -18.523  -6.988  1.00  0.00    -0.490 OA
ENDROOT
BRANCH   1   2
ATOM      2  C   UNL     1      12.019 -17.695  -6.350  1.00  0.00     0.155 A 
ATOM      3  C   UNL     1      12.572 -16.289  -4.480  1.00  0.00     0.063 A 
ATOM      4  C   UNL     1      13.814 -16.014  -5.058  1.00  0.00     0.019 A 
ATOM      5  C   UNL     1      11.675 -17.135  -5.134  1.00  0.00     0.065 A 
ATOM      6  C   UNL     1      14.151 -16.582  -6.269  1.00  0.00     0.044 A 
ATOM      7  C   UNL     1      13.261 -17.425  -6.914  1.00  0.00     0.165 A 
ATOM      8  F   UNL     1      13.598 -17.978  -8.100  1.00  0.00    -0.203 F 
BRANCH   3   9
ATOM      9  C   UNL     1      12.208 -15.683  -3.184  1.00  0.00     0.335 C 
ATOM     10  O   UNL     1      12.617 -14.577  -2.894  1.00  0.00    -0.246 OA
BRANCH   9  11
ATOM     11  O   UNL     1      11.417 -16.355  -2.325  1.00  0.00    -0.478 OA
ATOM     12  H   UNL     1      11.857 -16.866  -1.630  1.00  0.00     0.297 HD
ENDBRANCH   9  11
ENDBRANCH   3   9
ENDBRANCH   1   2
BRANCH   1  13
ATOM     13  C   UNL     1      10.697 -18.116  -8.282  1.00  0.00     0.230 C 
BRANCH  13  14
ATOM     14  C   UNL     1       9.591 -17.069  -8.128  1.00  0.00     0.046 C 
BRANCH  14  15
ATOM     15  C   UNL     1       9.765 -15.984  -9.192  1.00  0.00     0.043 C 
BRANCH  15  16
ATOM     16  C   UNL     1      10.836 -15.018  -8.756  1.00  0.00    -0.004 A 
ATOM     17  C   UNL     1      12.015 -14.800  -9.384  1.00  0.00     0.036 A 
ATOM     18  C   UNL     1      10.785 -14.184  -7.635  1.00  0.00     0.063 A 
ATOM     19  N   UNL     1      12.688 -13.865  -8.681  1.00  0.00    -0.282 N 
ATOM     20  N   UNL     1      11.897 -13.497  -7.584  1.00  0.00    -0.181 NA
ATOM     21  C   UNL     1      12.489 -15.478 -10.642  1.00  0.00     0.066 C 
ATOM     22  C   UNL     1       9.649 -14.099  -6.647  1.00  0.00     0.069 C 
ATOM     23  H   UNL     1      13.565 -13.512  -8.896  1.00  0.00     0.190 HD
ENDBRANCH  15  16
ENDBRANCH  14  15
ENDBRANCH  13  14
ENDBRANCH   1  13
TORSDOF 7
ENDMDL
MODEL 6
REMARK VINA RESULT:    -4.450      4.739      8.170
REMARK INTER + INTRA:          -6.657
REMARK INTER:                  -5.967
REMARK INTRA:                  -0.690
REMARK UNBOUND:                -0.516
REMARK SMILES Cc1n[nH]c(C)c1CCCOc1cc(C(=O)O)ccc1F
REMARK SMILES IDX 11 1 12 2 14 3 18 4 13 5 19 6 20 7 21 8 15 9 16 10 17 11
REMARK SMILES IDX 10 13 9 14 8 15 7 16 5 17 2 18 4 19 3 20 6 21 1 22
REMARK H PARENT 17 12 4 23
ROOT
ATOM      1  O   UNL     1       8.951 -12.012  -2.749  1.00  0.00    -0.490 OA
ENDROOT
BRANCH   1   2
ATOM      2  C   UNL     1       9.344 -12.990  -3.607  1.00  0.00     0.155 A 
ATOM      3  C   UNL     1      10.512 -15.049  -4.032  1.00  0.00     0.063 A 
ATOM      4  C   UNL     1      10.128 -14.984  -5.375  1.00  0.00     0.019 A 
ATOM      5  C   UNL     1      10.114 -14.043  -3.149  1.00  0.00     0.065 A 
ATOM      6  C   UNL     1       9.355 -13.934  -5.821  1.00  0.00     0.044 A 
ATOM      7  C   UNL     1       8.958 -12.940  -4.942  1.00  0.00     0.165 A 
ATOM      8  F   UNL     1       8.200 -11.913  -5.385  1.00  0.00    -0.203 F 
BRANCH   3   9
ATOM      9  C   UNL     1      11.339 -16.172  -3.551  1.00  0.00     0.335 C 
ATOM     10  O   UNL     1      11.504 -17.149  -4.253  1.00  0.00    -0.246 OA
BRANCH   9  11
ATOM     11  O   UNL     1      11.917 -16.111  -2.336  1.00  0.00    -0.478 OA
ATOM     12  H   UNL     1      11.942 -16.929  -1.819  1.00  0.00     0.297 HD
ENDBRANCH   9  11
ENDBRANCH   3   9
ENDBRANCH   1   2
BRANCH   1  13
ATOM     13  C   UNL     1       9.967 -11.133  -2.257  1.00  0.00     0.230 C 
BRANCH  13  14
ATOM     14  C   UNL     1       9.325 -10.047  -1.392  1.00  0.00     0.046 C 
BRANCH  14  15
ATOM     15  C   UNL     1       8.043  -9.551  -2.063  1.00  0.00     0.043 C 
BRANCH  15  16
ATOM     16  C   UNL     1       7.577  -8.288  -1.387  1.00  0.00    -0.004 A 
ATOM     17  C   UNL     1       6.802  -8.217  -0.279  1.00  0.00     0.036 A 
ATOM     18  C   UNL     1       7.874  -6.982  -1.788  1.00  0.00     0.063 A 
ATOM     19  N   UNL     1       6.610  -6.912   0.006  1.00  0.00    -0.282 N 
ATOM     20  N   UNL     1       7.289  -6.156  -0.959  1.00  0.00    -0.181 NA
ATOM     21  C   UNL     1       6.253  -9.386   0.497  1.00  0.00     0.066 C 
ATOM     22  C   UNL     1       8.712  -6.592  -2.979  1.00  0.00     0.069 C 
ATOM     23  H   UNL     1       6.093  -6.560   0.746  1.00  0.00     0.190 HD
ENDBRANCH  15  16
ENDBRANCH  14  15
ENDBRANCH  13  14
ENDBRANCH   1  13
TORSDOF 7
ENDMDL
MODEL 7
REMARK VINA RESULT:    -4.355      3.559      5.492
REMARK INTER + INTRA:          -6.526
REMARK INTER:                  -5.879
REMARK INTRA:                  -0.646
REMARK UNBOUND:                -0.516
REMARK SMILES Cc1n[nH]c(C)c1CCCOc1cc(C(=O)O)ccc1F
REMARK SMILES IDX 11 1 12 2 14 3 18 4 13 5 19 6 20 7 21 8 15 9 16 10 17 11
REMARK SMILES IDX 10 13 9 14 8 15 7 16 5 17 2 18 4 19 3 20 6 21 1 22
REMARK H PARENT 17 12 4 23
ROOT
ATOM      1  O   UNL     1       9.776 -11.758  -2.594  1.00  0.00    -0.490 OA
ENDROOT
BRANCH   1   2
ATOM      2  C   UNL     1       9.119 -10.712  -2.026  1.00  0.00     0.155 A 
ATOM      3  C   UNL     1       7.455  -9.867  -0.510  1.00  0.00     0.063 A 
ATOM      4  C   UNL     1       7.796  -8.561  -0.870  1.00  0.00     0.019 A 
ATOM      5  C   UNL     1       8.124 -10.944  -1.095  1.00  0.00     0.065 A 
ATOM      6  C   UNL     1       8.794  -8.339  -1.795  1.00  0.00     0.044 A 
ATOM      7  C   UNL     1       9.460  -9.408  -2.370  1.00  0.00     0.165 A 
ATOM      8  F   UNL     1      10.437  -9.184  -3.276  1.00  0.00    -0.203 F 
BRANCH   3   9
ATOM      9  C   UNL     1       6.387 -10.108   0.480  1.00  0.00     0.335 C 
ATOM     10  O   UNL     1       5.687  -9.190   0.854  1.00  0.00    -0.246 OA
BRANCH   9  11
ATOM     11  O   UNL     1       6.185 -11.350   0.964  1.00  0.00    -0.478 OA
ATOM     12  H   UNL     1       6.389 -11.496   1.898  1.00  0.00     0.297 HD
ENDBRANCH   9  11
ENDBRANCH   3   9
ENDBRANCH   1   2
BRANCH   1  13
ATOM     13  C   UNL     1       8.988 -12.695  -3.333  1.00  0.00     0.230 C 
BRANCH  13  14
ATOM     14  C   UNL     1       9.253 -12.516  -4.829  1.00  0.00     0.046 C 
BRANCH  14  15
ATOM     15  C   UNL     1       8.923 -13.817  -5.564  1.00  0.00     0.043 C 
BRANCH  15  16
ATOM     16  C   UNL     1      10.201 -14.507  -5.964  1.00  0.00    -0.004 A 
ATOM     17  C   UNL     1      10.824 -15.491  -5.275  1.00  0.00     0.036 A 
ATOM     18  C   UNL     1      10.951 -14.248  -7.117  1.00  0.00     0.063 A 
ATOM     19  N   UNL     1      11.932 -15.838  -5.964  1.00  0.00    -0.282 N 
ATOM     20  N   UNL     1      11.992 -15.040  -7.114  1.00  0.00    -0.181 NA
ATOM     21  C   UNL     1      10.364 -16.092  -3.973  1.00  0.00     0.066 C 
ATOM     22  C   UNL     1      10.622 -13.224  -8.173  1.00  0.00     0.069 C 
ATOM     23  H   UNL     1      12.574 -16.518  -5.708  1.00  0.00     0.190 HD
ENDBRANCH  15  16
ENDBRANCH  14  15
ENDBRANCH  13  14
ENDBRANCH   1  13
TORSDOF 7
ENDMDL
MODEL 8
REMARK VINA RESULT:    -4.332      9.450     11.318
REMARK INTER + INTRA:          -6.493
REMARK INTER:                  -4.513
REMARK INTRA:                  -1.980
REMARK UNBOUND:                -0.516
REMARK SMILES Cc1n[nH]c(C)c1CCCOc1cc(C(=O)O)ccc1F
REMARK SMILES IDX 11 1 12 2 14 3 18 4 13 5 19 6 20 7 21 8 15 9 16 10 17 11
REMARK SMILES IDX 10 13 9 14 8 15 7 16 5 17 2 18 4 19 3 20 6 21 1 22
REMARK H PARENT 17 12 4 23
ROOT
ATOM      1  O   UNL     1       9.452 -16.231  -6.504  1.00  0.00    -0.490 OA
ENDROOT
BRANCH   1   2
ATOM      2  C   UNL     1      10.537 -16.647  -5.797  1.00  0.00     0.155 A 
ATOM      3  C   UNL     1      12.105 -16.332  -4.001  1.00  0.00     0.063 A 
ATOM      4  C   UNL     1      12.748 -17.520  -4.360  1.00  0.00     0.019 A 
ATOM      5  C   UNL     1      10.994 -15.899  -4.728  1.00  0.00     0.065 A 
ATOM      6  C   UNL     1      12.282 -18.262  -5.425  1.00  0.00     0.044 A 
ATOM      7  C   UNL     1      11.176 -17.833  -6.141  1.00  0.00     0.165 A 
ATOM      8  F   UNL     1      10.724 -18.565  -7.182  1.00  0.00    -0.203 F 
BRANCH   3   9
ATOM      9  C   UNL     1      12.602 -15.536  -2.863  1.00  0.00     0.335 C 
ATOM     10  O   UNL     1      12.287 -14.369  -2.754  1.00  0.00    -0.246 OA
BRANCH   9  11
ATOM     11  O   UNL     1      13.401 -16.106  -1.939  1.00  0.00    -0.478 OA
ATOM     12  H   UNL     1      14.326 -16.248  -2.186  1.00  0.00     0.297 HD
ENDBRANCH   9  11
ENDBRANCH   3   9
ENDBRANCH   1   2
BRANCH   1  13
ATOM     13  C   UNL     1       9.666 -15.204  -7.475  1.00  0.00     0.230 C 
BRANCH  13  14
ATOM     14  C   UNL     1       9.766 -15.833  -8.867  1.00  0.00     0.046 C 
BRANCH  14  15
ATOM     15  C   UNL     1      10.996 -15.280  -9.590  1.00  0.00     0.043 C 
BRANCH  15  16
ATOM     16  C   UNL     1      12.156 -16.222  -9.402  1.00  0.00    -0.004 A 
ATOM     17  C   UNL     1      12.316 -17.420 -10.012  1.00  0.00     0.036 A 
ATOM     18  C   UNL     1      13.261 -16.012  -8.571  1.00  0.00     0.063 A 
ATOM     19  N   UNL     1      13.478 -17.951  -9.577  1.00  0.00    -0.282 N 
ATOM     20  N   UNL     1      14.051 -17.050  -8.669  1.00  0.00    -0.181 NA
ATOM     21  C   UNL     1      11.367 -18.047 -11.000  1.00  0.00     0.066 C 
ATOM     22  C   UNL     1      13.496 -14.803  -7.701  1.00  0.00     0.069 C 
ATOM     23  H   UNL     1      13.850 -18.805  -9.845  1.00  0.00     0.190 HD
ENDBRANCH  15  16
ENDBRANCH  14  15
ENDBRANCH  13  14
ENDBRANCH   1  13
TORSDOF 7
ENDMDL
MODEL 9
REMARK VINA RESULT:    -4.296      9.087     11.526
REMARK INTER + INTRA:          -6.444
REMARK INTER:                  -4.305
REMARK INTRA:                  -2.138
REMARK UNBOUND:                -0.516
REMARK SMILES Cc1n[nH]c(C)c1CCCOc1cc(C(=O)O)ccc1F
REMARK SMILES IDX 11 1 12 2 14 3 18 4 13 5 19 6 20 7 21 8 15 9 16 10 17 11
REMARK SMILES IDX 10 13 9 14 8 15 7 16 5 17 2 18 4 19 3 20 6 21 1 22
REMARK H PARENT 17 12 4 23
ROOT
ATOM      1  O   UNL     1      14.051 -15.390  -7.586  1.00  0.00    -0.490 OA
ENDROOT
BRANCH   1   2
ATOM      2  C   UNL     1      13.724 -16.294  -6.624  1.00  0.00     0.155 A 
ATOM      3  C   UNL     1      12.742 -16.808  -4.490  1.00  0.00     0.063 A 
ATOM      4  C   UNL     1      13.054 -18.157  -4.675  1.00  0.00     0.019 A 
ATOM      5  C   UNL     1      13.081 -15.876  -5.473  1.00  0.00     0.065 A 
ATOM      6  C   UNL     1      13.691 -18.565  -5.829  1.00  0.00     0.044 A 
ATOM      7  C   UNL     1      14.022 -17.640  -6.805  1.00  0.00     0.165 A 
ATOM      8  F   UNL     1      14.645 -18.046  -7.933  1.00  0.00    -0.203 F 
BRANCH   3   9
ATOM      9  C   UNL     1      12.060 -16.368  -3.257  1.00  0.00     0.335 C 
ATOM     10  O   UNL     1      10.848 -16.326  -3.214  1.00  0.00    -0.246 OA
BRANCH   9  11
ATOM     11  O   UNL     1      12.785 -16.019  -2.175  1.00  0.00    -0.478 OA
ATOM     12  H   UNL     1      13.333 -16.707  -1.773  1.00  0.00     0.297 HD
ENDBRANCH   9  11
ENDBRANCH   3   9
ENDBRANCH   1   2
BRANCH   1  13
ATOM     13  C   UNL     1      13.243 -15.376  -8.764  1.00  0.00     0.230 C 
BRANCH  13  14
ATOM     14  C   UNL     1      12.138 -14.329  -8.612  1.00  0.00     0.046 C 
BRANCH  14  15
ATOM     15  C   UNL     1      10.789 -14.954  -8.970  1.00  0.00     0.043 C 
BRANCH  15  16
ATOM     16  C   UNL     1      10.287 -15.770  -7.807  1.00  0.00    -0.004 A 
ATOM     17  C   UNL     1       9.809 -15.281  -6.639  1.00  0.00     0.036 A 
ATOM     18  C   UNL     1      10.229 -17.166  -7.746  1.00  0.00     0.063 A 
ATOM     19  N   UNL     1       9.465 -16.331  -5.864  1.00  0.00    -0.282 N 
ATOM     20  N   UNL     1       9.743 -17.504  -6.579  1.00  0.00    -0.181 NA
ATOM     21  C   UNL     1       9.681 -13.826  -6.271  1.00  0.00     0.066 C 
ATOM     22  C   UNL     1      10.662 -18.118  -8.831  1.00  0.00     0.069 C 
ATOM     23  H   UNL     1       9.093 -16.283  -4.970  1.00  0.00     0.190 HD
ENDBRANCH  15  16
ENDBRANCH  14  15
ENDBRANCH  13  14
ENDBRANCH   1  13
TORSDOF 7
ENDMDL
