MODEL 1
REMARK VINA RESULT:    -5.766      0.000      0.000
REMARK INTER + INTRA:          -8.459
REMARK INTER:                  -7.957
REMARK INTRA:                  -0.502
REMARK UNBOUND:                -0.502
REMARK SMILES Cc1n[nH]c(C)c1CCCOc1cc(C(=O)O)ccc1F
REMARK SMILES IDX 11 1 12 2 14 3 18 4 13 5 19 6 20 7 21 8 15 9 16 10 17 11
REMARK SMILES IDX 10 13 9 14 8 15 7 16 5 17 2 18 4 19 3 20 6 21 1 22
REMARK H PARENT 17 12 4 23
ROOT
ATOM      1  O   UNL     1       7.691   2.638   6.252  1.00  0.00    -0.490 OA
ENDROOT
BRANCH   1   2
ATOM      2  C   UNL     1       7.228   1.875   5.226  1.00  0.00     0.155 A 
ATOM      3  C   UNL     1       6.950   1.494   2.868  1.00  0.00     0.063 A 
ATOM      4  C   UNL     1       6.283   0.297   3.144  1.00  0.00     0.019 A 
ATOM      5  C   UNL     1       7.423   2.282   3.920  1.00  0.00     0.065 A 
ATOM      6  C   UNL     1       6.099  -0.104   4.451  1.00  0.00     0.044 A 
ATOM      7  C   UNL     1       6.573   0.678   5.492  1.00  0.00     0.165 A 
ATOM      8  F   UNL     1       6.390   0.279   6.770  1.00  0.00    -0.203 F 
BRANCH   3   9
ATOM      9  C   UNL     1       7.150   1.926   1.471  1.00  0.00     0.335 C 
ATOM     10  O   UNL     1       7.424   3.082   1.226  1.00  0.00    -0.246 OA
BRANCH   9  11
ATOM     11  O   UNL     1       7.033   1.034   0.468  1.00  0.00    -0.478 OA
ATOM     12  H   UNL     1       6.245   0.473   0.468  1.00  0.00     0.297 HD
ENDBRANCH   9  11
ENDBRANCH   3   9
ENDBRANCH   1   2
BRANCH   1  13
ATOM     13  C   UNL     1       8.742   2.084   7.049  1.00  0.00     0.230 C 
BRANCH  13  14
ATOM     14  C   UNL     1      10.018   2.903   6.848  1.00  0.00     0.046 C 
BRANCH  14  15
ATOM     15  C   UNL     1      10.950   2.167   5.883  1.00  0.00     0.043 C 
BRANCH  15  16
ATOM     16  C   UNL     1      12.371   2.608   6.120  1.00  0.00    -0.004 A 
ATOM     17  C   UNL     1      12.945   3.737   5.643  1.00  0.00     0.036 A 
ATOM     18  C   UNL     1      13.329   1.926   6.879  1.00  0.00     0.063 A 
ATOM     19  N   UNL     1      14.222   3.765   6.079  1.00  0.00    -0.282 N 
ATOM     20  N   UNL     1      14.440   2.615   6.849  1.00  0.00    -0.181 NA
ATOM     21  C   UNL     1      12.277   4.776   4.781  1.00  0.00     0.066 C 
ATOM     22  C   UNL     1      13.119   0.617   7.596  1.00  0.00     0.069 C 
ATOM     23  H   UNL     1      14.874   4.458   5.891  1.00  0.00     0.190 HD
ENDBRANCH  15  16
ENDBRANCH  14  15
ENDBRANCH  13  14
ENDBRANCH   1  13
TORSDOF 7
ENDMDL
MODEL 2
REMARK VINA RESULT:    -5.747      2.186      3.789
REMARK INTER + INTRA:          -8.433
REMARK INTER:                  -7.799
REMARK INTRA:                  -0.633
REMARK UNBOUND:                -0.502
REMARK SMILES Cc1n[nH]c(C)c1CCCOc1cc(C(=O)O)ccc1F
REMARK SMILES IDX 11 1 12 2 14 3 18 4 13 5 19 6 20 7 21 8 15 9 16 10 17 11
REMARK SMILES IDX 10 13 9 14 8 15 7 16 5 17 2 18 4 19 3 20 6 21 1 22
REMARK H PARENT 17 12 4 23
ROOT
ATOM      1  O   UNL     1       9.289   2.081   3.297  1.00  0.00    -0.490 OA
ENDROOT
BRANCH   1   2
ATOM      2  C   UNL     1       8.098   1.453   3.489  1.00  0.00     0.155 A 
ATOM      3  C   UNL     1       6.591   0.220   4.900  1.00  0.00     0.063 A 
ATOM      4  C   UNL     1       5.655   0.184   3.863  1.00  0.00     0.019 A 
ATOM      5  C   UNL     1       7.817   0.860   4.705  1.00  0.00     0.065 A 
ATOM      6  C   UNL     1       5.942   0.785   2.655  1.00  0.00     0.044 A 
ATOM      7  C   UNL     1       7.156   1.423   2.466  1.00  0.00     0.165 A 
ATOM      8  F   UNL     1       7.431   2.009   1.280  1.00  0.00    -0.203 F 
BRANCH   3   9
ATOM      9  C   UNL     1       6.288  -0.421   6.195  1.00  0.00     0.335 C 
ATOM     10  O   UNL     1       7.045  -1.250   6.654  1.00  0.00    -0.246 OA
BRANCH   9  11
ATOM     11  O   UNL     1       5.172  -0.080   6.869  1.00  0.00    -0.478 OA
ATOM     12  H   UNL     1       4.502  -0.768   6.986  1.00  0.00     0.297 HD
ENDBRANCH   9  11
ENDBRANCH   3   9
ENDBRANCH   1   2
BRANCH   1  13
ATOM     13  C   UNL     1      10.399   1.264   2.917  1.00  0.00     0.230 C 
BRANCH  13  14
ATOM     14  C   UNL     1      11.670   1.791   3.585  1.00  0.00     0.046 C 
BRANCH  14  15
ATOM     15  C   UNL     1      11.301   2.543   4.865  1.00  0.00     0.043 C 
BRANCH  15  16
ATOM     16  C   UNL     1      12.552   3.072   5.517  1.00  0.00    -0.004 A 
ATOM     17  C   UNL     1      13.313   2.420   6.426  1.00  0.00     0.036 A 
ATOM     18  C   UNL     1      13.135   4.322   5.285  1.00  0.00     0.063 A 
ATOM     19  N   UNL     1      14.338   3.231   6.762  1.00  0.00    -0.282 N 
ATOM     20  N   UNL     1      14.202   4.422   6.035  1.00  0.00    -0.181 NA
ATOM     21  C   UNL     1      13.062   1.036   6.965  1.00  0.00     0.066 C 
ATOM     22  C   UNL     1      12.616   5.378   4.342  1.00  0.00     0.069 C 
ATOM     23  H   UNL     1      15.044   3.027   7.395  1.00  0.00     0.190 HD
ENDBRANCH  15  16
ENDBRANCH  14  15
ENDBRANCH  13  14
ENDBRANCH   1  13
TORSDOF 7
ENDMDL
MODEL 3
REMARK VINA RESULT:    -5.700      2.194      3.360
REMARK INTER + INTRA:          -8.369
REMARK INTER:                  -7.713
REMARK INTRA:                  -0.655
REMARK UNBOUND:                -0.502
REMARK SMILES Cc1n[nH]c(C)c1CCCOc1cc(C(=O)O)ccc1F
REMARK SMILES IDX 11 1 12 2 14 3 18 4 13 5 19 6 20 7 21 8 15 9 16 10 17 11
REMARK SMILES IDX 10 13 9 14 8 15 7 16 5 17 2 18 4 19 3 20 6 21 1 22
REMARK H PARENT 17 12 4 23
ROOT
ATOM      1  O   UNL     1       9.375   2.122   3.416  1.00  0.00    -0.490 OA
ENDROOT
BRANCH   1   2
ATOM      2  C   UNL     1       8.181   1.489   3.568  1.00  0.00     0.155 A 
ATOM      3  C   UNL     1       6.637   0.244   4.927  1.00  0.00     0.063 A 
ATOM      4  C   UNL     1       5.732   0.212   3.862  1.00  0.00     0.019 A 
ATOM      5  C   UNL     1       7.866   0.888   4.773  1.00  0.00     0.065 A 
ATOM      6  C   UNL     1       6.053   0.819   2.666  1.00  0.00     0.044 A 
ATOM      7  C   UNL     1       7.271   1.462   2.517  1.00  0.00     0.165 A 
ATOM      8  F   UNL     1       7.579   2.055   1.343  1.00  0.00    -0.203 F 
BRANCH   3   9
ATOM      9  C   UNL     1       6.296  -0.405   6.208  1.00  0.00     0.335 C 
ATOM     10  O   UNL     1       7.043  -1.232   6.687  1.00  0.00    -0.246 OA
BRANCH   9  11
ATOM     11  O   UNL     1       5.158  -0.073   6.849  1.00  0.00    -0.478 OA
ATOM     12  H   UNL     1       4.485  -0.763   6.935  1.00  0.00     0.297 HD
ENDBRANCH   9  11
ENDBRANCH   3   9
ENDBRANCH   1   2
BRANCH   1  13
ATOM     13  C   UNL     1      10.480   1.325   2.980  1.00  0.00     0.230 C 
BRANCH  13  14
ATOM     14  C   UNL     1      11.766   1.839   3.629  1.00  0.00     0.046 C 
BRANCH  14  15
ATOM     15  C   UNL     1      11.417   2.662   4.871  1.00  0.00     0.043 C 
BRANCH  15  16
ATOM     16  C   UNL     1      12.675   3.244   5.459  1.00  0.00    -0.004 A 
ATOM     17  C   UNL     1      13.203   4.457   5.170  1.00  0.00     0.036 A 
ATOM     18  C   UNL     1      13.502   2.630   6.406  1.00  0.00     0.063 A 
ATOM     19  N   UNL     1      14.327   4.601   5.902  1.00  0.00    -0.282 N 
ATOM     20  N   UNL     1      14.496   3.439   6.667  1.00  0.00    -0.181 NA
ATOM     21  C   UNL     1      12.637   5.464   4.204  1.00  0.00     0.066 C 
ATOM     22  C   UNL     1      13.291   1.266   7.011  1.00  0.00     0.069 C 
ATOM     23  H   UNL     1      14.915   5.373   5.899  1.00  0.00     0.190 HD
ENDBRANCH  15  16
ENDBRANCH  14  15
ENDBRANCH  13  14
ENDBRANCH   1  13
TORSDOF 7
ENDMDL
MODEL 4
REMARK VINA RESULT:    -5.600      0.220      1.777
REMARK INTER + INTRA:          -8.230
REMARK INTER:                  -7.724
REMARK INTRA:                  -0.506
REMARK UNBOUND:                -0.502
REMARK SMILES Cc1n[nH]c(C)c1CCCOc1cc(C(=O)O)ccc1F
REMARK SMILES IDX 11 1 12 2 14 3 18 4 13 5 19 6 20 7 21 8 15 9 16 10 17 11
REMARK SMILES IDX 10 13 9 14 8 15 7 16 5 17 2 18 4 19 3 20 6 21 1 22
REMARK H PARENT 17 12 4 23
ROOT
ATOM      1  O   UNL     1       7.676   2.606   6.249  1.00  0.00    -0.490 OA
ENDROOT
BRANCH   1   2
ATOM      2  C   UNL     1       7.228   1.840   5.219  1.00  0.00     0.155 A 
ATOM      3  C   UNL     1       6.959   1.468   2.858  1.00  0.00     0.063 A 
ATOM      4  C   UNL     1       6.314   0.258   3.127  1.00  0.00     0.019 A 
ATOM      5  C   UNL     1       7.416   2.259   3.915  1.00  0.00     0.065 A 
ATOM      6  C   UNL     1       6.137  -0.154   4.431  1.00  0.00     0.044 A 
ATOM      7  C   UNL     1       6.596   0.629   5.476  1.00  0.00     0.165 A 
ATOM      8  F   UNL     1       6.419   0.220   6.752  1.00  0.00    -0.203 F 
BRANCH   3   9
ATOM      9  C   UNL     1       7.151   1.912   1.464  1.00  0.00     0.335 C 
ATOM     10  O   UNL     1       7.416   3.073   1.227  1.00  0.00    -0.246 OA
BRANCH   9  11
ATOM     11  O   UNL     1       7.038   1.027   0.454  1.00  0.00    -0.478 OA
ATOM     12  H   UNL     1       7.487   1.246  -0.375  1.00  0.00     0.297 HD
ENDBRANCH   9  11
ENDBRANCH   3   9
ENDBRANCH   1   2
BRANCH   1  13
ATOM     13  C   UNL     1       8.740   2.070   7.040  1.00  0.00     0.230 C 
BRANCH  13  14
ATOM     14  C   UNL     1      10.021   2.863   6.776  1.00  0.00     0.046 C 
BRANCH  14  15
ATOM     15  C   UNL     1      10.959   2.039   5.891  1.00  0.00     0.043 C 
BRANCH  15  16
ATOM     16  C   UNL     1      12.389   2.365   6.234  1.00  0.00    -0.004 A 
ATOM     17  C   UNL     1      13.219   1.608   6.989  1.00  0.00     0.036 A 
ATOM     18  C   UNL     1      13.097   3.499   5.822  1.00  0.00     0.063 A 
ATOM     19  N   UNL     1      14.407   2.245   7.059  1.00  0.00    -0.282 N 
ATOM     20  N   UNL     1      14.304   3.431   6.321  1.00  0.00    -0.181 NA
ATOM     21  C   UNL     1      12.877   0.292   7.637  1.00  0.00     0.066 C 
ATOM     22  C   UNL     1      12.557   4.613   4.961  1.00  0.00     0.069 C 
ATOM     23  H   UNL     1      15.193   1.936   7.535  1.00  0.00     0.190 HD
ENDBRANCH  15  16
ENDBRANCH  14  15
ENDBRANCH  13  14
ENDBRANCH   1  13
TORSDOF 7
ENDMDL
MODEL 5
REMARK VINA RESULT:    -4.730      3.927      7.018
REMARK INTER + INTRA:          -7.029
REMARK INTER:                  -6.230
REMARK INTRA:                  -0.799
REMARK UNBOUND:                -0.502
REMARK SMILES Cc1n[nH]c(C)c1CCCOc1cc(C(=O)O)ccc1F
REMARK SMILES IDX 11 1 12 2 14 3 18 4 13 5 19 6 20 7 21 8 15 9 16 10 17 11
REMARK SMILES IDX 10 13 9 14 8 15 7 16 5 17 2 18 4 19 3 20 6 21 1 22
REMARK H PARENT 17 12 4 23
ROOT
ATOM      1  O   UNL     1      10.113   2.723   4.261  1.00  0.00    -0.490 OA
ENDROOT
BRANCH   1   2
ATOM      2  C   UNL     1      11.274   2.814   4.963  1.00  0.00     0.155 A 
ATOM      3  C   UNL     1      12.888   1.851   6.463  1.00  0.00     0.063 A 
ATOM      4  C   UNL     1      13.654   3.017   6.381  1.00  0.00     0.019 A 
ATOM      5  C   UNL     1      11.692   1.756   5.747  1.00  0.00     0.065 A 
ATOM      6  C   UNL     1      13.231   4.066   5.591  1.00  0.00     0.044 A 
ATOM      7  C   UNL     1      12.047   3.967   4.879  1.00  0.00     0.165 A 
ATOM      8  F   UNL     1      11.638   4.997   4.107  1.00  0.00    -0.203 F 
BRANCH   3   9
ATOM      9  C   UNL     1      13.338   0.727   7.307  1.00  0.00     0.335 C 
ATOM     10  O   UNL     1      14.016  -0.159   6.828  1.00  0.00    -0.246 OA
BRANCH   9  11
ATOM     11  O   UNL     1      13.001   0.688   8.611  1.00  0.00    -0.478 OA
ATOM     12  H   UNL     1      13.674   0.369   9.229  1.00  0.00     0.297 HD
ENDBRANCH   9  11
ENDBRANCH   3   9
ENDBRANCH   1   2
BRANCH   1  13
ATOM     13  C   UNL     1       9.913   1.536   3.490  1.00  0.00     0.230 C 
BRANCH  13  14
ATOM     14  C   UNL     1       8.490   1.527   2.928  1.00  0.00     0.046 C 
BRANCH  14  15
ATOM     15  C   UNL     1       7.567   2.307   3.867  1.00  0.00     0.043 C 
BRANCH  15  16
ATOM     16  C   UNL     1       6.942   1.360   4.859  1.00  0.00    -0.004 A 
ATOM     17  C   UNL     1       6.052   0.382   4.574  1.00  0.00     0.036 A 
ATOM     18  C   UNL     1       7.184   1.334   6.236  1.00  0.00     0.063 A 
ATOM     19  N   UNL     1       5.737  -0.238   5.731  1.00  0.00    -0.282 N 
ATOM     20  N   UNL     1       6.457   0.381   6.761  1.00  0.00    -0.181 NA
ATOM     21  C   UNL     1       5.510   0.044   3.210  1.00  0.00     0.066 C 
ATOM     22  C   UNL     1       8.113   2.253   6.988  1.00  0.00     0.069 C 
ATOM     23  H   UNL     1       5.120  -0.979   5.832  1.00  0.00     0.190 HD
ENDBRANCH  15  16
ENDBRANCH  14  15
ENDBRANCH  13  14
ENDBRANCH   1  13
TORSDOF 7
ENDMDL
MODEL 6
REMARK VINA RESULT:    -4.720      3.941      7.038
REMARK INTER + INTRA:          -7.016
REMARK INTER:                  -6.145
REMARK INTRA:                  -0.871
REMARK UNBOUND:                -0.502
REMARK SMILES Cc1n[nH]c(C)c1CCCOc1cc(C(=O)O)ccc1F
REMARK SMILES IDX 11 1 12 2 14 3 18 4 13 5 19 6 20 7 21 8 15 9 16 10 17 11
REMARK SMILES IDX 10 13 9 14 8 15 7 16 5 17 2 18 4 19 3 20 6 21 1 22
REMARK H PARENT 17 12 4 23
ROOT
ATOM      1  O   UNL     1      10.252   2.763   4.111  1.00  0.00    -0.490 OA
ENDROOT
BRANCH   1   2
ATOM      2  C   UNL     1      11.371   2.845   4.879  1.00  0.00     0.155 A 
ATOM      3  C   UNL     1      12.880   1.876   6.481  1.00  0.00     0.063 A 
ATOM      4  C   UNL     1      13.666   3.030   6.433  1.00  0.00     0.019 A 
ATOM      5  C   UNL     1      11.727   1.789   5.697  1.00  0.00     0.065 A 
ATOM      6  C   UNL     1      13.306   4.076   5.610  1.00  0.00     0.044 A 
ATOM      7  C   UNL     1      12.165   3.986   4.830  1.00  0.00     0.165 A 
ATOM      8  F   UNL     1      11.817   5.014   4.025  1.00  0.00    -0.203 F 
BRANCH   3   9
ATOM      9  C   UNL     1      13.263   0.754   7.360  1.00  0.00     0.335 C 
ATOM     10  O   UNL     1      12.938   0.761   8.530  1.00  0.00    -0.246 OA
BRANCH   9  11
ATOM     11  O   UNL     1      13.968  -0.281   6.863  1.00  0.00    -0.478 OA
ATOM     12  H   UNL     1      13.897  -1.125   7.330  1.00  0.00     0.297 HD
ENDBRANCH   9  11
ENDBRANCH   3   9
ENDBRANCH   1   2
BRANCH   1  13
ATOM     13  C   UNL     1       9.986   1.505   3.486  1.00  0.00     0.230 C 
BRANCH  13  14
ATOM     14  C   UNL     1       8.557   1.500   2.941  1.00  0.00     0.046 C 
BRANCH  14  15
ATOM     15  C   UNL     1       7.646   2.283   3.889  1.00  0.00     0.043 C 
BRANCH  15  16
ATOM     16  C   UNL     1       7.017   1.337   4.878  1.00  0.00    -0.004 A 
ATOM     17  C   UNL     1       7.260   1.299   6.209  1.00  0.00     0.036 A 
ATOM     18  C   UNL     1       6.074   0.346   4.585  1.00  0.00     0.063 A 
ATOM     19  N   UNL     1       6.503   0.315   6.738  1.00  0.00    -0.282 N 
ATOM     20  N   UNL     1       5.770  -0.271   5.698  1.00  0.00    -0.181 NA
ATOM     21  C   UNL     1       8.206   2.196   6.965  1.00  0.00     0.066 C 
ATOM     22  C   UNL     1       5.514   0.035   3.221  1.00  0.00     0.069 C 
ATOM     23  H   UNL     1       6.472   0.059   7.673  1.00  0.00     0.190 HD
ENDBRANCH  15  16
ENDBRANCH  14  15
ENDBRANCH  13  14
ENDBRANCH   1  13
TORSDOF 7
ENDMDL
MODEL 7
REMARK VINA RESULT:    -4.642      3.839      6.541
REMARK INTER + INTRA:          -6.909
REMARK INTER:                  -6.118
REMARK INTRA:                  -0.791
REMARK UNBOUND:                -0.502
REMARK SMILES Cc1n[nH]c(C)c1CCCOc1cc(C(=O)O)ccc1F
REMARK SMILES IDX 11 1 12 2 14 3 18 4 13 5 19 6 20 7 21 8 15 9 16 10 17 11
REMARK SMILES IDX 10 13 9 14 8 15 7 16 5 17 2 18 4 19 3 20 6 21 1 22
REMARK H PARENT 17 12 4 23
ROOT
ATOM      1  O   UNL     1      10.230   1.273   5.648  1.00  0.00    -0.490 OA
ENDROOT
BRANCH   1   2
ATOM      2  C   UNL     1      11.359   2.022   5.770  1.00  0.00     0.155 A 
ATOM      3  C   UNL     1      12.601   4.021   5.280  1.00  0.00     0.063 A 
ATOM      4  C   UNL     1      13.670   3.539   6.041  1.00  0.00     0.019 A 
ATOM      5  C   UNL     1      11.443   3.253   5.148  1.00  0.00     0.065 A 
ATOM      6  C   UNL     1      13.575   2.312   6.662  1.00  0.00     0.044 A 
ATOM      7  C   UNL     1      12.423   1.554   6.534  1.00  0.00     0.165 A 
ATOM      8  F   UNL     1      12.336   0.353   7.146  1.00  0.00    -0.203 F 
BRANCH   3   9
ATOM      9  C   UNL     1      12.700   5.334   4.613  1.00  0.00     0.335 C 
ATOM     10  O   UNL     1      11.711   5.846   4.130  1.00  0.00    -0.246 OA
BRANCH   9  11
ATOM     11  O   UNL     1      13.887   5.969   4.548  1.00  0.00    -0.478 OA
ATOM     12  H   UNL     1      13.880   6.928   4.677  1.00  0.00     0.297 HD
ENDBRANCH   9  11
ENDBRANCH   3   9
ENDBRANCH   1   2
BRANCH   1  13
ATOM     13  C   UNL     1       8.990   1.916   5.952  1.00  0.00     0.230 C 
BRANCH  13  14
ATOM     14  C   UNL     1       7.834   0.965   5.641  1.00  0.00     0.046 C 
BRANCH  14  15
ATOM     15  C   UNL     1       8.255  -0.007   4.536  1.00  0.00     0.043 C 
BRANCH  15  16
ATOM     16  C   UNL     1       7.870   0.559   3.194  1.00  0.00    -0.004 A 
ATOM     17  C   UNL     1       6.608   0.734   2.737  1.00  0.00     0.036 A 
ATOM     18  C   UNL     1       8.752   1.003   2.204  1.00  0.00     0.063 A 
ATOM     19  N   UNL     1       6.689   1.263   1.498  1.00  0.00    -0.282 N 
ATOM     20  N   UNL     1       8.046   1.419   1.184  1.00  0.00    -0.181 NA
ATOM     21  C   UNL     1       5.340   0.398   3.478  1.00  0.00     0.066 C 
ATOM     22  C   UNL     1      10.257   0.993   2.291  1.00  0.00     0.069 C 
ATOM     23  H   UNL     1       5.941   1.494   0.926  1.00  0.00     0.190 HD
ENDBRANCH  15  16
ENDBRANCH  14  15
ENDBRANCH  13  14
ENDBRANCH   1  13
TORSDOF 7
ENDMDL
MODEL 8
REMARK VINA RESULT:    -4.497      2.945      4.158
REMARK INTER + INTRA:          -6.708
REMARK INTER:                  -6.409
REMARK INTRA:                  -0.299
REMARK UNBOUND:                -0.502
REMARK SMILES Cc1n[nH]c(C)c1CCCOc1cc(C(=O)O)ccc1F
REMARK SMILES IDX 11 1 12 2 14 3 18 4 13 5 19 6 20 7 21 8 15 9 16 10 17 11
REMARK SMILES IDX 10 13 9 14 8 15 7 16 5 17 2 18 4 19 3 20 6 21 1 22
REMARK H PARENT 17 12 4 23
ROOT
ATOM      1  O   UNL     1      11.722   2.657   6.572  1.00  0.00    -0.490 OA
ENDROOT
BRANCH   1   2
ATOM      2  C   UNL     1      10.559   2.334   5.945  1.00  0.00     0.155 A 
ATOM      3  C   UNL     1       9.382   1.573   3.992  1.00  0.00     0.063 A 
ATOM      4  C   UNL     1       8.173   1.671   4.687  1.00  0.00     0.019 A 
ATOM      5  C   UNL     1      10.577   1.908   4.631  1.00  0.00     0.065 A 
ATOM      6  C   UNL     1       8.165   2.092   6.000  1.00  0.00     0.044 A 
ATOM      7  C   UNL     1       9.353   2.419   6.633  1.00  0.00     0.165 A 
ATOM      8  F   UNL     1       9.338   2.830   7.920  1.00  0.00    -0.203 F 
BRANCH   3   9
ATOM      9  C   UNL     1       9.394   1.123   2.586  1.00  0.00     0.335 C 
ATOM     10  O   UNL     1       8.461   1.387   1.856  1.00  0.00    -0.246 OA
BRANCH   9  11
ATOM     11  O   UNL     1      10.444   0.423   2.113  1.00  0.00    -0.478 OA
ATOM     12  H   UNL     1      10.926   0.806   1.366  1.00  0.00     0.297 HD
ENDBRANCH   9  11
ENDBRANCH   3   9
ENDBRANCH   1   2
BRANCH   1  13
ATOM     13  C   UNL     1      12.863   1.848   6.278  1.00  0.00     0.230 C 
BRANCH  13  14
ATOM     14  C   UNL     1      13.465   1.322   7.582  1.00  0.00     0.046 C 
BRANCH  14  15
ATOM     15  C   UNL     1      14.845   1.946   7.795  1.00  0.00     0.043 C 
BRANCH  15  16
ATOM     16  C   UNL     1      15.698   1.013   8.615  1.00  0.00    -0.004 A 
ATOM     17  C   UNL     1      16.206   1.271   9.843  1.00  0.00     0.036 A 
ATOM     18  C   UNL     1      16.100  -0.274   8.245  1.00  0.00     0.063 A 
ATOM     19  N   UNL     1      16.910   0.187  10.232  1.00  0.00    -0.282 N 
ATOM     20  N   UNL     1      16.832  -0.768   9.210  1.00  0.00    -0.181 NA
ATOM     21  C   UNL     1      16.019   2.539  10.633  1.00  0.00     0.066 C 
ATOM     22  C   UNL     1      15.759  -0.969   6.951  1.00  0.00     0.069 C 
ATOM     23  H   UNL     1      17.386   0.087  11.071  1.00  0.00     0.190 HD
ENDBRANCH  15  16
ENDBRANCH  14  15
ENDBRANCH  13  14
ENDBRANCH   1  13
TORSDOF 7
ENDMDL
MODEL 9
REMARK VINA RESULT:    -4.473      3.694      5.153
REMARK INTER + INTRA:          -6.675
REMARK INTER:                  -6.019
REMARK INTRA:                  -0.656
REMARK UNBOUND:                -0.502
REMARK SMILES Cc1n[nH]c(C)c1CCCOc1cc(C(=O)O)ccc1F
REMARK SMILES IDX 11 1 12 2 14 3 18 4 13 5 19 6 20 7 21 8 15 9 16 10 17 11
REMARK SMILES IDX 10 13 9 14 8 15 7 16 5 17 2 18 4 19 3 20 6 21 1 22
REMARK H PARENT 17 12 4 23
ROOT
ATOM      1  O   UNL     1      12.772   3.684   5.547  1.00  0.00    -0.490 OA
ENDROOT
BRANCH   1   2
ATOM      2  C   UNL     1      11.717   2.910   5.180  1.00  0.00     0.155 A 
ATOM      3  C   UNL     1      10.595   1.546   3.547  1.00  0.00     0.063 A 
ATOM      4  C   UNL     1       9.555   1.324   4.453  1.00  0.00     0.019 A 
ATOM      5  C   UNL     1      11.679   2.344   3.919  1.00  0.00     0.065 A 
ATOM      6  C   UNL     1       9.604   1.887   5.711  1.00  0.00     0.044 A 
ATOM      7  C   UNL     1      10.682   2.674   6.079  1.00  0.00     0.165 A 
ATOM      8  F   UNL     1      10.724   3.224   7.313  1.00  0.00    -0.203 F 
BRANCH   3   9
ATOM      9  C   UNL     1      10.546   0.944   2.200  1.00  0.00     0.335 C 
ATOM     10  O   UNL     1       9.554   0.346   1.838  1.00  0.00    -0.246 OA
BRANCH   9  11
ATOM     11  O   UNL     1      11.601   1.064   1.371  1.00  0.00    -0.478 OA
ATOM     12  H   UNL     1      12.481   1.024   1.771  1.00  0.00     0.297 HD
ENDBRANCH   9  11
ENDBRANCH   3   9
ENDBRANCH   1   2
BRANCH   1  13
ATOM     13  C   UNL     1      13.062   4.818   4.725  1.00  0.00     0.230 C 
BRANCH  13  14
ATOM     14  C   UNL     1      12.566   6.088   5.418  1.00  0.00     0.046 C 
BRANCH  14  15
ATOM     15  C   UNL     1      13.141   7.315   4.706  1.00  0.00     0.043 C 
BRANCH  15  16
ATOM     16  C   UNL     1      14.234   7.919   5.549  1.00  0.00    -0.004 A 
ATOM     17  C   UNL     1      15.563   7.714   5.398  1.00  0.00     0.036 A 
ATOM     18  C   UNL     1      14.054   8.798   6.623  1.00  0.00     0.063 A 
ATOM     19  N   UNL     1      16.201   8.431   6.346  1.00  0.00    -0.282 N 
ATOM     20  N   UNL     1      15.232   9.100   7.105  1.00  0.00    -0.181 NA
ATOM     21  C   UNL     1      16.213   6.840   4.357  1.00  0.00     0.066 C 
ATOM     22  C   UNL     1      12.731   9.301   7.142  1.00  0.00     0.069 C 
ATOM     23  H   UNL     1      17.160   8.476   6.479  1.00  0.00     0.190 HD
ENDBRANCH  15  16
ENDBRANCH  14  15
ENDBRANCH  13  14
ENDBRANCH   1  13
TORSDOF 7
ENDMDL
