MODEL 1
REMARK VINA RESULT:    -4.412      0.000      0.000
REMARK INTER + INTRA:          -5.340
REMARK INTER:                  -5.057
REMARK INTRA:                  -0.283
REMARK UNBOUND:                -0.283
REMARK SMILES O=C(O)c1ccc2nc(-c3cc(Cl)cc(Cl)c3)oc2c1
REMARK SMILES IDX 5 1 6 2 20 3 8 4 18 5 4 6 9 7 7 8 19 9 2 10 1 11 3 12 10 14
REMARK SMILES IDX 11 15 17 16 12 17 15 18 14 19 13 20 16 21
REMARK H PARENT 3 13
ROOT
ATOM      1  C   UNL     1      15.933   8.844   5.093  1.00  0.00     0.018 A 
ATOM      2  C   UNL     1      15.987   7.483   5.123  1.00  0.00     0.033 A 
ATOM      3  C   UNL     1      13.515   8.775   5.263  1.00  0.00     0.065 A 
ATOM      4  N   UNL     1      14.547   5.412   5.271  1.00  0.00    -0.209 NA
ATOM      5  O   UNL     1      12.625   6.426   5.375  1.00  0.00    -0.436 OA
ATOM      6  C   UNL     1      14.699   9.507   5.164  1.00  0.00     0.063 A 
ATOM      7  C   UNL     1      13.253   5.235   5.363  1.00  0.00     0.227 A 
ATOM      8  C   UNL     1      14.806   6.736   5.221  1.00  0.00     0.110 A 
ATOM      9  C   UNL     1      13.565   7.394   5.288  1.00  0.00     0.156 A 
ENDROOT
BRANCH   6  10
ATOM     10  C   UNL     1      14.654  10.980   5.137  1.00  0.00     0.335 C 
ATOM     11  O   UNL     1      14.939  11.615   6.133  1.00  0.00    -0.246 OA
BRANCH  10  12
ATOM     12  O   UNL     1      14.293  11.623   4.009  1.00  0.00    -0.478 OA
ATOM     13  H   UNL     1      13.362  11.576   3.755  1.00  0.00     0.297 HD
ENDBRANCH  10  12
ENDBRANCH   6  10
BRANCH   7  14
ATOM     14  C   UNL     1      12.581   3.921   5.441  1.00  0.00     0.040 A 
ATOM     15  C   UNL     1      11.386   3.703   4.754  1.00  0.00     0.034 A 
ATOM     16  C   UNL     1      13.139   2.893   6.204  1.00  0.00     0.034 A 
ATOM     17  C   UNL     1      10.764   2.473   4.830  1.00  0.00     0.043 A 
ATOM     18  C   UNL     1      12.508   1.668   6.272  1.00  0.00     0.043 A 
ATOM     19  C   UNL     1      11.322   1.458   5.588  1.00  0.00     0.041 A 
ATOM     20  Cl  UNL     1       9.277   2.199   3.976  1.00  0.00    -0.084 Cl
ATOM     21  Cl  UNL     1      13.200   0.388   7.219  1.00  0.00    -0.084 Cl
ENDBRANCH   7  14
TORSDOF 3
ENDMDL
MODEL 2
REMARK VINA RESULT:    -4.409      0.013      2.019
REMARK INTER + INTRA:          -5.336
REMARK INTER:                  -5.053
REMARK INTRA:                  -0.283
REMARK UNBOUND:                -0.283
REMARK SMILES O=C(O)c1ccc2nc(-c3cc(Cl)cc(Cl)c3)oc2c1
REMARK SMILES IDX 5 1 6 2 20 3 8 4 18 5 4 6 9 7 7 8 19 9 2 10 1 11 3 12 10 14
REMARK SMILES IDX 11 15 17 16 12 17 15 18 14 19 13 20 16 21
REMARK H PARENT 3 13
ROOT
ATOM      1  C   UNL     1      15.935   8.846   5.079  1.00  0.00     0.018 A 
ATOM      2  C   UNL     1      15.987   7.484   5.108  1.00  0.00     0.033 A 
ATOM      3  C   UNL     1      13.517   8.781   5.258  1.00  0.00     0.065 A 
ATOM      4  N   UNL     1      14.544   5.416   5.261  1.00  0.00    -0.209 NA
ATOM      5  O   UNL     1      12.624   6.434   5.372  1.00  0.00    -0.436 OA
ATOM      6  C   UNL     1      14.703   9.511   5.155  1.00  0.00     0.063 A 
ATOM      7  C   UNL     1      13.249   5.241   5.357  1.00  0.00     0.227 A 
ATOM      8  C   UNL     1      14.805   6.740   5.210  1.00  0.00     0.110 A 
ATOM      9  C   UNL     1      13.565   7.399   5.283  1.00  0.00     0.156 A 
ENDROOT
BRANCH   6  10
ATOM     10  C   UNL     1      14.660  10.984   5.129  1.00  0.00     0.335 C 
ATOM     11  O   UNL     1      14.948  11.618   6.125  1.00  0.00    -0.246 OA
BRANCH  10  12
ATOM     12  O   UNL     1      14.299  11.628   4.001  1.00  0.00    -0.478 OA
ATOM     13  H   UNL     1      14.916  11.591   3.258  1.00  0.00     0.297 HD
ENDBRANCH  10  12
ENDBRANCH   6  10
BRANCH   7  14
ATOM     14  C   UNL     1      12.576   3.929   5.437  1.00  0.00     0.040 A 
ATOM     15  C   UNL     1      13.131   2.901   6.200  1.00  0.00     0.034 A 
ATOM     16  C   UNL     1      11.380   3.712   4.748  1.00  0.00     0.034 A 
ATOM     17  C   UNL     1      12.496   1.677   6.271  1.00  0.00     0.043 A 
ATOM     18  C   UNL     1      10.755   2.484   4.827  1.00  0.00     0.043 A 
ATOM     19  C   UNL     1      11.311   1.468   5.585  1.00  0.00     0.041 A 
ATOM     20  Cl  UNL     1      13.184   0.397   7.220  1.00  0.00    -0.084 Cl
ATOM     21  Cl  UNL     1       9.269   2.213   3.971  1.00  0.00    -0.084 Cl
ENDBRANCH   7  14
TORSDOF 3
ENDMDL
MODEL 3
REMARK VINA RESULT:    -4.130      3.599      5.663
REMARK INTER + INTRA:          -5.017
REMARK INTER:                  -4.721
REMARK INTRA:                  -0.296
REMARK UNBOUND:                -0.283
REMARK SMILES O=C(O)c1ccc2nc(-c3cc(Cl)cc(Cl)c3)oc2c1
REMARK SMILES IDX 5 1 6 2 20 3 8 4 18 5 4 6 9 7 7 8 19 9 2 10 1 11 3 12 10 14
REMARK SMILES IDX 11 15 17 16 12 17 15 18 14 19 13 20 16 21
REMARK H PARENT 3 13
ROOT
ATOM      1  C   UNL     1      13.912   3.281   6.324  1.00  0.00     0.018 A 
ATOM      2  C   UNL     1      12.982   2.295   6.466  1.00  0.00     0.033 A 
ATOM      3  C   UNL     1      12.461   4.462   4.781  1.00  0.00     0.065 A 
ATOM      4  N   UNL     1      10.685   1.570   5.706  1.00  0.00    -0.209 NA
ATOM      5  O   UNL     1      10.289   3.258   4.391  1.00  0.00    -0.436 OA
ATOM      6  C   UNL     1      13.665   4.375   5.484  1.00  0.00     0.063 A 
ATOM      7  C   UNL     1       9.810   2.102   4.888  1.00  0.00     0.227 A 
ATOM      8  C   UNL     1      11.771   2.370   5.768  1.00  0.00     0.110 A 
ATOM      9  C   UNL     1      11.517   3.462   4.919  1.00  0.00     0.156 A 
ENDROOT
BRANCH   6  10
ATOM     10  C   UNL     1      14.676   5.438   5.343  1.00  0.00     0.335 C 
ATOM     11  O   UNL     1      14.523   6.317   4.518  1.00  0.00    -0.246 OA
BRANCH  10  12
ATOM     12  O   UNL     1      15.772   5.434   6.127  1.00  0.00    -0.478 OA
ATOM     13  H   UNL     1      16.385   4.695   6.022  1.00  0.00     0.297 HD
ENDBRANCH  10  12
ENDBRANCH   6  10
BRANCH   7  14
ATOM     14  C   UNL     1       8.493   1.518   4.561  1.00  0.00     0.040 A 
ATOM     15  C   UNL     1       7.857   0.668   5.467  1.00  0.00     0.034 A 
ATOM     16  C   UNL     1       7.879   1.816   3.342  1.00  0.00     0.034 A 
ATOM     17  C   UNL     1       6.626   0.127   5.155  1.00  0.00     0.043 A 
ATOM     18  C   UNL     1       6.647   1.269   3.042  1.00  0.00     0.043 A 
ATOM     19  C   UNL     1       6.022   0.426   3.945  1.00  0.00     0.041 A 
ATOM     20  Cl  UNL     1       5.834  -0.930   6.280  1.00  0.00    -0.084 Cl
ATOM     21  Cl  UNL     1       5.882   1.637   1.527  1.00  0.00    -0.084 Cl
ENDBRANCH   7  14
TORSDOF 3
ENDMDL
MODEL 4
REMARK VINA RESULT:    -4.125      3.580      5.394
REMARK INTER + INTRA:          -5.011
REMARK INTER:                  -4.716
REMARK INTRA:                  -0.296
REMARK UNBOUND:                -0.283
REMARK SMILES O=C(O)c1ccc2nc(-c3cc(Cl)cc(Cl)c3)oc2c1
REMARK SMILES IDX 5 1 6 2 20 3 8 4 18 5 4 6 9 7 7 8 19 9 2 10 1 11 3 12 10 14
REMARK SMILES IDX 11 15 17 16 12 17 15 18 14 19 13 20 16 21
REMARK H PARENT 3 13
ROOT
ATOM      1  C   UNL     1      13.923   3.301   6.305  1.00  0.00     0.018 A 
ATOM      2  C   UNL     1      12.996   2.312   6.446  1.00  0.00     0.033 A 
ATOM      3  C   UNL     1      12.461   4.484   4.774  1.00  0.00     0.065 A 
ATOM      4  N   UNL     1      10.698   1.582   5.692  1.00  0.00    -0.209 NA
ATOM      5  O   UNL     1      10.291   3.275   4.388  1.00  0.00    -0.436 OA
ATOM      6  C   UNL     1      13.668   4.398   5.470  1.00  0.00     0.063 A 
ATOM      7  C   UNL     1       9.818   2.116   4.882  1.00  0.00     0.227 A 
ATOM      8  C   UNL     1      11.781   2.386   5.753  1.00  0.00     0.110 A 
ATOM      9  C   UNL     1      11.520   3.481   4.911  1.00  0.00     0.156 A 
ENDROOT
BRANCH   6  10
ATOM     10  C   UNL     1      14.676   5.465   5.330  1.00  0.00     0.335 C 
ATOM     11  O   UNL     1      14.504   6.361   4.528  1.00  0.00    -0.246 OA
BRANCH  10  12
ATOM     12  O   UNL     1      15.788   5.446   6.090  1.00  0.00    -0.478 OA
ATOM     13  H   UNL     1      15.701   5.745   7.005  1.00  0.00     0.297 HD
ENDBRANCH  10  12
ENDBRANCH   6  10
BRANCH   7  14
ATOM     14  C   UNL     1       8.501   1.530   4.557  1.00  0.00     0.040 A 
ATOM     15  C   UNL     1       7.884   1.822   3.340  1.00  0.00     0.034 A 
ATOM     16  C   UNL     1       7.868   0.682   5.468  1.00  0.00     0.034 A 
ATOM     17  C   UNL     1       6.654   1.271   3.042  1.00  0.00     0.043 A 
ATOM     18  C   UNL     1       6.638   0.136   5.159  1.00  0.00     0.043 A 
ATOM     19  C   UNL     1       6.031   0.430   3.950  1.00  0.00     0.041 A 
ATOM     20  Cl  UNL     1       5.885   1.632   1.528  1.00  0.00    -0.084 Cl
ATOM     21  Cl  UNL     1       5.849  -0.919   6.290  1.00  0.00    -0.084 Cl
ENDBRANCH   7  14
TORSDOF 3
ENDMDL
MODEL 5
REMARK VINA RESULT:    -4.108      5.115      6.605
REMARK INTER + INTRA:          -4.991
REMARK INTER:                  -4.695
REMARK INTRA:                  -0.296
REMARK UNBOUND:                -0.283
REMARK SMILES O=C(O)c1ccc2nc(-c3cc(Cl)cc(Cl)c3)oc2c1
REMARK SMILES IDX 5 1 6 2 20 3 8 4 18 5 4 6 9 7 7 8 19 9 2 10 1 11 3 12 10 14
REMARK SMILES IDX 11 15 17 16 12 17 15 18 14 19 13 20 16 21
REMARK H PARENT 3 13
ROOT
ATOM      1  C   UNL     1      13.855   3.438   6.241  1.00  0.00     0.018 A 
ATOM      2  C   UNL     1      12.802   3.692   5.415  1.00  0.00     0.033 A 
ATOM      3  C   UNL     1      12.845   1.343   6.925  1.00  0.00     0.065 A 
ATOM      4  N   UNL     1      10.598   2.752   4.615  1.00  0.00    -0.209 NA
ATOM      5  O   UNL     1      10.636   0.927   5.799  1.00  0.00    -0.436 OA
ATOM      6  C   UNL     1      13.892   2.263   7.004  1.00  0.00     0.063 A 
ATOM      7  C   UNL     1       9.945   1.653   4.900  1.00  0.00     0.227 A 
ATOM      8  C   UNL     1      11.746   2.777   5.325  1.00  0.00     0.110 A 
ATOM      9  C   UNL     1      11.772   1.598   6.091  1.00  0.00     0.156 A 
ENDROOT
BRANCH   6  10
ATOM     10  C   UNL     1      15.039   1.997   7.891  1.00  0.00     0.335 C 
ATOM     11  O   UNL     1      15.067   0.983   8.560  1.00  0.00    -0.246 OA
BRANCH  10  12
ATOM     12  O   UNL     1      16.057   2.878   7.960  1.00  0.00    -0.478 OA
ATOM     13  H   UNL     1      15.832   3.815   7.880  1.00  0.00     0.297 HD
ENDBRANCH  10  12
ENDBRANCH   6  10
BRANCH   7  14
ATOM     14  C   UNL     1       8.642   1.267   4.320  1.00  0.00     0.040 A 
ATOM     15  C   UNL     1       8.267   1.739   3.062  1.00  0.00     0.034 A 
ATOM     16  C   UNL     1       7.780   0.428   5.030  1.00  0.00     0.034 A 
ATOM     17  C   UNL     1       7.048   1.374   2.525  1.00  0.00     0.043 A 
ATOM     18  C   UNL     1       6.564   0.070   4.482  1.00  0.00     0.043 A 
ATOM     19  C   UNL     1       6.198   0.543   3.234  1.00  0.00     0.041 A 
ATOM     20  Cl  UNL     1       6.580   1.960   0.959  1.00  0.00    -0.084 Cl
ATOM     21  Cl  UNL     1       5.491  -0.973   5.363  1.00  0.00    -0.084 Cl
ENDBRANCH   7  14
TORSDOF 3
ENDMDL
MODEL 6
REMARK VINA RESULT:    -4.100      5.112      6.763
REMARK INTER + INTRA:          -4.982
REMARK INTER:                  -4.686
REMARK INTRA:                  -0.296
REMARK UNBOUND:                -0.283
REMARK SMILES O=C(O)c1ccc2nc(-c3cc(Cl)cc(Cl)c3)oc2c1
REMARK SMILES IDX 5 1 6 2 20 3 8 4 18 5 4 6 9 7 7 8 19 9 2 10 1 11 3 12 10 14
REMARK SMILES IDX 11 15 17 16 12 17 15 18 14 19 13 20 16 21
REMARK H PARENT 3 13
ROOT
ATOM      1  C   UNL     1      13.857   3.441   6.242  1.00  0.00     0.018 A 
ATOM      2  C   UNL     1      12.803   3.693   5.416  1.00  0.00     0.033 A 
ATOM      3  C   UNL     1      12.849   1.345   6.928  1.00  0.00     0.065 A 
ATOM      4  N   UNL     1      10.599   2.752   4.618  1.00  0.00    -0.209 NA
ATOM      5  O   UNL     1      10.640   0.927   5.803  1.00  0.00    -0.436 OA
ATOM      6  C   UNL     1      13.895   2.266   7.006  1.00  0.00     0.063 A 
ATOM      7  C   UNL     1       9.947   1.652   4.903  1.00  0.00     0.227 A 
ATOM      8  C   UNL     1      11.747   2.778   5.328  1.00  0.00     0.110 A 
ATOM      9  C   UNL     1      11.775   1.599   6.094  1.00  0.00     0.156 A 
ENDROOT
BRANCH   6  10
ATOM     10  C   UNL     1      15.043   2.001   7.892  1.00  0.00     0.335 C 
ATOM     11  O   UNL     1      15.073   0.987   8.560  1.00  0.00    -0.246 OA
BRANCH  10  12
ATOM     12  O   UNL     1      16.058   2.885   7.962  1.00  0.00    -0.478 OA
ATOM     13  H   UNL     1      16.501   2.978   8.816  1.00  0.00     0.297 HD
ENDBRANCH  10  12
ENDBRANCH   6  10
BRANCH   7  14
ATOM     14  C   UNL     1       8.644   1.265   4.324  1.00  0.00     0.040 A 
ATOM     15  C   UNL     1       7.783   0.426   5.033  1.00  0.00     0.034 A 
ATOM     16  C   UNL     1       8.270   1.737   3.065  1.00  0.00     0.034 A 
ATOM     17  C   UNL     1       6.566   0.069   4.487  1.00  0.00     0.043 A 
ATOM     18  C   UNL     1       7.050   1.373   2.529  1.00  0.00     0.043 A 
ATOM     19  C   UNL     1       6.201   0.540   3.237  1.00  0.00     0.041 A 
ATOM     20  Cl  UNL     1       5.494  -0.974   5.367  1.00  0.00    -0.084 Cl
ATOM     21  Cl  UNL     1       6.583   1.959   0.963  1.00  0.00    -0.084 Cl
ENDBRANCH   7  14
TORSDOF 3
ENDMDL
MODEL 7
REMARK VINA RESULT:    -3.949      5.012      8.644
REMARK INTER + INTRA:          -4.809
REMARK INTER:                  -4.511
REMARK INTRA:                  -0.298
REMARK UNBOUND:                -0.283
REMARK SMILES O=C(O)c1ccc2nc(-c3cc(Cl)cc(Cl)c3)oc2c1
REMARK SMILES IDX 5 1 6 2 20 3 8 4 18 5 4 6 9 7 7 8 19 9 2 10 1 11 3 12 10 14
REMARK SMILES IDX 11 15 17 16 12 17 15 18 14 19 13 20 16 21
REMARK H PARENT 3 13
ROOT
ATOM      1  C   UNL     1       6.356  -0.152   4.582  1.00  0.00     0.018 A 
ATOM      2  C   UNL     1       7.462  -0.183   5.378  1.00  0.00     0.033 A 
ATOM      3  C   UNL     1       7.270   1.719   3.341  1.00  0.00     0.065 A 
ATOM      4  N   UNL     1       9.682   0.951   5.784  1.00  0.00    -0.209 NA
ATOM      5  O   UNL     1       9.523   2.433   4.199  1.00  0.00    -0.436 OA
ATOM      6  C   UNL     1       6.246   0.795   3.555  1.00  0.00     0.063 A 
ATOM      7  C   UNL     1      10.286   1.956   5.201  1.00  0.00     0.227 A 
ATOM      8  C   UNL     1       8.496   0.739   5.175  1.00  0.00     0.110 A 
ATOM      9  C   UNL     1       8.392   1.695   4.150  1.00  0.00     0.156 A 
ENDROOT
BRANCH   6  10
ATOM     10  C   UNL     1       5.048   0.814   2.697  1.00  0.00     0.335 C 
ATOM     11  O   UNL     1       4.162   0.001   2.872  1.00  0.00    -0.246 OA
BRANCH  10  12
ATOM     12  O   UNL     1       4.935   1.732   1.717  1.00  0.00    -0.478 OA
ATOM     13  H   UNL     1       5.466   2.535   1.803  1.00  0.00     0.297 HD
ENDBRANCH  10  12
ENDBRANCH   6  10
BRANCH   7  14
ATOM     14  C   UNL     1      11.610   2.489   5.586  1.00  0.00     0.040 A 
ATOM     15  C   UNL     1      12.039   3.722   5.096  1.00  0.00     0.034 A 
ATOM     16  C   UNL     1      12.436   1.758   6.443  1.00  0.00     0.034 A 
ATOM     17  C   UNL     1      13.277   4.215   5.461  1.00  0.00     0.043 A 
ATOM     18  C   UNL     1      13.671   2.261   6.800  1.00  0.00     0.043 A 
ATOM     19  C   UNL     1      14.091   3.485   6.310  1.00  0.00     0.041 A 
ATOM     20  Cl  UNL     1      13.813   5.749   4.852  1.00  0.00    -0.084 Cl
ATOM     21  Cl  UNL     1      14.700   1.354   7.865  1.00  0.00    -0.084 Cl
ENDBRANCH   7  14
TORSDOF 3
ENDMDL
MODEL 8
REMARK VINA RESULT:    -3.940      5.013      8.811
REMARK INTER + INTRA:          -4.799
REMARK INTER:                  -4.501
REMARK INTRA:                  -0.298
REMARK UNBOUND:                -0.283
REMARK SMILES O=C(O)c1ccc2nc(-c3cc(Cl)cc(Cl)c3)oc2c1
REMARK SMILES IDX 5 1 6 2 20 3 8 4 18 5 4 6 9 7 7 8 19 9 2 10 1 11 3 12 10 14
REMARK SMILES IDX 11 15 17 16 12 17 15 18 14 19 13 20 16 21
REMARK H PARENT 3 13
ROOT
ATOM      1  C   UNL     1       6.356  -0.147   4.582  1.00  0.00     0.018 A 
ATOM      2  C   UNL     1       7.460  -0.178   5.380  1.00  0.00     0.033 A 
ATOM      3  C   UNL     1       7.277   1.720   3.339  1.00  0.00     0.065 A 
ATOM      4  N   UNL     1       9.683   0.952   5.788  1.00  0.00    -0.209 NA
ATOM      5  O   UNL     1       9.530   2.431   4.199  1.00  0.00    -0.436 OA
ATOM      6  C   UNL     1       6.250   0.798   3.553  1.00  0.00     0.063 A 
ATOM      7  C   UNL     1      10.290   1.955   5.203  1.00  0.00     0.227 A 
ATOM      8  C   UNL     1       8.497   0.741   5.177  1.00  0.00     0.110 A 
ATOM      9  C   UNL     1       8.397   1.695   4.149  1.00  0.00     0.156 A 
ENDROOT
BRANCH   6  10
ATOM     10  C   UNL     1       5.054   0.818   2.692  1.00  0.00     0.335 C 
ATOM     11  O   UNL     1       4.167   0.006   2.867  1.00  0.00    -0.246 OA
BRANCH  10  12
ATOM     12  O   UNL     1       4.944   1.735   1.710  1.00  0.00    -0.478 OA
ATOM     13  H   UNL     1       4.990   1.412   0.801  1.00  0.00     0.297 HD
ENDBRANCH  10  12
ENDBRANCH   6  10
BRANCH   7  14
ATOM     14  C   UNL     1      11.614   2.485   5.590  1.00  0.00     0.040 A 
ATOM     15  C   UNL     1      12.439   1.755   6.446  1.00  0.00     0.034 A 
ATOM     16  C   UNL     1      12.043   3.721   5.101  1.00  0.00     0.034 A 
ATOM     17  C   UNL     1      13.676   2.255   6.803  1.00  0.00     0.043 A 
ATOM     18  C   UNL     1      13.282   4.211   5.465  1.00  0.00     0.043 A 
ATOM     19  C   UNL     1      14.096   3.481   6.314  1.00  0.00     0.041 A 
ATOM     20  Cl  UNL     1      14.704   1.348   7.866  1.00  0.00    -0.084 Cl
ATOM     21  Cl  UNL     1      13.818   5.746   4.858  1.00  0.00    -0.084 Cl
ENDBRANCH   7  14
TORSDOF 3
ENDMDL
MODEL 9
REMARK VINA RESULT:    -3.893      5.640      8.032
REMARK INTER + INTRA:          -4.745
REMARK INTER:                  -4.459
REMARK INTRA:                  -0.287
REMARK UNBOUND:                -0.283
REMARK SMILES O=C(O)c1ccc2nc(-c3cc(Cl)cc(Cl)c3)oc2c1
REMARK SMILES IDX 5 1 6 2 20 3 8 4 18 5 4 6 9 7 7 8 19 9 2 10 1 11 3 12 10 14
REMARK SMILES IDX 11 15 17 16 12 17 15 18 14 19 13 20 16 21
REMARK H PARENT 3 13
ROOT
ATOM      1  C   UNL     1       6.800   2.182   3.791  1.00  0.00     0.018 A 
ATOM      2  C   UNL     1       7.508   2.292   4.950  1.00  0.00     0.033 A 
ATOM      3  C   UNL     1       8.816   1.575   2.589  1.00  0.00     0.065 A 
ATOM      4  N   UNL     1       9.831   2.077   5.920  1.00  0.00    -0.209 NA
ATOM      5  O   UNL     1      10.844   1.524   4.075  1.00  0.00    -0.436 OA
ATOM      6  C   UNL     1       7.442   1.821   2.599  1.00  0.00     0.063 A 
ATOM      7  C   UNL     1      10.989   1.764   5.392  1.00  0.00     0.227 A 
ATOM      8  C   UNL     1       8.887   2.048   4.955  1.00  0.00     0.110 A 
ATOM      9  C   UNL     1       9.540   1.691   3.762  1.00  0.00     0.156 A 
ENDROOT
BRANCH   6  10
ATOM     10  C   UNL     1       6.665   1.700   1.352  1.00  0.00     0.335 C 
ATOM     11  O   UNL     1       5.503   2.055   1.324  1.00  0.00    -0.246 OA
BRANCH  10  12
ATOM     12  O   UNL     1       7.241   1.193   0.244  1.00  0.00    -0.478 OA
ATOM     13  H   UNL     1       6.673   1.065  -0.527  1.00  0.00     0.297 HD
ENDBRANCH  10  12
ENDBRANCH   6  10
BRANCH   7  14
ATOM     14  C   UNL     1      12.265   1.689   6.133  1.00  0.00     0.040 A 
ATOM     15  C   UNL     1      12.624   0.513   6.793  1.00  0.00     0.034 A 
ATOM     16  C   UNL     1      13.116   2.795   6.176  1.00  0.00     0.034 A 
ATOM     17  C   UNL     1      13.818   0.448   7.483  1.00  0.00     0.043 A 
ATOM     18  C   UNL     1      14.308   2.718   6.869  1.00  0.00     0.043 A 
ATOM     19  C   UNL     1      14.658   1.548   7.521  1.00  0.00     0.041 A 
ATOM     20  Cl  UNL     1      14.267  -1.014   8.304  1.00  0.00    -0.084 Cl
ATOM     21  Cl  UNL     1      15.368   4.092   6.923  1.00  0.00    -0.084 Cl
ENDBRANCH   7  14
TORSDOF 3
ENDMDL
