MODEL 1
REMARK VINA RESULT:    -5.007      0.000      0.000
REMARK INTER + INTRA:          -6.034
REMARK INTER:                  -5.739
REMARK INTRA:                  -0.295
REMARK UNBOUND:                -0.295
REMARK SMILES O=C(O)c1ccc2nc(-c3cc(Cl)cc(Cl)c3)oc2c1
REMARK SMILES IDX 5 1 6 2 20 3 8 4 18 5 4 6 9 7 7 8 19 9 2 10 1 11 3 12 10 14
REMARK SMILES IDX 11 15 17 16 12 17 15 18 14 19 13 20 16 21
REMARK H PARENT 3 13
ROOT
ATOM      1  C   UNL     1       2.140  -0.717   3.474  1.00  0.00     0.018 A 
ATOM      2  C   UNL     1       1.515  -0.601   2.268  1.00  0.00     0.033 A 
ATOM      3  C   UNL     1       0.093  -0.104   4.620  1.00  0.00     0.065 A 
ATOM      4  N   UNL     1      -0.702  -0.042   1.194  1.00  0.00    -0.209 NA
ATOM      5  O   UNL     1      -1.801   0.349   3.030  1.00  0.00    -0.436 OA
ATOM      6  C   UNL     1       1.438  -0.473   4.663  1.00  0.00     0.063 A 
ATOM      7  C   UNL     1      -1.866   0.302   1.686  1.00  0.00     0.227 A 
ATOM      8  C   UNL     1       0.165  -0.233   2.211  1.00  0.00     0.110 A 
ATOM      9  C   UNL     1      -0.544   0.019   3.399  1.00  0.00     0.156 A 
ENDROOT
BRANCH   6  10
ATOM     10  C   UNL     1       2.123  -0.607   5.961  1.00  0.00     0.335 C 
ATOM     11  O   UNL     1       3.309  -0.357   6.051  1.00  0.00    -0.246 OA
BRANCH  10  12
ATOM     12  O   UNL     1       1.435  -1.006   7.049  1.00  0.00    -0.478 OA
ATOM     13  H   UNL     1       1.075  -0.314   7.620  1.00  0.00     0.297 HD
ENDBRANCH  10  12
ENDBRANCH   6  10
BRANCH   7  14
ATOM     14  C   UNL     1      -3.071   0.597   0.884  1.00  0.00     0.040 A 
ATOM     15  C   UNL     1      -3.008   0.576  -0.510  1.00  0.00     0.034 A 
ATOM     16  C   UNL     1      -4.279   0.897   1.518  1.00  0.00     0.034 A 
ATOM     17  C   UNL     1      -4.139   0.851  -1.254  1.00  0.00     0.043 A 
ATOM     18  C   UNL     1      -5.402   1.170   0.764  1.00  0.00     0.043 A 
ATOM     19  C   UNL     1      -5.333   1.149  -0.619  1.00  0.00     0.041 A 
ATOM     20  Cl  UNL     1      -4.063   0.826  -2.988  1.00  0.00    -0.084 Cl
ATOM     21  Cl  UNL     1      -6.904   1.544   1.550  1.00  0.00    -0.084 Cl
ENDBRANCH   7  14
TORSDOF 3
ENDMDL
MODEL 2
REMARK VINA RESULT:    -5.003      0.022      2.020
REMARK INTER + INTRA:          -6.030
REMARK INTER:                  -5.735
REMARK INTRA:                  -0.295
REMARK UNBOUND:                -0.295
REMARK SMILES O=C(O)c1ccc2nc(-c3cc(Cl)cc(Cl)c3)oc2c1
REMARK SMILES IDX 5 1 6 2 20 3 8 4 18 5 4 6 9 7 7 8 19 9 2 10 1 11 3 12 10 14
REMARK SMILES IDX 11 15 17 16 12 17 15 18 14 19 13 20 16 21
REMARK H PARENT 3 13
ROOT
ATOM      1  C   UNL     1       2.143  -0.743   3.472  1.00  0.00     0.018 A 
ATOM      2  C   UNL     1       1.512  -0.638   2.269  1.00  0.00     0.033 A 
ATOM      3  C   UNL     1       0.110  -0.091   4.622  1.00  0.00     0.065 A 
ATOM      4  N   UNL     1      -0.705  -0.071   1.199  1.00  0.00    -0.209 NA
ATOM      5  O   UNL     1      -1.789   0.359   3.036  1.00  0.00    -0.436 OA
ATOM      6  C   UNL     1       1.452  -0.473   4.662  1.00  0.00     0.063 A 
ATOM      7  C   UNL     1      -1.862   0.293   1.693  1.00  0.00     0.227 A 
ATOM      8  C   UNL     1       0.166  -0.256   2.214  1.00  0.00     0.110 A 
ATOM      9  C   UNL     1      -0.533   0.021   3.402  1.00  0.00     0.156 A 
ENDROOT
BRANCH   6  10
ATOM     10  C   UNL     1       2.143  -0.595   5.958  1.00  0.00     0.335 C 
ATOM     11  O   UNL     1       3.324  -0.323   6.044  1.00  0.00    -0.246 OA
BRANCH  10  12
ATOM     12  O   UNL     1       1.466  -1.010   7.047  1.00  0.00    -0.478 OA
ATOM     13  H   UNL     1       1.595  -0.507   7.862  1.00  0.00     0.297 HD
ENDBRANCH  10  12
ENDBRANCH   6  10
BRANCH   7  14
ATOM     14  C   UNL     1      -3.069   0.589   0.894  1.00  0.00     0.040 A 
ATOM     15  C   UNL     1      -4.274   0.891   1.529  1.00  0.00     0.034 A 
ATOM     16  C   UNL     1      -3.009   0.565  -0.501  1.00  0.00     0.034 A 
ATOM     17  C   UNL     1      -5.398   1.168   0.777  1.00  0.00     0.043 A 
ATOM     18  C   UNL     1      -4.139   0.843  -1.242  1.00  0.00     0.043 A 
ATOM     19  C   UNL     1      -5.332   1.143  -0.606  1.00  0.00     0.041 A 
ATOM     20  Cl  UNL     1      -6.898   1.545   1.565  1.00  0.00    -0.084 Cl
ATOM     21  Cl  UNL     1      -4.066   0.815  -2.977  1.00  0.00    -0.084 Cl
ENDBRANCH   7  14
TORSDOF 3
ENDMDL
MODEL 3
REMARK VINA RESULT:    -4.550     14.496     14.960
REMARK INTER + INTRA:          -5.510
REMARK INTER:                  -5.227
REMARK INTRA:                  -0.283
REMARK UNBOUND:                -0.295
REMARK SMILES O=C(O)c1ccc2nc(-c3cc(Cl)cc(Cl)c3)oc2c1
REMARK SMILES IDX 5 1 6 2 20 3 8 4 18 5 4 6 9 7 7 8 19 9 2 10 1 11 3 12 10 14
REMARK SMILES IDX 11 15 17 16 12 17 15 18 14 19 13 20 16 21
REMARK H PARENT 3 13
ROOT
ATOM      1  C   UNL     1       1.215 -17.271  -1.575  1.00  0.00     0.018 A 
ATOM      2  C   UNL     1       0.013 -16.678  -1.820  1.00  0.00     0.033 A 
ATOM      3  C   UNL     1       1.867 -15.419  -0.153  1.00  0.00     0.065 A 
ATOM      4  N   UNL     1      -1.366 -14.628  -1.293  1.00  0.00    -0.209 NA
ATOM      5  O   UNL     1       0.086 -13.651   0.001  1.00  0.00    -0.436 OA
ATOM      6  C   UNL     1       2.155 -16.652  -0.739  1.00  0.00     0.063 A 
ATOM      7  C   UNL     1      -1.138 -13.569  -0.556  1.00  0.00     0.227 A 
ATOM      8  C   UNL     1      -0.288 -15.440  -1.239  1.00  0.00     0.110 A 
ATOM      9  C   UNL     1       0.651 -14.811  -0.403  1.00  0.00     0.156 A 
ENDROOT
BRANCH   6  10
ATOM     10  C   UNL     1       3.449 -17.307  -0.476  1.00  0.00     0.335 C 
ATOM     11  O   UNL     1       3.535 -18.159   0.386  1.00  0.00    -0.246 OA
BRANCH  10  12
ATOM     12  O   UNL     1       4.538 -16.960  -1.190  1.00  0.00    -0.478 OA
ATOM     13  H   UNL     1       4.588 -16.045  -1.499  1.00  0.00     0.297 HD
ENDBRANCH  10  12
ENDBRANCH   6  10
BRANCH   7  14
ATOM     14  C   UNL     1      -2.084 -12.451  -0.365  1.00  0.00     0.040 A 
ATOM     15  C   UNL     1      -3.451 -12.701  -0.246  1.00  0.00     0.034 A 
ATOM     16  C   UNL     1      -1.612 -11.138  -0.302  1.00  0.00     0.034 A 
ATOM     17  C   UNL     1      -4.330 -11.652  -0.066  1.00  0.00     0.043 A 
ATOM     18  C   UNL     1      -2.501 -10.097  -0.122  1.00  0.00     0.043 A 
ATOM     19  C   UNL     1      -3.857 -10.352  -0.006  1.00  0.00     0.041 A 
ATOM     20  Cl  UNL     1      -6.032 -11.961   0.082  1.00  0.00    -0.084 Cl
ATOM     21  Cl  UNL     1      -1.917  -8.463  -0.045  1.00  0.00    -0.084 Cl
ENDBRANCH   7  14
TORSDOF 3
ENDMDL
MODEL 4
REMARK VINA RESULT:    -4.547     14.496     14.912
REMARK INTER + INTRA:          -5.507
REMARK INTER:                  -5.224
REMARK INTRA:                  -0.283
REMARK UNBOUND:                -0.295
REMARK SMILES O=C(O)c1ccc2nc(-c3cc(Cl)cc(Cl)c3)oc2c1
REMARK SMILES IDX 5 1 6 2 20 3 8 4 18 5 4 6 9 7 7 8 19 9 2 10 1 11 3 12 10 14
REMARK SMILES IDX 11 15 17 16 12 17 15 18 14 19 13 20 16 21
REMARK H PARENT 3 13
ROOT
ATOM      1  C   UNL     1       1.229 -17.277  -1.549  1.00  0.00     0.018 A 
ATOM      2  C   UNL     1       0.025 -16.689  -1.797  1.00  0.00     0.033 A 
ATOM      3  C   UNL     1       1.877 -15.412  -0.142  1.00  0.00     0.065 A 
ATOM      4  N   UNL     1      -1.359 -14.638  -1.284  1.00  0.00    -0.209 NA
ATOM      5  O   UNL     1       0.091 -13.648   0.000  1.00  0.00    -0.436 OA
ATOM      6  C   UNL     1       2.168 -16.649  -0.718  1.00  0.00     0.063 A 
ATOM      7  C   UNL     1      -1.133 -13.574  -0.555  1.00  0.00     0.227 A 
ATOM      8  C   UNL     1      -0.279 -15.447  -1.225  1.00  0.00     0.110 A 
ATOM      9  C   UNL     1       0.659 -14.809  -0.395  1.00  0.00     0.156 A 
ENDROOT
BRANCH   6  10
ATOM     10  C   UNL     1       3.464 -17.298  -0.452  1.00  0.00     0.335 C 
ATOM     11  O   UNL     1       3.548 -18.162   0.397  1.00  0.00    -0.246 OA
BRANCH  10  12
ATOM     12  O   UNL     1       4.558 -16.932  -1.151  1.00  0.00    -0.478 OA
ATOM     13  H   UNL     1       5.100 -16.225  -0.778  1.00  0.00     0.297 HD
ENDBRANCH  10  12
ENDBRANCH   6  10
BRANCH   7  14
ATOM     14  C   UNL     1      -2.082 -12.456  -0.371  1.00  0.00     0.040 A 
ATOM     15  C   UNL     1      -1.616 -11.141  -0.326  1.00  0.00     0.034 A 
ATOM     16  C   UNL     1      -3.448 -12.712  -0.240  1.00  0.00     0.034 A 
ATOM     17  C   UNL     1      -2.508 -10.101  -0.155  1.00  0.00     0.043 A 
ATOM     18  C   UNL     1      -4.330 -11.664  -0.070  1.00  0.00     0.043 A 
ATOM     19  C   UNL     1      -3.862 -10.362  -0.026  1.00  0.00     0.041 A 
ATOM     20  Cl  UNL     1      -1.932  -8.465  -0.099  1.00  0.00    -0.084 Cl
ATOM     21  Cl  UNL     1      -6.030 -11.979   0.093  1.00  0.00    -0.084 Cl
ENDBRANCH   7  14
TORSDOF 3
ENDMDL
MODEL 5
REMARK VINA RESULT:    -4.540     11.218     11.858
REMARK INTER + INTRA:          -5.499
REMARK INTER:                  -5.208
REMARK INTRA:                  -0.291
REMARK UNBOUND:                -0.295
REMARK SMILES O=C(O)c1ccc2nc(-c3cc(Cl)cc(Cl)c3)oc2c1
REMARK SMILES IDX 5 1 6 2 20 3 8 4 18 5 4 6 9 7 7 8 19 9 2 10 1 11 3 12 10 14
REMARK SMILES IDX 11 15 17 16 12 17 15 18 14 19 13 20 16 21
REMARK H PARENT 3 13
ROOT
ATOM      1  C   UNL     1      -2.787 -13.742  -0.632  1.00  0.00     0.018 A 
ATOM      2  C   UNL     1      -1.959 -12.659  -0.625  1.00  0.00     0.033 A 
ATOM      3  C   UNL     1      -4.638 -12.362   0.108  1.00  0.00     0.065 A 
ATOM      4  N   UNL     1      -1.891 -10.180  -0.145  1.00  0.00    -0.209 NA
ATOM      5  O   UNL     1      -3.978  -9.958   0.429  1.00  0.00    -0.436 OA
ATOM      6  C   UNL     1      -4.134 -13.608  -0.269  1.00  0.00     0.063 A 
ATOM      7  C   UNL     1      -2.801  -9.327   0.256  1.00  0.00     0.227 A 
ATOM      8  C   UNL     1      -2.452 -11.404  -0.249  1.00  0.00     0.110 A 
ATOM      9  C   UNL     1      -3.801 -11.262   0.122  1.00  0.00     0.156 A 
ENDROOT
BRANCH   6  10
ATOM     10  C   UNL     1      -5.021 -14.785  -0.287  1.00  0.00     0.335 C 
ATOM     11  O   UNL     1      -6.170 -14.675  -0.666  1.00  0.00    -0.246 OA
BRANCH  10  12
ATOM     12  O   UNL     1      -4.558 -15.985   0.119  1.00  0.00    -0.478 OA
ATOM     13  H   UNL     1      -4.103 -16.525  -0.540  1.00  0.00     0.297 HD
ENDBRANCH  10  12
ENDBRANCH   6  10
BRANCH   7  14
ATOM     14  C   UNL     1      -2.568  -7.886   0.486  1.00  0.00     0.040 A 
ATOM     15  C   UNL     1      -1.616  -7.200  -0.269  1.00  0.00     0.034 A 
ATOM     16  C   UNL     1      -3.300  -7.206   1.461  1.00  0.00     0.034 A 
ATOM     17  C   UNL     1      -1.405  -5.853  -0.050  1.00  0.00     0.043 A 
ATOM     18  C   UNL     1      -3.080  -5.859   1.671  1.00  0.00     0.043 A 
ATOM     19  C   UNL     1      -2.134  -5.184   0.918  1.00  0.00     0.041 A 
ATOM     20  Cl  UNL     1      -0.222  -4.998  -0.989  1.00  0.00    -0.084 Cl
ATOM     21  Cl  UNL     1      -3.989  -5.011   2.883  1.00  0.00    -0.084 Cl
ENDBRANCH   7  14
TORSDOF 3
ENDMDL
MODEL 6
REMARK VINA RESULT:    -4.538     11.218     12.023
REMARK INTER + INTRA:          -5.497
REMARK INTER:                  -5.206
REMARK INTRA:                  -0.291
REMARK UNBOUND:                -0.295
REMARK SMILES O=C(O)c1ccc2nc(-c3cc(Cl)cc(Cl)c3)oc2c1
REMARK SMILES IDX 5 1 6 2 20 3 8 4 18 5 4 6 9 7 7 8 19 9 2 10 1 11 3 12 10 14
REMARK SMILES IDX 11 15 17 16 12 17 15 18 14 19 13 20 16 21
REMARK H PARENT 3 13
ROOT
ATOM      1  C   UNL     1      -2.787 -13.742  -0.632  1.00  0.00     0.018 A 
ATOM      2  C   UNL     1      -1.960 -12.659  -0.625  1.00  0.00     0.033 A 
ATOM      3  C   UNL     1      -4.639 -12.363   0.109  1.00  0.00     0.065 A 
ATOM      4  N   UNL     1      -1.893 -10.179  -0.146  1.00  0.00    -0.209 NA
ATOM      5  O   UNL     1      -3.979  -9.958   0.429  1.00  0.00    -0.436 OA
ATOM      6  C   UNL     1      -4.134 -13.609  -0.269  1.00  0.00     0.063 A 
ATOM      7  C   UNL     1      -2.803  -9.327   0.256  1.00  0.00     0.227 A 
ATOM      8  C   UNL     1      -2.453 -11.404  -0.249  1.00  0.00     0.110 A 
ATOM      9  C   UNL     1      -3.802 -11.263   0.122  1.00  0.00     0.156 A 
ENDROOT
BRANCH   6  10
ATOM     10  C   UNL     1      -5.021 -14.787  -0.286  1.00  0.00     0.335 C 
ATOM     11  O   UNL     1      -6.170 -14.676  -0.665  1.00  0.00    -0.246 OA
BRANCH  10  12
ATOM     12  O   UNL     1      -4.557 -15.985   0.120  1.00  0.00    -0.478 OA
ATOM     13  H   UNL     1      -5.052 -16.766  -0.163  1.00  0.00     0.297 HD
ENDBRANCH  10  12
ENDBRANCH   6  10
BRANCH   7  14
ATOM     14  C   UNL     1      -2.571  -7.886   0.485  1.00  0.00     0.040 A 
ATOM     15  C   UNL     1      -3.302  -7.205   1.459  1.00  0.00     0.034 A 
ATOM     16  C   UNL     1      -1.619  -7.200  -0.272  1.00  0.00     0.034 A 
ATOM     17  C   UNL     1      -3.080  -5.858   1.670  1.00  0.00     0.043 A 
ATOM     18  C   UNL     1      -1.406  -5.854  -0.052  1.00  0.00     0.043 A 
ATOM     19  C   UNL     1      -2.135  -5.184   0.915  1.00  0.00     0.041 A 
ATOM     20  Cl  UNL     1      -3.987  -5.009   2.881  1.00  0.00    -0.084 Cl
ATOM     21  Cl  UNL     1      -0.223  -4.999  -0.993  1.00  0.00    -0.084 Cl
ENDBRANCH   7  14
TORSDOF 3
ENDMDL
MODEL 7
REMARK VINA RESULT:    -4.514     11.176     11.732
REMARK INTER + INTRA:          -5.469
REMARK INTER:                  -5.185
REMARK INTRA:                  -0.284
REMARK UNBOUND:                -0.295
REMARK SMILES O=C(O)c1ccc2nc(-c3cc(Cl)cc(Cl)c3)oc2c1
REMARK SMILES IDX 5 1 6 2 20 3 8 4 18 5 4 6 9 7 7 8 19 9 2 10 1 11 3 12 10 14
REMARK SMILES IDX 11 15 17 16 12 17 15 18 14 19 13 20 16 21
REMARK H PARENT 3 13
ROOT
ATOM      1  C   UNL     1      -2.997 -13.746  -0.666  1.00  0.00     0.018 A 
ATOM      2  C   UNL     1      -3.659 -12.643  -0.216  1.00  0.00     0.033 A 
ATOM      3  C   UNL     1      -0.932 -12.481  -0.798  1.00  0.00     0.065 A 
ATOM      4  N   UNL     1      -3.347 -10.205   0.369  1.00  0.00    -0.209 NA
ATOM      5  O   UNL     1      -1.224 -10.086  -0.091  1.00  0.00    -0.436 OA
ATOM      6  C   UNL     1      -1.628 -13.681  -0.960  1.00  0.00     0.063 A 
ATOM      7  C   UNL     1      -2.305  -9.412   0.342  1.00  0.00     0.227 A 
ATOM      8  C   UNL     1      -2.973 -11.434  -0.048  1.00  0.00     0.110 A 
ATOM      9  C   UNL     1      -1.601 -11.359  -0.346  1.00  0.00     0.156 A 
ENDROOT
BRANCH   6  10
ATOM     10  C   UNL     1      -0.921 -14.882  -1.441  1.00  0.00     0.335 C 
ATOM     11  O   UNL     1      -0.540 -15.720  -0.648  1.00  0.00    -0.246 OA
BRANCH  10  12
ATOM     12  O   UNL     1      -0.695 -15.049  -2.759  1.00  0.00    -0.478 OA
ATOM     13  H   UNL     1       0.215 -14.944  -3.066  1.00  0.00     0.297 HD
ENDBRANCH  10  12
ENDBRANCH   6  10
BRANCH   7  14
ATOM     14  C   UNL     1      -2.317  -7.986   0.729  1.00  0.00     0.040 A 
ATOM     15  C   UNL     1      -1.443  -7.086   0.117  1.00  0.00     0.034 A 
ATOM     16  C   UNL     1      -3.202  -7.533   1.710  1.00  0.00     0.034 A 
ATOM     17  C   UNL     1      -1.460  -5.754   0.482  1.00  0.00     0.043 A 
ATOM     18  C   UNL     1      -3.209  -6.199   2.066  1.00  0.00     0.043 A 
ATOM     19  C   UNL     1      -2.340  -5.312   1.455  1.00  0.00     0.041 A 
ATOM     20  Cl  UNL     1      -0.374  -4.633  -0.278  1.00  0.00    -0.084 Cl
ATOM     21  Cl  UNL     1      -4.309  -5.635   3.285  1.00  0.00    -0.084 Cl
ENDBRANCH   7  14
TORSDOF 3
ENDMDL
MODEL 8
REMARK VINA RESULT:    -4.514     11.179     11.893
REMARK INTER + INTRA:          -5.468
REMARK INTER:                  -5.184
REMARK INTRA:                  -0.285
REMARK UNBOUND:                -0.295
REMARK SMILES O=C(O)c1ccc2nc(-c3cc(Cl)cc(Cl)c3)oc2c1
REMARK SMILES IDX 5 1 6 2 20 3 8 4 18 5 4 6 9 7 7 8 19 9 2 10 1 11 3 12 10 14
REMARK SMILES IDX 11 15 17 16 12 17 15 18 14 19 13 20 16 21
REMARK H PARENT 3 13
ROOT
ATOM      1  C   UNL     1      -2.994 -13.750  -0.664  1.00  0.00     0.018 A 
ATOM      2  C   UNL     1      -3.656 -12.647  -0.214  1.00  0.00     0.033 A 
ATOM      3  C   UNL     1      -0.930 -12.485  -0.801  1.00  0.00     0.065 A 
ATOM      4  N   UNL     1      -3.344 -10.209   0.368  1.00  0.00    -0.209 NA
ATOM      5  O   UNL     1      -1.222 -10.090  -0.096  1.00  0.00    -0.436 OA
ATOM      6  C   UNL     1      -1.626 -13.685  -0.961  1.00  0.00     0.063 A 
ATOM      7  C   UNL     1      -2.303  -9.415   0.338  1.00  0.00     0.227 A 
ATOM      8  C   UNL     1      -2.971 -11.438  -0.049  1.00  0.00     0.110 A 
ATOM      9  C   UNL     1      -1.599 -11.363  -0.349  1.00  0.00     0.156 A 
ENDROOT
BRANCH   6  10
ATOM     10  C   UNL     1      -0.919 -14.886  -1.442  1.00  0.00     0.335 C 
ATOM     11  O   UNL     1      -0.542 -15.726  -0.650  1.00  0.00    -0.246 OA
BRANCH  10  12
ATOM     12  O   UNL     1      -0.690 -15.052  -2.759  1.00  0.00    -0.478 OA
ATOM     13  H   UNL     1      -0.078 -15.755  -3.014  1.00  0.00     0.297 HD
ENDBRANCH  10  12
ENDBRANCH   6  10
BRANCH   7  14
ATOM     14  C   UNL     1      -2.314  -7.988   0.724  1.00  0.00     0.040 A 
ATOM     15  C   UNL     1      -3.199  -7.533   1.702  1.00  0.00     0.034 A 
ATOM     16  C   UNL     1      -1.440  -7.090   0.109  1.00  0.00     0.034 A 
ATOM     17  C   UNL     1      -3.204  -6.199   2.058  1.00  0.00     0.043 A 
ATOM     18  C   UNL     1      -1.454  -5.758   0.474  1.00  0.00     0.043 A 
ATOM     19  C   UNL     1      -2.334  -5.313   1.445  1.00  0.00     0.041 A 
ATOM     20  Cl  UNL     1      -4.303  -5.631   3.276  1.00  0.00    -0.084 Cl
ATOM     21  Cl  UNL     1      -0.367  -4.639  -0.289  1.00  0.00    -0.084 Cl
ENDBRANCH   7  14
TORSDOF 3
ENDMDL
MODEL 9
REMARK VINA RESULT:    -4.466     10.289     11.046
REMARK INTER + INTRA:          -5.414
REMARK INTER:                  -5.116
REMARK INTRA:                  -0.298
REMARK UNBOUND:                -0.295
REMARK SMILES O=C(O)c1ccc2nc(-c3cc(Cl)cc(Cl)c3)oc2c1
REMARK SMILES IDX 5 1 6 2 20 3 8 4 18 5 4 6 9 7 7 8 19 9 2 10 1 11 3 12 10 14
REMARK SMILES IDX 11 15 17 16 12 17 15 18 14 19 13 20 16 21
REMARK H PARENT 3 13
ROOT
ATOM      1  C   UNL     1      -1.232  -5.496   0.457  1.00  0.00     0.018 A 
ATOM      2  C   UNL     1      -0.847  -6.713  -0.018  1.00  0.00     0.033 A 
ATOM      3  C   UNL     1      -3.337  -6.431   1.215  1.00  0.00     0.065 A 
ATOM      4  N   UNL     1      -1.598  -9.114  -0.252  1.00  0.00    -0.209 NA
ATOM      5  O   UNL     1      -3.538  -8.885   0.706  1.00  0.00    -0.436 OA
ATOM      6  C   UNL     1      -2.478  -5.339   1.081  1.00  0.00     0.063 A 
ATOM      7  C   UNL     1      -2.691  -9.742   0.105  1.00  0.00     0.227 A 
ATOM      8  C   UNL     1      -1.699  -7.817   0.111  1.00  0.00     0.110 A 
ATOM      9  C   UNL     1      -2.952  -7.667   0.730  1.00  0.00     0.156 A 
ENDROOT
BRANCH   6  10
ATOM     10  C   UNL     1      -2.882  -4.019   1.596  1.00  0.00     0.335 C 
ATOM     11  O   UNL     1      -2.146  -3.062   1.458  1.00  0.00    -0.246 OA
BRANCH  10  12
ATOM     12  O   UNL     1      -4.066  -3.872   2.223  1.00  0.00    -0.478 OA
ATOM     13  H   UNL     1      -4.470  -4.670   2.590  1.00  0.00     0.297 HD
ENDBRANCH  10  12
ENDBRANCH   6  10
BRANCH   7  14
ATOM     14  C   UNL     1      -2.955 -11.178  -0.122  1.00  0.00     0.040 A 
ATOM     15  C   UNL     1      -4.249 -11.683   0.016  1.00  0.00     0.034 A 
ATOM     16  C   UNL     1      -1.910 -12.035  -0.473  1.00  0.00     0.034 A 
ATOM     17  C   UNL     1      -4.489 -13.026  -0.198  1.00  0.00     0.043 A 
ATOM     18  C   UNL     1      -2.164 -13.376  -0.684  1.00  0.00     0.043 A 
ATOM     19  C   UNL     1      -3.449 -13.871  -0.546  1.00  0.00     0.041 A 
ATOM     20  Cl  UNL     1      -6.098 -13.656  -0.029  1.00  0.00    -0.084 Cl
ATOM     21  Cl  UNL     1      -0.866 -14.444  -1.121  1.00  0.00    -0.084 Cl
ENDBRANCH   7  14
TORSDOF 3
ENDMDL
