MODEL 1
REMARK VINA RESULT:    -5.769      0.000      0.000
REMARK INTER + INTRA:          -8.648
REMARK INTER:                  -7.961
REMARK INTRA:                  -0.687
REMARK UNBOUND:                -0.687
REMARK SMILES Cc1n[nH]c(C)c1CCCOc1cc(C(=O)O)ccc1F
REMARK SMILES IDX 11 1 12 2 14 3 18 4 13 5 19 6 20 7 21 8 15 9 16 10 17 11
REMARK SMILES IDX 10 13 9 14 8 15 7 16 5 17 2 18 4 19 3 20 6 21 1 22
REMARK H PARENT 17 12 4 23
ROOT
ATOM      1  O   UNL     1      -1.743  -8.476  -0.354  1.00  0.00    -0.490 OA
ENDROOT
BRANCH   1   2
ATOM      2  C   UNL     1      -1.952  -7.287   0.272  1.00  0.00     0.155 A 
ATOM      3  C   UNL     1      -3.066  -5.980   1.955  1.00  0.00     0.063 A 
ATOM      4  C   UNL     1      -2.356  -4.850   1.543  1.00  0.00     0.019 A 
ATOM      5  C   UNL     1      -2.858  -7.202   1.312  1.00  0.00     0.065 A 
ATOM      6  C   UNL     1      -1.449  -4.945   0.508  1.00  0.00     0.044 A 
ATOM      7  C   UNL     1      -1.241  -6.159  -0.125  1.00  0.00     0.165 A 
ATOM      8  F   UNL     1      -0.352  -6.246  -1.139  1.00  0.00    -0.203 F 
BRANCH   3   9
ATOM      9  C   UNL     1      -4.036  -5.882   3.063  1.00  0.00     0.335 C 
ATOM     10  O   UNL     1      -5.178  -6.265   2.907  1.00  0.00    -0.246 OA
BRANCH   9  11
ATOM     11  O   UNL     1      -3.653  -5.373   4.250  1.00  0.00    -0.478 OA
ATOM     12  H   UNL     1      -4.330  -5.304   4.938  1.00  0.00     0.297 HD
ENDBRANCH   9  11
ENDBRANCH   3   9
ENDBRANCH   1   2
BRANCH   1  13
ATOM     13  C   UNL     1      -2.643  -8.820  -1.410  1.00  0.00     0.230 C 
BRANCH  13  14
ATOM     14  C   UNL     1      -2.667 -10.340  -1.584  1.00  0.00     0.046 C 
BRANCH  14  15
ATOM     15  C   UNL     1      -2.655 -11.011  -0.208  1.00  0.00     0.043 C 
BRANCH  15  16
ATOM     16  C   UNL     1      -3.163 -12.423  -0.333  1.00  0.00    -0.004 A 
ATOM     17  C   UNL     1      -4.439 -12.832  -0.137  1.00  0.00     0.036 A 
ATOM     18  C   UNL     1      -2.402 -13.544  -0.680  1.00  0.00     0.063 A 
ATOM     19  N   UNL     1      -4.481 -14.164  -0.344  1.00  0.00    -0.282 N 
ATOM     20  N   UNL     1      -3.189 -14.589  -0.680  1.00  0.00    -0.181 NA
ATOM     21  C   UNL     1      -5.602 -11.955   0.246  1.00  0.00     0.066 C 
ATOM     22  C   UNL     1      -0.926 -13.550  -0.987  1.00  0.00     0.069 C 
ATOM     23  H   UNL     1      -5.266 -14.728  -0.273  1.00  0.00     0.190 HD
ENDBRANCH  15  16
ENDBRANCH  14  15
ENDBRANCH  13  14
ENDBRANCH   1  13
TORSDOF 7
ENDMDL
MODEL 2
REMARK VINA RESULT:    -5.675      1.981      3.182
REMARK INTER + INTRA:          -8.518
REMARK INTER:                  -7.832
REMARK INTRA:                  -0.687
REMARK UNBOUND:                -0.687
REMARK SMILES Cc1n[nH]c(C)c1CCCOc1cc(C(=O)O)ccc1F
REMARK SMILES IDX 11 1 12 2 14 3 18 4 13 5 19 6 20 7 21 8 15 9 16 10 17 11
REMARK SMILES IDX 10 13 9 14 8 15 7 16 5 17 2 18 4 19 3 20 6 21 1 22
REMARK H PARENT 17 12 4 23
ROOT
ATOM      1  O   UNL     1      -2.223  -8.518   2.319  1.00  0.00    -0.490 OA
ENDROOT
BRANCH   1   2
ATOM      2  C   UNL     1      -2.129  -7.274   1.778  1.00  0.00     0.155 A 
ATOM      3  C   UNL     1      -1.224  -5.780   0.126  1.00  0.00     0.063 A 
ATOM      4  C   UNL     1      -1.958  -4.728   0.681  1.00  0.00     0.019 A 
ATOM      5  C   UNL     1      -1.315  -7.057   0.682  1.00  0.00     0.065 A 
ATOM      6  C   UNL     1      -2.772  -4.956   1.771  1.00  0.00     0.044 A 
ATOM      7  C   UNL     1      -2.864  -6.225   2.318  1.00  0.00     0.165 A 
ATOM      8  F   UNL     1      -3.664  -6.441   3.385  1.00  0.00    -0.203 F 
BRANCH   3   9
ATOM      9  C   UNL     1      -0.352  -5.539  -1.040  1.00  0.00     0.335 C 
ATOM     10  O   UNL     1       0.662  -6.190  -1.185  1.00  0.00    -0.246 OA
BRANCH   9  11
ATOM     11  O   UNL     1      -0.686  -4.602  -1.949  1.00  0.00    -0.478 OA
ATOM     12  H   UNL     1      -0.903  -4.911  -2.840  1.00  0.00     0.297 HD
ENDBRANCH   9  11
ENDBRANCH   3   9
ENDBRANCH   1   2
BRANCH   1  13
ATOM     13  C   UNL     1      -3.232  -9.381   1.789  1.00  0.00     0.230 C 
BRANCH  13  14
ATOM     14  C   UNL     1      -2.582 -10.662   1.262  1.00  0.00     0.046 C 
BRANCH  14  15
ATOM     15  C   UNL     1      -3.059 -10.925  -0.168  1.00  0.00     0.043 C 
BRANCH  15  16
ATOM     16  C   UNL     1      -3.464 -12.370  -0.305  1.00  0.00    -0.004 A 
ATOM     17  C   UNL     1      -4.710 -12.868  -0.130  1.00  0.00     0.036 A 
ATOM     18  C   UNL     1      -2.619 -13.433  -0.641  1.00  0.00     0.063 A 
ATOM     19  N   UNL     1      -4.654 -14.200  -0.342  1.00  0.00    -0.282 N 
ATOM     20  N   UNL     1      -3.330 -14.531  -0.657  1.00  0.00    -0.181 NA
ATOM     21  C   UNL     1      -5.939 -12.077   0.234  1.00  0.00     0.066 C 
ATOM     22  C   UNL     1      -1.142 -13.333  -0.924  1.00  0.00     0.069 C 
ATOM     23  H   UNL     1      -5.399 -14.818  -0.285  1.00  0.00     0.190 HD
ENDBRANCH  15  16
ENDBRANCH  14  15
ENDBRANCH  13  14
ENDBRANCH   1  13
TORSDOF 7
ENDMDL
MODEL 3
REMARK VINA RESULT:    -5.657      0.753      1.882
REMARK INTER + INTRA:          -8.493
REMARK INTER:                  -7.810
REMARK INTRA:                  -0.683
REMARK UNBOUND:                -0.687
REMARK SMILES Cc1n[nH]c(C)c1CCCOc1cc(C(=O)O)ccc1F
REMARK SMILES IDX 11 1 12 2 14 3 18 4 13 5 19 6 20 7 21 8 15 9 16 10 17 11
REMARK SMILES IDX 10 13 9 14 8 15 7 16 5 17 2 18 4 19 3 20 6 21 1 22
REMARK H PARENT 17 12 4 23
ROOT
ATOM      1  O   UNL     1      -2.900  -7.732  -1.306  1.00  0.00    -0.490 OA
ENDROOT
BRANCH   1   2
ATOM      2  C   UNL     1      -2.691  -6.791  -0.347  1.00  0.00     0.155 A 
ATOM      3  C   UNL     1      -3.252  -5.815   1.777  1.00  0.00     0.063 A 
ATOM      4  C   UNL     1      -2.240  -4.867   1.605  1.00  0.00     0.019 A 
ATOM      5  C   UNL     1      -3.474  -6.779   0.792  1.00  0.00     0.065 A 
ATOM      6  C   UNL     1      -1.460  -4.890   0.468  1.00  0.00     0.044 A 
ATOM      7  C   UNL     1      -1.678  -5.851  -0.505  1.00  0.00     0.165 A 
ATOM      8  F   UNL     1      -0.911  -5.868  -1.617  1.00  0.00    -0.203 F 
BRANCH   3   9
ATOM      9  C   UNL     1      -4.088  -5.793   2.994  1.00  0.00     0.335 C 
ATOM     10  O   UNL     1      -5.243  -6.166   2.944  1.00  0.00    -0.246 OA
BRANCH   9  11
ATOM     11  O   UNL     1      -3.568  -5.366   4.161  1.00  0.00    -0.478 OA
ATOM     12  H   UNL     1      -4.076  -5.552   4.963  1.00  0.00     0.297 HD
ENDBRANCH   9  11
ENDBRANCH   3   9
ENDBRANCH   1   2
BRANCH   1  13
ATOM     13  C   UNL     1      -2.131  -8.934  -1.215  1.00  0.00     0.230 C 
BRANCH  13  14
ATOM     14  C   UNL     1      -3.073 -10.138  -1.163  1.00  0.00     0.046 C 
BRANCH  14  15
ATOM     15  C   UNL     1      -2.750 -10.985   0.070  1.00  0.00     0.043 C 
BRANCH  15  16
ATOM     16  C   UNL     1      -2.734 -12.442  -0.311  1.00  0.00    -0.004 A 
ATOM     17  C   UNL     1      -1.647 -13.155  -0.691  1.00  0.00     0.036 A 
ATOM     18  C   UNL     1      -3.838 -13.301  -0.328  1.00  0.00     0.063 A 
ATOM     19  N   UNL     1      -2.051 -14.417  -0.946  1.00  0.00    -0.282 N 
ATOM     20  N   UNL     1      -3.432 -14.482  -0.715  1.00  0.00    -0.181 NA
ATOM     21  C   UNL     1      -0.240 -12.632  -0.807  1.00  0.00     0.066 C 
ATOM     22  C   UNL     1      -5.255 -12.926   0.026  1.00  0.00     0.069 C 
ATOM     23  H   UNL     1      -1.486 -15.149  -1.238  1.00  0.00     0.190 HD
ENDBRANCH  15  16
ENDBRANCH  14  15
ENDBRANCH  13  14
ENDBRANCH   1  13
TORSDOF 7
ENDMDL
MODEL 4
REMARK VINA RESULT:    -5.651      2.047      3.659
REMARK INTER + INTRA:          -8.486
REMARK INTER:                  -7.788
REMARK INTRA:                  -0.698
REMARK UNBOUND:                -0.687
REMARK SMILES Cc1n[nH]c(C)c1CCCOc1cc(C(=O)O)ccc1F
REMARK SMILES IDX 11 1 12 2 14 3 18 4 13 5 19 6 20 7 21 8 15 9 16 10 17 11
REMARK SMILES IDX 10 13 9 14 8 15 7 16 5 17 2 18 4 19 3 20 6 21 1 22
REMARK H PARENT 17 12 4 23
ROOT
ATOM      1  O   UNL     1      -2.220  -8.542   2.435  1.00  0.00    -0.490 OA
ENDROOT
BRANCH   1   2
ATOM      2  C   UNL     1      -2.145  -7.312   1.861  1.00  0.00     0.155 A 
ATOM      3  C   UNL     1      -1.255  -5.845   0.177  1.00  0.00     0.063 A 
ATOM      4  C   UNL     1      -2.014  -4.793   0.696  1.00  0.00     0.019 A 
ATOM      5  C   UNL     1      -1.325  -7.109   0.767  1.00  0.00     0.065 A 
ATOM      6  C   UNL     1      -2.834  -5.007   1.784  1.00  0.00     0.044 A 
ATOM      7  C   UNL     1      -2.906  -6.262   2.365  1.00  0.00     0.165 A 
ATOM      8  F   UNL     1      -3.712  -6.465   3.430  1.00  0.00    -0.203 F 
BRANCH   3   9
ATOM      9  C   UNL     1      -0.376  -5.620  -0.988  1.00  0.00     0.335 C 
ATOM     10  O   UNL     1       0.613  -6.306  -1.145  1.00  0.00    -0.246 OA
BRANCH   9  11
ATOM     11  O   UNL     1      -0.676  -4.656  -1.881  1.00  0.00    -0.478 OA
ATOM     12  H   UNL     1      -0.643  -4.899  -2.817  1.00  0.00     0.297 HD
ENDBRANCH   9  11
ENDBRANCH   3   9
ENDBRANCH   1   2
BRANCH   1  13
ATOM     13  C   UNL     1      -3.235  -9.424   1.949  1.00  0.00     0.230 C 
BRANCH  13  14
ATOM     14  C   UNL     1      -2.596 -10.741   1.507  1.00  0.00     0.046 C 
BRANCH  14  15
ATOM     15  C   UNL     1      -2.758 -10.904  -0.006  1.00  0.00     0.043 C 
BRANCH  15  16
ATOM     16  C   UNL     1      -2.760 -12.369  -0.357  1.00  0.00    -0.004 A 
ATOM     17  C   UNL     1      -1.686 -13.098  -0.740  1.00  0.00     0.036 A 
ATOM     18  C   UNL     1      -3.872 -13.219  -0.337  1.00  0.00     0.063 A 
ATOM     19  N   UNL     1      -2.105 -14.362  -0.962  1.00  0.00    -0.282 N 
ATOM     20  N   UNL     1      -3.481 -14.411  -0.707  1.00  0.00    -0.181 NA
ATOM     21  C   UNL     1      -0.276 -12.590  -0.891  1.00  0.00     0.066 C 
ATOM     22  C   UNL     1      -5.279 -12.825   0.033  1.00  0.00     0.069 C 
ATOM     23  H   UNL     1      -1.550 -15.104  -1.248  1.00  0.00     0.190 HD
ENDBRANCH  15  16
ENDBRANCH  14  15
ENDBRANCH  13  14
ENDBRANCH   1  13
TORSDOF 7
ENDMDL
MODEL 5
REMARK VINA RESULT:    -4.776      3.701      6.671
REMARK INTER + INTRA:          -7.278
REMARK INTER:                  -6.422
REMARK INTRA:                  -0.857
REMARK UNBOUND:                -0.687
REMARK SMILES Cc1n[nH]c(C)c1CCCOc1cc(C(=O)O)ccc1F
REMARK SMILES IDX 11 1 12 2 14 3 18 4 13 5 19 6 20 7 21 8 15 9 16 10 17 11
REMARK SMILES IDX 10 13 9 14 8 15 7 16 5 17 2 18 4 19 3 20 6 21 1 22
REMARK H PARENT 17 12 4 23
ROOT
ATOM      1  O   UNL     1      -1.687  -9.509  -0.232  1.00  0.00    -0.490 OA
ENDROOT
BRANCH   1   2
ATOM      2  C   UNL     1      -2.229 -10.755  -0.284  1.00  0.00     0.155 A 
ATOM      3  C   UNL     1      -4.141 -12.207  -0.156  1.00  0.00     0.063 A 
ATOM      4  C   UNL     1      -3.317 -13.308  -0.405  1.00  0.00     0.019 A 
ATOM      5  C   UNL     1      -3.588 -10.926  -0.097  1.00  0.00     0.065 A 
ATOM      6  C   UNL     1      -1.964 -13.126  -0.596  1.00  0.00     0.044 A 
ATOM      7  C   UNL     1      -1.418 -11.855  -0.541  1.00  0.00     0.165 A 
ATOM      8  F   UNL     1      -0.091 -11.683  -0.729  1.00  0.00    -0.203 F 
BRANCH   3   9
ATOM      9  C   UNL     1      -5.591 -12.398   0.048  1.00  0.00     0.335 C 
ATOM     10  O   UNL     1      -6.003 -12.829   1.105  1.00  0.00    -0.246 OA
BRANCH   9  11
ATOM     11  O   UNL     1      -6.456 -12.087  -0.937  1.00  0.00    -0.478 OA
ATOM     12  H   UNL     1      -6.362 -11.215  -1.345  1.00  0.00     0.297 HD
ENDBRANCH   9  11
ENDBRANCH   3   9
ENDBRANCH   1   2
BRANCH   1  13
ATOM     13  C   UNL     1      -2.449  -8.446  -0.809  1.00  0.00     0.230 C 
BRANCH  13  14
ATOM     14  C   UNL     1      -1.761  -7.111  -0.521  1.00  0.00     0.046 C 
BRANCH  14  15
ATOM     15  C   UNL     1      -1.171  -7.136   0.891  1.00  0.00     0.043 C 
BRANCH  15  16
ATOM     16  C   UNL     1      -2.191  -6.618   1.872  1.00  0.00    -0.004 A 
ATOM     17  C   UNL     1      -2.634  -5.343   1.962  1.00  0.00     0.036 A 
ATOM     18  C   UNL     1      -2.852  -7.373   2.847  1.00  0.00     0.063 A 
ATOM     19  N   UNL     1      -3.538  -5.290   2.962  1.00  0.00    -0.282 N 
ATOM     20  N   UNL     1      -3.655  -6.577   3.505  1.00  0.00    -0.181 NA
ATOM     21  C   UNL     1      -2.196  -4.188   1.099  1.00  0.00     0.066 C 
ATOM     22  C   UNL     1      -2.663  -8.846   3.103  1.00  0.00     0.069 C 
ATOM     23  H   UNL     1      -4.021  -4.502   3.254  1.00  0.00     0.190 HD
ENDBRANCH  15  16
ENDBRANCH  14  15
ENDBRANCH  13  14
ENDBRANCH   1  13
TORSDOF 7
ENDMDL
MODEL 6
REMARK VINA RESULT:    -4.701      3.848      7.300
REMARK INTER + INTRA:          -7.175
REMARK INTER:                  -6.347
REMARK INTRA:                  -0.828
REMARK UNBOUND:                -0.687
REMARK SMILES Cc1n[nH]c(C)c1CCCOc1cc(C(=O)O)ccc1F
REMARK SMILES IDX 11 1 12 2 14 3 18 4 13 5 19 6 20 7 21 8 15 9 16 10 17 11
REMARK SMILES IDX 10 13 9 14 8 15 7 16 5 17 2 18 4 19 3 20 6 21 1 22
REMARK H PARENT 17 12 4 23
ROOT
ATOM      1  O   UNL     1      -3.676  -9.391   0.545  1.00  0.00    -0.490 OA
ENDROOT
BRANCH   1   2
ATOM      2  C   UNL     1      -3.453 -10.685   0.191  1.00  0.00     0.155 A 
ATOM      3  C   UNL     1      -1.952 -12.428  -0.509  1.00  0.00     0.063 A 
ATOM      4  C   UNL     1      -3.016 -13.334  -0.520  1.00  0.00     0.019 A 
ATOM      5  C   UNL     1      -2.178 -11.098  -0.150  1.00  0.00     0.065 A 
ATOM      6  C   UNL     1      -4.282 -12.914  -0.172  1.00  0.00     0.044 A 
ATOM      7  C   UNL     1      -4.504 -11.595   0.188  1.00  0.00     0.165 A 
ATOM      8  F   UNL     1      -5.747 -11.190   0.528  1.00  0.00    -0.203 F 
BRANCH   3   9
ATOM      9  C   UNL     1      -0.595 -12.875  -0.880  1.00  0.00     0.335 C 
ATOM     10  O   UNL     1       0.373 -12.229  -0.535  1.00  0.00    -0.246 OA
BRANCH   9  11
ATOM     11  O   UNL     1      -0.430 -14.003  -1.598  1.00  0.00    -0.478 OA
ATOM     12  H   UNL     1       0.463 -14.373  -1.636  1.00  0.00     0.297 HD
ENDBRANCH   9  11
ENDBRANCH   3   9
ENDBRANCH   1   2
BRANCH   1  13
ATOM     13  C   UNL     1      -2.864  -8.856   1.594  1.00  0.00     0.230 C 
BRANCH  13  14
ATOM     14  C   UNL     1      -3.215  -7.383   1.808  1.00  0.00     0.046 C 
BRANCH  14  15
ATOM     15  C   UNL     1      -3.641  -6.761   0.476  1.00  0.00     0.043 C 
BRANCH  15  16
ATOM     16  C   UNL     1      -2.430  -6.210  -0.231  1.00  0.00    -0.004 A 
ATOM     17  C   UNL     1      -1.901  -6.677  -1.386  1.00  0.00     0.036 A 
ATOM     18  C   UNL     1      -1.657  -5.121   0.186  1.00  0.00     0.063 A 
ATOM     19  N   UNL     1      -0.828  -5.915  -1.685  1.00  0.00    -0.282 N 
ATOM     20  N   UNL     1      -0.693  -4.947  -0.681  1.00  0.00    -0.181 NA
ATOM     21  C   UNL     1      -2.418  -7.839  -2.193  1.00  0.00     0.066 C 
ATOM     22  C   UNL     1      -1.889  -4.297   1.427  1.00  0.00     0.069 C 
ATOM     23  H   UNL     1      -0.252  -6.019  -2.458  1.00  0.00     0.190 HD
ENDBRANCH  15  16
ENDBRANCH  14  15
ENDBRANCH  13  14
ENDBRANCH   1  13
TORSDOF 7
ENDMDL
MODEL 7
REMARK VINA RESULT:    -4.688      3.841      7.186
REMARK INTER + INTRA:          -7.157
REMARK INTER:                  -6.310
REMARK INTRA:                  -0.847
REMARK UNBOUND:                -0.687
REMARK SMILES Cc1n[nH]c(C)c1CCCOc1cc(C(=O)O)ccc1F
REMARK SMILES IDX 11 1 12 2 14 3 18 4 13 5 19 6 20 7 21 8 15 9 16 10 17 11
REMARK SMILES IDX 10 13 9 14 8 15 7 16 5 17 2 18 4 19 3 20 6 21 1 22
REMARK H PARENT 17 12 4 23
ROOT
ATOM      1  O   UNL     1      -3.784  -9.453   0.818  1.00  0.00    -0.490 OA
ENDROOT
BRANCH   1   2
ATOM      2  C   UNL     1      -3.556 -10.719   0.378  1.00  0.00     0.155 A 
ATOM      3  C   UNL     1      -2.034 -12.443  -0.323  1.00  0.00     0.063 A 
ATOM      4  C   UNL     1      -3.111 -13.312  -0.512  1.00  0.00     0.019 A 
ATOM      5  C   UNL     1      -2.264 -11.141   0.124  1.00  0.00     0.065 A 
ATOM      6  C   UNL     1      -4.396 -12.885  -0.251  1.00  0.00     0.044 A 
ATOM      7  C   UNL     1      -4.622 -11.594   0.197  1.00  0.00     0.165 A 
ATOM      8  F   UNL     1      -5.883 -11.181   0.452  1.00  0.00    -0.203 F 
BRANCH   3   9
ATOM      9  C   UNL     1      -0.657 -12.898  -0.602  1.00  0.00     0.335 C 
ATOM     10  O   UNL     1      -0.423 -14.082  -0.729  1.00  0.00    -0.246 OA
BRANCH   9  11
ATOM     11  O   UNL     1       0.338 -11.997  -0.720  1.00  0.00    -0.478 OA
ATOM     12  H   UNL     1       0.812 -11.757   0.089  1.00  0.00     0.297 HD
ENDBRANCH   9  11
ENDBRANCH   3   9
ENDBRANCH   1   2
BRANCH   1  13
ATOM     13  C   UNL     1      -2.738  -8.828   1.566  1.00  0.00     0.230 C 
BRANCH  13  14
ATOM     14  C   UNL     1      -3.122  -7.378   1.866  1.00  0.00     0.046 C 
BRANCH  14  15
ATOM     15  C   UNL     1      -3.623  -6.707   0.585  1.00  0.00     0.043 C 
BRANCH  15  16
ATOM     16  C   UNL     1      -2.450  -6.168  -0.191  1.00  0.00    -0.004 A 
ATOM     17  C   UNL     1      -1.690  -5.102   0.152  1.00  0.00     0.036 A 
ATOM     18  C   UNL     1      -1.950  -6.684  -1.392  1.00  0.00     0.063 A 
ATOM     19  N   UNL     1      -0.746  -4.945  -0.800  1.00  0.00    -0.282 N 
ATOM     20  N   UNL     1      -0.934  -5.948  -1.761  1.00  0.00    -0.181 NA
ATOM     21  C   UNL     1      -1.865  -4.245   1.379  1.00  0.00     0.066 C 
ATOM     22  C   UNL     1      -2.496  -7.874  -2.137  1.00  0.00     0.069 C 
ATOM     23  H   UNL     1      -0.061  -4.259  -0.817  1.00  0.00     0.190 HD
ENDBRANCH  15  16
ENDBRANCH  14  15
ENDBRANCH  13  14
ENDBRANCH   1  13
TORSDOF 7
ENDMDL
MODEL 8
REMARK VINA RESULT:    -4.519      4.661      7.903
REMARK INTER + INTRA:          -6.923
REMARK INTER:                  -6.242
REMARK INTRA:                  -0.681
REMARK UNBOUND:                -0.687
REMARK SMILES Cc1n[nH]c(C)c1CCCOc1cc(C(=O)O)ccc1F
REMARK SMILES IDX 11 1 12 2 14 3 18 4 13 5 19 6 20 7 21 8 15 9 16 10 17 11
REMARK SMILES IDX 10 13 9 14 8 15 7 16 5 17 2 18 4 19 3 20 6 21 1 22
REMARK H PARENT 17 12 4 23
ROOT
ATOM      1  O   UNL     1      -4.454 -11.659   0.370  1.00  0.00    -0.490 OA
ENDROOT
BRANCH   1   2
ATOM      2  C   UNL     1      -5.317 -12.667   0.072  1.00  0.00     0.155 A 
ATOM      3  C   UNL     1      -5.766 -15.009  -0.237  1.00  0.00     0.063 A 
ATOM      4  C   UNL     1      -7.100 -14.711  -0.529  1.00  0.00     0.019 A 
ATOM      5  C   UNL     1      -4.875 -13.976   0.065  1.00  0.00     0.065 A 
ATOM      6  C   UNL     1      -7.533 -13.402  -0.513  1.00  0.00     0.044 A 
ATOM      7  C   UNL     1      -6.649 -12.380  -0.209  1.00  0.00     0.165 A 
ATOM      8  F   UNL     1      -7.079 -11.099  -0.195  1.00  0.00    -0.203 F 
BRANCH   3   9
ATOM      9  C   UNL     1      -5.299 -16.409  -0.253  1.00  0.00     0.335 C 
ATOM     10  O   UNL     1      -5.368 -17.061  -1.274  1.00  0.00    -0.246 OA
BRANCH   9  11
ATOM     11  O   UNL     1      -4.791 -16.961   0.866  1.00  0.00    -0.478 OA
ATOM     12  H   UNL     1      -4.470 -17.872   0.800  1.00  0.00     0.297 HD
ENDBRANCH   9  11
ENDBRANCH   3   9
ENDBRANCH   1   2
BRANCH   1  13
ATOM     13  C   UNL     1      -3.080 -11.860   0.029  1.00  0.00     0.230 C 
BRANCH  13  14
ATOM     14  C   UNL     1      -2.372 -10.507  -0.051  1.00  0.00     0.046 C 
BRANCH  14  15
ATOM     15  C   UNL     1      -3.350  -9.396   0.338  1.00  0.00     0.043 C 
BRANCH  15  16
ATOM     16  C   UNL     1      -2.591  -8.115   0.567  1.00  0.00    -0.004 A 
ATOM     17  C   UNL     1      -2.141  -7.657   1.759  1.00  0.00     0.036 A 
ATOM     18  C   UNL     1      -2.219  -7.191  -0.416  1.00  0.00     0.063 A 
ATOM     19  N   UNL     1      -1.514  -6.482   1.538  1.00  0.00    -0.282 N 
ATOM     20  N   UNL     1      -1.581  -6.209   0.166  1.00  0.00    -0.181 NA
ATOM     21  C   UNL     1      -2.311  -8.337   3.092  1.00  0.00     0.066 C 
ATOM     22  C   UNL     1      -2.516  -7.302  -1.890  1.00  0.00     0.069 C 
ATOM     23  H   UNL     1      -1.093  -5.925   2.211  1.00  0.00     0.190 HD
ENDBRANCH  15  16
ENDBRANCH  14  15
ENDBRANCH  13  14
ENDBRANCH   1  13
TORSDOF 7
ENDMDL
MODEL 9
REMARK VINA RESULT:    -4.416      2.839      4.098
REMARK INTER + INTRA:          -6.781
REMARK INTER:                  -6.263
REMARK INTRA:                  -0.518
REMARK UNBOUND:                -0.687
REMARK SMILES Cc1n[nH]c(C)c1CCCOc1cc(C(=O)O)ccc1F
REMARK SMILES IDX 11 1 12 2 14 3 18 4 13 5 19 6 20 7 21 8 15 9 16 10 17 11
REMARK SMILES IDX 10 13 9 14 8 15 7 16 5 17 2 18 4 19 3 20 6 21 1 22
REMARK H PARENT 17 12 4 23
ROOT
ATOM      1  O   UNL     1      -2.381 -11.118  -1.245  1.00  0.00    -0.490 OA
ENDROOT
BRANCH   1   2
ATOM      2  C   UNL     1      -2.501  -9.819  -0.861  1.00  0.00     0.155 A 
ATOM      3  C   UNL     1      -2.654  -8.161   0.873  1.00  0.00     0.063 A 
ATOM      4  C   UNL     1      -2.739  -7.159  -0.098  1.00  0.00     0.019 A 
ATOM      5  C   UNL     1      -2.535  -9.496   0.483  1.00  0.00     0.065 A 
ATOM      6  C   UNL     1      -2.698  -7.491  -1.435  1.00  0.00     0.044 A 
ATOM      7  C   UNL     1      -2.575  -8.816  -1.820  1.00  0.00     0.165 A 
ATOM      8  F   UNL     1      -2.536  -9.134  -3.133  1.00  0.00    -0.203 F 
BRANCH   3   9
ATOM      9  C   UNL     1      -2.697  -7.809   2.306  1.00  0.00     0.335 C 
ATOM     10  O   UNL     1      -3.011  -6.687   2.647  1.00  0.00    -0.246 OA
BRANCH   9  11
ATOM     11  O   UNL     1      -2.394  -8.736   3.236  1.00  0.00    -0.478 OA
ATOM     12  H   UNL     1      -2.781  -8.620   4.115  1.00  0.00     0.297 HD
ENDBRANCH   9  11
ENDBRANCH   3   9
ENDBRANCH   1   2
BRANCH   1  13
ATOM     13  C   UNL     1      -1.490 -11.939  -0.485  1.00  0.00     0.230 C 
BRANCH  13  14
ATOM     14  C   UNL     1      -0.763 -12.904  -1.423  1.00  0.00     0.046 C 
BRANCH  14  15
ATOM     15  C   UNL     1      -1.192 -14.339  -1.110  1.00  0.00     0.043 C 
BRANCH  15  16
ATOM     16  C   UNL     1      -0.047 -15.279  -1.386  1.00  0.00    -0.004 A 
ATOM     17  C   UNL     1       1.015 -15.500  -0.576  1.00  0.00     0.036 A 
ATOM     18  C   UNL     1       0.104 -16.082  -2.521  1.00  0.00     0.063 A 
ATOM     19  N   UNL     1       1.812 -16.405  -1.181  1.00  0.00    -0.282 N 
ATOM     20  N   UNL     1       1.221 -16.752  -2.403  1.00  0.00    -0.181 NA
ATOM     21  C   UNL     1       1.262 -14.851   0.761  1.00  0.00     0.066 C 
ATOM     22  C   UNL     1      -0.850 -16.153  -3.686  1.00  0.00     0.069 C 
ATOM     23  H   UNL     1       2.647 -16.753  -0.832  1.00  0.00     0.190 HD
ENDBRANCH  15  16
ENDBRANCH  14  15
ENDBRANCH  13  14
ENDBRANCH   1  13
TORSDOF 7
ENDMDL
