MODEL 1
REMARK VINA RESULT:    -4.241      0.000      0.000
REMARK INTER + INTRA:          -5.157
REMARK INTER:                  -4.861
REMARK INTRA:                  -0.296
REMARK UNBOUND:                -0.296
REMARK SMILES O=C(O)c1ccc2nc(-c3cc(Cl)cc(Cl)c3)oc2c1
REMARK SMILES IDX 5 1 6 2 20 3 8 4 18 5 4 6 9 7 7 8 19 9 2 10 1 11 3 12 10 14
REMARK SMILES IDX 11 15 17 16 12 17 15 18 14 19 13 20 16 21
REMARK H PARENT 3 13
ROOT
ATOM      1  C   UNL     1      -2.826   9.984  -7.696  1.00  0.00     0.018 A 
ATOM      2  C   UNL     1      -2.106   8.829  -7.622  1.00  0.00     0.033 A 
ATOM      3  C   UNL     1      -3.015  10.049  -5.279  1.00  0.00     0.065 A 
ATOM      4  N   UNL     1      -1.156   7.149  -5.992  1.00  0.00    -0.209 NA
ATOM      5  O   UNL     1      -1.871   8.103  -4.173  1.00  0.00    -0.436 OA
ATOM      6  C   UNL     1      -3.287  10.609  -6.529  1.00  0.00     0.063 A 
ATOM      7  C   UNL     1      -1.186   7.064  -4.686  1.00  0.00     0.227 A 
ATOM      8  C   UNL     1      -1.826   8.257  -6.375  1.00  0.00     0.110 A 
ATOM      9  C   UNL     1      -2.289   8.875  -5.200  1.00  0.00     0.156 A 
ENDROOT
BRANCH   6  10
ATOM     10  C   UNL     1      -4.059  11.861  -6.621  1.00  0.00     0.335 C 
ATOM     11  O   UNL     1      -4.516  12.368  -5.616  1.00  0.00    -0.246 OA
BRANCH  10  12
ATOM     12  O   UNL     1      -4.259  12.444  -7.820  1.00  0.00    -0.478 OA
ATOM     13  H   UNL     1      -4.555  11.873  -8.542  1.00  0.00     0.297 HD
ENDBRANCH  10  12
ENDBRANCH   6  10
BRANCH   7  14
ATOM     14  C   UNL     1      -0.560   5.986  -3.892  1.00  0.00     0.040 A 
ATOM     15  C   UNL     1       0.553   5.306  -4.389  1.00  0.00     0.034 A 
ATOM     16  C   UNL     1      -1.081   5.643  -2.643  1.00  0.00     0.034 A 
ATOM     17  C   UNL     1       1.134   4.300  -3.642  1.00  0.00     0.043 A 
ATOM     18  C   UNL     1      -0.491   4.635  -1.906  1.00  0.00     0.043 A 
ATOM     19  C   UNL     1       0.612   3.964  -2.404  1.00  0.00     0.041 A 
ATOM     20  Cl  UNL     1       2.519   3.453  -4.257  1.00  0.00    -0.084 Cl
ATOM     21  Cl  UNL     1      -1.138   4.207  -0.352  1.00  0.00    -0.084 Cl
ENDBRANCH   7  14
TORSDOF 3
ENDMDL
MODEL 2
REMARK VINA RESULT:    -4.238      0.018      2.020
REMARK INTER + INTRA:          -5.153
REMARK INTER:                  -4.858
REMARK INTRA:                  -0.296
REMARK UNBOUND:                -0.296
REMARK SMILES O=C(O)c1ccc2nc(-c3cc(Cl)cc(Cl)c3)oc2c1
REMARK SMILES IDX 5 1 6 2 20 3 8 4 18 5 4 6 9 7 7 8 19 9 2 10 1 11 3 12 10 14
REMARK SMILES IDX 11 15 17 16 12 17 15 18 14 19 13 20 16 21
REMARK H PARENT 3 13
ROOT
ATOM      1  C   UNL     1      -2.822   9.984  -7.707  1.00  0.00     0.018 A 
ATOM      2  C   UNL     1      -2.103   8.829  -7.634  1.00  0.00     0.033 A 
ATOM      3  C   UNL     1      -3.007  10.050  -5.290  1.00  0.00     0.065 A 
ATOM      4  N   UNL     1      -1.151   7.148  -6.006  1.00  0.00    -0.209 NA
ATOM      5  O   UNL     1      -1.862   8.103  -4.185  1.00  0.00    -0.436 OA
ATOM      6  C   UNL     1      -3.281  10.610  -6.539  1.00  0.00     0.063 A 
ATOM      7  C   UNL     1      -1.178   7.064  -4.699  1.00  0.00     0.227 A 
ATOM      8  C   UNL     1      -1.821   8.257  -6.388  1.00  0.00     0.110 A 
ATOM      9  C   UNL     1      -2.282   8.875  -5.212  1.00  0.00     0.156 A 
ENDROOT
BRANCH   6  10
ATOM     10  C   UNL     1      -4.052  11.862  -6.631  1.00  0.00     0.335 C 
ATOM     11  O   UNL     1      -4.522  12.360  -5.627  1.00  0.00    -0.246 OA
BRANCH  10  12
ATOM     12  O   UNL     1      -4.238  12.455  -7.827  1.00  0.00    -0.478 OA
ATOM     13  H   UNL     1      -3.537  12.347  -8.484  1.00  0.00     0.297 HD
ENDBRANCH  10  12
ENDBRANCH   6  10
BRANCH   7  14
ATOM     14  C   UNL     1      -0.552   5.986  -3.907  1.00  0.00     0.040 A 
ATOM     15  C   UNL     1      -1.072   5.639  -2.659  1.00  0.00     0.034 A 
ATOM     16  C   UNL     1       0.565   5.310  -4.403  1.00  0.00     0.034 A 
ATOM     17  C   UNL     1      -0.483   4.629  -1.924  1.00  0.00     0.043 A 
ATOM     18  C   UNL     1       1.146   4.303  -3.659  1.00  0.00     0.043 A 
ATOM     19  C   UNL     1       0.625   3.963  -2.422  1.00  0.00     0.041 A 
ATOM     20  Cl  UNL     1      -1.129   4.196  -0.373  1.00  0.00    -0.084 Cl
ATOM     21  Cl  UNL     1       2.535   3.461  -4.274  1.00  0.00    -0.084 Cl
ENDBRANCH   7  14
TORSDOF 3
ENDMDL
MODEL 3
REMARK VINA RESULT:    -4.229      1.843      2.532
REMARK INTER + INTRA:          -5.143
REMARK INTER:                  -4.847
REMARK INTRA:                  -0.296
REMARK UNBOUND:                -0.296
REMARK SMILES O=C(O)c1ccc2nc(-c3cc(Cl)cc(Cl)c3)oc2c1
REMARK SMILES IDX 5 1 6 2 20 3 8 4 18 5 4 6 9 7 7 8 19 9 2 10 1 11 3 12 10 14
REMARK SMILES IDX 11 15 17 16 12 17 15 18 14 19 13 20 16 21
REMARK H PARENT 3 13
ROOT
ATOM      1  C   UNL     1      -2.753  10.024  -7.703  1.00  0.00     0.018 A 
ATOM      2  C   UNL     1      -2.703   9.644  -6.396  1.00  0.00     0.033 A 
ATOM      3  C   UNL     1      -1.627   7.981  -8.365  1.00  0.00     0.065 A 
ATOM      4  N   UNL     1      -1.919   7.794  -4.865  1.00  0.00    -0.209 NA
ATOM      5  O   UNL     1      -1.079   6.507  -6.404  1.00  0.00    -0.436 OA
ATOM      6  C   UNL     1      -2.219   9.199  -8.703  1.00  0.00     0.063 A 
ATOM      7  C   UNL     1      -1.306   6.658  -5.086  1.00  0.00     0.227 A 
ATOM      8  C   UNL     1      -2.112   8.424  -6.043  1.00  0.00     0.110 A 
ATOM      9  C   UNL     1      -1.570   7.594  -7.039  1.00  0.00     0.156 A 
ENDROOT
BRANCH   6  10
ATOM     10  C   UNL     1      -2.284   9.618 -10.115  1.00  0.00     0.335 C 
ATOM     11  O   UNL     1      -1.716   8.967 -10.969  1.00  0.00    -0.246 OA
BRANCH  10  12
ATOM     12  O   UNL     1      -2.973  10.725 -10.459  1.00  0.00    -0.478 OA
ATOM     13  H   UNL     1      -3.179  10.840 -11.396  1.00  0.00     0.297 HD
ENDBRANCH  10  12
ENDBRANCH   6  10
BRANCH   7  14
ATOM     14  C   UNL     1      -0.921   5.686  -4.042  1.00  0.00     0.040 A 
ATOM     15  C   UNL     1       0.184   4.854  -4.231  1.00  0.00     0.034 A 
ATOM     16  C   UNL     1      -1.662   5.596  -2.861  1.00  0.00     0.034 A 
ATOM     17  C   UNL     1       0.539   3.949  -3.251  1.00  0.00     0.043 A 
ATOM     18  C   UNL     1      -1.296   4.686  -1.889  1.00  0.00     0.043 A 
ATOM     19  C   UNL     1      -0.200   3.864  -2.083  1.00  0.00     0.041 A 
ATOM     20  Cl  UNL     1       1.913   2.914  -3.484  1.00  0.00    -0.084 Cl
ATOM     21  Cl  UNL     1      -2.216   4.573  -0.420  1.00  0.00    -0.084 Cl
ENDBRANCH   7  14
TORSDOF 3
ENDMDL
MODEL 4
REMARK VINA RESULT:    -4.228      1.845      3.221
REMARK INTER + INTRA:          -5.141
REMARK INTER:                  -4.846
REMARK INTRA:                  -0.296
REMARK UNBOUND:                -0.296
REMARK SMILES O=C(O)c1ccc2nc(-c3cc(Cl)cc(Cl)c3)oc2c1
REMARK SMILES IDX 5 1 6 2 20 3 8 4 18 5 4 6 9 7 7 8 19 9 2 10 1 11 3 12 10 14
REMARK SMILES IDX 11 15 17 16 12 17 15 18 14 19 13 20 16 21
REMARK H PARENT 3 13
ROOT
ATOM      1  C   UNL     1      -2.750  10.026  -7.703  1.00  0.00     0.018 A 
ATOM      2  C   UNL     1      -2.701   9.648  -6.395  1.00  0.00     0.033 A 
ATOM      3  C   UNL     1      -1.631   7.978  -8.362  1.00  0.00     0.065 A 
ATOM      4  N   UNL     1      -1.921   7.798  -4.861  1.00  0.00    -0.209 NA
ATOM      5  O   UNL     1      -1.085   6.506  -6.399  1.00  0.00    -0.436 OA
ATOM      6  C   UNL     1      -2.219   9.198  -8.702  1.00  0.00     0.063 A 
ATOM      7  C   UNL     1      -1.311   6.660  -5.081  1.00  0.00     0.227 A 
ATOM      8  C   UNL     1      -2.113   8.427  -6.040  1.00  0.00     0.110 A 
ATOM      9  C   UNL     1      -1.574   7.593  -7.036  1.00  0.00     0.156 A 
ENDROOT
BRANCH   6  10
ATOM     10  C   UNL     1      -2.284   9.615 -10.115  1.00  0.00     0.335 C 
ATOM     11  O   UNL     1      -1.717   8.961 -10.967  1.00  0.00    -0.246 OA
BRANCH  10  12
ATOM     12  O   UNL     1      -2.972  10.721 -10.460  1.00  0.00    -0.478 OA
ATOM     13  H   UNL     1      -2.934  11.470  -9.851  1.00  0.00     0.297 HD
ENDBRANCH  10  12
ENDBRANCH   6  10
BRANCH   7  14
ATOM     14  C   UNL     1      -0.928   5.689  -4.035  1.00  0.00     0.040 A 
ATOM     15  C   UNL     1      -1.670   5.598  -2.857  1.00  0.00     0.034 A 
ATOM     16  C   UNL     1       0.179   4.859  -4.222  1.00  0.00     0.034 A 
ATOM     17  C   UNL     1      -1.307   4.687  -1.884  1.00  0.00     0.043 A 
ATOM     18  C   UNL     1       0.532   3.952  -3.242  1.00  0.00     0.043 A 
ATOM     19  C   UNL     1      -0.208   3.867  -2.076  1.00  0.00     0.041 A 
ATOM     20  Cl  UNL     1      -2.229   4.572  -0.418  1.00  0.00    -0.084 Cl
ATOM     21  Cl  UNL     1       1.909   2.919  -3.473  1.00  0.00    -0.084 Cl
ENDBRANCH   7  14
TORSDOF 3
ENDMDL
MODEL 5
REMARK VINA RESULT:    -4.101      3.743      7.408
REMARK INTER + INTRA:          -4.996
REMARK INTER:                  -4.698
REMARK INTRA:                  -0.298
REMARK UNBOUND:                -0.296
REMARK SMILES O=C(O)c1ccc2nc(-c3cc(Cl)cc(Cl)c3)oc2c1
REMARK SMILES IDX 5 1 6 2 20 3 8 4 18 5 4 6 9 7 7 8 19 9 2 10 1 11 3 12 10 14
REMARK SMILES IDX 11 15 17 16 12 17 15 18 14 19 13 20 16 21
REMARK H PARENT 3 13
ROOT
ATOM      1  C   UNL     1       0.586   3.666  -3.238  1.00  0.00     0.018 A 
ATOM      2  C   UNL     1       0.423   4.235  -4.465  1.00  0.00     0.033 A 
ATOM      3  C   UNL     1      -0.737   5.425  -2.220  1.00  0.00     0.065 A 
ATOM      4  N   UNL     1      -0.649   6.191  -5.652  1.00  0.00    -0.209 NA
ATOM      5  O   UNL     1      -1.545   7.114  -3.898  1.00  0.00    -0.436 OA
ATOM      6  C   UNL     1       0.008   4.250  -2.102  1.00  0.00     0.063 A 
ATOM      7  C   UNL     1      -1.375   7.197  -5.231  1.00  0.00     0.227 A 
ATOM      8  C   UNL     1      -0.322   5.414  -4.598  1.00  0.00     0.110 A 
ATOM      9  C   UNL     1      -0.900   6.009  -3.463  1.00  0.00     0.156 A 
ENDROOT
BRANCH   6  10
ATOM     10  C   UNL     1       0.186   3.622  -0.781  1.00  0.00     0.335 C 
ATOM     11  O   UNL     1       0.989   2.720  -0.640  1.00  0.00    -0.246 OA
BRANCH  10  12
ATOM     12  O   UNL     1      -0.542   4.046   0.271  1.00  0.00    -0.478 OA
ATOM     13  H   UNL     1      -0.561   3.475   1.051  1.00  0.00     0.297 HD
ENDBRANCH  10  12
ENDBRANCH   6  10
BRANCH   7  14
ATOM     14  C   UNL     1      -1.924   8.265  -6.092  1.00  0.00     0.040 A 
ATOM     15  C   UNL     1      -1.790   8.185  -7.478  1.00  0.00     0.034 A 
ATOM     16  C   UNL     1      -2.578   9.358  -5.520  1.00  0.00     0.034 A 
ATOM     17  C   UNL     1      -2.307   9.186  -8.277  1.00  0.00     0.043 A 
ATOM     18  C   UNL     1      -3.090  10.352  -6.329  1.00  0.00     0.043 A 
ATOM     19  C   UNL     1      -2.954  10.268  -7.704  1.00  0.00     0.041 A 
ATOM     20  Cl  UNL     1      -2.142   9.089 -10.003  1.00  0.00    -0.084 Cl
ATOM     21  Cl  UNL     1      -3.904  11.712  -5.621  1.00  0.00    -0.084 Cl
ENDBRANCH   7  14
TORSDOF 3
ENDMDL
MODEL 6
REMARK VINA RESULT:    -4.095      3.743      7.646
REMARK INTER + INTRA:          -4.989
REMARK INTER:                  -4.691
REMARK INTRA:                  -0.298
REMARK UNBOUND:                -0.296
REMARK SMILES O=C(O)c1ccc2nc(-c3cc(Cl)cc(Cl)c3)oc2c1
REMARK SMILES IDX 5 1 6 2 20 3 8 4 18 5 4 6 9 7 7 8 19 9 2 10 1 11 3 12 10 14
REMARK SMILES IDX 11 15 17 16 12 17 15 18 14 19 13 20 16 21
REMARK H PARENT 3 13
ROOT
ATOM      1  C   UNL     1       0.595   3.668  -3.230  1.00  0.00     0.018 A 
ATOM      2  C   UNL     1       0.434   4.238  -4.457  1.00  0.00     0.033 A 
ATOM      3  C   UNL     1      -0.734   5.423  -2.214  1.00  0.00     0.065 A 
ATOM      4  N   UNL     1      -0.639   6.193  -5.645  1.00  0.00    -0.209 NA
ATOM      5  O   UNL     1      -1.541   7.112  -3.892  1.00  0.00    -0.436 OA
ATOM      6  C   UNL     1       0.013   4.250  -2.095  1.00  0.00     0.063 A 
ATOM      7  C   UNL     1      -1.368   7.197  -5.225  1.00  0.00     0.227 A 
ATOM      8  C   UNL     1      -0.313   5.415  -4.590  1.00  0.00     0.110 A 
ATOM      9  C   UNL     1      -0.896   6.008  -3.456  1.00  0.00     0.156 A 
ENDROOT
BRANCH   6  10
ATOM     10  C   UNL     1       0.188   3.621  -0.774  1.00  0.00     0.335 C 
ATOM     11  O   UNL     1       0.990   2.719  -0.632  1.00  0.00    -0.246 OA
BRANCH  10  12
ATOM     12  O   UNL     1      -0.541   4.044   0.277  1.00  0.00    -0.478 OA
ATOM     13  H   UNL     1      -0.067   4.212   1.102  1.00  0.00     0.297 HD
ENDBRANCH  10  12
ENDBRANCH   6  10
BRANCH   7  14
ATOM     14  C   UNL     1      -1.917   8.264  -6.086  1.00  0.00     0.040 A 
ATOM     15  C   UNL     1      -2.571   9.357  -5.517  1.00  0.00     0.034 A 
ATOM     16  C   UNL     1      -1.783   8.183  -7.474  1.00  0.00     0.034 A 
ATOM     17  C   UNL     1      -3.081  10.352  -6.327  1.00  0.00     0.043 A 
ATOM     18  C   UNL     1      -2.297   9.184  -8.273  1.00  0.00     0.043 A 
ATOM     19  C   UNL     1      -2.945  10.265  -7.703  1.00  0.00     0.041 A 
ATOM     20  Cl  UNL     1      -3.895  11.713  -5.622  1.00  0.00    -0.084 Cl
ATOM     21  Cl  UNL     1      -2.131   9.084  -9.999  1.00  0.00    -0.084 Cl
ENDBRANCH   7  14
TORSDOF 3
ENDMDL
MODEL 7
REMARK VINA RESULT:    -3.814      3.233      5.311
REMARK INTER + INTRA:          -4.667
REMARK INTER:                  -4.382
REMARK INTRA:                  -0.285
REMARK UNBOUND:                -0.296
REMARK SMILES O=C(O)c1ccc2nc(-c3cc(Cl)cc(Cl)c3)oc2c1
REMARK SMILES IDX 5 1 6 2 20 3 8 4 18 5 4 6 9 7 7 8 19 9 2 10 1 11 3 12 10 14
REMARK SMILES IDX 11 15 17 16 12 17 15 18 14 19 13 20 16 21
REMARK H PARENT 3 13
ROOT
ATOM      1  C   UNL     1      -3.765  15.012  -4.508  1.00  0.00     0.018 A 
ATOM      2  C   UNL     1      -2.962  13.955  -4.201  1.00  0.00     0.033 A 
ATOM      3  C   UNL     1      -4.799  13.740  -6.294  1.00  0.00     0.065 A 
ATOM      4  N   UNL     1      -2.415  11.580  -4.870  1.00  0.00    -0.209 NA
ATOM      5  O   UNL     1      -3.846  11.423  -6.501  1.00  0.00    -0.436 OA
ATOM      6  C   UNL     1      -4.693  14.919  -5.554  1.00  0.00     0.063 A 
ATOM      7  C   UNL     1      -2.887  10.789  -5.800  1.00  0.00     0.227 A 
ATOM      8  C   UNL     1      -3.058  12.766  -4.935  1.00  0.00     0.110 A 
ATOM      9  C   UNL     1      -3.983  12.666  -5.989  1.00  0.00     0.156 A 
ENDROOT
BRANCH   6  10
ATOM     10  C   UNL     1      -5.560  16.067  -5.872  1.00  0.00     0.335 C 
ATOM     11  O   UNL     1      -5.534  16.559  -6.983  1.00  0.00    -0.246 OA
BRANCH  10  12
ATOM     12  O   UNL     1      -6.382  16.573  -4.932  1.00  0.00    -0.478 OA
ATOM     13  H   UNL     1      -6.775  17.438  -5.111  1.00  0.00     0.297 HD
ENDBRANCH  10  12
ENDBRANCH   6  10
BRANCH   7  14
ATOM     14  C   UNL     1      -2.433   9.404  -6.044  1.00  0.00     0.040 A 
ATOM     15  C   UNL     1      -2.249   8.527  -4.974  1.00  0.00     0.034 A 
ATOM     16  C   UNL     1      -2.186   8.967  -7.348  1.00  0.00     0.034 A 
ATOM     17  C   UNL     1      -1.826   7.234  -5.209  1.00  0.00     0.043 A 
ATOM     18  C   UNL     1      -1.763   7.672  -7.570  1.00  0.00     0.043 A 
ATOM     19  C   UNL     1      -1.582   6.808  -6.504  1.00  0.00     0.041 A 
ATOM     20  Cl  UNL     1      -1.597   6.142  -3.880  1.00  0.00    -0.084 Cl
ATOM     21  Cl  UNL     1      -1.455   7.127  -9.189  1.00  0.00    -0.084 Cl
ENDBRANCH   7  14
TORSDOF 3
ENDMDL
MODEL 8
REMARK VINA RESULT:    -3.812      3.240      5.036
REMARK INTER + INTRA:          -4.664
REMARK INTER:                  -4.380
REMARK INTRA:                  -0.284
REMARK UNBOUND:                -0.296
REMARK SMILES O=C(O)c1ccc2nc(-c3cc(Cl)cc(Cl)c3)oc2c1
REMARK SMILES IDX 5 1 6 2 20 3 8 4 18 5 4 6 9 7 7 8 19 9 2 10 1 11 3 12 10 14
REMARK SMILES IDX 11 15 17 16 12 17 15 18 14 19 13 20 16 21
REMARK H PARENT 3 13
ROOT
ATOM      1  C   UNL     1      -3.726  15.019  -4.488  1.00  0.00     0.018 A 
ATOM      2  C   UNL     1      -2.919  13.961  -4.194  1.00  0.00     0.033 A 
ATOM      3  C   UNL     1      -4.791  13.747  -6.257  1.00  0.00     0.065 A 
ATOM      4  N   UNL     1      -2.386  11.586  -4.870  1.00  0.00    -0.209 NA
ATOM      5  O   UNL     1      -3.843  11.429  -6.478  1.00  0.00    -0.436 OA
ATOM      6  C   UNL     1      -4.671  14.926  -5.519  1.00  0.00     0.063 A 
ATOM      7  C   UNL     1      -2.874  10.794  -5.792  1.00  0.00     0.227 A 
ATOM      8  C   UNL     1      -3.029  12.772  -4.926  1.00  0.00     0.110 A 
ATOM      9  C   UNL     1      -3.971  12.673  -5.965  1.00  0.00     0.156 A 
ENDROOT
BRANCH   6  10
ATOM     10  C   UNL     1      -5.542  16.076  -5.825  1.00  0.00     0.335 C 
ATOM     11  O   UNL     1      -5.523  16.575  -6.932  1.00  0.00    -0.246 OA
BRANCH  10  12
ATOM     12  O   UNL     1      -6.359  16.573  -4.875  1.00  0.00    -0.478 OA
ATOM     13  H   UNL     1      -6.374  16.115  -4.024  1.00  0.00     0.297 HD
ENDBRANCH  10  12
ENDBRANCH   6  10
BRANCH   7  14
ATOM     14  C   UNL     1      -2.425   9.409  -6.043  1.00  0.00     0.040 A 
ATOM     15  C   UNL     1      -2.165   8.980  -7.345  1.00  0.00     0.034 A 
ATOM     16  C   UNL     1      -2.261   8.522  -4.976  1.00  0.00     0.034 A 
ATOM     17  C   UNL     1      -1.746   7.685  -7.572  1.00  0.00     0.043 A 
ATOM     18  C   UNL     1      -1.840   7.229  -5.216  1.00  0.00     0.043 A 
ATOM     19  C   UNL     1      -1.584   6.811  -6.511  1.00  0.00     0.041 A 
ATOM     20  Cl  UNL     1      -1.421   7.150  -9.191  1.00  0.00    -0.084 Cl
ATOM     21  Cl  UNL     1      -1.635   6.125  -3.892  1.00  0.00    -0.084 Cl
ENDBRANCH   7  14
TORSDOF 3
ENDMDL
MODEL 9
REMARK VINA RESULT:    -3.686      4.614      7.504
REMARK INTER + INTRA:          -4.521
REMARK INTER:                  -4.234
REMARK INTRA:                  -0.287
REMARK UNBOUND:                -0.296
REMARK SMILES O=C(O)c1ccc2nc(-c3cc(Cl)cc(Cl)c3)oc2c1
REMARK SMILES IDX 5 1 6 2 20 3 8 4 18 5 4 6 9 7 7 8 19 9 2 10 1 11 3 12 10 14
REMARK SMILES IDX 11 15 17 16 12 17 15 18 14 19 13 20 16 21
REMARK H PARENT 3 13
ROOT
ATOM      1  C   UNL     1       0.104   6.990  -3.998  1.00  0.00     0.018 A 
ATOM      2  C   UNL     1       0.431   7.563  -5.190  1.00  0.00     0.033 A 
ATOM      3  C   UNL     1      -2.175   6.658  -4.755  1.00  0.00     0.065 A 
ATOM      4  N   UNL     1      -0.516   8.210  -7.441  1.00  0.00    -0.209 NA
ATOM      5  O   UNL     1      -2.546   7.507  -7.092  1.00  0.00    -0.436 OA
ATOM      6  C   UNL     1      -1.199   6.529  -3.765  1.00  0.00     0.063 A 
ATOM      7  C   UNL     1      -1.709   8.093  -7.969  1.00  0.00     0.227 A 
ATOM      8  C   UNL     1      -0.538   7.698  -6.191  1.00  0.00     0.110 A 
ATOM      9  C   UNL     1      -1.849   7.243  -5.964  1.00  0.00     0.156 A 
ENDROOT
BRANCH   6  10
ATOM     10  C   UNL     1      -1.539   5.905  -2.474  1.00  0.00     0.335 C 
ATOM     11  O   UNL     1      -0.885   6.164  -1.483  1.00  0.00    -0.246 OA
BRANCH  10  12
ATOM     12  O   UNL     1      -2.575   5.047  -2.391  1.00  0.00    -0.478 OA
ATOM     13  H   UNL     1      -2.418   4.212  -1.930  1.00  0.00     0.297 HD
ENDBRANCH  10  12
ENDBRANCH   6  10
BRANCH   7  14
ATOM     14  C   UNL     1      -2.081   8.539  -9.328  1.00  0.00     0.040 A 
ATOM     15  C   UNL     1      -2.415   7.602 -10.307  1.00  0.00     0.034 A 
ATOM     16  C   UNL     1      -2.099   9.900  -9.637  1.00  0.00     0.034 A 
ATOM     17  C   UNL     1      -2.762   8.026 -11.574  1.00  0.00     0.043 A 
ATOM     18  C   UNL     1      -2.449  10.312 -10.908  1.00  0.00     0.043 A 
ATOM     19  C   UNL     1      -2.779   9.377 -11.875  1.00  0.00     0.041 A 
ATOM     20  Cl  UNL     1      -3.178   6.862 -12.794  1.00  0.00    -0.084 Cl
ATOM     21  Cl  UNL     1      -2.472  12.004 -11.295  1.00  0.00    -0.084 Cl
ENDBRANCH   7  14
TORSDOF 3
ENDMDL
