MODEL 1
REMARK VINA RESULT:    -5.811      0.000      0.000
REMARK INTER + INTRA:          -8.508
REMARK INTER:                  -8.019
REMARK INTRA:                  -0.489
REMARK UNBOUND:                -0.489
REMARK SMILES Cc1n[nH]c(C)c1CCCOc1cc(C(=O)O)ccc1F
REMARK SMILES IDX 11 1 12 2 14 3 18 4 13 5 19 6 20 7 21 8 15 9 16 10 17 11
REMARK SMILES IDX 10 13 9 14 8 15 7 16 5 17 2 18 4 19 3 20 6 21 1 22
REMARK H PARENT 17 12 4 23
ROOT
ATOM      1  O   UNL     1       1.060   7.205  -3.802  1.00  0.00    -0.490 OA
ENDROOT
BRANCH   1   2
ATOM      2  C   UNL     1       0.651   6.038  -3.238  1.00  0.00     0.155 A 
ATOM      3  C   UNL     1      -0.894   4.811  -1.863  1.00  0.00     0.063 A 
ATOM      4  C   UNL     1      -0.172   3.639  -2.104  1.00  0.00     0.019 A 
ATOM      5  C   UNL     1      -0.474   6.014  -2.436  1.00  0.00     0.065 A 
ATOM      6  C   UNL     1       0.946   3.672  -2.910  1.00  0.00     0.044 A 
ATOM      7  C   UNL     1       1.357   4.864  -3.482  1.00  0.00     0.165 A 
ATOM      8  F   UNL     1       2.453   4.890  -4.271  1.00  0.00    -0.203 F 
BRANCH   3   9
ATOM      9  C   UNL     1      -2.091   4.780  -1.001  1.00  0.00     0.335 C 
ATOM     10  O   UNL     1      -2.462   5.790  -0.439  1.00  0.00    -0.246 OA
BRANCH   9  11
ATOM     11  O   UNL     1      -2.777   3.630  -0.842  1.00  0.00    -0.478 OA
ATOM     12  H   UNL     1      -3.312   3.545  -0.040  1.00  0.00     0.297 HD
ENDBRANCH   9  11
ENDBRANCH   3   9
ENDBRANCH   1   2
BRANCH   1  13
ATOM     13  C   UNL     1       1.043   7.277  -5.230  1.00  0.00     0.230 C 
BRANCH  13  14
ATOM     14  C   UNL     1       0.158   8.444  -5.671  1.00  0.00     0.046 C 
BRANCH  14  15
ATOM     15  C   UNL     1      -1.277   7.951  -5.865  1.00  0.00     0.043 C 
BRANCH  15  16
ATOM     16  C   UNL     1      -2.027   8.919  -6.743  1.00  0.00    -0.004 A 
ATOM     17  C   UNL     1      -2.765   9.971  -6.318  1.00  0.00     0.036 A 
ATOM     18  C   UNL     1      -2.079   8.893  -8.141  1.00  0.00     0.063 A 
ATOM     19  N   UNL     1      -3.271  10.585  -7.409  1.00  0.00    -0.282 N 
ATOM     20  N   UNL     1      -2.830   9.887  -8.540  1.00  0.00    -0.181 NA
ATOM     21  C   UNL     1      -2.982  10.383  -4.886  1.00  0.00     0.066 C 
ATOM     22  C   UNL     1      -1.397   7.886  -9.032  1.00  0.00     0.069 C 
ATOM     23  H   UNL     1      -3.840  11.370  -7.409  1.00  0.00     0.190 HD
ENDBRANCH  15  16
ENDBRANCH  14  15
ENDBRANCH  13  14
ENDBRANCH   1  13
TORSDOF 7
ENDMDL
MODEL 2
REMARK VINA RESULT:    -5.796      2.273      3.884
REMARK INTER + INTRA:          -8.488
REMARK INTER:                  -7.880
REMARK INTRA:                  -0.608
REMARK UNBOUND:                -0.489
REMARK SMILES Cc1n[nH]c(C)c1CCCOc1cc(C(=O)O)ccc1F
REMARK SMILES IDX 11 1 12 2 14 3 18 4 13 5 19 6 20 7 21 8 15 9 16 10 17 11
REMARK SMILES IDX 10 13 9 14 8 15 7 16 5 17 2 18 4 19 3 20 6 21 1 22
REMARK H PARENT 17 12 4 23
ROOT
ATOM      1  O   UNL     1      -2.709   4.770  -4.267  1.00  0.00    -0.490 OA
ENDROOT
BRANCH   1   2
ATOM      2  C   UNL     1      -1.564   4.505  -3.582  1.00  0.00     0.155 A 
ATOM      3  C   UNL     1       0.803   4.086  -3.556  1.00  0.00     0.063 A 
ATOM      4  C   UNL     1       0.764   3.973  -2.164  1.00  0.00     0.019 A 
ATOM      5  C   UNL     1      -0.371   4.354  -4.263  1.00  0.00     0.065 A 
ATOM      6  C   UNL     1      -0.430   4.132  -1.493  1.00  0.00     0.044 A 
ATOM      7  C   UNL     1      -1.592   4.402  -2.196  1.00  0.00     0.165 A 
ATOM      8  F   UNL     1      -2.759   4.556  -1.532  1.00  0.00    -0.203 F 
BRANCH   3   9
ATOM      9  C   UNL     1       2.080   3.918  -4.277  1.00  0.00     0.335 C 
ATOM     10  O   UNL     1       2.078   3.636  -5.458  1.00  0.00    -0.246 OA
BRANCH   9  11
ATOM     11  O   UNL     1       3.248   4.084  -3.626  1.00  0.00    -0.478 OA
ATOM     12  H   UNL     1       3.580   4.989  -3.544  1.00  0.00     0.297 HD
ENDBRANCH   9  11
ENDBRANCH   3   9
ENDBRANCH   1   2
BRANCH   1  13
ATOM     13  C   UNL     1      -3.247   6.089  -4.143  1.00  0.00     0.230 C 
BRANCH  13  14
ATOM     14  C   UNL     1      -3.249   6.768  -5.514  1.00  0.00     0.046 C 
BRANCH  14  15
ATOM     15  C   UNL     1      -2.061   7.727  -5.610  1.00  0.00     0.043 C 
BRANCH  15  16
ATOM     16  C   UNL     1      -2.408   8.868  -6.530  1.00  0.00    -0.004 A 
ATOM     17  C   UNL     1      -2.264   8.879  -7.875  1.00  0.00     0.036 A 
ATOM     18  C   UNL     1      -2.941  10.103  -6.145  1.00  0.00     0.063 A 
ATOM     19  N   UNL     1      -2.686  10.079  -8.325  1.00  0.00    -0.282 N 
ATOM     20  N   UNL     1      -3.102  10.832  -7.219  1.00  0.00    -0.181 NA
ATOM     21  C   UNL     1      -1.730   7.752  -8.720  1.00  0.00     0.066 C 
ATOM     22  C   UNL     1      -3.264  10.525  -4.734  1.00  0.00     0.069 C 
ATOM     23  H   UNL     1      -2.698  10.370  -9.250  1.00  0.00     0.190 HD
ENDBRANCH  15  16
ENDBRANCH  14  15
ENDBRANCH  13  14
ENDBRANCH   1  13
TORSDOF 7
ENDMDL
MODEL 3
REMARK VINA RESULT:    -5.683      2.173      3.329
REMARK INTER + INTRA:          -8.332
REMARK INTER:                  -7.671
REMARK INTRA:                  -0.661
REMARK UNBOUND:                -0.489
REMARK SMILES Cc1n[nH]c(C)c1CCCOc1cc(C(=O)O)ccc1F
REMARK SMILES IDX 11 1 12 2 14 3 18 4 13 5 19 6 20 7 21 8 15 9 16 10 17 11
REMARK SMILES IDX 10 13 9 14 8 15 7 16 5 17 2 18 4 19 3 20 6 21 1 22
REMARK H PARENT 17 12 4 23
ROOT
ATOM      1  O   UNL     1      -2.009   6.338  -3.549  1.00  0.00    -0.490 OA
ENDROOT
BRANCH   1   2
ATOM      2  C   UNL     1      -1.100   5.417  -3.130  1.00  0.00     0.155 A 
ATOM      3  C   UNL     1       0.968   4.232  -3.446  1.00  0.00     0.063 A 
ATOM      4  C   UNL     1       0.749   3.539  -2.252  1.00  0.00     0.019 A 
ATOM      5  C   UNL     1       0.034   5.175  -3.882  1.00  0.00     0.065 A 
ATOM      6  C   UNL     1      -0.383   3.793  -1.506  1.00  0.00     0.044 A 
ATOM      7  C   UNL     1      -1.305   4.732  -1.938  1.00  0.00     0.165 A 
ATOM      8  F   UNL     1      -2.412   4.975  -1.202  1.00  0.00    -0.203 F 
BRANCH   3   9
ATOM      9  C   UNL     1       2.178   3.963  -4.247  1.00  0.00     0.335 C 
ATOM     10  O   UNL     1       2.077   3.640  -5.412  1.00  0.00    -0.246 OA
BRANCH   9  11
ATOM     11  O   UNL     1       3.397   4.084  -3.685  1.00  0.00    -0.478 OA
ATOM     12  H   UNL     1       4.117   4.385  -4.258  1.00  0.00     0.297 HD
ENDBRANCH   9  11
ENDBRANCH   3   9
ENDBRANCH   1   2
BRANCH   1  13
ATOM     13  C   UNL     1      -3.014   5.889  -4.462  1.00  0.00     0.230 C 
BRANCH  13  14
ATOM     14  C   UNL     1      -3.391   7.032  -5.406  1.00  0.00     0.046 C 
BRANCH  14  15
ATOM     15  C   UNL     1      -2.192   7.967  -5.580  1.00  0.00     0.043 C 
BRANCH  15  16
ATOM     16  C   UNL     1      -2.575   9.113  -6.479  1.00  0.00    -0.004 A 
ATOM     17  C   UNL     1      -3.118  10.288  -6.084  1.00  0.00     0.036 A 
ATOM     18  C   UNL     1      -2.426   9.155  -7.870  1.00  0.00     0.063 A 
ATOM     19  N   UNL     1      -3.312  11.043  -7.186  1.00  0.00    -0.282 N 
ATOM     20  N   UNL     1      -2.874  10.308  -8.295  1.00  0.00    -0.181 NA
ATOM     21  C   UNL     1      -3.447  10.683  -4.668  1.00  0.00     0.066 C 
ATOM     22  C   UNL     1      -1.859   8.055  -8.731  1.00  0.00     0.069 C 
ATOM     23  H   UNL     1      -3.689  11.937  -7.206  1.00  0.00     0.190 HD
ENDBRANCH  15  16
ENDBRANCH  14  15
ENDBRANCH  13  14
ENDBRANCH   1  13
TORSDOF 7
ENDMDL
MODEL 4
REMARK VINA RESULT:    -5.653      0.614      1.872
REMARK INTER + INTRA:          -8.290
REMARK INTER:                  -7.640
REMARK INTRA:                  -0.650
REMARK UNBOUND:                -0.489
REMARK SMILES Cc1n[nH]c(C)c1CCCOc1cc(C(=O)O)ccc1F
REMARK SMILES IDX 11 1 12 2 14 3 18 4 13 5 19 6 20 7 21 8 15 9 16 10 17 11
REMARK SMILES IDX 10 13 9 14 8 15 7 16 5 17 2 18 4 19 3 20 6 21 1 22
REMARK H PARENT 17 12 4 23
ROOT
ATOM      1  O   UNL     1       0.220   6.082  -5.047  1.00  0.00    -0.490 OA
ENDROOT
BRANCH   1   2
ATOM      2  C   UNL     1       0.148   5.277  -3.954  1.00  0.00     0.155 A 
ATOM      3  C   UNL     1      -0.988   4.564  -1.957  1.00  0.00     0.063 A 
ATOM      4  C   UNL     1       0.014   3.616  -1.731  1.00  0.00     0.019 A 
ATOM      5  C   UNL     1      -0.914   5.396  -3.076  1.00  0.00     0.065 A 
ATOM      6  C   UNL     1       1.066   3.500  -2.615  1.00  0.00     0.044 A 
ATOM      7  C   UNL     1       1.134   4.324  -3.727  1.00  0.00     0.165 A 
ATOM      8  F   UNL     1       2.168   4.205  -4.589  1.00  0.00    -0.203 F 
BRANCH   3   9
ATOM      9  C   UNL     1      -2.116   4.690  -1.014  1.00  0.00     0.335 C 
ATOM     10  O   UNL     1      -2.387   5.771  -0.533  1.00  0.00    -0.246 OA
BRANCH   9  11
ATOM     11  O   UNL     1      -2.848   3.606  -0.691  1.00  0.00    -0.478 OA
ATOM     12  H   UNL     1      -3.424   3.679   0.082  1.00  0.00     0.297 HD
ENDBRANCH   9  11
ENDBRANCH   3   9
ENDBRANCH   1   2
BRANCH   1  13
ATOM     13  C   UNL     1       0.748   7.396  -4.851  1.00  0.00     0.230 C 
BRANCH  13  14
ATOM     14  C   UNL     1       0.073   8.367  -5.822  1.00  0.00     0.046 C 
BRANCH  14  15
ATOM     15  C   UNL     1      -1.408   8.006  -5.956  1.00  0.00     0.043 C 
BRANCH  15  16
ATOM     16  C   UNL     1      -2.102   9.039  -6.804  1.00  0.00    -0.004 A 
ATOM     17  C   UNL     1      -2.167   9.047  -8.156  1.00  0.00     0.036 A 
ATOM     18  C   UNL     1      -2.800  10.156  -6.334  1.00  0.00     0.063 A 
ATOM     19  N   UNL     1      -2.874  10.134  -8.528  1.00  0.00    -0.282 N 
ATOM     20  N   UNL     1      -3.258  10.817  -7.366  1.00  0.00    -0.181 NA
ATOM     21  C   UNL     1      -1.558   8.025  -9.080  1.00  0.00     0.066 C 
ATOM     22  C   UNL     1      -2.984  10.540  -4.888  1.00  0.00     0.069 C 
ATOM     23  H   UNL     1      -3.080  10.397  -9.439  1.00  0.00     0.190 HD
ENDBRANCH  15  16
ENDBRANCH  14  15
ENDBRANCH  13  14
ENDBRANCH   1  13
TORSDOF 7
ENDMDL
MODEL 5
REMARK VINA RESULT:    -4.793      3.757      6.539
REMARK INTER + INTRA:          -7.103
REMARK INTER:                  -6.242
REMARK INTRA:                  -0.861
REMARK UNBOUND:                -0.489
REMARK SMILES Cc1n[nH]c(C)c1CCCOc1cc(C(=O)O)ccc1F
REMARK SMILES IDX 11 1 12 2 14 3 18 4 13 5 19 6 20 7 21 8 15 9 16 10 17 11
REMARK SMILES IDX 10 13 9 14 8 15 7 16 5 17 2 18 4 19 3 20 6 21 1 22
REMARK H PARENT 17 12 4 23
ROOT
ATOM      1  O   UNL     1      -0.576   6.619  -5.904  1.00  0.00    -0.490 OA
ENDROOT
BRANCH   1   2
ATOM      2  C   UNL     1      -1.306   7.678  -6.344  1.00  0.00     0.155 A 
ATOM      3  C   UNL     1      -2.540   9.693  -5.899  1.00  0.00     0.063 A 
ATOM      4  C   UNL     1      -2.786   9.840  -7.267  1.00  0.00     0.019 A 
ATOM      5  C   UNL     1      -1.795   8.604  -5.442  1.00  0.00     0.065 A 
ATOM      6  C   UNL     1      -2.289   8.914  -8.160  1.00  0.00     0.044 A 
ATOM      7  C   UNL     1      -1.547   7.837  -7.705  1.00  0.00     0.165 A 
ATOM      8  F   UNL     1      -1.063   6.934  -8.585  1.00  0.00    -0.203 F 
BRANCH   3   9
ATOM      9  C   UNL     1      -3.069  10.682  -4.940  1.00  0.00     0.335 C 
ATOM     10  O   UNL     1      -4.182  10.542  -4.475  1.00  0.00    -0.246 OA
BRANCH   9  11
ATOM     11  O   UNL     1      -2.315  11.739  -4.577  1.00  0.00    -0.478 OA
ATOM     12  H   UNL     1      -2.505  12.138  -3.716  1.00  0.00     0.297 HD
ENDBRANCH   9  11
ENDBRANCH   3   9
ENDBRANCH   1   2
BRANCH   1  13
ATOM     13  C   UNL     1       0.206   6.816  -4.723  1.00  0.00     0.230 C 
BRANCH  13  14
ATOM     14  C   UNL     1       0.756   5.471  -4.245  1.00  0.00     0.046 C 
BRANCH  14  15
ATOM     15  C   UNL     1      -0.334   4.403  -4.364  1.00  0.00     0.043 C 
BRANCH  15  16
ATOM     16  C   UNL     1      -1.152   4.377  -3.100  1.00  0.00    -0.004 A 
ATOM     17  C   UNL     1      -0.724   3.968  -1.882  1.00  0.00     0.036 A 
ATOM     18  C   UNL     1      -2.487   4.776  -2.974  1.00  0.00     0.063 A 
ATOM     19  N   UNL     1      -1.754   4.098  -1.019  1.00  0.00    -0.282 N 
ATOM     20  N   UNL     1      -2.851   4.603  -1.730  1.00  0.00    -0.181 NA
ATOM     21  C   UNL     1       0.654   3.460  -1.551  1.00  0.00     0.066 C 
ATOM     22  C   UNL     1      -3.360   5.303  -4.085  1.00  0.00     0.069 C 
ATOM     23  H   UNL     1      -1.737   3.880  -0.075  1.00  0.00     0.190 HD
ENDBRANCH  15  16
ENDBRANCH  14  15
ENDBRANCH  13  14
ENDBRANCH   1  13
TORSDOF 7
ENDMDL
MODEL 6
REMARK VINA RESULT:    -4.726      3.945      7.097
REMARK INTER + INTRA:          -7.011
REMARK INTER:                  -6.158
REMARK INTRA:                  -0.853
REMARK UNBOUND:                -0.489
REMARK SMILES Cc1n[nH]c(C)c1CCCOc1cc(C(=O)O)ccc1F
REMARK SMILES IDX 11 1 12 2 14 3 18 4 13 5 19 6 20 7 21 8 15 9 16 10 17 11
REMARK SMILES IDX 10 13 9 14 8 15 7 16 5 17 2 18 4 19 3 20 6 21 1 22
REMARK H PARENT 17 12 4 23
ROOT
ATOM      1  O   UNL     1      -1.903   7.488  -4.283  1.00  0.00    -0.490 OA
ENDROOT
BRANCH   1   2
ATOM      2  C   UNL     1      -2.131   8.238  -5.393  1.00  0.00     0.155 A 
ATOM      3  C   UNL     1      -2.061   8.508  -7.781  1.00  0.00     0.063 A 
ATOM      4  C   UNL     1      -2.615   9.784  -7.650  1.00  0.00     0.019 A 
ATOM      5  C   UNL     1      -1.820   7.736  -6.643  1.00  0.00     0.065 A 
ATOM      6  C   UNL     1      -2.928  10.274  -6.399  1.00  0.00     0.044 A 
ATOM      7  C   UNL     1      -2.693   9.505  -5.272  1.00  0.00     0.165 A 
ATOM      8  F   UNL     1      -3.002   9.990  -4.049  1.00  0.00    -0.203 F 
BRANCH   3   9
ATOM      9  C   UNL     1      -1.725   7.981  -9.118  1.00  0.00     0.335 C 
ATOM     10  O   UNL     1      -1.847   6.796  -9.352  1.00  0.00    -0.246 OA
BRANCH   9  11
ATOM     11  O   UNL     1      -1.289   8.816 -10.082  1.00  0.00    -0.478 OA
ATOM     12  H   UNL     1      -0.607   9.456  -9.833  1.00  0.00     0.297 HD
ENDBRANCH   9  11
ENDBRANCH   3   9
ENDBRANCH   1   2
BRANCH   1  13
ATOM     13  C   UNL     1      -2.211   6.094  -4.367  1.00  0.00     0.230 C 
BRANCH  13  14
ATOM     14  C   UNL     1      -1.789   5.400  -3.071  1.00  0.00     0.046 C 
BRANCH  14  15
ATOM     15  C   UNL     1      -0.503   6.040  -2.545  1.00  0.00     0.043 C 
BRANCH  15  16
ATOM     16  C   UNL     1       0.689   5.324  -3.124  1.00  0.00    -0.004 A 
ATOM     17  C   UNL     1       1.082   4.063  -2.827  1.00  0.00     0.036 A 
ATOM     18  C   UNL     1       1.582   5.841  -4.068  1.00  0.00     0.063 A 
ATOM     19  N   UNL     1       2.188   3.795  -3.552  1.00  0.00    -0.282 N 
ATOM     20  N   UNL     1       2.485   4.929  -4.320  1.00  0.00    -0.181 NA
ATOM     21  C   UNL     1       0.406   3.127  -1.860  1.00  0.00     0.066 C 
ATOM     22  C   UNL     1       1.522   7.218  -4.679  1.00  0.00     0.069 C 
ATOM     23  H   UNL     1       2.689   2.965  -3.543  1.00  0.00     0.190 HD
ENDBRANCH  15  16
ENDBRANCH  14  15
ENDBRANCH  13  14
ENDBRANCH   1  13
TORSDOF 7
ENDMDL
MODEL 7
REMARK VINA RESULT:    -4.711      3.939      7.125
REMARK INTER + INTRA:          -6.990
REMARK INTER:                  -6.128
REMARK INTRA:                  -0.861
REMARK UNBOUND:                -0.489
REMARK SMILES Cc1n[nH]c(C)c1CCCOc1cc(C(=O)O)ccc1F
REMARK SMILES IDX 11 1 12 2 14 3 18 4 13 5 19 6 20 7 21 8 15 9 16 10 17 11
REMARK SMILES IDX 10 13 9 14 8 15 7 16 5 17 2 18 4 19 3 20 6 21 1 22
REMARK H PARENT 17 12 4 23
ROOT
ATOM      1  O   UNL     1      -1.896   7.545  -4.270  1.00  0.00    -0.490 OA
ENDROOT
BRANCH   1   2
ATOM      2  C   UNL     1      -2.121   8.257  -5.407  1.00  0.00     0.155 A 
ATOM      3  C   UNL     1      -2.011   8.458  -7.800  1.00  0.00     0.063 A 
ATOM      4  C   UNL     1      -2.599   9.722  -7.717  1.00  0.00     0.019 A 
ATOM      5  C   UNL     1      -1.773   7.726  -6.635  1.00  0.00     0.065 A 
ATOM      6  C   UNL     1      -2.948  10.241  -6.488  1.00  0.00     0.044 A 
ATOM      7  C   UNL     1      -2.716   9.511  -5.334  1.00  0.00     0.165 A 
ATOM      8  F   UNL     1      -3.060  10.025  -4.133  1.00  0.00    -0.203 F 
BRANCH   3   9
ATOM      9  C   UNL     1      -1.637   7.900  -9.114  1.00  0.00     0.335 C 
ATOM     10  O   UNL     1      -1.438   6.708  -9.234  1.00  0.00    -0.246 OA
BRANCH   9  11
ATOM     11  O   UNL     1      -1.522   8.712 -10.183  1.00  0.00    -0.478 OA
ATOM     12  H   UNL     1      -1.928   9.588 -10.114  1.00  0.00     0.297 HD
ENDBRANCH   9  11
ENDBRANCH   3   9
ENDBRANCH   1   2
BRANCH   1  13
ATOM     13  C   UNL     1      -2.183   6.145  -4.314  1.00  0.00     0.230 C 
BRANCH  13  14
ATOM     14  C   UNL     1      -1.767   5.498  -2.992  1.00  0.00     0.046 C 
BRANCH  14  15
ATOM     15  C   UNL     1      -0.437   6.097  -2.527  1.00  0.00     0.043 C 
BRANCH  15  16
ATOM     16  C   UNL     1       0.703   5.332  -3.147  1.00  0.00    -0.004 A 
ATOM     17  C   UNL     1       1.556   5.797  -4.089  1.00  0.00     0.036 A 
ATOM     18  C   UNL     1       1.072   4.016  -2.845  1.00  0.00     0.063 A 
ATOM     19  N   UNL     1       2.429   4.809  -4.378  1.00  0.00    -0.282 N 
ATOM     20  N   UNL     1       2.102   3.700  -3.587  1.00  0.00    -0.181 NA
ATOM     21  C   UNL     1       1.534   7.171  -4.705  1.00  0.00     0.066 C 
ATOM     22  C   UNL     1       0.393   3.115  -1.845  1.00  0.00     0.069 C 
ATOM     23  H   UNL     1       3.153   4.858  -5.020  1.00  0.00     0.190 HD
ENDBRANCH  15  16
ENDBRANCH  14  15
ENDBRANCH  13  14
ENDBRANCH   1  13
TORSDOF 7
ENDMDL
MODEL 8
REMARK VINA RESULT:    -4.566      3.916      6.933
REMARK INTER + INTRA:          -6.791
REMARK INTER:                  -6.056
REMARK INTRA:                  -0.735
REMARK UNBOUND:                -0.489
REMARK SMILES Cc1n[nH]c(C)c1CCCOc1cc(C(=O)O)ccc1F
REMARK SMILES IDX 11 1 12 2 14 3 18 4 13 5 19 6 20 7 21 8 15 9 16 10 17 11
REMARK SMILES IDX 10 13 9 14 8 15 7 16 5 17 2 18 4 19 3 20 6 21 1 22
REMARK H PARENT 17 12 4 23
ROOT
ATOM      1  O   UNL     1      -0.750   7.446  -4.586  1.00  0.00    -0.490 OA
ENDROOT
BRANCH   1   2
ATOM      2  C   UNL     1      -1.354   8.080  -5.627  1.00  0.00     0.155 A 
ATOM      3  C   UNL     1      -1.766   8.292  -7.987  1.00  0.00     0.063 A 
ATOM      4  C   UNL     1      -2.604   9.382  -7.738  1.00  0.00     0.019 A 
ATOM      5  C   UNL     1      -1.141   7.641  -6.921  1.00  0.00     0.065 A 
ATOM      6  C   UNL     1      -2.815   9.809  -6.444  1.00  0.00     0.044 A 
ATOM      7  C   UNL     1      -2.197   9.159  -5.388  1.00  0.00     0.165 A 
ATOM      8  F   UNL     1      -2.408   9.582  -4.122  1.00  0.00    -0.203 F 
BRANCH   3   9
ATOM      9  C   UNL     1      -1.539   7.832  -9.371  1.00  0.00     0.335 C 
ATOM     10  O   UNL     1      -1.624   8.617 -10.293  1.00  0.00    -0.246 OA
BRANCH   9  11
ATOM     11  O   UNL     1      -1.231   6.542  -9.610  1.00  0.00    -0.478 OA
ATOM     12  H   UNL     1      -0.388   6.367 -10.052  1.00  0.00     0.297 HD
ENDBRANCH   9  11
ENDBRANCH   3   9
ENDBRANCH   1   2
BRANCH   1  13
ATOM     13  C   UNL     1       0.581   6.971  -4.800  1.00  0.00     0.230 C 
BRANCH  13  14
ATOM     14  C   UNL     1       0.822   5.727  -3.943  1.00  0.00     0.046 C 
BRANCH  14  15
ATOM     15  C   UNL     1      -0.258   4.685  -4.241  1.00  0.00     0.043 C 
BRANCH  15  16
ATOM     16  C   UNL     1      -1.139   4.512  -3.031  1.00  0.00    -0.004 A 
ATOM     17  C   UNL     1      -0.751   4.031  -1.827  1.00  0.00     0.036 A 
ATOM     18  C   UNL     1      -2.499   4.826  -2.951  1.00  0.00     0.063 A 
ATOM     19  N   UNL     1      -1.830   4.034  -1.016  1.00  0.00    -0.282 N 
ATOM     20  N   UNL     1      -2.917   4.533  -1.746  1.00  0.00    -0.181 NA
ATOM     21  C   UNL     1       0.636   3.575  -1.458  1.00  0.00     0.066 C 
ATOM     22  C   UNL     1      -3.343   5.391  -4.065  1.00  0.00     0.069 C 
ATOM     23  H   UNL     1      -1.850   3.742  -0.092  1.00  0.00     0.190 HD
ENDBRANCH  15  16
ENDBRANCH  14  15
ENDBRANCH  13  14
ENDBRANCH   1  13
TORSDOF 7
ENDMDL
MODEL 9
REMARK VINA RESULT:    -4.522      4.912      7.933
REMARK INTER + INTRA:          -6.729
REMARK INTER:                  -6.051
REMARK INTRA:                  -0.679
REMARK UNBOUND:                -0.489
REMARK SMILES Cc1n[nH]c(C)c1CCCOc1cc(C(=O)O)ccc1F
REMARK SMILES IDX 11 1 12 2 14 3 18 4 13 5 19 6 20 7 21 8 15 9 16 10 17 11
REMARK SMILES IDX 10 13 9 14 8 15 7 16 5 17 2 18 4 19 3 20 6 21 1 22
REMARK H PARENT 17 12 4 23
ROOT
ATOM      1  O   UNL     1      -3.091   9.667  -5.443  1.00  0.00    -0.490 OA
ENDROOT
BRANCH   1   2
ATOM      2  C   UNL     1      -3.422  10.978  -5.586  1.00  0.00     0.155 A 
ATOM      3  C   UNL     1      -4.454  12.746  -6.848  1.00  0.00     0.063 A 
ATOM      4  C   UNL     1      -4.097  13.660  -5.853  1.00  0.00     0.019 A 
ATOM      5  C   UNL     1      -4.112  11.399  -6.707  1.00  0.00     0.065 A 
ATOM      6  C   UNL     1      -3.413  13.230  -4.735  1.00  0.00     0.044 A 
ATOM      7  C   UNL     1      -3.079  11.893  -4.596  1.00  0.00     0.165 A 
ATOM      8  F   UNL     1      -2.410  11.478  -3.498  1.00  0.00    -0.203 F 
BRANCH   3   9
ATOM      9  C   UNL     1      -5.186  13.203  -8.045  1.00  0.00     0.335 C 
ATOM     10  O   UNL     1      -5.274  14.389  -8.287  1.00  0.00    -0.246 OA
BRANCH   9  11
ATOM     11  O   UNL     1      -5.751  12.302  -8.873  1.00  0.00    -0.478 OA
ATOM     12  H   UNL     1      -5.278  12.101  -9.693  1.00  0.00     0.297 HD
ENDBRANCH   9  11
ENDBRANCH   3   9
ENDBRANCH   1   2
BRANCH   1  13
ATOM     13  C   UNL     1      -2.085   9.153  -6.320  1.00  0.00     0.230 C 
BRANCH  13  14
ATOM     14  C   UNL     1      -1.832   7.680  -5.996  1.00  0.00     0.046 C 
BRANCH  14  15
ATOM     15  C   UNL     1      -1.602   7.521  -4.491  1.00  0.00     0.043 C 
BRANCH  15  16
ATOM     16  C   UNL     1      -0.980   6.177  -4.217  1.00  0.00    -0.004 A 
ATOM     17  C   UNL     1      -1.648   5.019  -4.003  1.00  0.00     0.036 A 
ATOM     18  C   UNL     1       0.390   5.902  -4.143  1.00  0.00     0.063 A 
ATOM     19  N   UNL     1      -0.733   4.048  -3.796  1.00  0.00    -0.282 N 
ATOM     20  N   UNL     1       0.539   4.629  -3.884  1.00  0.00    -0.181 NA
ATOM     21  C   UNL     1      -3.144   4.845  -3.998  1.00  0.00     0.066 C 
ATOM     22  C   UNL     1       1.502   6.904  -4.320  1.00  0.00     0.069 C 
ATOM     23  H   UNL     1      -0.923   3.115  -3.616  1.00  0.00     0.190 HD
ENDBRANCH  15  16
ENDBRANCH  14  15
ENDBRANCH  13  14
ENDBRANCH   1  13
TORSDOF 7
ENDMDL
