MODEL 1
REMARK VINA RESULT:    -5.453      0.000      0.000
REMARK INTER + INTRA:          -8.058
REMARK INTER:                  -7.525
REMARK INTRA:                  -0.533
REMARK UNBOUND:                -0.533
REMARK SMILES Cc1n[nH]c(C)c1CCCOc1cc(C(=O)O)ccc1F
REMARK SMILES IDX 11 1 12 2 14 3 18 4 13 5 19 6 20 7 21 8 15 9 16 10 17 11
REMARK SMILES IDX 10 13 9 14 8 15 7 16 5 17 2 18 4 19 3 20 6 21 1 22
REMARK H PARENT 17 12 4 23
ROOT
ATOM      1  O   UNL     1      -8.620   0.705   1.487  1.00  0.00    -0.490 OA
ENDROOT
BRANCH   1   2
ATOM      2  C   UNL     1      -7.627   1.549   1.097  1.00  0.00     0.155 A 
ATOM      3  C   UNL     1      -6.715   3.105  -0.493  1.00  0.00     0.063 A 
ATOM      4  C   UNL     1      -5.594   3.275   0.323  1.00  0.00     0.019 A 
ATOM      5  C   UNL     1      -7.734   2.235  -0.098  1.00  0.00     0.065 A 
ATOM      6  C   UNL     1      -5.499   2.591   1.516  1.00  0.00     0.044 A 
ATOM      7  C   UNL     1      -6.513   1.733   1.908  1.00  0.00     0.165 A 
ATOM      8  F   UNL     1      -6.414   1.065   3.078  1.00  0.00    -0.203 F 
BRANCH   3   9
ATOM      9  C   UNL     1      -6.820   3.837  -1.771  1.00  0.00     0.335 C 
ATOM     10  O   UNL     1      -7.574   3.443  -2.637  1.00  0.00    -0.246 OA
BRANCH   9  11
ATOM     11  O   UNL     1      -6.082   4.946  -1.974  1.00  0.00    -0.478 OA
ATOM     12  H   UNL     1      -6.535   5.712  -2.353  1.00  0.00     0.297 HD
ENDBRANCH   9  11
ENDBRANCH   3   9
ENDBRANCH   1   2
BRANCH   1  13
ATOM     13  C   UNL     1      -9.366   1.075   2.649  1.00  0.00     0.230 C 
BRANCH  13  14
ATOM     14  C   UNL     1     -10.829   1.301   2.265  1.00  0.00     0.046 C 
BRANCH  14  15
ATOM     15  C   UNL     1     -11.066   2.791   2.013  1.00  0.00     0.043 C 
BRANCH  15  16
ATOM     16  C   UNL     1     -12.524   3.111   2.219  1.00  0.00    -0.004 A 
ATOM     17  C   UNL     1     -13.502   3.003   1.290  1.00  0.00     0.036 A 
ATOM     18  C   UNL     1     -13.107   3.565   3.406  1.00  0.00     0.063 A 
ATOM     19  N   UNL     1     -14.662   3.382   1.867  1.00  0.00    -0.282 N 
ATOM     20  N   UNL     1     -14.387   3.735   3.195  1.00  0.00    -0.181 NA
ATOM     21  C   UNL     1     -13.327   2.541  -0.133  1.00  0.00     0.066 C 
ATOM     22  C   UNL     1     -12.384   3.827   4.703  1.00  0.00     0.069 C 
ATOM     23  H   UNL     1     -15.531   3.406   1.438  1.00  0.00     0.190 HD
ENDBRANCH  15  16
ENDBRANCH  14  15
ENDBRANCH  13  14
ENDBRANCH   1  13
TORSDOF 7
ENDMDL
MODEL 2
REMARK VINA RESULT:    -5.429      2.294      3.917
REMARK INTER + INTRA:          -8.025
REMARK INTER:                  -7.523
REMARK INTRA:                  -0.501
REMARK UNBOUND:                -0.533
REMARK SMILES Cc1n[nH]c(C)c1CCCOc1cc(C(=O)O)ccc1F
REMARK SMILES IDX 11 1 12 2 14 3 18 4 13 5 19 6 20 7 21 8 15 9 16 10 17 11
REMARK SMILES IDX 10 13 9 14 8 15 7 16 5 17 2 18 4 19 3 20 6 21 1 22
REMARK H PARENT 17 12 4 23
ROOT
ATOM      1  O   UNL     1      -8.493   5.269   0.746  1.00  0.00    -0.490 OA
ENDROOT
BRANCH   1   2
ATOM      2  C   UNL     1      -7.545   4.295   0.734  1.00  0.00     0.155 A 
ATOM      3  C   UNL     1      -6.277   2.600   1.876  1.00  0.00     0.063 A 
ATOM      4  C   UNL     1      -5.611   2.301   0.685  1.00  0.00     0.019 A 
ATOM      5  C   UNL     1      -7.248   3.604   1.894  1.00  0.00     0.065 A 
ATOM      6  C   UNL     1      -5.918   2.992  -0.469  1.00  0.00     0.044 A 
ATOM      7  C   UNL     1      -6.885   3.983  -0.450  1.00  0.00     0.165 A 
ATOM      8  F   UNL     1      -7.181   4.656  -1.584  1.00  0.00    -0.203 F 
BRANCH   3   9
ATOM      9  C   UNL     1      -5.952   1.863   3.112  1.00  0.00     0.335 C 
ATOM     10  O   UNL     1      -6.239   2.333   4.194  1.00  0.00    -0.246 OA
BRANCH   9  11
ATOM     11  O   UNL     1      -5.341   0.664   3.040  1.00  0.00    -0.478 OA
ATOM     12  H   UNL     1      -5.128   0.228   3.877  1.00  0.00     0.297 HD
ENDBRANCH   9  11
ENDBRANCH   3   9
ENDBRANCH   1   2
BRANCH   1  13
ATOM     13  C   UNL     1      -9.664   5.044  -0.043  1.00  0.00     0.230 C 
BRANCH  13  14
ATOM     14  C   UNL     1     -10.888   4.972   0.871  1.00  0.00     0.046 C 
BRANCH  14  15
ATOM     15  C   UNL     1     -11.173   3.512   1.228  1.00  0.00     0.043 C 
BRANCH  15  16
ATOM     16  C   UNL     1     -12.614   3.367   1.643  1.00  0.00    -0.004 A 
ATOM     17  C   UNL     1     -13.108   3.560   2.888  1.00  0.00     0.036 A 
ATOM     18  C   UNL     1     -13.680   3.015   0.808  1.00  0.00     0.063 A 
ATOM     19  N   UNL     1     -14.437   3.332   2.844  1.00  0.00    -0.282 N 
ATOM     20  N   UNL     1     -14.772   2.987   1.528  1.00  0.00    -0.181 NA
ATOM     21  C   UNL     1     -12.315   3.958   4.106  1.00  0.00     0.066 C 
ATOM     22  C   UNL     1     -13.584   2.708  -0.665  1.00  0.00     0.069 C 
ATOM     23  H   UNL     1     -15.052   3.395   3.591  1.00  0.00     0.190 HD
ENDBRANCH  15  16
ENDBRANCH  14  15
ENDBRANCH  13  14
ENDBRANCH   1  13
TORSDOF 7
ENDMDL
MODEL 3
REMARK VINA RESULT:    -5.324      0.069      1.770
REMARK INTER + INTRA:          -7.880
REMARK INTER:                  -7.285
REMARK INTRA:                  -0.595
REMARK UNBOUND:                -0.533
REMARK SMILES Cc1n[nH]c(C)c1CCCOc1cc(C(=O)O)ccc1F
REMARK SMILES IDX 11 1 12 2 14 3 18 4 13 5 19 6 20 7 21 8 15 9 16 10 17 11
REMARK SMILES IDX 10 13 9 14 8 15 7 16 5 17 2 18 4 19 3 20 6 21 1 22
REMARK H PARENT 17 12 4 23
ROOT
ATOM      1  O   UNL     1      -8.569   0.713   1.533  1.00  0.00    -0.490 OA
ENDROOT
BRANCH   1   2
ATOM      2  C   UNL     1      -7.585   1.555   1.119  1.00  0.00     0.155 A 
ATOM      3  C   UNL     1      -6.701   3.097  -0.501  1.00  0.00     0.063 A 
ATOM      4  C   UNL     1      -5.568   3.279   0.296  1.00  0.00     0.019 A 
ATOM      5  C   UNL     1      -7.712   2.229  -0.081  1.00  0.00     0.065 A 
ATOM      6  C   UNL     1      -5.453   2.606   1.495  1.00  0.00     0.044 A 
ATOM      7  C   UNL     1      -6.459   1.750   1.911  1.00  0.00     0.165 A 
ATOM      8  F   UNL     1      -6.340   1.094   3.086  1.00  0.00    -0.203 F 
BRANCH   3   9
ATOM      9  C   UNL     1      -6.828   3.816  -1.784  1.00  0.00     0.335 C 
ATOM     10  O   UNL     1      -7.597   3.413  -2.632  1.00  0.00    -0.246 OA
BRANCH   9  11
ATOM     11  O   UNL     1      -6.093   4.923  -2.010  1.00  0.00    -0.478 OA
ATOM     12  H   UNL     1      -6.549   5.678  -2.408  1.00  0.00     0.297 HD
ENDBRANCH   9  11
ENDBRANCH   3   9
ENDBRANCH   1   2
BRANCH   1  13
ATOM     13  C   UNL     1      -9.349   1.130   2.656  1.00  0.00     0.230 C 
BRANCH  13  14
ATOM     14  C   UNL     1     -10.806   1.311   2.225  1.00  0.00     0.046 C 
BRANCH  14  15
ATOM     15  C   UNL     1     -11.088   2.798   1.994  1.00  0.00     0.043 C 
BRANCH  15  16
ATOM     16  C   UNL     1     -12.553   3.072   2.213  1.00  0.00    -0.004 A 
ATOM     17  C   UNL     1     -13.122   3.485   3.370  1.00  0.00     0.036 A 
ATOM     18  C   UNL     1     -13.566   2.950   1.256  1.00  0.00     0.063 A 
ATOM     19  N   UNL     1     -14.448   3.614   3.154  1.00  0.00    -0.282 N 
ATOM     20  N   UNL     1     -14.702   3.268   1.820  1.00  0.00    -0.181 NA
ATOM     21  C   UNL     1     -12.403   3.754   4.666  1.00  0.00     0.066 C 
ATOM     22  C   UNL     1     -13.381   2.515  -0.176  1.00  0.00     0.069 C 
ATOM     23  H   UNL     1     -15.108   3.895   3.806  1.00  0.00     0.190 HD
ENDBRANCH  15  16
ENDBRANCH  14  15
ENDBRANCH  13  14
ENDBRANCH   1  13
TORSDOF 7
ENDMDL
MODEL 4
REMARK VINA RESULT:    -5.247      2.263      3.483
REMARK INTER + INTRA:          -7.774
REMARK INTER:                  -7.172
REMARK INTRA:                  -0.603
REMARK UNBOUND:                -0.533
REMARK SMILES Cc1n[nH]c(C)c1CCCOc1cc(C(=O)O)ccc1F
REMARK SMILES IDX 11 1 12 2 14 3 18 4 13 5 19 6 20 7 21 8 15 9 16 10 17 11
REMARK SMILES IDX 10 13 9 14 8 15 7 16 5 17 2 18 4 19 3 20 6 21 1 22
REMARK H PARENT 17 12 4 23
ROOT
ATOM      1  O   UNL     1      -8.406   5.249   0.627  1.00  0.00    -0.490 OA
ENDROOT
BRANCH   1   2
ATOM      2  C   UNL     1      -7.480   4.254   0.664  1.00  0.00     0.155 A 
ATOM      3  C   UNL     1      -6.260   2.581   1.886  1.00  0.00     0.063 A 
ATOM      4  C   UNL     1      -5.592   2.217   0.714  1.00  0.00     0.019 A 
ATOM      5  C   UNL     1      -7.208   3.606   1.854  1.00  0.00     0.065 A 
ATOM      6  C   UNL     1      -5.874   2.865  -0.470  1.00  0.00     0.044 A 
ATOM      7  C   UNL     1      -6.819   3.878  -0.500  1.00  0.00     0.165 A 
ATOM      8  F   UNL     1      -7.091   4.509  -1.664  1.00  0.00    -0.203 F 
BRANCH   3   9
ATOM      9  C   UNL     1      -5.960   1.889   3.155  1.00  0.00     0.335 C 
ATOM     10  O   UNL     1      -6.314   2.374   4.210  1.00  0.00    -0.246 OA
BRANCH   9  11
ATOM     11  O   UNL     1      -5.300   0.714   3.141  1.00  0.00    -0.478 OA
ATOM     12  H   UNL     1      -5.311   0.195   3.957  1.00  0.00     0.297 HD
ENDBRANCH   9  11
ENDBRANCH   3   9
ENDBRANCH   1   2
BRANCH   1  13
ATOM     13  C   UNL     1      -9.637   4.965  -0.043  1.00  0.00     0.230 C 
BRANCH  13  14
ATOM     14  C   UNL     1     -10.779   4.950   0.974  1.00  0.00     0.046 C 
BRANCH  14  15
ATOM     15  C   UNL     1     -11.134   3.502   1.321  1.00  0.00     0.043 C 
BRANCH  15  16
ATOM     16  C   UNL     1     -12.580   3.424   1.737  1.00  0.00    -0.004 A 
ATOM     17  C   UNL     1     -13.623   3.112   0.934  1.00  0.00     0.036 A 
ATOM     18  C   UNL     1     -13.080   3.655   3.023  1.00  0.00     0.063 A 
ATOM     19  N   UNL     1     -14.745   3.150   1.684  1.00  0.00    -0.282 N 
ATOM     20  N   UNL     1     -14.379   3.498   2.990  1.00  0.00    -0.181 NA
ATOM     21  C   UNL     1     -13.547   2.780  -0.533  1.00  0.00     0.066 C 
ATOM     22  C   UNL     1     -12.265   4.032   4.234  1.00  0.00     0.069 C 
ATOM     23  H   UNL     1     -15.646   2.971   1.372  1.00  0.00     0.190 HD
ENDBRANCH  15  16
ENDBRANCH  14  15
ENDBRANCH  13  14
ENDBRANCH   1  13
TORSDOF 7
ENDMDL
MODEL 5
REMARK VINA RESULT:    -4.527      3.810      6.534
REMARK INTER + INTRA:          -6.780
REMARK INTER:                  -5.936
REMARK INTRA:                  -0.844
REMARK UNBOUND:                -0.533
REMARK SMILES Cc1n[nH]c(C)c1CCCOc1cc(C(=O)O)ccc1F
REMARK SMILES IDX 11 1 12 2 14 3 18 4 13 5 19 6 20 7 21 8 15 9 16 10 17 11
REMARK SMILES IDX 10 13 9 14 8 15 7 16 5 17 2 18 4 19 3 20 6 21 1 22
REMARK H PARENT 17 12 4 23
ROOT
ATOM      1  O   UNL     1      -9.909   3.076   2.437  1.00  0.00    -0.490 OA
ENDROOT
BRANCH   1   2
ATOM      2  C   UNL     1     -11.258   3.151   2.279  1.00  0.00     0.155 A 
ATOM      3  C   UNL     1     -13.216   2.906   0.906  1.00  0.00     0.063 A 
ATOM      4  C   UNL     1     -14.016   3.300   1.982  1.00  0.00     0.019 A 
ATOM      5  C   UNL     1     -11.830   2.833   1.062  1.00  0.00     0.065 A 
ATOM      6  C   UNL     1     -13.436   3.609   3.195  1.00  0.00     0.044 A 
ATOM      7  C   UNL     1     -12.062   3.531   3.349  1.00  0.00     0.165 A 
ATOM      8  F   UNL     1     -11.500   3.835   4.539  1.00  0.00    -0.203 F 
BRANCH   3   9
ATOM      9  C   UNL     1     -13.833   2.574  -0.393  1.00  0.00     0.335 C 
ATOM     10  O   UNL     1     -15.004   2.827  -0.592  1.00  0.00    -0.246 OA
BRANCH   9  11
ATOM     11  O   UNL     1     -13.095   1.996  -1.361  1.00  0.00    -0.478 OA
ATOM     12  H   UNL     1     -12.557   1.234  -1.107  1.00  0.00     0.297 HD
ENDBRANCH   9  11
ENDBRANCH   3   9
ENDBRANCH   1   2
BRANCH   1  13
ATOM     13  C   UNL     1      -9.257   1.919   1.907  1.00  0.00     0.230 C 
BRANCH  13  14
ATOM     14  C   UNL     1      -7.743   2.075   2.055  1.00  0.00     0.046 C 
BRANCH  14  15
ATOM     15  C   UNL     1      -7.367   3.553   1.923  1.00  0.00     0.043 C 
BRANCH  15  16
ATOM     16  C   UNL     1      -7.068   3.869   0.481  1.00  0.00    -0.004 A 
ATOM     17  C   UNL     1      -6.011   3.414  -0.232  1.00  0.00     0.036 A 
ATOM     18  C   UNL     1      -7.837   4.680  -0.361  1.00  0.00     0.063 A 
ATOM     19  N   UNL     1      -6.105   3.925  -1.478  1.00  0.00    -0.282 N 
ATOM     20  N   UNL     1      -7.257   4.720  -1.532  1.00  0.00    -0.181 NA
ATOM     21  C   UNL     1      -4.926   2.501   0.275  1.00  0.00     0.066 C 
ATOM     22  C   UNL     1      -9.108   5.396   0.021  1.00  0.00     0.069 C 
ATOM     23  H   UNL     1      -5.484   3.769  -2.206  1.00  0.00     0.190 HD
ENDBRANCH  15  16
ENDBRANCH  14  15
ENDBRANCH  13  14
ENDBRANCH   1  13
TORSDOF 7
ENDMDL
MODEL 6
REMARK VINA RESULT:    -4.518      3.935      7.072
REMARK INTER + INTRA:          -6.768
REMARK INTER:                  -5.924
REMARK INTRA:                  -0.844
REMARK UNBOUND:                -0.533
REMARK SMILES Cc1n[nH]c(C)c1CCCOc1cc(C(=O)O)ccc1F
REMARK SMILES IDX 11 1 12 2 14 3 18 4 13 5 19 6 20 7 21 8 15 9 16 10 17 11
REMARK SMILES IDX 10 13 9 14 8 15 7 16 5 17 2 18 4 19 3 20 6 21 1 22
REMARK H PARENT 17 12 4 23
ROOT
ATOM      1  O   UNL     1     -10.321   3.018   0.437  1.00  0.00    -0.490 OA
ENDROOT
BRANCH   1   2
ATOM      2  C   UNL     1     -11.490   3.135   1.120  1.00  0.00     0.155 A 
ATOM      3  C   UNL     1     -12.682   3.631   3.149  1.00  0.00     0.063 A 
ATOM      4  C   UNL     1     -13.891   3.380   2.496  1.00  0.00     0.019 A 
ATOM      5  C   UNL     1     -11.478   3.506   2.452  1.00  0.00     0.065 A 
ATOM      6  C   UNL     1     -13.893   3.016   1.166  1.00  0.00     0.044 A 
ATOM      7  C   UNL     1     -12.699   2.898   0.475  1.00  0.00     0.165 A 
ATOM      8  F   UNL     1     -12.708   2.541  -0.828  1.00  0.00    -0.203 F 
BRANCH   3   9
ATOM      9  C   UNL     1     -12.676   4.021   4.573  1.00  0.00     0.335 C 
ATOM     10  O   UNL     1     -11.635   4.337   5.112  1.00  0.00    -0.246 OA
BRANCH   9  11
ATOM     11  O   UNL     1     -13.827   4.032   5.273  1.00  0.00    -0.478 OA
ATOM     12  H   UNL     1     -14.251   4.891   5.408  1.00  0.00     0.297 HD
ENDBRANCH   9  11
ENDBRANCH   3   9
ENDBRANCH   1   2
BRANCH   1  13
ATOM     13  C   UNL     1      -9.376   4.082   0.579  1.00  0.00     0.230 C 
BRANCH  13  14
ATOM     14  C   UNL     1      -8.087   3.720  -0.160  1.00  0.00     0.046 C 
BRANCH  14  15
ATOM     15  C   UNL     1      -7.855   2.210  -0.073  1.00  0.00     0.043 C 
BRANCH  15  16
ATOM     16  C   UNL     1      -7.062   1.893   1.168  1.00  0.00    -0.004 A 
ATOM     17  C   UNL     1      -7.512   1.214   2.248  1.00  0.00     0.036 A 
ATOM     18  C   UNL     1      -5.729   2.243   1.404  1.00  0.00     0.063 A 
ATOM     19  N   UNL     1      -6.501   1.142   3.140  1.00  0.00    -0.282 N 
ATOM     20  N   UNL     1      -5.393   1.800   2.588  1.00  0.00    -0.181 NA
ATOM     21  C   UNL     1      -8.894   0.640   2.424  1.00  0.00     0.066 C 
ATOM     22  C   UNL     1      -4.836   3.010   0.462  1.00  0.00     0.069 C 
ATOM     23  H   UNL     1      -6.535   0.713   4.008  1.00  0.00     0.190 HD
ENDBRANCH  15  16
ENDBRANCH  14  15
ENDBRANCH  13  14
ENDBRANCH   1  13
TORSDOF 7
ENDMDL
MODEL 7
REMARK VINA RESULT:    -4.498      3.822      6.534
REMARK INTER + INTRA:          -6.740
REMARK INTER:                  -5.902
REMARK INTRA:                  -0.838
REMARK UNBOUND:                -0.533
REMARK SMILES Cc1n[nH]c(C)c1CCCOc1cc(C(=O)O)ccc1F
REMARK SMILES IDX 11 1 12 2 14 3 18 4 13 5 19 6 20 7 21 8 15 9 16 10 17 11
REMARK SMILES IDX 10 13 9 14 8 15 7 16 5 17 2 18 4 19 3 20 6 21 1 22
REMARK H PARENT 17 12 4 23
ROOT
ATOM      1  O   UNL     1      -9.903   3.148   2.452  1.00  0.00    -0.490 OA
ENDROOT
BRANCH   1   2
ATOM      2  C   UNL     1     -11.252   3.192   2.290  1.00  0.00     0.155 A 
ATOM      3  C   UNL     1     -13.199   2.909   0.908  1.00  0.00     0.063 A 
ATOM      4  C   UNL     1     -14.011   3.278   1.983  1.00  0.00     0.019 A 
ATOM      5  C   UNL     1     -11.813   2.868   1.068  1.00  0.00     0.065 A 
ATOM      6  C   UNL     1     -13.443   3.594   3.199  1.00  0.00     0.044 A 
ATOM      7  C   UNL     1     -12.068   3.547   3.358  1.00  0.00     0.165 A 
ATOM      8  F   UNL     1     -11.518   3.858   4.552  1.00  0.00    -0.203 F 
BRANCH   3   9
ATOM      9  C   UNL     1     -13.804   2.571  -0.395  1.00  0.00     0.335 C 
ATOM     10  O   UNL     1     -13.125   2.069  -1.268  1.00  0.00    -0.246 OA
BRANCH   9  11
ATOM     11  O   UNL     1     -15.112   2.812  -0.614  1.00  0.00    -0.478 OA
ATOM     12  H   UNL     1     -15.738   2.136  -0.321  1.00  0.00     0.297 HD
ENDBRANCH   9  11
ENDBRANCH   3   9
ENDBRANCH   1   2
BRANCH   1  13
ATOM     13  C   UNL     1      -9.238   1.952   2.038  1.00  0.00     0.230 C 
BRANCH  13  14
ATOM     14  C   UNL     1      -7.725   2.152   2.130  1.00  0.00     0.046 C 
BRANCH  14  15
ATOM     15  C   UNL     1      -7.392   3.631   1.922  1.00  0.00     0.043 C 
BRANCH  15  16
ATOM     16  C   UNL     1      -7.110   3.883   0.464  1.00  0.00    -0.004 A 
ATOM     17  C   UNL     1      -7.858   4.639  -0.373  1.00  0.00     0.036 A 
ATOM     18  C   UNL     1      -6.024   3.382  -0.263  1.00  0.00     0.063 A 
ATOM     19  N   UNL     1      -7.271   4.612  -1.588  1.00  0.00    -0.282 N 
ATOM     20  N   UNL     1      -6.123   3.813  -1.494  1.00  0.00    -0.181 NA
ATOM     21  C   UNL     1      -9.120   5.378  -0.013  1.00  0.00     0.066 C 
ATOM     22  C   UNL     1      -4.935   2.491   0.277  1.00  0.00     0.069 C 
ATOM     23  H   UNL     1      -7.587   5.064  -2.385  1.00  0.00     0.190 HD
ENDBRANCH  15  16
ENDBRANCH  14  15
ENDBRANCH  13  14
ENDBRANCH   1  13
TORSDOF 7
ENDMDL
MODEL 8
REMARK VINA RESULT:    -4.309      2.049      3.447
REMARK INTER + INTRA:          -6.479
REMARK INTER:                  -5.848
REMARK INTRA:                  -0.631
REMARK UNBOUND:                -0.533
REMARK SMILES Cc1n[nH]c(C)c1CCCOc1cc(C(=O)O)ccc1F
REMARK SMILES IDX 11 1 12 2 14 3 18 4 13 5 19 6 20 7 21 8 15 9 16 10 17 11
REMARK SMILES IDX 10 13 9 14 8 15 7 16 5 17 2 18 4 19 3 20 6 21 1 22
REMARK H PARENT 17 12 4 23
ROOT
ATOM      1  O   UNL     1      -9.463   1.609   1.120  1.00  0.00    -0.490 OA
ENDROOT
BRANCH   1   2
ATOM      2  C   UNL     1      -8.155   1.969   1.029  1.00  0.00     0.155 A 
ATOM      3  C   UNL     1      -5.974   2.180   2.018  1.00  0.00     0.063 A 
ATOM      4  C   UNL     1      -5.484   2.702   0.817  1.00  0.00     0.019 A 
ATOM      5  C   UNL     1      -7.318   1.814   2.117  1.00  0.00     0.065 A 
ATOM      6  C   UNL     1      -6.326   2.847  -0.265  1.00  0.00     0.044 A 
ATOM      7  C   UNL     1      -7.657   2.478  -0.166  1.00  0.00     0.165 A 
ATOM      8  F   UNL     1      -8.477   2.623  -1.230  1.00  0.00    -0.203 F 
BRANCH   3   9
ATOM      9  C   UNL     1      -5.075   2.023   3.178  1.00  0.00     0.335 C 
ATOM     10  O   UNL     1      -3.988   2.562   3.182  1.00  0.00    -0.246 OA
BRANCH   9  11
ATOM     11  O   UNL     1      -5.465   1.286   4.236  1.00  0.00    -0.478 OA
ATOM     12  H   UNL     1      -4.828   0.647   4.586  1.00  0.00     0.297 HD
ENDBRANCH   9  11
ENDBRANCH   3   9
ENDBRANCH   1   2
BRANCH   1  13
ATOM     13  C   UNL     1      -9.846   0.842   2.265  1.00  0.00     0.230 C 
BRANCH  13  14
ATOM     14  C   UNL     1     -11.181   1.361   2.802  1.00  0.00     0.046 C 
BRANCH  14  15
ATOM     15  C   UNL     1     -11.432   2.773   2.267  1.00  0.00     0.043 C 
BRANCH  15  16
ATOM     16  C   UNL     1     -12.896   3.106   2.396  1.00  0.00    -0.004 A 
ATOM     17  C   UNL     1     -13.511   3.579   3.505  1.00  0.00     0.036 A 
ATOM     18  C   UNL     1     -13.859   2.989   1.388  1.00  0.00     0.063 A 
ATOM     19  N   UNL     1     -14.817   3.748   3.211  1.00  0.00    -0.282 N 
ATOM     20  N   UNL     1     -15.012   3.367   1.877  1.00  0.00    -0.181 NA
ATOM     21  C   UNL     1     -12.854   3.865   4.830  1.00  0.00     0.066 C 
ATOM     22  C   UNL     1     -13.612   2.500  -0.017  1.00  0.00     0.069 C 
ATOM     23  H   UNL     1     -15.500   4.075   3.816  1.00  0.00     0.190 HD
ENDBRANCH  15  16
ENDBRANCH  14  15
ENDBRANCH  13  14
ENDBRANCH   1  13
TORSDOF 7
ENDMDL
MODEL 9
REMARK VINA RESULT:    -4.308      3.820      6.604
REMARK INTER + INTRA:          -6.478
REMARK INTER:                  -5.699
REMARK INTRA:                  -0.779
REMARK UNBOUND:                -0.533
REMARK SMILES Cc1n[nH]c(C)c1CCCOc1cc(C(=O)O)ccc1F
REMARK SMILES IDX 11 1 12 2 14 3 18 4 13 5 19 6 20 7 21 8 15 9 16 10 17 11
REMARK SMILES IDX 10 13 9 14 8 15 7 16 5 17 2 18 4 19 3 20 6 21 1 22
REMARK H PARENT 17 12 4 23
ROOT
ATOM      1  O   UNL     1      -9.845   3.828   1.546  1.00  0.00    -0.490 OA
ENDROOT
BRANCH   1   2
ATOM      2  C   UNL     1     -11.178   3.568   1.611  1.00  0.00     0.155 A 
ATOM      3  C   UNL     1     -13.229   2.898   0.549  1.00  0.00     0.063 A 
ATOM      4  C   UNL     1     -13.899   3.033   1.767  1.00  0.00     0.019 A 
ATOM      5  C   UNL     1     -11.861   3.169   0.477  1.00  0.00     0.065 A 
ATOM      6  C   UNL     1     -13.209   3.426   2.894  1.00  0.00     0.044 A 
ATOM      7  C   UNL     1     -11.851   3.689   2.822  1.00  0.00     0.165 A 
ATOM      8  F   UNL     1     -11.180   4.074   3.930  1.00  0.00    -0.203 F 
BRANCH   3   9
ATOM      9  C   UNL     1     -13.965   2.477  -0.659  1.00  0.00     0.335 C 
ATOM     10  O   UNL     1     -13.357   2.091  -1.637  1.00  0.00    -0.246 OA
BRANCH   9  11
ATOM     11  O   UNL     1     -15.311   2.515  -0.674  1.00  0.00    -0.478 OA
ATOM     12  H   UNL     1     -15.741   2.531  -1.541  1.00  0.00     0.297 HD
ENDBRANCH   9  11
ENDBRANCH   3   9
ENDBRANCH   1   2
BRANCH   1  13
ATOM     13  C   UNL     1      -9.362   4.447   0.351  1.00  0.00     0.230 C 
BRANCH  13  14
ATOM     14  C   UNL     1      -7.905   4.044   0.122  1.00  0.00     0.046 C 
BRANCH  14  15
ATOM     15  C   UNL     1      -7.804   2.520   0.036  1.00  0.00     0.043 C 
BRANCH  15  16
ATOM     16  C   UNL     1      -7.022   2.000   1.213  1.00  0.00    -0.004 A 
ATOM     17  C   UNL     1      -5.711   2.229   1.463  1.00  0.00     0.036 A 
ATOM     18  C   UNL     1      -7.522   1.199   2.246  1.00  0.00     0.063 A 
ATOM     19  N   UNL     1      -5.393   1.591   2.609  1.00  0.00    -0.282 N 
ATOM     20  N   UNL     1      -6.546   0.948   3.079  1.00  0.00    -0.181 NA
ATOM     21  C   UNL     1      -4.776   3.050   0.614  1.00  0.00     0.066 C 
ATOM     22  C   UNL     1      -8.940   0.702   2.370  1.00  0.00     0.069 C 
ATOM     23  H   UNL     1      -4.520   1.579   3.032  1.00  0.00     0.190 HD
ENDBRANCH  15  16
ENDBRANCH  14  15
ENDBRANCH  13  14
ENDBRANCH   1  13
TORSDOF 7
ENDMDL
