MODEL 1
REMARK VINA RESULT:    -4.073      0.000      0.000
REMARK INTER + INTRA:          -4.964
REMARK INTER:                  -4.668
REMARK INTRA:                  -0.296
REMARK UNBOUND:                -0.296
REMARK SMILES O=C(O)c1ccc2nc(-c3cc(Cl)cc(Cl)c3)oc2c1
REMARK SMILES IDX 5 1 6 2 20 3 8 4 18 5 4 6 9 7 7 8 19 9 2 10 1 11 3 12 10 14
REMARK SMILES IDX 11 15 17 16 12 17 15 18 14 19 13 20 16 21
REMARK H PARENT 3 13
ROOT
ATOM      1  C   UNL     1       8.389  -6.629   7.715  1.00  0.00     0.018 A 
ATOM      2  C   UNL     1       7.972  -6.643   6.418  1.00  0.00     0.033 A 
ATOM      3  C   UNL     1       6.756  -4.916   8.246  1.00  0.00     0.065 A 
ATOM      4  N   UNL     1       6.326  -5.586   4.820  1.00  0.00    -0.209 NA
ATOM      5  O   UNL     1       5.388  -4.240   6.248  1.00  0.00    -0.436 OA
ATOM      6  C   UNL     1       7.787  -5.769   8.645  1.00  0.00     0.063 A 
ATOM      7  C   UNL     1       5.407  -4.665   4.971  1.00  0.00     0.227 A 
ATOM      8  C   UNL     1       6.939  -5.793   6.005  1.00  0.00     0.110 A 
ATOM      9  C   UNL     1       6.334  -4.924   6.930  1.00  0.00     0.156 A 
ENDROOT
BRANCH   6  10
ATOM     10  C   UNL     1       8.243  -5.766  10.047  1.00  0.00     0.335 C 
ATOM     11  O   UNL     1       7.773  -4.972  10.836  1.00  0.00    -0.246 OA
BRANCH  10  12
ATOM     12  O   UNL     1       9.181  -6.645  10.453  1.00  0.00    -0.478 OA
ATOM     13  H   UNL     1       8.885  -7.378  11.009  1.00  0.00     0.297 HD
ENDBRANCH  10  12
ENDBRANCH   6  10
BRANCH   7  14
ATOM     14  C   UNL     1       4.524  -4.165   3.897  1.00  0.00     0.040 A 
ATOM     15  C   UNL     1       4.012  -2.868   3.957  1.00  0.00     0.034 A 
ATOM     16  C   UNL     1       4.197  -4.990   2.819  1.00  0.00     0.034 A 
ATOM     17  C   UNL     1       3.187  -2.407   2.950  1.00  0.00     0.043 A 
ATOM     18  C   UNL     1       3.372  -4.517   1.818  1.00  0.00     0.043 A 
ATOM     19  C   UNL     1       2.867  -3.230   1.883  1.00  0.00     0.041 A 
ATOM     20  Cl  UNL     1       2.550  -0.794   3.022  1.00  0.00    -0.084 Cl
ATOM     21  Cl  UNL     1       2.964  -5.541   0.476  1.00  0.00    -0.084 Cl
ENDBRANCH   7  14
TORSDOF 3
ENDMDL
MODEL 2
REMARK VINA RESULT:    -4.071      0.015      2.019
REMARK INTER + INTRA:          -4.961
REMARK INTER:                  -4.665
REMARK INTRA:                  -0.296
REMARK UNBOUND:                -0.296
REMARK SMILES O=C(O)c1ccc2nc(-c3cc(Cl)cc(Cl)c3)oc2c1
REMARK SMILES IDX 5 1 6 2 20 3 8 4 18 5 4 6 9 7 7 8 19 9 2 10 1 11 3 12 10 14
REMARK SMILES IDX 11 15 17 16 12 17 15 18 14 19 13 20 16 21
REMARK H PARENT 3 13
ROOT
ATOM      1  C   UNL     1       8.393  -6.635   7.701  1.00  0.00     0.018 A 
ATOM      2  C   UNL     1       7.977  -6.647   6.403  1.00  0.00     0.033 A 
ATOM      3  C   UNL     1       6.755  -4.928   8.235  1.00  0.00     0.065 A 
ATOM      4  N   UNL     1       6.329  -5.590   4.806  1.00  0.00    -0.209 NA
ATOM      5  O   UNL     1       5.386  -4.251   6.238  1.00  0.00    -0.436 OA
ATOM      6  C   UNL     1       7.788  -5.779   8.632  1.00  0.00     0.063 A 
ATOM      7  C   UNL     1       5.408  -4.672   4.959  1.00  0.00     0.227 A 
ATOM      8  C   UNL     1       6.942  -5.799   5.991  1.00  0.00     0.110 A 
ATOM      9  C   UNL     1       6.333  -4.934   6.918  1.00  0.00     0.156 A 
ENDROOT
BRANCH   6  10
ATOM     10  C   UNL     1       8.242  -5.779  10.034  1.00  0.00     0.335 C 
ATOM     11  O   UNL     1       7.762  -4.995  10.828  1.00  0.00    -0.246 OA
BRANCH  10  12
ATOM     12  O   UNL     1       9.191  -6.648  10.436  1.00  0.00    -0.478 OA
ATOM     13  H   UNL     1       9.772  -7.010   9.753  1.00  0.00     0.297 HD
ENDBRANCH  10  12
ENDBRANCH   6  10
BRANCH   7  14
ATOM     14  C   UNL     1       4.523  -4.172   3.886  1.00  0.00     0.040 A 
ATOM     15  C   UNL     1       4.195  -4.995   2.808  1.00  0.00     0.034 A 
ATOM     16  C   UNL     1       4.014  -2.873   3.946  1.00  0.00     0.034 A 
ATOM     17  C   UNL     1       3.367  -4.522   1.809  1.00  0.00     0.043 A 
ATOM     18  C   UNL     1       3.188  -2.412   2.941  1.00  0.00     0.043 A 
ATOM     19  C   UNL     1       2.865  -3.233   1.875  1.00  0.00     0.041 A 
ATOM     20  Cl  UNL     1       2.956  -5.545   0.468  1.00  0.00    -0.084 Cl
ATOM     21  Cl  UNL     1       2.554  -0.797   3.014  1.00  0.00    -0.084 Cl
ENDBRANCH   7  14
TORSDOF 3
ENDMDL
MODEL 3
REMARK VINA RESULT:    -4.067      3.742      7.422
REMARK INTER + INTRA:          -4.958
REMARK INTER:                  -4.660
REMARK INTRA:                  -0.298
REMARK UNBOUND:                -0.296
REMARK SMILES O=C(O)c1ccc2nc(-c3cc(Cl)cc(Cl)c3)oc2c1
REMARK SMILES IDX 5 1 6 2 20 3 8 4 18 5 4 6 9 7 7 8 19 9 2 10 1 11 3 12 10 14
REMARK SMILES IDX 11 15 17 16 12 17 15 18 14 19 13 20 16 21
REMARK H PARENT 3 13
ROOT
ATOM      1  C   UNL     1       3.404  -3.758   1.427  1.00  0.00     0.018 A 
ATOM      2  C   UNL     1       4.319  -4.688   1.821  1.00  0.00     0.033 A 
ATOM      3  C   UNL     1       3.469  -2.728   3.621  1.00  0.00     0.065 A 
ATOM      4  N   UNL     1       5.720  -5.427   3.789  1.00  0.00    -0.209 NA
ATOM      5  O   UNL     1       5.049  -3.901   5.187  1.00  0.00    -0.436 OA
ATOM      6  C   UNL     1       2.970  -2.767   2.318  1.00  0.00     0.063 A 
ATOM      7  C   UNL     1       5.846  -4.971   5.011  1.00  0.00     0.227 A 
ATOM      8  C   UNL     1       4.828  -4.660   3.125  1.00  0.00     0.110 A 
ATOM      9  C   UNL     1       4.393  -3.673   4.027  1.00  0.00     0.156 A 
ENDROOT
BRANCH   6  10
ATOM     10  C   UNL     1       1.985  -1.762   1.878  1.00  0.00     0.335 C 
ATOM     11  O   UNL     1       1.479  -1.849   0.777  1.00  0.00    -0.246 OA
BRANCH  10  12
ATOM     12  O   UNL     1       1.645  -0.747   2.697  1.00  0.00    -0.478 OA
ATOM     13  H   UNL     1       1.899   0.143   2.421  1.00  0.00     0.297 HD
ENDBRANCH  10  12
ENDBRANCH   6  10
BRANCH   7  14
ATOM     14  C   UNL     1       6.733  -5.547   6.042  1.00  0.00     0.040 A 
ATOM     15  C   UNL     1       6.649  -5.108   7.364  1.00  0.00     0.034 A 
ATOM     16  C   UNL     1       7.660  -6.533   5.697  1.00  0.00     0.034 A 
ATOM     17  C   UNL     1       7.480  -5.652   8.324  1.00  0.00     0.043 A 
ATOM     18  C   UNL     1       8.486  -7.068   6.666  1.00  0.00     0.043 A 
ATOM     19  C   UNL     1       8.397  -6.629   7.975  1.00  0.00     0.041 A 
ATOM     20  Cl  UNL     1       7.376  -5.108   9.969  1.00  0.00    -0.084 Cl
ATOM     21  Cl  UNL     1       9.639  -8.294   6.239  1.00  0.00    -0.084 Cl
ENDBRANCH   7  14
TORSDOF 3
ENDMDL
MODEL 4
REMARK VINA RESULT:    -4.064      3.742      7.659
REMARK INTER + INTRA:          -4.954
REMARK INTER:                  -4.656
REMARK INTRA:                  -0.298
REMARK UNBOUND:                -0.296
REMARK SMILES O=C(O)c1ccc2nc(-c3cc(Cl)cc(Cl)c3)oc2c1
REMARK SMILES IDX 5 1 6 2 20 3 8 4 18 5 4 6 9 7 7 8 19 9 2 10 1 11 3 12 10 14
REMARK SMILES IDX 11 15 17 16 12 17 15 18 14 19 13 20 16 21
REMARK H PARENT 3 13
ROOT
ATOM      1  C   UNL     1       3.409  -3.753   1.423  1.00  0.00     0.018 A 
ATOM      2  C   UNL     1       4.324  -4.682   1.818  1.00  0.00     0.033 A 
ATOM      3  C   UNL     1       3.470  -2.725   3.618  1.00  0.00     0.065 A 
ATOM      4  N   UNL     1       5.723  -5.422   3.787  1.00  0.00    -0.209 NA
ATOM      5  O   UNL     1       5.049  -3.898   5.185  1.00  0.00    -0.436 OA
ATOM      6  C   UNL     1       2.973  -2.763   2.315  1.00  0.00     0.063 A 
ATOM      7  C   UNL     1       5.847  -4.967   5.009  1.00  0.00     0.227 A 
ATOM      8  C   UNL     1       4.831  -4.656   3.122  1.00  0.00     0.110 A 
ATOM      9  C   UNL     1       4.395  -3.670   4.025  1.00  0.00     0.156 A 
ENDROOT
BRANCH   6  10
ATOM     10  C   UNL     1       1.987  -1.759   1.874  1.00  0.00     0.335 C 
ATOM     11  O   UNL     1       1.480  -1.848   0.774  1.00  0.00    -0.246 OA
BRANCH  10  12
ATOM     12  O   UNL     1       1.649  -0.742   2.692  1.00  0.00    -0.478 OA
ATOM     13  H   UNL     1       2.271  -0.005   2.756  1.00  0.00     0.297 HD
ENDBRANCH  10  12
ENDBRANCH   6  10
BRANCH   7  14
ATOM     14  C   UNL     1       6.733  -5.544   6.041  1.00  0.00     0.040 A 
ATOM     15  C   UNL     1       7.657  -6.532   5.700  1.00  0.00     0.034 A 
ATOM     16  C   UNL     1       6.648  -5.102   7.363  1.00  0.00     0.034 A 
ATOM     17  C   UNL     1       8.483  -7.066   6.669  1.00  0.00     0.043 A 
ATOM     18  C   UNL     1       7.479  -5.644   8.324  1.00  0.00     0.043 A 
ATOM     19  C   UNL     1       8.394  -6.624   7.978  1.00  0.00     0.041 A 
ATOM     20  Cl  UNL     1       9.634  -8.295   6.247  1.00  0.00    -0.084 Cl
ATOM     21  Cl  UNL     1       7.375  -5.096   9.968  1.00  0.00    -0.084 Cl
ENDBRANCH   7  14
TORSDOF 3
ENDMDL
MODEL 5
REMARK VINA RESULT:    -4.021      1.794      3.181
REMARK INTER + INTRA:          -4.905
REMARK INTER:                  -4.609
REMARK INTRA:                  -0.295
REMARK UNBOUND:                -0.296
REMARK SMILES O=C(O)c1ccc2nc(-c3cc(Cl)cc(Cl)c3)oc2c1
REMARK SMILES IDX 5 1 6 2 20 3 8 4 18 5 4 6 9 7 7 8 19 9 2 10 1 11 3 12 10 14
REMARK SMILES IDX 11 15 17 16 12 17 15 18 14 19 13 20 16 21
REMARK H PARENT 3 13
ROOT
ATOM      1  C   UNL     1       8.285  -6.654   7.802  1.00  0.00     0.018 A 
ATOM      2  C   UNL     1       7.360  -5.671   7.620  1.00  0.00     0.033 A 
ATOM      3  C   UNL     1       8.219  -7.187   5.437  1.00  0.00     0.065 A 
ATOM      4  N   UNL     1       5.938  -4.543   5.863  1.00  0.00    -0.209 NA
ATOM      5  O   UNL     1       6.609  -5.731   4.168  1.00  0.00    -0.436 OA
ATOM      6  C   UNL     1       8.728  -7.422   6.716  1.00  0.00     0.063 A 
ATOM      7  C   UNL     1       5.805  -4.730   4.573  1.00  0.00     0.227 A 
ATOM      8  C   UNL     1       6.841  -5.424   6.343  1.00  0.00     0.110 A 
ATOM      9  C   UNL     1       7.276  -6.193   5.249  1.00  0.00     0.156 A 
ENDROOT
BRANCH   6  10
ATOM     10  C   UNL     1       9.734  -8.479   6.924  1.00  0.00     0.335 C 
ATOM     11  O   UNL     1       9.973  -9.273   6.036  1.00  0.00    -0.246 OA
BRANCH  10  12
ATOM     12  O   UNL     1      10.389  -8.566   8.099  1.00  0.00    -0.478 OA
ATOM     13  H   UNL     1      11.298  -8.239   8.120  1.00  0.00     0.297 HD
ENDBRANCH  10  12
ENDBRANCH   6  10
BRANCH   7  14
ATOM     14  C   UNL     1       4.905  -3.956   3.693  1.00  0.00     0.040 A 
ATOM     15  C   UNL     1       4.401  -4.531   2.526  1.00  0.00     0.034 A 
ATOM     16  C   UNL     1       4.556  -2.646   4.027  1.00  0.00     0.034 A 
ATOM     17  C   UNL     1       3.560  -3.802   1.708  1.00  0.00     0.043 A 
ATOM     18  C   UNL     1       3.714  -1.928   3.201  1.00  0.00     0.043 A 
ATOM     19  C   UNL     1       3.218  -2.504   2.044  1.00  0.00     0.041 A 
ATOM     20  Cl  UNL     1       2.932  -4.515   0.256  1.00  0.00    -0.084 Cl
ATOM     21  Cl  UNL     1       3.278  -0.298   3.614  1.00  0.00    -0.084 Cl
ENDBRANCH   7  14
TORSDOF 3
ENDMDL
MODEL 6
REMARK VINA RESULT:    -4.016      1.795      2.480
REMARK INTER + INTRA:          -4.898
REMARK INTER:                  -4.603
REMARK INTRA:                  -0.296
REMARK UNBOUND:                -0.296
REMARK SMILES O=C(O)c1ccc2nc(-c3cc(Cl)cc(Cl)c3)oc2c1
REMARK SMILES IDX 5 1 6 2 20 3 8 4 18 5 4 6 9 7 7 8 19 9 2 10 1 11 3 12 10 14
REMARK SMILES IDX 11 15 17 16 12 17 15 18 14 19 13 20 16 21
REMARK H PARENT 3 13
ROOT
ATOM      1  C   UNL     1       8.286  -6.658   7.806  1.00  0.00     0.018 A 
ATOM      2  C   UNL     1       7.361  -5.674   7.625  1.00  0.00     0.033 A 
ATOM      3  C   UNL     1       8.221  -7.188   5.441  1.00  0.00     0.065 A 
ATOM      4  N   UNL     1       5.941  -4.543   5.868  1.00  0.00    -0.209 NA
ATOM      5  O   UNL     1       6.612  -5.731   4.173  1.00  0.00    -0.436 OA
ATOM      6  C   UNL     1       8.729  -7.425   6.719  1.00  0.00     0.063 A 
ATOM      7  C   UNL     1       5.809  -4.729   4.578  1.00  0.00     0.227 A 
ATOM      8  C   UNL     1       6.844  -5.426   6.348  1.00  0.00     0.110 A 
ATOM      9  C   UNL     1       7.279  -6.194   5.253  1.00  0.00     0.156 A 
ENDROOT
BRANCH   6  10
ATOM     10  C   UNL     1       9.734  -8.483   6.927  1.00  0.00     0.335 C 
ATOM     11  O   UNL     1       9.979  -9.272   6.036  1.00  0.00    -0.246 OA
BRANCH  10  12
ATOM     12  O   UNL     1      10.382  -8.576   8.106  1.00  0.00    -0.478 OA
ATOM     13  H   UNL     1       9.887  -8.944   8.850  1.00  0.00     0.297 HD
ENDBRANCH  10  12
ENDBRANCH   6  10
BRANCH   7  14
ATOM     14  C   UNL     1       4.910  -3.954   3.698  1.00  0.00     0.040 A 
ATOM     15  C   UNL     1       4.561  -2.645   4.031  1.00  0.00     0.034 A 
ATOM     16  C   UNL     1       4.405  -4.530   2.530  1.00  0.00     0.034 A 
ATOM     17  C   UNL     1       3.721  -1.925   3.204  1.00  0.00     0.043 A 
ATOM     18  C   UNL     1       3.567  -3.800   1.711  1.00  0.00     0.043 A 
ATOM     19  C   UNL     1       3.224  -2.502   2.047  1.00  0.00     0.041 A 
ATOM     20  Cl  UNL     1       3.286  -0.296   3.616  1.00  0.00    -0.084 Cl
ATOM     21  Cl  UNL     1       2.938  -4.514   0.259  1.00  0.00    -0.084 Cl
ENDBRANCH   7  14
TORSDOF 3
ENDMDL
MODEL 7
REMARK VINA RESULT:    -3.591      4.323      7.778
REMARK INTER + INTRA:          -4.412
REMARK INTER:                  -4.124
REMARK INTRA:                  -0.288
REMARK UNBOUND:                -0.296
REMARK SMILES O=C(O)c1ccc2nc(-c3cc(Cl)cc(Cl)c3)oc2c1
REMARK SMILES IDX 5 1 6 2 20 3 8 4 18 5 4 6 9 7 7 8 19 9 2 10 1 11 3 12 10 14
REMARK SMILES IDX 11 15 17 16 12 17 15 18 14 19 13 20 16 21
REMARK H PARENT 3 13
ROOT
ATOM      1  C   UNL     1       5.932  -3.635   3.612  1.00  0.00     0.018 A 
ATOM      2  C   UNL     1       6.654  -3.322   4.725  1.00  0.00     0.033 A 
ATOM      3  C   UNL     1       4.990  -5.566   4.738  1.00  0.00     0.065 A 
ATOM      4  N   UNL     1       7.139  -4.071   7.089  1.00  0.00    -0.209 NA
ATOM      5  O   UNL     1       5.844  -5.820   7.089  1.00  0.00    -0.436 OA
ATOM      6  C   UNL     1       5.091  -4.757   3.604  1.00  0.00     0.063 A 
ATOM      7  C   UNL     1       6.708  -5.079   7.807  1.00  0.00     0.227 A 
ATOM      8  C   UNL     1       6.562  -4.125   5.869  1.00  0.00     0.110 A 
ATOM      9  C   UNL     1       5.725  -5.254   5.867  1.00  0.00     0.156 A 
ENDROOT
BRANCH   6  10
ATOM     10  C   UNL     1       4.311  -5.082   2.397  1.00  0.00     0.335 C 
ATOM     11  O   UNL     1       3.360  -5.835   2.473  1.00  0.00    -0.246 OA
BRANCH  10  12
ATOM     12  O   UNL     1       4.652  -4.546   1.209  1.00  0.00    -0.478 OA
ATOM     13  H   UNL     1       4.038  -3.908   0.822  1.00  0.00     0.297 HD
ENDBRANCH  10  12
ENDBRANCH   6  10
BRANCH   7  14
ATOM     14  C   UNL     1       7.113  -5.359   9.200  1.00  0.00     0.040 A 
ATOM     15  C   UNL     1       8.444  -5.658   9.497  1.00  0.00     0.034 A 
ATOM     16  C   UNL     1       6.165  -5.328  10.225  1.00  0.00     0.034 A 
ATOM     17  C   UNL     1       8.816  -5.919  10.801  1.00  0.00     0.043 A 
ATOM     18  C   UNL     1       6.550  -5.590  11.525  1.00  0.00     0.043 A 
ATOM     19  C   UNL     1       7.871  -5.886  11.813  1.00  0.00     0.041 A 
ATOM     20  Cl  UNL     1      10.470  -6.290  11.173  1.00  0.00    -0.084 Cl
ATOM     21  Cl  UNL     1       5.372  -5.551  12.801  1.00  0.00    -0.084 Cl
ENDBRANCH   7  14
TORSDOF 3
ENDMDL
MODEL 8
REMARK VINA RESULT:    -3.590      4.307      7.676
REMARK INTER + INTRA:          -4.410
REMARK INTER:                  -4.122
REMARK INTRA:                  -0.288
REMARK UNBOUND:                -0.296
REMARK SMILES O=C(O)c1ccc2nc(-c3cc(Cl)cc(Cl)c3)oc2c1
REMARK SMILES IDX 5 1 6 2 20 3 8 4 18 5 4 6 9 7 7 8 19 9 2 10 1 11 3 12 10 14
REMARK SMILES IDX 11 15 17 16 12 17 15 18 14 19 13 20 16 21
REMARK H PARENT 3 13
ROOT
ATOM      1  C   UNL     1       6.002  -3.573   3.572  1.00  0.00     0.018 A 
ATOM      2  C   UNL     1       6.708  -3.266   4.697  1.00  0.00     0.033 A 
ATOM      3  C   UNL     1       5.048  -5.513   4.671  1.00  0.00     0.065 A 
ATOM      4  N   UNL     1       7.161  -4.030   7.062  1.00  0.00    -0.209 NA
ATOM      5  O   UNL     1       5.870  -5.781   7.032  1.00  0.00    -0.436 OA
ATOM      6  C   UNL     1       5.163  -4.696   3.545  1.00  0.00     0.063 A 
ATOM      7  C   UNL     1       6.723  -5.043   7.767  1.00  0.00     0.227 A 
ATOM      8  C   UNL     1       6.601  -4.076   5.834  1.00  0.00     0.110 A 
ATOM      9  C   UNL     1       5.766  -5.208   5.813  1.00  0.00     0.156 A 
ENDROOT
BRANCH   6  10
ATOM     10  C   UNL     1       4.400  -5.015   2.325  1.00  0.00     0.335 C 
ATOM     11  O   UNL     1       4.719  -4.520   1.262  1.00  0.00    -0.246 OA
BRANCH  10  12
ATOM     12  O   UNL     1       3.347  -5.854   2.387  1.00  0.00    -0.478 OA
ATOM     13  H   UNL     1       3.540  -6.790   2.531  1.00  0.00     0.297 HD
ENDBRANCH  10  12
ENDBRANCH   6  10
BRANCH   7  14
ATOM     14  C   UNL     1       7.109  -5.333   9.164  1.00  0.00     0.040 A 
ATOM     15  C   UNL     1       6.150  -5.304  10.177  1.00  0.00     0.034 A 
ATOM     16  C   UNL     1       8.436  -5.635   9.475  1.00  0.00     0.034 A 
ATOM     17  C   UNL     1       6.517  -5.577  11.480  1.00  0.00     0.043 A 
ATOM     18  C   UNL     1       8.791  -5.906  10.781  1.00  0.00     0.043 A 
ATOM     19  C   UNL     1       7.835  -5.876  11.782  1.00  0.00     0.041 A 
ATOM     20  Cl  UNL     1       5.326  -5.542  12.741  1.00  0.00    -0.084 Cl
ATOM     21  Cl  UNL     1      10.441  -6.283  11.170  1.00  0.00    -0.084 Cl
ENDBRANCH   7  14
TORSDOF 3
ENDMDL
MODEL 9
REMARK VINA RESULT:    -3.520      4.590      7.491
REMARK INTER + INTRA:          -4.330
REMARK INTER:                  -4.042
REMARK INTRA:                  -0.289
REMARK UNBOUND:                -0.296
REMARK SMILES O=C(O)c1ccc2nc(-c3cc(Cl)cc(Cl)c3)oc2c1
REMARK SMILES IDX 5 1 6 2 20 3 8 4 18 5 4 6 9 7 7 8 19 9 2 10 1 11 3 12 10 14
REMARK SMILES IDX 11 15 17 16 12 17 15 18 14 19 13 20 16 21
REMARK H PARENT 3 13
ROOT
ATOM      1  C   UNL     1       3.989  -4.792   4.540  1.00  0.00     0.018 A 
ATOM      2  C   UNL     1       4.528  -6.011   4.823  1.00  0.00     0.033 A 
ATOM      3  C   UNL     1       6.173  -3.755   4.730  1.00  0.00     0.065 A 
ATOM      4  N   UNL     1       6.704  -7.174   5.366  1.00  0.00    -0.209 NA
ATOM      5  O   UNL     1       7.977  -5.411   5.296  1.00  0.00    -0.436 OA
ATOM      6  C   UNL     1       4.802  -3.651   4.488  1.00  0.00     0.063 A 
ATOM      7  C   UNL     1       7.933  -6.741   5.500  1.00  0.00     0.227 A 
ATOM      8  C   UNL     1       5.902  -6.130   5.068  1.00  0.00     0.110 A 
ATOM      9  C   UNL     1       6.723  -4.989   5.022  1.00  0.00     0.156 A 
ENDROOT
BRANCH   6  10
ATOM     10  C   UNL     1       4.208  -2.339   4.174  1.00  0.00     0.335 C 
ATOM     11  O   UNL     1       4.926  -1.391   3.925  1.00  0.00    -0.246 OA
BRANCH  10  12
ATOM     12  O   UNL     1       2.869  -2.189   4.166  1.00  0.00    -0.478 OA
ATOM     13  H   UNL     1       2.438  -2.037   5.018  1.00  0.00     0.297 HD
ENDBRANCH  10  12
ENDBRANCH   6  10
BRANCH   7  14
ATOM     14  C   UNL     1       9.098  -7.589   5.827  1.00  0.00     0.040 A 
ATOM     15  C   UNL     1       9.147  -8.276   7.041  1.00  0.00     0.034 A 
ATOM     16  C   UNL     1      10.156  -7.705   4.922  1.00  0.00     0.034 A 
ATOM     17  C   UNL     1      10.239  -9.067   7.340  1.00  0.00     0.043 A 
ATOM     18  C   UNL     1      11.242  -8.499   5.233  1.00  0.00     0.043 A 
ATOM     19  C   UNL     1      11.284  -9.178   6.438  1.00  0.00     0.041 A 
ATOM     20  Cl  UNL     1      10.302  -9.923   8.848  1.00  0.00    -0.084 Cl
ATOM     21  Cl  UNL     1      12.558  -8.645   4.109  1.00  0.00    -0.084 Cl
ENDBRANCH   7  14
TORSDOF 3
ENDMDL
