MODEL 1
REMARK VINA RESULT:    -5.729      0.000      0.000
REMARK INTER + INTRA:          -8.438
REMARK INTER:                  -7.906
REMARK INTRA:                  -0.533
REMARK UNBOUND:                -0.533
REMARK SMILES Cc1n[nH]c(C)c1CCCOc1cc(C(=O)O)ccc1F
REMARK SMILES IDX 11 1 12 2 14 3 18 4 13 5 19 6 20 7 21 8 15 9 16 10 17 11
REMARK SMILES IDX 10 13 9 14 8 15 7 16 5 17 2 18 4 19 3 20 6 21 1 22
REMARK H PARENT 17 12 4 23
ROOT
ATOM      1  O   UNL     1       3.126  -5.663   4.460  1.00  0.00    -0.490 OA
ENDROOT
BRANCH   1   2
ATOM      2  C   UNL     1       3.188  -4.608   3.604  1.00  0.00     0.155 A 
ATOM      3  C   UNL     1       3.454  -2.251   3.211  1.00  0.00     0.063 A 
ATOM      4  C   UNL     1       3.322  -2.469   1.837  1.00  0.00     0.019 A 
ATOM      5  C   UNL     1       3.386  -3.331   4.094  1.00  0.00     0.065 A 
ATOM      6  C   UNL     1       3.131  -3.747   1.357  1.00  0.00     0.044 A 
ATOM      7  C   UNL     1       3.068  -4.817   2.234  1.00  0.00     0.165 A 
ATOM      8  F   UNL     1       2.881  -6.068   1.758  1.00  0.00    -0.203 F 
BRANCH   3   9
ATOM      9  C   UNL     1       3.660  -0.884   3.728  1.00  0.00     0.335 C 
ATOM     10  O   UNL     1       3.414  -0.630   4.889  1.00  0.00    -0.246 OA
BRANCH   9  11
ATOM     11  O   UNL     1       4.126   0.082   2.912  1.00  0.00    -0.478 OA
ATOM     12  H   UNL     1       5.049   0.347   3.028  1.00  0.00     0.297 HD
ENDBRANCH   9  11
ENDBRANCH   3   9
ENDBRANCH   1   2
BRANCH   1  13
ATOM     13  C   UNL     1       4.189  -6.617   4.392  1.00  0.00     0.230 C 
BRANCH  13  14
ATOM     14  C   UNL     1       4.972  -6.602   5.706  1.00  0.00     0.046 C 
BRANCH  14  15
ATOM     15  C   UNL     1       6.223  -5.736   5.546  1.00  0.00     0.043 C 
BRANCH  15  16
ATOM     16  C   UNL     1       7.273  -6.183   6.530  1.00  0.00    -0.004 A 
ATOM     17  C   UNL     1       7.365  -5.799   7.825  1.00  0.00     0.036 A 
ATOM     18  C   UNL     1       8.321  -7.071   6.269  1.00  0.00     0.063 A 
ATOM     19  N   UNL     1       8.438  -6.418   8.362  1.00  0.00    -0.282 N 
ATOM     20  N   UNL     1       9.024  -7.208   7.364  1.00  0.00    -0.181 NA
ATOM     21  C   UNL     1       6.437  -4.851   8.538  1.00  0.00     0.066 C 
ATOM     22  C   UNL     1       8.601  -7.746   4.950  1.00  0.00     0.069 C 
ATOM     23  H   UNL     1       8.748  -6.331   9.276  1.00  0.00     0.190 HD
ENDBRANCH  15  16
ENDBRANCH  14  15
ENDBRANCH  13  14
ENDBRANCH   1  13
TORSDOF 7
ENDMDL
MODEL 2
REMARK VINA RESULT:    -5.719      2.280      3.902
REMARK INTER + INTRA:          -8.425
REMARK INTER:                  -7.867
REMARK INTRA:                  -0.557
REMARK UNBOUND:                -0.533
REMARK SMILES Cc1n[nH]c(C)c1CCCOc1cc(C(=O)O)ccc1F
REMARK SMILES IDX 11 1 12 2 14 3 18 4 13 5 19 6 20 7 21 8 15 9 16 10 17 11
REMARK SMILES IDX 10 13 9 14 8 15 7 16 5 17 2 18 4 19 3 20 6 21 1 22
REMARK H PARENT 17 12 4 23
ROOT
ATOM      1  O   UNL     1       6.482  -2.624   3.375  1.00  0.00    -0.490 OA
ENDROOT
BRANCH   1   2
ATOM      2  C   UNL     1       5.222  -2.818   2.900  1.00  0.00     0.155 A 
ATOM      3  C   UNL     1       3.598  -4.201   1.790  1.00  0.00     0.063 A 
ATOM      4  C   UNL     1       2.640  -3.196   1.948  1.00  0.00     0.019 A 
ATOM      5  C   UNL     1       4.894  -4.004   2.272  1.00  0.00     0.065 A 
ATOM      6  C   UNL     1       2.975  -2.018   2.582  1.00  0.00     0.044 A 
ATOM      7  C   UNL     1       4.259  -1.827   3.062  1.00  0.00     0.165 A 
ATOM      8  F   UNL     1       4.581  -0.670   3.683  1.00  0.00    -0.203 F 
BRANCH   3   9
ATOM      9  C   UNL     1       3.243  -5.463   1.113  1.00  0.00     0.335 C 
ATOM     10  O   UNL     1       4.112  -6.155   0.623  1.00  0.00    -0.246 OA
BRANCH   9  11
ATOM     11  O   UNL     1       1.955  -5.851   1.044  1.00  0.00    -0.478 OA
ATOM     12  H   UNL     1       1.283  -5.166   1.167  1.00  0.00     0.297 HD
ENDBRANCH   9  11
ENDBRANCH   3   9
ENDBRANCH   1   2
BRANCH   1  13
ATOM     13  C   UNL     1       6.639  -2.571   4.795  1.00  0.00     0.230 C 
BRANCH  13  14
ATOM     14  C   UNL     1       7.509  -3.742   5.255  1.00  0.00     0.046 C 
BRANCH  14  15
ATOM     15  C   UNL     1       6.615  -4.867   5.779  1.00  0.00     0.043 C 
BRANCH  15  16
ATOM     16  C   UNL     1       7.383  -5.697   6.775  1.00  0.00    -0.004 A 
ATOM     17  C   UNL     1       8.205  -6.732   6.484  1.00  0.00     0.036 A 
ATOM     18  C   UNL     1       7.377  -5.531   8.164  1.00  0.00     0.063 A 
ATOM     19  N   UNL     1       8.697  -7.207   7.647  1.00  0.00    -0.282 N 
ATOM     20  N   UNL     1       8.159  -6.439   8.688  1.00  0.00    -0.181 NA
ATOM     21  C   UNL     1       8.517  -7.258   5.107  1.00  0.00     0.066 C 
ATOM     22  C   UNL     1       6.595  -4.492   8.926  1.00  0.00     0.069 C 
ATOM     23  H   UNL     1       9.313  -7.950   7.746  1.00  0.00     0.190 HD
ENDBRANCH  15  16
ENDBRANCH  14  15
ENDBRANCH  13  14
ENDBRANCH   1  13
TORSDOF 7
ENDMDL
MODEL 3
REMARK VINA RESULT:    -5.613      2.291      3.472
REMARK INTER + INTRA:          -8.278
REMARK INTER:                  -7.703
REMARK INTRA:                  -0.575
REMARK UNBOUND:                -0.533
REMARK SMILES Cc1n[nH]c(C)c1CCCOc1cc(C(=O)O)ccc1F
REMARK SMILES IDX 11 1 12 2 14 3 18 4 13 5 19 6 20 7 21 8 15 9 16 10 17 11
REMARK SMILES IDX 10 13 9 14 8 15 7 16 5 17 2 18 4 19 3 20 6 21 1 22
REMARK H PARENT 17 12 4 23
ROOT
ATOM      1  O   UNL     1       6.463  -2.635   3.418  1.00  0.00    -0.490 OA
ENDROOT
BRANCH   1   2
ATOM      2  C   UNL     1       5.205  -2.821   2.936  1.00  0.00     0.155 A 
ATOM      3  C   UNL     1       3.584  -4.192   1.807  1.00  0.00     0.063 A 
ATOM      4  C   UNL     1       2.628  -3.185   1.966  1.00  0.00     0.019 A 
ATOM      5  C   UNL     1       4.878  -4.002   2.297  1.00  0.00     0.065 A 
ATOM      6  C   UNL     1       2.962  -2.013   2.610  1.00  0.00     0.044 A 
ATOM      7  C   UNL     1       4.245  -1.829   3.099  1.00  0.00     0.165 A 
ATOM      8  F   UNL     1       4.566  -0.678   3.729  1.00  0.00    -0.203 F 
BRANCH   3   9
ATOM      9  C   UNL     1       3.229  -5.449   1.119  1.00  0.00     0.335 C 
ATOM     10  O   UNL     1       4.099  -6.139   0.629  1.00  0.00    -0.246 OA
BRANCH   9  11
ATOM     11  O   UNL     1       1.940  -5.832   1.040  1.00  0.00    -0.478 OA
ATOM     12  H   UNL     1       1.680  -6.608   1.557  1.00  0.00     0.297 HD
ENDBRANCH   9  11
ENDBRANCH   3   9
ENDBRANCH   1   2
BRANCH   1  13
ATOM     13  C   UNL     1       6.622  -2.654   4.839  1.00  0.00     0.230 C 
BRANCH  13  14
ATOM     14  C   UNL     1       7.450  -3.875   5.243  1.00  0.00     0.046 C 
BRANCH  14  15
ATOM     15  C   UNL     1       6.542  -4.907   5.916  1.00  0.00     0.043 C 
BRANCH  15  16
ATOM     16  C   UNL     1       7.311  -5.626   6.993  1.00  0.00    -0.004 A 
ATOM     17  C   UNL     1       7.248  -5.371   8.321  1.00  0.00     0.036 A 
ATOM     18  C   UNL     1       8.210  -6.679   6.800  1.00  0.00     0.063 A 
ATOM     19  N   UNL     1       8.083  -6.229   8.944  1.00  0.00    -0.282 N 
ATOM     20  N   UNL     1       8.679  -7.037   7.967  1.00  0.00    -0.181 NA
ATOM     21  C   UNL     1       6.398  -4.320   8.984  1.00  0.00     0.066 C 
ATOM     22  C   UNL     1       8.585  -7.289   5.473  1.00  0.00     0.069 C 
ATOM     23  H   UNL     1       8.243  -6.276   9.900  1.00  0.00     0.190 HD
ENDBRANCH  15  16
ENDBRANCH  14  15
ENDBRANCH  13  14
ENDBRANCH   1  13
TORSDOF 7
ENDMDL
MODEL 4
REMARK VINA RESULT:    -5.589      0.189      1.775
REMARK INTER + INTRA:          -8.245
REMARK INTER:                  -7.684
REMARK INTRA:                  -0.561
REMARK UNBOUND:                -0.533
REMARK SMILES Cc1n[nH]c(C)c1CCCOc1cc(C(=O)O)ccc1F
REMARK SMILES IDX 11 1 12 2 14 3 18 4 13 5 19 6 20 7 21 8 15 9 16 10 17 11
REMARK SMILES IDX 10 13 9 14 8 15 7 16 5 17 2 18 4 19 3 20 6 21 1 22
REMARK H PARENT 17 12 4 23
ROOT
ATOM      1  O   UNL     1       3.179  -5.680   4.412  1.00  0.00    -0.490 OA
ENDROOT
BRANCH   1   2
ATOM      2  C   UNL     1       3.228  -4.619   3.562  1.00  0.00     0.155 A 
ATOM      3  C   UNL     1       3.463  -2.256   3.184  1.00  0.00     0.063 A 
ATOM      4  C   UNL     1       3.336  -2.467   1.809  1.00  0.00     0.019 A 
ATOM      5  C   UNL     1       3.408  -3.342   4.060  1.00  0.00     0.065 A 
ATOM      6  C   UNL     1       3.163  -3.746   1.321  1.00  0.00     0.044 A 
ATOM      7  C   UNL     1       3.114  -4.822   2.191  1.00  0.00     0.165 A 
ATOM      8  F   UNL     1       2.944  -6.072   1.707  1.00  0.00    -0.203 F 
BRANCH   3   9
ATOM      9  C   UNL     1       3.649  -0.890   3.710  1.00  0.00     0.335 C 
ATOM     10  O   UNL     1       3.384  -0.643   4.869  1.00  0.00    -0.246 OA
BRANCH   9  11
ATOM     11  O   UNL     1       4.119   0.083   2.905  1.00  0.00    -0.478 OA
ATOM     12  H   UNL     1       3.605   0.283   2.110  1.00  0.00     0.297 HD
ENDBRANCH   9  11
ENDBRANCH   3   9
ENDBRANCH   1   2
BRANCH   1  13
ATOM     13  C   UNL     1       4.298  -6.569   4.405  1.00  0.00     0.230 C 
BRANCH  13  14
ATOM     14  C   UNL     1       5.053  -6.447   5.729  1.00  0.00     0.046 C 
BRANCH  14  15
ATOM     15  C   UNL     1       6.384  -5.729   5.494  1.00  0.00     0.043 C 
BRANCH  15  16
ATOM     16  C   UNL     1       7.434  -6.301   6.410  1.00  0.00    -0.004 A 
ATOM     17  C   UNL     1       8.398  -7.184   6.062  1.00  0.00     0.036 A 
ATOM     18  C   UNL     1       7.589  -6.009   7.769  1.00  0.00     0.063 A 
ATOM     19  N   UNL     1       9.133  -7.447   7.163  1.00  0.00    -0.282 N 
ATOM     20  N   UNL     1       8.602  -6.700   8.223  1.00  0.00    -0.181 NA
ATOM     21  C   UNL     1       8.613  -7.769   4.690  1.00  0.00     0.066 C 
ATOM     22  C   UNL     1       6.728  -5.069   8.575  1.00  0.00     0.069 C 
ATOM     23  H   UNL     1       9.893  -8.047   7.212  1.00  0.00     0.190 HD
ENDBRANCH  15  16
ENDBRANCH  14  15
ENDBRANCH  13  14
ENDBRANCH   1  13
TORSDOF 7
ENDMDL
MODEL 5
REMARK VINA RESULT:    -4.643      3.796      6.531
REMARK INTER + INTRA:          -6.940
REMARK INTER:                  -6.117
REMARK INTRA:                  -0.823
REMARK UNBOUND:                -0.533
REMARK SMILES Cc1n[nH]c(C)c1CCCOc1cc(C(=O)O)ccc1F
REMARK SMILES IDX 11 1 12 2 14 3 18 4 13 5 19 6 20 7 21 8 15 9 16 10 17 11
REMARK SMILES IDX 10 13 9 14 8 15 7 16 5 17 2 18 4 19 3 20 6 21 1 22
REMARK H PARENT 17 12 4 23
ROOT
ATOM      1  O   UNL     1       5.986  -5.575   4.215  1.00  0.00    -0.490 OA
ENDROOT
BRANCH   1   2
ATOM      2  C   UNL     1       6.675  -5.821   5.361  1.00  0.00     0.155 A 
ATOM      3  C   UNL     1       7.003  -5.471   7.717  1.00  0.00     0.063 A 
ATOM      4  C   UNL     1       8.092  -6.347   7.692  1.00  0.00     0.019 A 
ATOM      5  C   UNL     1       6.296  -5.211   6.542  1.00  0.00     0.065 A 
ATOM      6  C   UNL     1       8.460  -6.956   6.511  1.00  0.00     0.044 A 
ATOM      7  C   UNL     1       7.753  -6.700   5.347  1.00  0.00     0.165 A 
ATOM      8  F   UNL     1       8.118  -7.300   4.193  1.00  0.00    -0.203 F 
BRANCH   3   9
ATOM      9  C   UNL     1       6.607  -4.818   8.980  1.00  0.00     0.335 C 
ATOM     10  O   UNL     1       7.045  -3.721   9.261  1.00  0.00    -0.246 OA
BRANCH   9  11
ATOM     11  O   UNL     1       5.753  -5.437   9.819  1.00  0.00    -0.478 OA
ATOM     12  H   UNL     1       6.062  -5.598  10.721  1.00  0.00     0.297 HD
ENDBRANCH   9  11
ENDBRANCH   3   9
ENDBRANCH   1   2
BRANCH   1  13
ATOM     13  C   UNL     1       4.559  -5.542   4.311  1.00  0.00     0.230 C 
BRANCH  13  14
ATOM     14  C   UNL     1       3.969  -5.096   2.973  1.00  0.00     0.046 C 
BRANCH  14  15
ATOM     15  C   UNL     1       4.923  -4.108   2.298  1.00  0.00     0.043 C 
BRANCH  15  16
ATOM     16  C   UNL     1       4.577  -2.704   2.722  1.00  0.00    -0.004 A 
ATOM     17  C   UNL     1       3.447  -2.032   2.403  1.00  0.00     0.036 A 
ATOM     18  C   UNL     1       5.364  -1.868   3.521  1.00  0.00     0.063 A 
ATOM     19  N   UNL     1       3.519  -0.811   2.974  1.00  0.00    -0.282 N 
ATOM     20  N   UNL     1       4.734  -0.731   3.667  1.00  0.00    -0.181 NA
ATOM     21  C   UNL     1       2.312  -2.553   1.561  1.00  0.00     0.066 C 
ATOM     22  C   UNL     1       6.711  -2.213   4.104  1.00  0.00     0.069 C 
ATOM     23  H   UNL     1       2.849  -0.113   2.914  1.00  0.00     0.190 HD
ENDBRANCH  15  16
ENDBRANCH  14  15
ENDBRANCH  13  14
ENDBRANCH   1  13
TORSDOF 7
ENDMDL
MODEL 6
REMARK VINA RESULT:    -4.599      3.946      7.026
REMARK INTER + INTRA:          -6.879
REMARK INTER:                  -6.048
REMARK INTRA:                  -0.831
REMARK UNBOUND:                -0.533
REMARK SMILES Cc1n[nH]c(C)c1CCCOc1cc(C(=O)O)ccc1F
REMARK SMILES IDX 11 1 12 2 14 3 18 4 13 5 19 6 20 7 21 8 15 9 16 10 17 11
REMARK SMILES IDX 10 13 9 14 8 15 7 16 5 17 2 18 4 19 3 20 6 21 1 22
REMARK H PARENT 17 12 4 23
ROOT
ATOM      1  O   UNL     1       5.625  -4.088   5.628  1.00  0.00    -0.490 OA
ENDROOT
BRANCH   1   2
ATOM      2  C   UNL     1       6.499  -4.955   6.204  1.00  0.00     0.155 A 
ATOM      3  C   UNL     1       8.160  -6.684   6.008  1.00  0.00     0.063 A 
ATOM      4  C   UNL     1       8.288  -6.713   7.399  1.00  0.00     0.019 A 
ATOM      5  C   UNL     1       7.259  -5.798   5.413  1.00  0.00     0.065 A 
ATOM      6  C   UNL     1       7.530  -5.865   8.179  1.00  0.00     0.044 A 
ATOM      7  C   UNL     1       6.641  -4.984   7.587  1.00  0.00     0.165 A 
ATOM      8  F   UNL     1       5.901  -4.155   8.356  1.00  0.00    -0.203 F 
BRANCH   3   9
ATOM      9  C   UNL     1       8.969  -7.590   5.170  1.00  0.00     0.335 C 
ATOM     10  O   UNL     1       9.810  -8.301   5.681  1.00  0.00    -0.246 OA
BRANCH   9  11
ATOM     11  O   UNL     1       8.771  -7.632   3.838  1.00  0.00    -0.478 OA
ATOM     12  H   UNL     1       9.549  -7.777   3.282  1.00  0.00     0.297 HD
ENDBRANCH   9  11
ENDBRANCH   3   9
ENDBRANCH   1   2
BRANCH   1  13
ATOM     13  C   UNL     1       6.032  -3.473   4.403  1.00  0.00     0.230 C 
BRANCH  13  14
ATOM     14  C   UNL     1       4.899  -2.593   3.874  1.00  0.00     0.046 C 
BRANCH  14  15
ATOM     15  C   UNL     1       3.555  -3.267   4.157  1.00  0.00     0.043 C 
BRANCH  15  16
ATOM     16  C   UNL     1       3.217  -4.210   3.032  1.00  0.00    -0.004 A 
ATOM     17  C   UNL     1       2.879  -3.856   1.771  1.00  0.00     0.036 A 
ATOM     18  C   UNL     1       3.205  -5.607   3.105  1.00  0.00     0.063 A 
ATOM     19  N   UNL     1       2.653  -4.988   1.072  1.00  0.00    -0.282 N 
ATOM     20  N   UNL     1       2.861  -6.074   1.932  1.00  0.00    -0.181 NA
ATOM     21  C   UNL     1       2.772  -2.450   1.241  1.00  0.00     0.066 C 
ATOM     22  C   UNL     1       3.522  -6.431   4.326  1.00  0.00     0.069 C 
ATOM     23  H   UNL     1       2.393  -5.041   0.139  1.00  0.00     0.190 HD
ENDBRANCH  15  16
ENDBRANCH  14  15
ENDBRANCH  13  14
ENDBRANCH   1  13
TORSDOF 7
ENDMDL
MODEL 7
REMARK VINA RESULT:    -4.431      4.961      7.935
REMARK INTER + INTRA:          -6.647
REMARK INTER:                  -5.983
REMARK INTRA:                  -0.665
REMARK UNBOUND:                -0.533
REMARK SMILES Cc1n[nH]c(C)c1CCCOc1cc(C(=O)O)ccc1F
REMARK SMILES IDX 11 1 12 2 14 3 18 4 13 5 19 6 20 7 21 8 15 9 16 10 17 11
REMARK SMILES IDX 10 13 9 14 8 15 7 16 5 17 2 18 4 19 3 20 6 21 1 22
REMARK H PARENT 17 12 4 23
ROOT
ATOM      1  O   UNL     1       6.972  -4.802   7.943  1.00  0.00    -0.490 OA
ENDROOT
BRANCH   1   2
ATOM      2  C   UNL     1       7.146  -5.144   9.248  1.00  0.00     0.155 A 
ATOM      3  C   UNL     1       8.557  -5.927  11.030  1.00  0.00     0.063 A 
ATOM      4  C   UNL     1       7.483  -5.829  11.919  1.00  0.00     0.019 A 
ATOM      5  C   UNL     1       8.381  -5.581   9.689  1.00  0.00     0.065 A 
ATOM      6  C   UNL     1       6.256  -5.386  11.471  1.00  0.00     0.044 A 
ATOM      7  C   UNL     1       6.085  -5.039  10.141  1.00  0.00     0.165 A 
ATOM      8  F   UNL     1       4.881  -4.606   9.708  1.00  0.00    -0.203 F 
BRANCH   3   9
ATOM      9  C   UNL     1       9.872  -6.400  11.507  1.00  0.00     0.335 C 
ATOM     10  O   UNL     1      10.002  -6.780  12.652  1.00  0.00    -0.246 OA
BRANCH   9  11
ATOM     11  O   UNL     1      10.926  -6.416  10.667  1.00  0.00    -0.478 OA
ATOM     12  H   UNL     1      11.123  -7.253  10.225  1.00  0.00     0.297 HD
ENDBRANCH   9  11
ENDBRANCH   3   9
ENDBRANCH   1   2
BRANCH   1  13
ATOM     13  C   UNL     1       7.007  -5.862   6.984  1.00  0.00     0.230 C 
BRANCH  13  14
ATOM     14  C   UNL     1       6.774  -5.290   5.585  1.00  0.00     0.046 C 
BRANCH  14  15
ATOM     15  C   UNL     1       5.516  -4.419   5.593  1.00  0.00     0.043 C 
BRANCH  15  16
ATOM     16  C   UNL     1       5.042  -4.207   4.179  1.00  0.00    -0.004 A 
ATOM     17  C   UNL     1       5.480  -3.250   3.327  1.00  0.00     0.036 A 
ATOM     18  C   UNL     1       4.075  -4.967   3.511  1.00  0.00     0.063 A 
ATOM     19  N   UNL     1       4.810  -3.396   2.165  1.00  0.00    -0.282 N 
ATOM     20  N   UNL     1       3.931  -4.478   2.307  1.00  0.00    -0.181 NA
ATOM     21  C   UNL     1       6.528  -2.210   3.624  1.00  0.00     0.066 C 
ATOM     22  C   UNL     1       3.322  -6.139   4.086  1.00  0.00     0.069 C 
ATOM     23  H   UNL     1       4.917  -2.849   1.372  1.00  0.00     0.190 HD
ENDBRANCH  15  16
ENDBRANCH  14  15
ENDBRANCH  13  14
ENDBRANCH   1  13
TORSDOF 7
ENDMDL
MODEL 8
REMARK VINA RESULT:    -4.430      3.942      6.921
REMARK INTER + INTRA:          -6.646
REMARK INTER:                  -5.873
REMARK INTRA:                  -0.773
REMARK UNBOUND:                -0.533
REMARK SMILES Cc1n[nH]c(C)c1CCCOc1cc(C(=O)O)ccc1F
REMARK SMILES IDX 11 1 12 2 14 3 18 4 13 5 19 6 20 7 21 8 15 9 16 10 17 11
REMARK SMILES IDX 10 13 9 14 8 15 7 16 5 17 2 18 4 19 3 20 6 21 1 22
REMARK H PARENT 17 12 4 23
ROOT
ATOM      1  O   UNL     1       5.041  -5.045   5.265  1.00  0.00    -0.490 OA
ENDROOT
BRANCH   1   2
ATOM      2  C   UNL     1       6.136  -5.569   5.878  1.00  0.00     0.155 A 
ATOM      3  C   UNL     1       8.108  -6.943   5.813  1.00  0.00     0.063 A 
ATOM      4  C   UNL     1       8.373  -6.620   7.146  1.00  0.00     0.019 A 
ATOM      5  C   UNL     1       6.982  -6.411   5.181  1.00  0.00     0.065 A 
ATOM      6  C   UNL     1       7.527  -5.774   7.832  1.00  0.00     0.044 A 
ATOM      7  C   UNL     1       6.413  -5.243   7.202  1.00  0.00     0.165 A 
ATOM      8  F   UNL     1       5.588  -4.415   7.879  1.00  0.00    -0.203 F 
BRANCH   3   9
ATOM      9  C   UNL     1       9.012  -7.848   5.076  1.00  0.00     0.335 C 
ATOM     10  O   UNL     1       9.739  -8.607   5.684  1.00  0.00    -0.246 OA
BRANCH   9  11
ATOM     11  O   UNL     1       9.025  -7.837   3.729  1.00  0.00    -0.478 OA
ATOM     12  H   UNL     1       9.885  -7.934   3.297  1.00  0.00     0.297 HD
ENDBRANCH   9  11
ENDBRANCH   3   9
ENDBRANCH   1   2
BRANCH   1  13
ATOM     13  C   UNL     1       4.336  -5.897   4.359  1.00  0.00     0.230 C 
BRANCH  13  14
ATOM     14  C   UNL     1       3.657  -5.045   3.285  1.00  0.00     0.046 C 
BRANCH  14  15
ATOM     15  C   UNL     1       4.710  -4.207   2.557  1.00  0.00     0.043 C 
BRANCH  15  16
ATOM     16  C   UNL     1       4.482  -2.747   2.851  1.00  0.00    -0.004 A 
ATOM     17  C   UNL     1       3.409  -2.016   2.469  1.00  0.00     0.036 A 
ATOM     18  C   UNL     1       5.339  -1.910   3.573  1.00  0.00     0.063 A 
ATOM     19  N   UNL     1       3.585  -0.758   2.928  1.00  0.00    -0.282 N 
ATOM     20  N   UNL     1       4.806  -0.716   3.613  1.00  0.00    -0.181 NA
ATOM     21  C   UNL     1       2.231  -2.516   1.676  1.00  0.00     0.066 C 
ATOM     22  C   UNL     1       6.656  -2.310   4.187  1.00  0.00     0.069 C 
ATOM     23  H   UNL     1       2.974  -0.015   2.803  1.00  0.00     0.190 HD
ENDBRANCH  15  16
ENDBRANCH  14  15
ENDBRANCH  13  14
ENDBRANCH   1  13
TORSDOF 7
ENDMDL
MODEL 9
REMARK VINA RESULT:    -4.374      4.759      8.152
REMARK INTER + INTRA:          -6.569
REMARK INTER:                  -5.908
REMARK INTRA:                  -0.660
REMARK UNBOUND:                -0.533
REMARK SMILES Cc1n[nH]c(C)c1CCCOc1cc(C(=O)O)ccc1F
REMARK SMILES IDX 11 1 12 2 14 3 18 4 13 5 19 6 20 7 21 8 15 9 16 10 17 11
REMARK SMILES IDX 10 13 9 14 8 15 7 16 5 17 2 18 4 19 3 20 6 21 1 22
REMARK H PARENT 17 12 4 23
ROOT
ATOM      1  O   UNL     1       7.863  -7.237   5.625  1.00  0.00    -0.490 OA
ENDROOT
BRANCH   1   2
ATOM      2  C   UNL     1       9.064  -7.849   5.798  1.00  0.00     0.155 A 
ATOM      3  C   UNL     1      10.586  -9.114   7.164  1.00  0.00     0.063 A 
ATOM      4  C   UNL     1      11.521  -9.103   6.126  1.00  0.00     0.019 A 
ATOM      5  C   UNL     1       9.353  -8.482   6.993  1.00  0.00     0.065 A 
ATOM      6  C   UNL     1      11.222  -8.474   4.936  1.00  0.00     0.044 A 
ATOM      7  C   UNL     1       9.997  -7.852   4.766  1.00  0.00     0.165 A 
ATOM      8  F   UNL     1       9.710  -7.238   3.597  1.00  0.00    -0.203 F 
BRANCH   3   9
ATOM      9  C   UNL     1      10.902  -9.786   8.440  1.00  0.00     0.335 C 
ATOM     10  O   UNL     1      12.015 -10.233   8.631  1.00  0.00    -0.246 OA
BRANCH   9  11
ATOM     11  O   UNL     1       9.958  -9.898   9.394  1.00  0.00    -0.478 OA
ATOM     12  H   UNL     1       9.377 -10.671   9.349  1.00  0.00     0.297 HD
ENDBRANCH   9  11
ENDBRANCH   3   9
ENDBRANCH   1   2
BRANCH   1  13
ATOM     13  C   UNL     1       7.681  -5.972   6.266  1.00  0.00     0.230 C 
BRANCH  13  14
ATOM     14  C   UNL     1       6.295  -5.422   5.925  1.00  0.00     0.046 C 
BRANCH  14  15
ATOM     15  C   UNL     1       6.171  -5.255   4.409  1.00  0.00     0.043 C 
BRANCH  15  16
ATOM     16  C   UNL     1       5.018  -4.337   4.097  1.00  0.00    -0.004 A 
ATOM     17  C   UNL     1       5.104  -3.012   3.832  1.00  0.00     0.036 A 
ATOM     18  C   UNL     1       3.670  -4.704   4.022  1.00  0.00     0.063 A 
ATOM     19  N   UNL     1       3.854  -2.556   3.605  1.00  0.00    -0.282 N 
ATOM     20  N   UNL     1       2.971  -3.637   3.734  1.00  0.00    -0.181 NA
ATOM     21  C   UNL     1       6.368  -2.194   3.798  1.00  0.00     0.066 C 
ATOM     22  C   UNL     1       3.118  -6.089   4.247  1.00  0.00     0.069 C 
ATOM     23  H   UNL     1       3.610  -1.643   3.391  1.00  0.00     0.190 HD
ENDBRANCH  15  16
ENDBRANCH  14  15
ENDBRANCH  13  14
ENDBRANCH   1  13
TORSDOF 7
ENDMDL
