MODEL 1
REMARK VINA RESULT:    -5.561      0.000      0.000
REMARK INTER + INTRA:          -8.229
REMARK INTER:                  -7.674
REMARK INTRA:                  -0.555
REMARK UNBOUND:                -0.555
REMARK SMILES Cc1n[nH]c(C)c1CCCOc1cc(C(=O)O)ccc1F
REMARK SMILES IDX 11 1 12 2 14 3 18 4 13 5 19 6 20 7 21 8 15 9 16 10 17 11
REMARK SMILES IDX 10 13 9 14 8 15 7 16 5 17 2 18 4 19 3 20 6 21 1 22
REMARK H PARENT 17 12 4 23
ROOT
ATOM      1  O   UNL     1      -9.924   1.105  -0.191  1.00  0.00    -0.490 OA
ENDROOT
BRANCH   1   2
ATOM      2  C   UNL     1      -8.648   1.490  -0.460  1.00  0.00     0.155 A 
ATOM      3  C   UNL     1      -6.980   2.245  -2.018  1.00  0.00     0.063 A 
ATOM      4  C   UNL     1      -6.038   2.282  -0.987  1.00  0.00     0.019 A 
ATOM      5  C   UNL     1      -8.290   1.846  -1.747  1.00  0.00     0.065 A 
ATOM      6  C   UNL     1      -6.406   1.931   0.295  1.00  0.00     0.044 A 
ATOM      7  C   UNL     1      -7.708   1.540   0.563  1.00  0.00     0.165 A 
ATOM      8  F   UNL     1      -8.062   1.197   1.821  1.00  0.00    -0.203 F 
BRANCH   3   9
ATOM      9  C   UNL     1      -6.590   2.621  -3.391  1.00  0.00     0.335 C 
ATOM     10  O   UNL     1      -7.252   2.244  -4.336  1.00  0.00    -0.246 OA
BRANCH   9  11
ATOM     11  O   UNL     1      -5.501   3.388  -3.596  1.00  0.00    -0.478 OA
ATOM     12  H   UNL     1      -4.730   2.959  -3.992  1.00  0.00     0.297 HD
ENDBRANCH   9  11
ENDBRANCH   3   9
ENDBRANCH   1   2
BRANCH   1  13
ATOM     13  C   UNL     1     -10.719   1.999   0.593  1.00  0.00     0.230 C 
BRANCH  13  14
ATOM     14  C   UNL     1     -11.861   2.549  -0.264  1.00  0.00     0.046 C 
BRANCH  14  15
ATOM     15  C   UNL     1     -11.518   3.969  -0.719  1.00  0.00     0.043 C 
BRANCH  15  16
ATOM     16  C   UNL     1     -12.789   4.738  -0.969  1.00  0.00    -0.004 A 
ATOM     17  C   UNL     1     -13.537   4.696  -2.096  1.00  0.00     0.036 A 
ATOM     18  C   UNL     1     -13.408   5.618  -0.075  1.00  0.00     0.063 A 
ATOM     19  N   UNL     1     -14.588   5.524  -1.923  1.00  0.00    -0.282 N 
ATOM     20  N   UNL     1     -14.483   6.095  -0.648  1.00  0.00    -0.181 NA
ATOM     21  C   UNL     1     -13.248   3.871  -3.323  1.00  0.00     0.066 C 
ATOM     22  C   UNL     1     -12.914   5.967   1.306  1.00  0.00     0.069 C 
ATOM     23  H   UNL     1     -15.292   5.695  -2.568  1.00  0.00     0.190 HD
ENDBRANCH  15  16
ENDBRANCH  14  15
ENDBRANCH  13  14
ENDBRANCH   1  13
TORSDOF 7
ENDMDL
MODEL 2
REMARK VINA RESULT:    -5.555      2.284      3.910
REMARK INTER + INTRA:          -8.221
REMARK INTER:                  -7.703
REMARK INTRA:                  -0.519
REMARK UNBOUND:                -0.555
REMARK SMILES Cc1n[nH]c(C)c1CCCOc1cc(C(=O)O)ccc1F
REMARK SMILES IDX 11 1 12 2 14 3 18 4 13 5 19 6 20 7 21 8 15 9 16 10 17 11
REMARK SMILES IDX 10 13 9 14 8 15 7 16 5 17 2 18 4 19 3 20 6 21 1 22
REMARK H PARENT 17 12 4 23
ROOT
ATOM      1  O   UNL     1      -8.079   5.078  -1.710  1.00  0.00    -0.490 OA
ENDROOT
BRANCH   1   2
ATOM      2  C   UNL     1      -7.546   3.895  -1.304  1.00  0.00     0.155 A 
ATOM      3  C   UNL     1      -7.201   2.237   0.403  1.00  0.00     0.063 A 
ATOM      4  C   UNL     1      -6.457   1.470  -0.497  1.00  0.00     0.019 A 
ATOM      5  C   UNL     1      -7.746   3.455  -0.009  1.00  0.00     0.065 A 
ATOM      6  C   UNL     1      -6.268   1.914  -1.789  1.00  0.00     0.044 A 
ATOM      7  C   UNL     1      -6.814   3.120  -2.197  1.00  0.00     0.165 A 
ATOM      8  F   UNL     1      -6.625   3.550  -3.464  1.00  0.00    -0.203 F 
BRANCH   3   9
ATOM      9  C   UNL     1      -7.405   1.765   1.786  1.00  0.00     0.335 C 
ATOM     10  O   UNL     1      -7.686   2.556   2.663  1.00  0.00    -0.246 OA
BRANCH   9  11
ATOM     11  O   UNL     1      -7.287   0.453   2.074  1.00  0.00    -0.478 OA
ATOM     12  H   UNL     1      -7.675  -0.171   1.446  1.00  0.00     0.297 HD
ENDBRANCH   9  11
ENDBRANCH   3   9
ENDBRANCH   1   2
BRANCH   1  13
ATOM     13  C   UNL     1      -9.094   5.021  -2.716  1.00  0.00     0.230 C 
BRANCH  13  14
ATOM     14  C   UNL     1     -10.406   5.561  -2.146  1.00  0.00     0.046 C 
BRANCH  14  15
ATOM     15  C   UNL     1     -11.275   4.394  -1.673  1.00  0.00     0.043 C 
BRANCH  15  16
ATOM     16  C   UNL     1     -12.719   4.825  -1.634  1.00  0.00    -0.004 A 
ATOM     17  C   UNL     1     -13.331   5.468  -0.613  1.00  0.00     0.036 A 
ATOM     18  C   UNL     1     -13.661   4.636  -2.650  1.00  0.00     0.063 A 
ATOM     19  N   UNL     1     -14.617   5.673  -0.967  1.00  0.00    -0.282 N 
ATOM     20  N   UNL     1     -14.801   5.138  -2.249  1.00  0.00    -0.181 NA
ATOM     21  C   UNL     1     -12.691   5.881   0.687  1.00  0.00     0.066 C 
ATOM     22  C   UNL     1     -13.410   3.960  -3.974  1.00  0.00     0.069 C 
ATOM     23  H   UNL     1     -15.294   6.112  -0.430  1.00  0.00     0.190 HD
ENDBRANCH  15  16
ENDBRANCH  14  15
ENDBRANCH  13  14
ENDBRANCH   1  13
TORSDOF 7
ENDMDL
MODEL 3
REMARK VINA RESULT:    -5.473      0.197      1.776
REMARK INTER + INTRA:          -8.108
REMARK INTER:                  -7.487
REMARK INTRA:                  -0.621
REMARK UNBOUND:                -0.555
REMARK SMILES Cc1n[nH]c(C)c1CCCOc1cc(C(=O)O)ccc1F
REMARK SMILES IDX 11 1 12 2 14 3 18 4 13 5 19 6 20 7 21 8 15 9 16 10 17 11
REMARK SMILES IDX 10 13 9 14 8 15 7 16 5 17 2 18 4 19 3 20 6 21 1 22
REMARK H PARENT 17 12 4 23
ROOT
ATOM      1  O   UNL     1      -9.962   1.249  -0.225  1.00  0.00    -0.490 OA
ENDROOT
BRANCH   1   2
ATOM      2  C   UNL     1      -8.667   1.566  -0.494  1.00  0.00     0.155 A 
ATOM      3  C   UNL     1      -6.965   2.253  -2.047  1.00  0.00     0.063 A 
ATOM      4  C   UNL     1      -6.019   2.220  -1.019  1.00  0.00     0.019 A 
ATOM      5  C   UNL     1      -8.295   1.923  -1.776  1.00  0.00     0.065 A 
ATOM      6  C   UNL     1      -6.401   1.869   0.258  1.00  0.00     0.044 A 
ATOM      7  C   UNL     1      -7.722   1.547   0.526  1.00  0.00     0.165 A 
ATOM      8  F   UNL     1      -8.090   1.203   1.780  1.00  0.00    -0.203 F 
BRANCH   3   9
ATOM      9  C   UNL     1      -6.560   2.630  -3.415  1.00  0.00     0.335 C 
ATOM     10  O   UNL     1      -7.211   2.253  -4.368  1.00  0.00    -0.246 OA
BRANCH   9  11
ATOM     11  O   UNL     1      -5.469   3.397  -3.607  1.00  0.00    -0.478 OA
ATOM     12  H   UNL     1      -4.895   3.168  -4.351  1.00  0.00     0.297 HD
ENDBRANCH   9  11
ENDBRANCH   3   9
ENDBRANCH   1   2
BRANCH   1  13
ATOM     13  C   UNL     1     -10.738   2.227   0.473  1.00  0.00     0.230 C 
BRANCH  13  14
ATOM     14  C   UNL     1     -11.869   2.719  -0.431  1.00  0.00     0.046 C 
BRANCH  14  15
ATOM     15  C   UNL     1     -11.614   4.178  -0.818  1.00  0.00     0.043 C 
BRANCH  15  16
ATOM     16  C   UNL     1     -12.928   4.908  -0.918  1.00  0.00    -0.004 A 
ATOM     17  C   UNL     1     -13.473   5.702   0.033  1.00  0.00     0.036 A 
ATOM     18  C   UNL     1     -13.798   4.891  -2.014  1.00  0.00     0.063 A 
ATOM     19  N   UNL     1     -14.648   6.165  -0.441  1.00  0.00    -0.282 N 
ATOM     20  N   UNL     1     -14.833   5.638  -1.726  1.00  0.00    -0.181 NA
ATOM     21  C   UNL     1     -12.873   6.014   1.379  1.00  0.00     0.066 C 
ATOM     22  C   UNL     1     -13.586   4.132  -3.299  1.00  0.00     0.069 C 
ATOM     23  H   UNL     1     -15.258   6.757   0.025  1.00  0.00     0.190 HD
ENDBRANCH  15  16
ENDBRANCH  14  15
ENDBRANCH  13  14
ENDBRANCH   1  13
TORSDOF 7
ENDMDL
MODEL 4
REMARK VINA RESULT:    -5.389      2.226      3.411
REMARK INTER + INTRA:          -7.992
REMARK INTER:                  -7.290
REMARK INTRA:                  -0.702
REMARK UNBOUND:                -0.555
REMARK SMILES Cc1n[nH]c(C)c1CCCOc1cc(C(=O)O)ccc1F
REMARK SMILES IDX 11 1 12 2 14 3 18 4 13 5 19 6 20 7 21 8 15 9 16 10 17 11
REMARK SMILES IDX 10 13 9 14 8 15 7 16 5 17 2 18 4 19 3 20 6 21 1 22
REMARK H PARENT 17 12 4 23
ROOT
ATOM      1  O   UNL     1      -8.246   4.859  -1.840  1.00  0.00    -0.490 OA
ENDROOT
BRANCH   1   2
ATOM      2  C   UNL     1      -7.621   3.741  -1.383  1.00  0.00     0.155 A 
ATOM      3  C   UNL     1      -7.172   2.174   0.385  1.00  0.00     0.063 A 
ATOM      4  C   UNL     1      -6.342   1.449  -0.473  1.00  0.00     0.019 A 
ATOM      5  C   UNL     1      -7.812   3.326  -0.079  1.00  0.00     0.065 A 
ATOM      6  C   UNL     1      -6.161   1.868  -1.775  1.00  0.00     0.044 A 
ATOM      7  C   UNL     1      -6.801   3.007  -2.234  1.00  0.00     0.165 A 
ATOM      8  F   UNL     1      -6.620   3.412  -3.510  1.00  0.00    -0.203 F 
BRANCH   3   9
ATOM      9  C   UNL     1      -7.368   1.728   1.778  1.00  0.00     0.335 C 
ATOM     10  O   UNL     1      -7.615   2.540   2.647  1.00  0.00    -0.246 OA
BRANCH   9  11
ATOM     11  O   UNL     1      -7.278   0.419   2.085  1.00  0.00    -0.478 OA
ATOM     12  H   UNL     1      -7.866   0.089   2.779  1.00  0.00     0.297 HD
ENDBRANCH   9  11
ENDBRANCH   3   9
ENDBRANCH   1   2
BRANCH   1  13
ATOM     13  C   UNL     1      -9.478   4.672  -2.540  1.00  0.00     0.230 C 
BRANCH  13  14
ATOM     14  C   UNL     1     -10.610   5.356  -1.772  1.00  0.00     0.046 C 
BRANCH  14  15
ATOM     15  C   UNL     1     -11.625   4.306  -1.316  1.00  0.00     0.043 C 
BRANCH  15  16
ATOM     16  C   UNL     1     -13.022   4.824  -1.542  1.00  0.00    -0.004 A 
ATOM     17  C   UNL     1     -13.774   4.627  -2.649  1.00  0.00     0.036 A 
ATOM     18  C   UNL     1     -13.772   5.589  -0.643  1.00  0.00     0.063 A 
ATOM     19  N   UNL     1     -14.956   5.250  -2.460  1.00  0.00    -0.282 N 
ATOM     20  N   UNL     1     -14.929   5.851  -1.194  1.00  0.00    -0.181 NA
ATOM     21  C   UNL     1     -13.366   3.850  -3.874  1.00  0.00     0.066 C 
ATOM     22  C   UNL     1     -13.320   6.044   0.722  1.00  0.00     0.069 C 
ATOM     23  H   UNL     1     -15.694   5.278  -3.089  1.00  0.00     0.190 HD
ENDBRANCH  15  16
ENDBRANCH  14  15
ENDBRANCH  13  14
ENDBRANCH   1  13
TORSDOF 7
ENDMDL
MODEL 5
REMARK VINA RESULT:    -4.574      3.925      7.019
REMARK INTER + INTRA:          -6.868
REMARK INTER:                  -6.026
REMARK INTRA:                  -0.842
REMARK UNBOUND:                -0.555
REMARK SMILES Cc1n[nH]c(C)c1CCCOc1cc(C(=O)O)ccc1F
REMARK SMILES IDX 11 1 12 2 14 3 18 4 13 5 19 6 20 7 21 8 15 9 16 10 17 11
REMARK SMILES IDX 10 13 9 14 8 15 7 16 5 17 2 18 4 19 3 20 6 21 1 22
REMARK H PARENT 17 12 4 23
ROOT
ATOM      1  O   UNL     1     -10.404   3.566  -2.241  1.00  0.00    -0.490 OA
ENDROOT
BRANCH   1   2
ATOM      2  C   UNL     1     -11.577   4.154  -1.885  1.00  0.00     0.155 A 
ATOM      3  C   UNL     1     -12.886   5.420  -0.314  1.00  0.00     0.063 A 
ATOM      4  C   UNL     1     -13.980   5.359  -1.182  1.00  0.00     0.019 A 
ATOM      5  C   UNL     1     -11.681   4.813  -0.674  1.00  0.00     0.065 A 
ATOM      6  C   UNL     1     -13.865   4.705  -2.390  1.00  0.00     0.044 A 
ATOM      7  C   UNL     1     -12.668   4.107  -2.747  1.00  0.00     0.165 A 
ATOM      8  F   UNL     1     -12.561   3.468  -3.933  1.00  0.00    -0.203 F 
BRANCH   3   9
ATOM      9  C   UNL     1     -13.005   6.120   0.980  1.00  0.00     0.335 C 
ATOM     10  O   UNL     1     -12.613   7.263   1.091  1.00  0.00    -0.246 OA
BRANCH   9  11
ATOM     11  O   UNL     1     -13.556   5.491   2.036  1.00  0.00    -0.478 OA
ATOM     12  H   UNL     1     -14.215   4.808   1.847  1.00  0.00     0.297 HD
ENDBRANCH   9  11
ENDBRANCH   3   9
ENDBRANCH   1   2
BRANCH   1  13
ATOM     13  C   UNL     1      -9.202   4.265  -1.910  1.00  0.00     0.230 C 
BRANCH  13  14
ATOM     14  C   UNL     1      -7.997   3.361  -2.178  1.00  0.00     0.046 C 
BRANCH  14  15
ATOM     15  C   UNL     1      -8.361   1.913  -1.839  1.00  0.00     0.043 C 
BRANCH  15  16
ATOM     16  C   UNL     1      -8.023   1.634  -0.398  1.00  0.00    -0.004 A 
ATOM     17  C   UNL     1      -6.779   1.582   0.133  1.00  0.00     0.036 A 
ATOM     18  C   UNL     1      -8.940   1.389   0.630  1.00  0.00     0.063 A 
ATOM     19  N   UNL     1      -6.905   1.307   1.449  1.00  0.00    -0.282 N 
ATOM     20  N   UNL     1      -8.271   1.186   1.735  1.00  0.00    -0.181 NA
ATOM     21  C   UNL     1      -5.487   1.793  -0.611  1.00  0.00     0.066 C 
ATOM     22  C   UNL     1     -10.440   1.352   0.486  1.00  0.00     0.069 C 
ATOM     23  H   UNL     1      -6.178   1.209   2.083  1.00  0.00     0.190 HD
ENDBRANCH  15  16
ENDBRANCH  14  15
ENDBRANCH  13  14
ENDBRANCH   1  13
TORSDOF 7
ENDMDL
MODEL 6
REMARK VINA RESULT:    -4.569      3.790      6.523
REMARK INTER + INTRA:          -6.860
REMARK INTER:                  -5.996
REMARK INTRA:                  -0.864
REMARK UNBOUND:                -0.555
REMARK SMILES Cc1n[nH]c(C)c1CCCOc1cc(C(=O)O)ccc1F
REMARK SMILES IDX 11 1 12 2 14 3 18 4 13 5 19 6 20 7 21 8 15 9 16 10 17 11
REMARK SMILES IDX 10 13 9 14 8 15 7 16 5 17 2 18 4 19 3 20 6 21 1 22
REMARK H PARENT 17 12 4 23
ROOT
ATOM      1  O   UNL     1     -10.517   3.898   0.068  1.00  0.00    -0.490 OA
ENDROOT
BRANCH   1   2
ATOM      2  C   UNL     1     -11.664   4.340  -0.514  1.00  0.00     0.155 A 
ATOM      3  C   UNL     1     -13.209   4.326  -2.356  1.00  0.00     0.063 A 
ATOM      4  C   UNL     1     -14.015   5.247  -1.682  1.00  0.00     0.019 A 
ATOM      5  C   UNL     1     -12.029   3.873  -1.763  1.00  0.00     0.065 A 
ATOM      6  C   UNL     1     -13.646   5.702  -0.434  1.00  0.00     0.044 A 
ATOM      7  C   UNL     1     -12.477   5.249   0.154  1.00  0.00     0.165 A 
ATOM      8  F   UNL     1     -12.121   5.698   1.378  1.00  0.00    -0.203 F 
BRANCH   3   9
ATOM      9  C   UNL     1     -13.602   3.836  -3.692  1.00  0.00     0.335 C 
ATOM     10  O   UNL     1     -13.230   4.423  -4.688  1.00  0.00    -0.246 OA
BRANCH   9  11
ATOM     11  O   UNL     1     -14.368   2.734  -3.807  1.00  0.00    -0.478 OA
ATOM     12  H   UNL     1     -14.410   2.146  -3.039  1.00  0.00     0.297 HD
ENDBRANCH   9  11
ENDBRANCH   3   9
ENDBRANCH   1   2
BRANCH   1  13
ATOM     13  C   UNL     1     -10.113   2.559  -0.228  1.00  0.00     0.230 C 
BRANCH  13  14
ATOM     14  C   UNL     1      -8.714   2.312   0.337  1.00  0.00     0.046 C 
BRANCH  14  15
ATOM     15  C   UNL     1      -7.811   3.501   0.001  1.00  0.00     0.043 C 
BRANCH  15  16
ATOM     16  C   UNL     1      -7.217   3.309  -1.371  1.00  0.00    -0.004 A 
ATOM     17  C   UNL     1      -7.501   4.044  -2.471  1.00  0.00     0.036 A 
ATOM     18  C   UNL     1      -6.270   2.345  -1.731  1.00  0.00     0.063 A 
ATOM     19  N   UNL     1      -6.765   3.557  -3.492  1.00  0.00    -0.282 N 
ATOM     20  N   UNL     1      -6.004   2.488  -3.003  1.00  0.00    -0.181 NA
ATOM     21  C   UNL     1      -8.466   5.199  -2.543  1.00  0.00     0.066 C 
ATOM     22  C   UNL     1      -5.670   1.310  -0.813  1.00  0.00     0.069 C 
ATOM     23  H   UNL     1      -6.764   3.888  -4.404  1.00  0.00     0.190 HD
ENDBRANCH  15  16
ENDBRANCH  14  15
ENDBRANCH  13  14
ENDBRANCH   1  13
TORSDOF 7
ENDMDL
MODEL 7
REMARK VINA RESULT:    -4.541      3.808      6.507
REMARK INTER + INTRA:          -6.821
REMARK INTER:                  -5.971
REMARK INTRA:                  -0.851
REMARK UNBOUND:                -0.555
REMARK SMILES Cc1n[nH]c(C)c1CCCOc1cc(C(=O)O)ccc1F
REMARK SMILES IDX 11 1 12 2 14 3 18 4 13 5 19 6 20 7 21 8 15 9 16 10 17 11
REMARK SMILES IDX 10 13 9 14 8 15 7 16 5 17 2 18 4 19 3 20 6 21 1 22
REMARK H PARENT 17 12 4 23
ROOT
ATOM      1  O   UNL     1     -10.481   3.855  -0.087  1.00  0.00    -0.490 OA
ENDROOT
BRANCH   1   2
ATOM      2  C   UNL     1     -11.641   4.308  -0.631  1.00  0.00     0.155 A 
ATOM      3  C   UNL     1     -13.232   4.331  -2.435  1.00  0.00     0.063 A 
ATOM      4  C   UNL     1     -14.021   5.238  -1.722  1.00  0.00     0.019 A 
ATOM      5  C   UNL     1     -12.037   3.867  -1.881  1.00  0.00     0.065 A 
ATOM      6  C   UNL     1     -13.621   5.667  -0.474  1.00  0.00     0.044 A 
ATOM      7  C   UNL     1     -12.438   5.202   0.076  1.00  0.00     0.165 A 
ATOM      8  F   UNL     1     -12.052   5.626   1.299  1.00  0.00    -0.203 F 
BRANCH   3   9
ATOM      9  C   UNL     1     -13.657   3.869  -3.771  1.00  0.00     0.335 C 
ATOM     10  O   UNL     1     -14.644   4.346  -4.293  1.00  0.00    -0.246 OA
BRANCH   9  11
ATOM     11  O   UNL     1     -12.945   2.923  -4.414  1.00  0.00    -0.478 OA
ATOM     12  H   UNL     1     -12.897   2.989  -5.378  1.00  0.00     0.297 HD
ENDBRANCH   9  11
ENDBRANCH   3   9
ENDBRANCH   1   2
BRANCH   1  13
ATOM     13  C   UNL     1     -10.190   2.464  -0.244  1.00  0.00     0.230 C 
BRANCH  13  14
ATOM     14  C   UNL     1      -8.770   2.182   0.249  1.00  0.00     0.046 C 
BRANCH  14  15
ATOM     15  C   UNL     1      -7.889   3.408  -0.003  1.00  0.00     0.043 C 
BRANCH  15  16
ATOM     16  C   UNL     1      -7.221   3.279  -1.347  1.00  0.00    -0.004 A 
ATOM     17  C   UNL     1      -6.275   2.372  -1.683  1.00  0.00     0.036 A 
ATOM     18  C   UNL     1      -7.474   4.073  -2.471  1.00  0.00     0.063 A 
ATOM     19  N   UNL     1      -5.936   2.588  -2.971  1.00  0.00    -0.282 N 
ATOM     20  N   UNL     1      -6.700   3.664  -3.443  1.00  0.00    -0.181 NA
ATOM     21  C   UNL     1      -5.702   1.311  -0.780  1.00  0.00     0.066 C 
ATOM     22  C   UNL     1      -8.460   5.211  -2.546  1.00  0.00     0.069 C 
ATOM     23  H   UNL     1      -5.280   2.088  -3.480  1.00  0.00     0.190 HD
ENDBRANCH  15  16
ENDBRANCH  14  15
ENDBRANCH  13  14
ENDBRANCH   1  13
TORSDOF 7
ENDMDL
MODEL 8
REMARK VINA RESULT:    -4.343      3.959      6.962
REMARK INTER + INTRA:          -6.549
REMARK INTER:                  -5.906
REMARK INTRA:                  -0.643
REMARK UNBOUND:                -0.555
REMARK SMILES Cc1n[nH]c(C)c1CCCOc1cc(C(=O)O)ccc1F
REMARK SMILES IDX 11 1 12 2 14 3 18 4 13 5 19 6 20 7 21 8 15 9 16 10 17 11
REMARK SMILES IDX 10 13 9 14 8 15 7 16 5 17 2 18 4 19 3 20 6 21 1 22
REMARK H PARENT 17 12 4 23
ROOT
ATOM      1  O   UNL     1     -10.539   3.030  -1.143  1.00  0.00    -0.490 OA
ENDROOT
BRANCH   1   2
ATOM      2  C   UNL     1     -11.614   3.862  -1.096  1.00  0.00     0.155 A 
ATOM      3  C   UNL     1     -12.940   5.496   0.067  1.00  0.00     0.063 A 
ATOM      4  C   UNL     1     -13.809   5.562  -1.025  1.00  0.00     0.019 A 
ATOM      5  C   UNL     1     -11.838   4.639   0.025  1.00  0.00     0.065 A 
ATOM      6  C   UNL     1     -13.574   4.788  -2.141  1.00  0.00     0.044 A 
ATOM      7  C   UNL     1     -12.478   3.942  -2.183  1.00  0.00     0.165 A 
ATOM      8  F   UNL     1     -12.253   3.185  -3.279  1.00  0.00    -0.203 F 
BRANCH   3   9
ATOM      9  C   UNL     1     -13.188   6.325   1.263  1.00  0.00     0.335 C 
ATOM     10  O   UNL     1     -12.277   6.586   2.021  1.00  0.00    -0.246 OA
BRANCH   9  11
ATOM     11  O   UNL     1     -14.426   6.797   1.510  1.00  0.00    -0.478 OA
ATOM     12  H   UNL     1     -15.067   6.176   1.884  1.00  0.00     0.297 HD
ENDBRANCH   9  11
ENDBRANCH   3   9
ENDBRANCH   1   2
BRANCH   1  13
ATOM     13  C   UNL     1     -10.275   2.245   0.023  1.00  0.00     0.230 C 
BRANCH  13  14
ATOM     14  C   UNL     1      -8.775   1.965   0.119  1.00  0.00     0.046 C 
BRANCH  14  15
ATOM     15  C   UNL     1      -7.999   3.269  -0.074  1.00  0.00     0.043 C 
BRANCH  15  16
ATOM     16  C   UNL     1      -7.262   3.227  -1.388  1.00  0.00    -0.004 A 
ATOM     17  C   UNL     1      -6.275   2.363  -1.721  1.00  0.00     0.036 A 
ATOM     18  C   UNL     1      -7.483   4.070  -2.483  1.00  0.00     0.063 A 
ATOM     19  N   UNL     1      -5.881   2.653  -2.978  1.00  0.00    -0.282 N 
ATOM     20  N   UNL     1      -6.650   3.731  -3.434  1.00  0.00    -0.181 NA
ATOM     21  C   UNL     1      -5.718   1.272  -0.844  1.00  0.00     0.066 C 
ATOM     22  C   UNL     1      -8.496   5.184  -2.550  1.00  0.00     0.069 C 
ATOM     23  H   UNL     1      -5.186   2.196  -3.478  1.00  0.00     0.190 HD
ENDBRANCH  15  16
ENDBRANCH  14  15
ENDBRANCH  13  14
ENDBRANCH   1  13
TORSDOF 7
ENDMDL
MODEL 9
REMARK VINA RESULT:    -4.320      3.823      6.583
REMARK INTER + INTRA:          -6.516
REMARK INTER:                  -5.771
REMARK INTRA:                  -0.745
REMARK UNBOUND:                -0.555
REMARK SMILES Cc1n[nH]c(C)c1CCCOc1cc(C(=O)O)ccc1F
REMARK SMILES IDX 11 1 12 2 14 3 18 4 13 5 19 6 20 7 21 8 15 9 16 10 17 11
REMARK SMILES IDX 10 13 9 14 8 15 7 16 5 17 2 18 4 19 3 20 6 21 1 22
REMARK H PARENT 17 12 4 23
ROOT
ATOM      1  O   UNL     1     -10.000   4.353  -1.019  1.00  0.00    -0.490 OA
ENDROOT
BRANCH   1   2
ATOM      2  C   UNL     1     -11.317   4.552  -1.292  1.00  0.00     0.155 A 
ATOM      3  C   UNL     1     -13.210   4.290  -2.752  1.00  0.00     0.063 A 
ATOM      4  C   UNL     1     -14.013   4.959  -1.825  1.00  0.00     0.019 A 
ATOM      5  C   UNL     1     -11.855   4.088  -2.478  1.00  0.00     0.065 A 
ATOM      6  C   UNL     1     -13.468   5.413  -0.642  1.00  0.00     0.044 A 
ATOM      7  C   UNL     1     -12.126   5.208  -0.370  1.00  0.00     0.165 A 
ATOM      8  F   UNL     1     -11.598   5.655   0.791  1.00  0.00    -0.203 F 
BRANCH   3   9
ATOM      9  C   UNL     1     -13.790   3.802  -4.018  1.00  0.00     0.335 C 
ATOM     10  O   UNL     1     -14.923   4.109  -4.326  1.00  0.00    -0.246 OA
BRANCH   9  11
ATOM     11  O   UNL     1     -13.058   3.021  -4.837  1.00  0.00    -0.478 OA
ATOM     12  H   UNL     1     -13.542   2.408  -5.408  1.00  0.00     0.297 HD
ENDBRANCH   9  11
ENDBRANCH   3   9
ENDBRANCH   1   2
BRANCH   1  13
ATOM     13  C   UNL     1      -9.077   4.561  -2.092  1.00  0.00     0.230 C 
BRANCH  13  14
ATOM     14  C   UNL     1      -7.836   3.694  -1.870  1.00  0.00     0.046 C 
BRANCH  14  15
ATOM     15  C   UNL     1      -8.257   2.232  -1.710  1.00  0.00     0.043 C 
BRANCH  15  16
ATOM     16  C   UNL     1      -7.961   1.774  -0.305  1.00  0.00    -0.004 A 
ATOM     17  C   UNL     1      -6.731   1.630   0.243  1.00  0.00     0.036 A 
ATOM     18  C   UNL     1      -8.907   1.429   0.665  1.00  0.00     0.063 A 
ATOM     19  N   UNL     1      -6.894   1.203   1.512  1.00  0.00    -0.282 N 
ATOM     20  N   UNL     1      -8.269   1.080   1.753  1.00  0.00    -0.181 NA
ATOM     21  C   UNL     1      -5.417   1.900  -0.442  1.00  0.00     0.066 C 
ATOM     22  C   UNL     1     -10.404   1.444   0.485  1.00  0.00     0.069 C 
ATOM     23  H   UNL     1      -6.185   1.013   2.146  1.00  0.00     0.190 HD
ENDBRANCH  15  16
ENDBRANCH  14  15
ENDBRANCH  13  14
ENDBRANCH   1  13
TORSDOF 7
ENDMDL
