MODEL 1
REMARK VINA RESULT:    -4.184      0.000      0.000
REMARK INTER + INTRA:          -5.078
REMARK INTER:                  -4.795
REMARK INTRA:                  -0.283
REMARK UNBOUND:                -0.283
REMARK SMILES O=C(O)c1ccc2nc(-c3cc(Cl)cc(Cl)c3)oc2c1
REMARK SMILES IDX 5 1 6 2 20 3 8 4 18 5 4 6 9 7 7 8 19 9 2 10 1 11 3 12 10 14
REMARK SMILES IDX 11 15 17 16 12 17 15 18 14 19 13 20 16 21
REMARK H PARENT 3 13
ROOT
ATOM      1  C   UNL     1     -16.424   9.275   2.456  1.00  0.00     0.018 A 
ATOM      2  C   UNL     1     -16.423   8.171   1.657  1.00  0.00     0.033 A 
ATOM      3  C   UNL     1     -14.000   9.335   2.417  1.00  0.00     0.065 A 
ATOM      4  N   UNL     1     -14.897   6.564   0.444  1.00  0.00    -0.209 NA
ATOM      5  O   UNL     1     -13.014   7.473   1.045  1.00  0.00    -0.436 OA
ATOM      6  C   UNL     1     -15.216   9.871   2.844  1.00  0.00     0.063 A 
ATOM      7  C   UNL     1     -13.593   6.481   0.344  1.00  0.00     0.227 A 
ATOM      8  C   UNL     1     -15.210   7.623   1.221  1.00  0.00     0.110 A 
ATOM      9  C   UNL     1     -13.994   8.212   1.610  1.00  0.00     0.156 A 
ENDROOT
BRANCH   6  10
ATOM     10  C   UNL     1     -15.230  11.069   3.704  1.00  0.00     0.335 C 
ATOM     11  O   UNL     1     -15.410  12.166   3.215  1.00  0.00    -0.246 OA
BRANCH  10  12
ATOM     12  O   UNL     1     -15.041  10.947   5.033  1.00  0.00    -0.478 OA
ATOM     13  H   UNL     1     -14.819  11.751   5.521  1.00  0.00     0.297 HD
ENDBRANCH  10  12
ENDBRANCH   6  10
BRANCH   7  14
ATOM     14  C   UNL     1     -12.867   5.450  -0.426  1.00  0.00     0.040 A 
ATOM     15  C   UNL     1     -11.666   4.931   0.057  1.00  0.00     0.034 A 
ATOM     16  C   UNL     1     -13.381   4.992  -1.641  1.00  0.00     0.034 A 
ATOM     17  C   UNL     1     -10.992   3.966  -0.666  1.00  0.00     0.043 A 
ATOM     18  C   UNL     1     -12.698   4.027  -2.355  1.00  0.00     0.043 A 
ATOM     19  C   UNL     1     -11.507   3.516  -1.870  1.00  0.00     0.041 A 
ATOM     20  Cl  UNL     1      -9.498   3.318  -0.067  1.00  0.00    -0.084 Cl
ATOM     21  Cl  UNL     1     -13.335   3.456  -3.866  1.00  0.00    -0.084 Cl
ENDBRANCH   7  14
TORSDOF 3
ENDMDL
MODEL 2
REMARK VINA RESULT:    -4.180      0.011      2.019
REMARK INTER + INTRA:          -5.073
REMARK INTER:                  -4.790
REMARK INTRA:                  -0.283
REMARK UNBOUND:                -0.283
REMARK SMILES O=C(O)c1ccc2nc(-c3cc(Cl)cc(Cl)c3)oc2c1
REMARK SMILES IDX 5 1 6 2 20 3 8 4 18 5 4 6 9 7 7 8 19 9 2 10 1 11 3 12 10 14
REMARK SMILES IDX 11 15 17 16 12 17 15 18 14 19 13 20 16 21
REMARK H PARENT 3 13
ROOT
ATOM      1  C   UNL     1     -16.426   9.271   2.453  1.00  0.00     0.018 A 
ATOM      2  C   UNL     1     -16.425   8.168   1.653  1.00  0.00     0.033 A 
ATOM      3  C   UNL     1     -14.002   9.330   2.416  1.00  0.00     0.065 A 
ATOM      4  N   UNL     1     -14.898   6.561   0.440  1.00  0.00    -0.209 NA
ATOM      5  O   UNL     1     -13.015   7.469   1.043  1.00  0.00    -0.436 OA
ATOM      6  C   UNL     1     -15.218   9.867   2.843  1.00  0.00     0.063 A 
ATOM      7  C   UNL     1     -13.595   6.478   0.340  1.00  0.00     0.227 A 
ATOM      8  C   UNL     1     -15.212   7.620   1.218  1.00  0.00     0.110 A 
ATOM      9  C   UNL     1     -13.996   8.208   1.608  1.00  0.00     0.156 A 
ENDROOT
BRANCH   6  10
ATOM     10  C   UNL     1     -15.232  11.063   3.704  1.00  0.00     0.335 C 
ATOM     11  O   UNL     1     -15.443  12.157   3.219  1.00  0.00    -0.246 OA
BRANCH  10  12
ATOM     12  O   UNL     1     -15.010  10.944   5.028  1.00  0.00    -0.478 OA
ATOM     13  H   UNL     1     -14.959  10.048   5.385  1.00  0.00     0.297 HD
ENDBRANCH  10  12
ENDBRANCH   6  10
BRANCH   7  14
ATOM     14  C   UNL     1     -12.868   5.447  -0.429  1.00  0.00     0.040 A 
ATOM     15  C   UNL     1     -13.380   4.988  -1.644  1.00  0.00     0.034 A 
ATOM     16  C   UNL     1     -11.667   4.927   0.056  1.00  0.00     0.034 A 
ATOM     17  C   UNL     1     -12.696   4.025  -2.359  1.00  0.00     0.043 A 
ATOM     18  C   UNL     1     -10.992   3.965  -0.668  1.00  0.00     0.043 A 
ATOM     19  C   UNL     1     -11.505   3.514  -1.872  1.00  0.00     0.041 A 
ATOM     20  Cl  UNL     1     -13.331   3.453  -3.870  1.00  0.00    -0.084 Cl
ATOM     21  Cl  UNL     1      -9.497   3.318  -0.066  1.00  0.00    -0.084 Cl
ENDBRANCH   7  14
TORSDOF 3
ENDMDL
MODEL 3
REMARK VINA RESULT:    -3.902      5.091      6.527
REMARK INTER + INTRA:          -4.756
REMARK INTER:                  -4.460
REMARK INTRA:                  -0.296
REMARK UNBOUND:                -0.283
REMARK SMILES O=C(O)c1ccc2nc(-c3cc(Cl)cc(Cl)c3)oc2c1
REMARK SMILES IDX 5 1 6 2 20 3 8 4 18 5 4 6 9 7 7 8 19 9 2 10 1 11 3 12 10 14
REMARK SMILES IDX 11 15 17 16 12 17 15 18 14 19 13 20 16 21
REMARK H PARENT 3 13
ROOT
ATOM      1  C   UNL     1     -14.280   5.495  -1.441  1.00  0.00     0.018 A 
ATOM      2  C   UNL     1     -13.233   5.289  -0.594  1.00  0.00     0.033 A 
ATOM      3  C   UNL     1     -13.191   4.163  -3.149  1.00  0.00     0.065 A 
ATOM      4  N   UNL     1     -10.988   4.146  -0.408  1.00  0.00    -0.209 NA
ATOM      5  O   UNL     1     -10.961   3.276  -2.402  1.00  0.00    -0.436 OA
ATOM      6  C   UNL     1     -14.275   4.935  -2.726  1.00  0.00     0.063 A 
ATOM      7  C   UNL     1     -10.293   3.410  -1.240  1.00  0.00     0.227 A 
ATOM      8  C   UNL     1     -12.140   4.516  -1.006  1.00  0.00     0.110 A 
ATOM      9  C   UNL     1     -12.125   3.955  -2.295  1.00  0.00     0.156 A 
ENDROOT
BRANCH   6  10
ATOM     10  C   UNL     1     -15.416   5.160  -3.631  1.00  0.00     0.335 C 
ATOM     11  O   UNL     1     -15.370   4.759  -4.777  1.00  0.00    -0.246 OA
BRANCH  10  12
ATOM     12  O   UNL     1     -16.510   5.811  -3.189  1.00  0.00    -0.478 OA
ATOM     13  H   UNL     1     -16.865   6.509  -3.755  1.00  0.00     0.297 HD
ENDBRANCH  10  12
ENDBRANCH   6  10
BRANCH   7  14
ATOM     14  C   UNL     1      -8.972   2.817  -0.947  1.00  0.00     0.040 A 
ATOM     15  C   UNL     1      -8.617   2.510   0.367  1.00  0.00     0.034 A 
ATOM     16  C   UNL     1      -8.074   2.561  -1.985  1.00  0.00     0.034 A 
ATOM     17  C   UNL     1      -7.382   1.955   0.634  1.00  0.00     0.043 A 
ATOM     18  C   UNL     1      -6.841   2.006  -1.705  1.00  0.00     0.043 A 
ATOM     19  C   UNL     1      -6.495   1.704  -0.399  1.00  0.00     0.041 A 
ATOM     20  Cl  UNL     1      -6.938   1.572   2.268  1.00  0.00    -0.084 Cl
ATOM     21  Cl  UNL     1      -5.722   1.687  -2.994  1.00  0.00    -0.084 Cl
ENDBRANCH   7  14
TORSDOF 3
ENDMDL
MODEL 4
REMARK VINA RESULT:    -3.897      5.097      6.695
REMARK INTER + INTRA:          -4.749
REMARK INTER:                  -4.454
REMARK INTRA:                  -0.296
REMARK UNBOUND:                -0.283
REMARK SMILES O=C(O)c1ccc2nc(-c3cc(Cl)cc(Cl)c3)oc2c1
REMARK SMILES IDX 5 1 6 2 20 3 8 4 18 5 4 6 9 7 7 8 19 9 2 10 1 11 3 12 10 14
REMARK SMILES IDX 11 15 17 16 12 17 15 18 14 19 13 20 16 21
REMARK H PARENT 3 13
ROOT
ATOM      1  C   UNL     1     -14.277   5.493  -1.448  1.00  0.00     0.018 A 
ATOM      2  C   UNL     1     -13.228   5.289  -0.602  1.00  0.00     0.033 A 
ATOM      3  C   UNL     1     -13.192   4.156  -3.156  1.00  0.00     0.065 A 
ATOM      4  N   UNL     1     -10.982   4.146  -0.418  1.00  0.00    -0.209 NA
ATOM      5  O   UNL     1     -10.960   3.271  -2.410  1.00  0.00    -0.436 OA
ATOM      6  C   UNL     1     -14.274   4.930  -2.732  1.00  0.00     0.063 A 
ATOM      7  C   UNL     1     -10.290   3.408  -1.251  1.00  0.00     0.227 A 
ATOM      8  C   UNL     1     -12.136   4.515  -1.015  1.00  0.00     0.110 A 
ATOM      9  C   UNL     1     -12.124   3.951  -2.303  1.00  0.00     0.156 A 
ENDROOT
BRANCH   6  10
ATOM     10  C   UNL     1     -15.417   5.153  -3.635  1.00  0.00     0.335 C 
ATOM     11  O   UNL     1     -15.369   4.761  -4.784  1.00  0.00    -0.246 OA
BRANCH  10  12
ATOM     12  O   UNL     1     -16.516   5.792  -3.187  1.00  0.00    -0.478 OA
ATOM     13  H   UNL     1     -16.560   5.980  -2.240  1.00  0.00     0.297 HD
ENDBRANCH  10  12
ENDBRANCH   6  10
BRANCH   7  14
ATOM     14  C   UNL     1      -8.968   2.815  -0.959  1.00  0.00     0.040 A 
ATOM     15  C   UNL     1      -8.070   2.561  -1.996  1.00  0.00     0.034 A 
ATOM     16  C   UNL     1      -8.614   2.507   0.356  1.00  0.00     0.034 A 
ATOM     17  C   UNL     1      -6.836   2.008  -1.717  1.00  0.00     0.043 A 
ATOM     18  C   UNL     1      -7.378   1.954   0.622  1.00  0.00     0.043 A 
ATOM     19  C   UNL     1      -6.491   1.704  -0.411  1.00  0.00     0.041 A 
ATOM     20  Cl  UNL     1      -5.717   1.691  -3.005  1.00  0.00    -0.084 Cl
ATOM     21  Cl  UNL     1      -6.935   1.570   2.257  1.00  0.00    -0.084 Cl
ENDBRANCH   7  14
TORSDOF 3
ENDMDL
MODEL 5
REMARK VINA RESULT:    -3.867      4.960      8.579
REMARK INTER + INTRA:          -4.715
REMARK INTER:                  -4.418
REMARK INTRA:                  -0.298
REMARK UNBOUND:                -0.283
REMARK SMILES O=C(O)c1ccc2nc(-c3cc(Cl)cc(Cl)c3)oc2c1
REMARK SMILES IDX 5 1 6 2 20 3 8 4 18 5 4 6 9 7 7 8 19 9 2 10 1 11 3 12 10 14
REMARK SMILES IDX 11 15 17 16 12 17 15 18 14 19 13 20 16 21
REMARK H PARENT 3 13
ROOT
ATOM      1  C   UNL     1      -6.527   1.917  -1.853  1.00  0.00     0.018 A 
ATOM      2  C   UNL     1      -7.650   2.269  -2.540  1.00  0.00     0.033 A 
ATOM      3  C   UNL     1      -7.488   2.773   0.203  1.00  0.00     0.065 A 
ATOM      4  N   UNL     1      -9.925   3.335  -2.272  1.00  0.00    -0.209 NA
ATOM      5  O   UNL     1      -9.788   3.728  -0.136  1.00  0.00    -0.436 OA
ATOM      6  C   UNL     1      -6.432   2.161  -0.476  1.00  0.00     0.063 A 
ATOM      7  C   UNL     1     -10.555   3.834  -1.238  1.00  0.00     0.227 A 
ATOM      8  C   UNL     1      -8.716   2.883  -1.872  1.00  0.00     0.110 A 
ATOM      9  C   UNL     1      -8.627   3.137  -0.492  1.00  0.00     0.156 A 
ENDROOT
BRANCH   6  10
ATOM     10  C   UNL     1      -5.215   1.770   0.258  1.00  0.00     0.335 C 
ATOM     11  O   UNL     1      -4.274   1.288  -0.340  1.00  0.00    -0.246 OA
BRANCH  10  12
ATOM     12  O   UNL     1      -5.146   1.946   1.593  1.00  0.00    -0.478 OA
ATOM     13  H   UNL     1      -4.321   1.693   2.027  1.00  0.00     0.297 HD
ENDBRANCH  10  12
ENDBRANCH   6  10
BRANCH   7  14
ATOM     14  C   UNL     1     -11.909   4.426  -1.276  1.00  0.00     0.040 A 
ATOM     15  C   UNL     1     -12.393   5.139  -0.179  1.00  0.00     0.034 A 
ATOM     16  C   UNL     1     -12.708   4.273  -2.411  1.00  0.00     0.034 A 
ATOM     17  C   UNL     1     -13.658   5.691  -0.221  1.00  0.00     0.043 A 
ATOM     18  C   UNL     1     -13.971   4.830  -2.441  1.00  0.00     0.043 A 
ATOM     19  C   UNL     1     -14.446   5.536  -1.349  1.00  0.00     0.041 A 
ATOM     20  Cl  UNL     1     -14.263   6.578   1.143  1.00  0.00    -0.084 Cl
ATOM     21  Cl  UNL     1     -14.967   4.642  -3.851  1.00  0.00    -0.084 Cl
ENDBRANCH   7  14
TORSDOF 3
ENDMDL
MODEL 6
REMARK VINA RESULT:    -3.863      4.956      8.753
REMARK INTER + INTRA:          -4.711
REMARK INTER:                  -4.413
REMARK INTRA:                  -0.298
REMARK UNBOUND:                -0.283
REMARK SMILES O=C(O)c1ccc2nc(-c3cc(Cl)cc(Cl)c3)oc2c1
REMARK SMILES IDX 5 1 6 2 20 3 8 4 18 5 4 6 9 7 7 8 19 9 2 10 1 11 3 12 10 14
REMARK SMILES IDX 11 15 17 16 12 17 15 18 14 19 13 20 16 21
REMARK H PARENT 3 13
ROOT
ATOM      1  C   UNL     1      -6.525   1.927  -1.857  1.00  0.00     0.018 A 
ATOM      2  C   UNL     1      -7.647   2.283  -2.543  1.00  0.00     0.033 A 
ATOM      3  C   UNL     1      -7.486   2.771   0.203  1.00  0.00     0.065 A 
ATOM      4  N   UNL     1      -9.922   3.347  -2.269  1.00  0.00    -0.209 NA
ATOM      5  O   UNL     1      -9.787   3.728  -0.131  1.00  0.00    -0.436 OA
ATOM      6  C   UNL     1      -6.430   2.163  -0.478  1.00  0.00     0.063 A 
ATOM      7  C   UNL     1     -10.553   3.840  -1.232  1.00  0.00     0.227 A 
ATOM      8  C   UNL     1      -8.714   2.894  -1.872  1.00  0.00     0.110 A 
ATOM      9  C   UNL     1      -8.625   3.138  -0.490  1.00  0.00     0.156 A 
ENDROOT
BRANCH   6  10
ATOM     10  C   UNL     1      -5.213   1.767   0.254  1.00  0.00     0.335 C 
ATOM     11  O   UNL     1      -4.276   1.278  -0.345  1.00  0.00    -0.246 OA
BRANCH  10  12
ATOM     12  O   UNL     1      -5.141   1.947   1.588  1.00  0.00    -0.478 OA
ATOM     13  H   UNL     1      -4.363   1.590   2.037  1.00  0.00     0.297 HD
ENDBRANCH  10  12
ENDBRANCH   6  10
BRANCH   7  14
ATOM     14  C   UNL     1     -11.906   4.433  -1.268  1.00  0.00     0.040 A 
ATOM     15  C   UNL     1     -12.707   4.285  -2.401  1.00  0.00     0.034 A 
ATOM     16  C   UNL     1     -12.388   5.144  -0.167  1.00  0.00     0.034 A 
ATOM     17  C   UNL     1     -13.971   4.840  -2.427  1.00  0.00     0.043 A 
ATOM     18  C   UNL     1     -13.654   5.695  -0.205  1.00  0.00     0.043 A 
ATOM     19  C   UNL     1     -14.443   5.544  -1.332  1.00  0.00     0.041 A 
ATOM     20  Cl  UNL     1     -14.969   4.657  -3.835  1.00  0.00    -0.084 Cl
ATOM     21  Cl  UNL     1     -14.255   6.580   1.162  1.00  0.00    -0.084 Cl
ENDBRANCH   7  14
TORSDOF 3
ENDMDL
MODEL 7
REMARK VINA RESULT:    -3.859      3.446      5.468
REMARK INTER + INTRA:          -4.706
REMARK INTER:                  -4.410
REMARK INTRA:                  -0.295
REMARK UNBOUND:                -0.283
REMARK SMILES O=C(O)c1ccc2nc(-c3cc(Cl)cc(Cl)c3)oc2c1
REMARK SMILES IDX 5 1 6 2 20 3 8 4 18 5 4 6 9 7 7 8 19 9 2 10 1 11 3 12 10 14
REMARK SMILES IDX 11 15 17 16 12 17 15 18 14 19 13 20 16 21
REMARK H PARENT 3 13
ROOT
ATOM      1  C   UNL     1     -14.350   5.445  -1.337  1.00  0.00     0.018 A 
ATOM      2  C   UNL     1     -13.404   4.741  -2.020  1.00  0.00     0.033 A 
ATOM      3  C   UNL     1     -12.844   5.684   0.549  1.00  0.00     0.065 A 
ATOM      4  N   UNL     1     -11.051   3.839  -1.850  1.00  0.00    -0.209 NA
ATOM      5  O   UNL     1     -10.624   4.573   0.154  1.00  0.00    -0.436 OA
ATOM      6  C   UNL     1     -14.083   5.927  -0.048  1.00  0.00     0.063 A 
ATOM      7  C   UNL     1     -10.145   3.893  -0.905  1.00  0.00     0.227 A 
ATOM      8  C   UNL     1     -12.158   4.490  -1.433  1.00  0.00     0.110 A 
ATOM      9  C   UNL     1     -11.884   4.965  -0.138  1.00  0.00     0.156 A 
ENDROOT
BRANCH   6  10
ATOM     10  C   UNL     1     -15.111   6.693   0.679  1.00  0.00     0.335 C 
ATOM     11  O   UNL     1     -14.910   7.046   1.824  1.00  0.00    -0.246 OA
BRANCH  10  12
ATOM     12  O   UNL     1     -16.275   7.002   0.074  1.00  0.00    -0.478 OA
ATOM     13  H   UNL     1     -16.268   7.752  -0.536  1.00  0.00     0.297 HD
ENDBRANCH  10  12
ENDBRANCH   6  10
BRANCH   7  14
ATOM     14  C   UNL     1      -8.797   3.294  -0.989  1.00  0.00     0.040 A 
ATOM     15  C   UNL     1      -8.160   3.171  -2.224  1.00  0.00     0.034 A 
ATOM     16  C   UNL     1      -8.156   2.847   0.169  1.00  0.00     0.034 A 
ATOM     17  C   UNL     1      -6.900   2.611  -2.296  1.00  0.00     0.043 A 
ATOM     18  C   UNL     1      -6.896   2.289   0.084  1.00  0.00     0.043 A 
ATOM     19  C   UNL     1      -6.269   2.170  -1.144  1.00  0.00     0.041 A 
ATOM     20  Cl  UNL     1      -6.105   2.457  -3.831  1.00  0.00    -0.084 Cl
ATOM     21  Cl  UNL     1      -6.096   1.733   1.522  1.00  0.00    -0.084 Cl
ENDBRANCH   7  14
TORSDOF 3
ENDMDL
MODEL 8
REMARK VINA RESULT:    -3.845      3.446      5.192
REMARK INTER + INTRA:          -4.690
REMARK INTER:                  -4.395
REMARK INTRA:                  -0.295
REMARK UNBOUND:                -0.283
REMARK SMILES O=C(O)c1ccc2nc(-c3cc(Cl)cc(Cl)c3)oc2c1
REMARK SMILES IDX 5 1 6 2 20 3 8 4 18 5 4 6 9 7 7 8 19 9 2 10 1 11 3 12 10 14
REMARK SMILES IDX 11 15 17 16 12 17 15 18 14 19 13 20 16 21
REMARK H PARENT 3 13
ROOT
ATOM      1  C   UNL     1     -14.358   5.452  -1.321  1.00  0.00     0.018 A 
ATOM      2  C   UNL     1     -13.410   4.756  -2.010  1.00  0.00     0.033 A 
ATOM      3  C   UNL     1     -12.856   5.669   0.571  1.00  0.00     0.065 A 
ATOM      4  N   UNL     1     -11.056   3.853  -1.845  1.00  0.00    -0.209 NA
ATOM      5  O   UNL     1     -10.635   4.563   0.167  1.00  0.00    -0.436 OA
ATOM      6  C   UNL     1     -14.093   5.918  -0.025  1.00  0.00     0.063 A 
ATOM      7  C   UNL     1     -10.153   3.895  -0.898  1.00  0.00     0.227 A 
ATOM      8  C   UNL     1     -12.165   4.498  -1.424  1.00  0.00     0.110 A 
ATOM      9  C   UNL     1     -11.894   4.958  -0.123  1.00  0.00     0.156 A 
ENDROOT
BRANCH   6  10
ATOM     10  C   UNL     1     -15.124   6.676   0.708  1.00  0.00     0.335 C 
ATOM     11  O   UNL     1     -14.924   7.016   1.857  1.00  0.00    -0.246 OA
BRANCH  10  12
ATOM     12  O   UNL     1     -16.287   6.989   0.105  1.00  0.00    -0.478 OA
ATOM     13  H   UNL     1     -16.397   6.705  -0.812  1.00  0.00     0.297 HD
ENDBRANCH  10  12
ENDBRANCH   6  10
BRANCH   7  14
ATOM     14  C   UNL     1      -8.805   3.298  -0.986  1.00  0.00     0.040 A 
ATOM     15  C   UNL     1      -8.164   2.840   0.166  1.00  0.00     0.034 A 
ATOM     16  C   UNL     1      -8.166   3.189  -2.223  1.00  0.00     0.034 A 
ATOM     17  C   UNL     1      -6.904   2.281   0.077  1.00  0.00     0.043 A 
ATOM     18  C   UNL     1      -6.907   2.629  -2.300  1.00  0.00     0.043 A 
ATOM     19  C   UNL     1      -6.276   2.177  -1.153  1.00  0.00     0.041 A 
ATOM     20  Cl  UNL     1      -6.106   1.711   1.508  1.00  0.00    -0.084 Cl
ATOM     21  Cl  UNL     1      -6.111   2.493  -3.837  1.00  0.00    -0.084 Cl
ENDBRANCH   7  14
TORSDOF 3
ENDMDL
MODEL 9
REMARK VINA RESULT:    -3.583      6.038      7.557
REMARK INTER + INTRA:          -4.390
REMARK INTER:                  -4.102
REMARK INTRA:                  -0.287
REMARK UNBOUND:                -0.283
REMARK SMILES O=C(O)c1ccc2nc(-c3cc(Cl)cc(Cl)c3)oc2c1
REMARK SMILES IDX 5 1 6 2 20 3 8 4 18 5 4 6 9 7 7 8 19 9 2 10 1 11 3 12 10 14
REMARK SMILES IDX 11 15 17 16 12 17 15 18 14 19 13 20 16 21
REMARK H PARENT 3 13
ROOT
ATOM      1  C   UNL     1      -8.816   4.200  -1.108  1.00  0.00     0.018 A 
ATOM      2  C   UNL     1      -9.594   4.792  -2.057  1.00  0.00     0.033 A 
ATOM      3  C   UNL     1     -10.686   2.830  -0.397  1.00  0.00     0.065 A 
ATOM      4  N   UNL     1     -11.928   4.814  -3.023  1.00  0.00    -0.209 NA
ATOM      5  O   UNL     1     -12.773   3.288  -1.723  1.00  0.00    -0.436 OA
ATOM      6  C   UNL     1      -9.350   3.212  -0.268  1.00  0.00     0.063 A 
ATOM      7  C   UNL     1     -13.014   4.140  -2.737  1.00  0.00     0.227 A 
ATOM      8  C   UNL     1     -10.936   4.418  -2.197  1.00  0.00     0.110 A 
ATOM      9  C   UNL     1     -11.480   3.431  -1.356  1.00  0.00     0.156 A 
ENDROOT
BRANCH   6  10
ATOM     10  C   UNL     1      -8.498   2.574   0.751  1.00  0.00     0.335 C 
ATOM     11  O   UNL     1      -8.789   1.478   1.187  1.00  0.00    -0.246 OA
BRANCH  10  12
ATOM     12  O   UNL     1      -7.396   3.207   1.202  1.00  0.00    -0.478 OA
ATOM     13  H   UNL     1      -7.392   4.172   1.148  1.00  0.00     0.297 HD
ENDBRANCH  10  12
ENDBRANCH   6  10
BRANCH   7  14
ATOM     14  C   UNL     1     -14.313   4.294  -3.425  1.00  0.00     0.040 A 
ATOM     15  C   UNL     1     -14.831   3.245  -4.186  1.00  0.00     0.034 A 
ATOM     16  C   UNL     1     -15.025   5.490  -3.318  1.00  0.00     0.034 A 
ATOM     17  C   UNL     1     -16.046   3.394  -4.826  1.00  0.00     0.043 A 
ATOM     18  C   UNL     1     -16.238   5.627  -3.963  1.00  0.00     0.043 A 
ATOM     19  C   UNL     1     -16.747   4.583  -4.716  1.00  0.00     0.041 A 
ATOM     20  Cl  UNL     1     -16.694   2.091  -5.771  1.00  0.00    -0.084 Cl
ATOM     21  Cl  UNL     1     -17.125   7.114  -3.831  1.00  0.00    -0.084 Cl
ENDBRANCH   7  14
TORSDOF 3
ENDMDL
