MODEL 1
REMARK VINA RESULT:    -4.198      0.000      0.000
REMARK INTER + INTRA:          -5.107
REMARK INTER:                  -4.811
REMARK INTRA:                  -0.296
REMARK UNBOUND:                -0.296
REMARK SMILES O=C(O)c1ccc2nc(-c3cc(Cl)cc(Cl)c3)oc2c1
REMARK SMILES IDX 5 1 6 2 20 3 8 4 18 5 4 6 9 7 7 8 19 9 2 10 1 11 3 12 10 14
REMARK SMILES IDX 11 15 17 16 12 17 15 18 14 19 13 20 16 21
REMARK H PARENT 3 13
ROOT
ATOM      1  C   UNL     1      -8.123   4.933 -10.251  1.00  0.00     0.018 A 
ATOM      2  C   UNL     1      -7.343   5.199  -9.166  1.00  0.00     0.033 A 
ATOM      3  C   UNL     1      -7.821   2.550  -9.914  1.00  0.00     0.065 A 
ATOM      4  N   UNL     1      -5.989   4.097  -7.340  1.00  0.00    -0.209 NA
ATOM      5  O   UNL     1      -6.362   2.037  -7.932  1.00  0.00    -0.436 OA
ATOM      6  C   UNL     1      -8.374   3.608 -10.638  1.00  0.00     0.063 A 
ATOM      7  C   UNL     1      -5.744   2.844  -7.048  1.00  0.00     0.227 A 
ATOM      8  C   UNL     1      -6.782   4.147  -8.431  1.00  0.00     0.110 A 
ATOM      9  C   UNL     1      -7.025   2.816  -8.815  1.00  0.00     0.156 A 
ENDROOT
BRANCH   6  10
ATOM     10  C   UNL     1      -9.224   3.333 -11.810  1.00  0.00     0.335 C 
ATOM     11  O   UNL     1      -9.332   2.197 -12.228  1.00  0.00    -0.246 OA
BRANCH  10  12
ATOM     12  O   UNL     1      -9.882   4.340 -12.418  1.00  0.00    -0.478 OA
ATOM     13  H   UNL     1     -10.075   5.122 -11.885  1.00  0.00     0.297 HD
ENDBRANCH  10  12
ENDBRANCH   6  10
BRANCH   7  14
ATOM     14  C   UNL     1      -4.912   2.384  -5.918  1.00  0.00     0.040 A 
ATOM     15  C   UNL     1      -4.236   1.166  -5.994  1.00  0.00     0.034 A 
ATOM     16  C   UNL     1      -4.799   3.168  -4.767  1.00  0.00     0.034 A 
ATOM     17  C   UNL     1      -3.459   0.742  -4.934  1.00  0.00     0.043 A 
ATOM     18  C   UNL     1      -4.018   2.734  -3.714  1.00  0.00     0.043 A 
ATOM     19  C   UNL     1      -3.351   1.524  -3.797  1.00  0.00     0.041 A 
ATOM     20  Cl  UNL     1      -2.617  -0.773  -5.028  1.00  0.00    -0.084 Cl
ATOM     21  Cl  UNL     1      -3.876   3.707  -2.283  1.00  0.00    -0.084 Cl
ENDBRANCH   7  14
TORSDOF 3
ENDMDL
MODEL 2
REMARK VINA RESULT:    -4.188      0.012      2.019
REMARK INTER + INTRA:          -5.096
REMARK INTER:                  -4.800
REMARK INTRA:                  -0.296
REMARK UNBOUND:                -0.296
REMARK SMILES O=C(O)c1ccc2nc(-c3cc(Cl)cc(Cl)c3)oc2c1
REMARK SMILES IDX 5 1 6 2 20 3 8 4 18 5 4 6 9 7 7 8 19 9 2 10 1 11 3 12 10 14
REMARK SMILES IDX 11 15 17 16 12 17 15 18 14 19 13 20 16 21
REMARK H PARENT 3 13
ROOT
ATOM      1  C   UNL     1      -8.123   4.928 -10.255  1.00  0.00     0.018 A 
ATOM      2  C   UNL     1      -7.341   5.194  -9.171  1.00  0.00     0.033 A 
ATOM      3  C   UNL     1      -7.821   2.546  -9.919  1.00  0.00     0.065 A 
ATOM      4  N   UNL     1      -5.986   4.091  -7.346  1.00  0.00    -0.209 NA
ATOM      5  O   UNL     1      -6.360   2.031  -7.939  1.00  0.00    -0.436 OA
ATOM      6  C   UNL     1      -8.374   3.604 -10.642  1.00  0.00     0.063 A 
ATOM      7  C   UNL     1      -5.741   2.837  -7.056  1.00  0.00     0.227 A 
ATOM      8  C   UNL     1      -6.780   4.141  -8.437  1.00  0.00     0.110 A 
ATOM      9  C   UNL     1      -7.024   2.811  -8.821  1.00  0.00     0.156 A 
ENDROOT
BRANCH   6  10
ATOM     10  C   UNL     1      -9.226   3.329 -11.813  1.00  0.00     0.335 C 
ATOM     11  O   UNL     1      -9.337   2.194 -12.229  1.00  0.00    -0.246 OA
BRANCH  10  12
ATOM     12  O   UNL     1      -9.881   4.338 -12.422  1.00  0.00    -0.478 OA
ATOM     13  H   UNL     1     -10.501   4.848 -11.883  1.00  0.00     0.297 HD
ENDBRANCH  10  12
ENDBRANCH   6  10
BRANCH   7  14
ATOM     14  C   UNL     1      -4.907   2.377  -5.926  1.00  0.00     0.040 A 
ATOM     15  C   UNL     1      -4.790   3.159  -4.777  1.00  0.00     0.034 A 
ATOM     16  C   UNL     1      -4.232   1.157  -6.006  1.00  0.00     0.034 A 
ATOM     17  C   UNL     1      -4.010   2.722  -3.724  1.00  0.00     0.043 A 
ATOM     18  C   UNL     1      -3.455   0.731  -4.947  1.00  0.00     0.043 A 
ATOM     19  C   UNL     1      -3.343   1.512  -3.809  1.00  0.00     0.041 A 
ATOM     20  Cl  UNL     1      -3.864   3.693  -2.292  1.00  0.00    -0.084 Cl
ATOM     21  Cl  UNL     1      -2.615  -0.785  -5.044  1.00  0.00    -0.084 Cl
ENDBRANCH   7  14
TORSDOF 3
ENDMDL
MODEL 3
REMARK VINA RESULT:    -4.186      1.834      2.522
REMARK INTER + INTRA:          -5.093
REMARK INTER:                  -4.798
REMARK INTRA:                  -0.296
REMARK UNBOUND:                -0.296
REMARK SMILES O=C(O)c1ccc2nc(-c3cc(Cl)cc(Cl)c3)oc2c1
REMARK SMILES IDX 5 1 6 2 20 3 8 4 18 5 4 6 9 7 7 8 19 9 2 10 1 11 3 12 10 14
REMARK SMILES IDX 11 15 17 16 12 17 15 18 14 19 13 20 16 21
REMARK H PARENT 3 13
ROOT
ATOM      1  C   UNL     1      -8.172   4.927 -10.235  1.00  0.00     0.018 A 
ATOM      2  C   UNL     1      -7.680   3.743  -9.773  1.00  0.00     0.033 A 
ATOM      3  C   UNL     1      -6.869   6.139  -8.588  1.00  0.00     0.065 A 
ATOM      4  N   UNL     1      -6.129   2.743  -8.047  1.00  0.00    -0.209 NA
ATOM      5  O   UNL     1      -5.507   4.613  -7.126  1.00  0.00    -0.436 OA
ATOM      6  C   UNL     1      -7.773   6.138  -9.652  1.00  0.00     0.063 A 
ATOM      7  C   UNL     1      -5.380   3.273  -7.112  1.00  0.00     0.227 A 
ATOM      8  C   UNL     1      -6.773   3.730  -8.706  1.00  0.00     0.110 A 
ATOM      9  C   UNL     1      -6.371   4.940  -8.113  1.00  0.00     0.156 A 
ENDROOT
BRANCH   6  10
ATOM     10  C   UNL     1      -8.307   7.412 -10.164  1.00  0.00     0.335 C 
ATOM     11  O   UNL     1      -8.040   8.454  -9.599  1.00  0.00    -0.246 OA
BRANCH  10  12
ATOM     12  O   UNL     1      -9.094   7.422 -11.259  1.00  0.00    -0.478 OA
ATOM     13  H   UNL     1      -9.479   6.579 -11.530  1.00  0.00     0.297 HD
ENDBRANCH  10  12
ENDBRANCH   6  10
BRANCH   7  14
ATOM     14  C   UNL     1      -4.524   2.511  -6.180  1.00  0.00     0.040 A 
ATOM     15  C   UNL     1      -4.012   1.268  -6.554  1.00  0.00     0.034 A 
ATOM     16  C   UNL     1      -4.224   3.032  -4.919  1.00  0.00     0.034 A 
ATOM     17  C   UNL     1      -3.212   0.562  -5.678  1.00  0.00     0.043 A 
ATOM     18  C   UNL     1      -3.423   2.317  -4.053  1.00  0.00     0.043 A 
ATOM     19  C   UNL     1      -2.918   1.084  -4.430  1.00  0.00     0.041 A 
ATOM     20  Cl  UNL     1      -2.574  -0.985  -6.142  1.00  0.00    -0.084 Cl
ATOM     21  Cl  UNL     1      -3.049   2.963  -2.485  1.00  0.00    -0.084 Cl
ENDBRANCH   7  14
TORSDOF 3
ENDMDL
MODEL 4
REMARK VINA RESULT:    -4.176      1.841      3.219
REMARK INTER + INTRA:          -5.082
REMARK INTER:                  -4.786
REMARK INTRA:                  -0.296
REMARK UNBOUND:                -0.296
REMARK SMILES O=C(O)c1ccc2nc(-c3cc(Cl)cc(Cl)c3)oc2c1
REMARK SMILES IDX 5 1 6 2 20 3 8 4 18 5 4 6 9 7 7 8 19 9 2 10 1 11 3 12 10 14
REMARK SMILES IDX 11 15 17 16 12 17 15 18 14 19 13 20 16 21
REMARK H PARENT 3 13
ROOT
ATOM      1  C   UNL     1      -8.187   4.952 -10.223  1.00  0.00     0.018 A 
ATOM      2  C   UNL     1      -7.700   3.768  -9.755  1.00  0.00     0.033 A 
ATOM      3  C   UNL     1      -6.869   6.167  -8.590  1.00  0.00     0.065 A 
ATOM      4  N   UNL     1      -6.149   2.769  -8.030  1.00  0.00    -0.209 NA
ATOM      5  O   UNL     1      -5.510   4.641  -7.124  1.00  0.00    -0.436 OA
ATOM      6  C   UNL     1      -7.777   6.164  -9.650  1.00  0.00     0.063 A 
ATOM      7  C   UNL     1      -5.392   3.300  -7.102  1.00  0.00     0.227 A 
ATOM      8  C   UNL     1      -6.788   3.757  -8.693  1.00  0.00     0.110 A 
ATOM      9  C   UNL     1      -6.376   4.967  -8.109  1.00  0.00     0.156 A 
ENDROOT
BRANCH   6  10
ATOM     10  C   UNL     1      -8.306   7.439 -10.168  1.00  0.00     0.335 C 
ATOM     11  O   UNL     1      -8.024   8.483  -9.614  1.00  0.00    -0.246 OA
BRANCH  10  12
ATOM     12  O   UNL     1      -9.101   7.446 -11.256  1.00  0.00    -0.478 OA
ATOM     13  H   UNL     1      -8.667   7.494 -12.118  1.00  0.00     0.297 HD
ENDBRANCH  10  12
ENDBRANCH   6  10
BRANCH   7  14
ATOM     14  C   UNL     1      -4.537   2.539  -6.168  1.00  0.00     0.040 A 
ATOM     15  C   UNL     1      -4.236   3.061  -4.909  1.00  0.00     0.034 A 
ATOM     16  C   UNL     1      -4.026   1.295  -6.542  1.00  0.00     0.034 A 
ATOM     17  C   UNL     1      -3.437   2.344  -4.041  1.00  0.00     0.043 A 
ATOM     18  C   UNL     1      -3.228   0.587  -5.665  1.00  0.00     0.043 A 
ATOM     19  C   UNL     1      -2.933   1.110  -4.418  1.00  0.00     0.041 A 
ATOM     20  Cl  UNL     1      -3.061   2.990  -2.474  1.00  0.00    -0.084 Cl
ATOM     21  Cl  UNL     1      -2.592  -0.961  -6.129  1.00  0.00    -0.084 Cl
ENDBRANCH   7  14
TORSDOF 3
ENDMDL
MODEL 5
REMARK VINA RESULT:    -4.101      5.073      6.719
REMARK INTER + INTRA:          -4.996
REMARK INTER:                  -4.709
REMARK INTRA:                  -0.288
REMARK UNBOUND:                -0.296
REMARK SMILES O=C(O)c1ccc2nc(-c3cc(Cl)cc(Cl)c3)oc2c1
REMARK SMILES IDX 5 1 6 2 20 3 8 4 18 5 4 6 9 7 7 8 19 9 2 10 1 11 3 12 10 14
REMARK SMILES IDX 11 15 17 16 12 17 15 18 14 19 13 20 16 21
REMARK H PARENT 3 13
ROOT
ATOM      1  C   UNL     1      -8.184  10.569 -11.577  1.00  0.00     0.018 A 
ATOM      2  C   UNL     1      -8.707   9.325 -11.385  1.00  0.00     0.033 A 
ATOM      3  C   UNL     1      -6.183   9.941 -10.360  1.00  0.00     0.065 A 
ATOM      4  N   UNL     1      -8.229   7.080 -10.331  1.00  0.00    -0.209 NA
ATOM      5  O   UNL     1      -6.266   7.569  -9.532  1.00  0.00    -0.436 OA
ATOM      6  C   UNL     1      -6.918  10.892 -11.070  1.00  0.00     0.063 A 
ATOM      7  C   UNL     1      -7.208   6.615  -9.655  1.00  0.00     0.227 A 
ATOM      8  C   UNL     1      -7.981   8.362 -10.674  1.00  0.00     0.110 A 
ATOM      9  C   UNL     1      -6.712   8.680 -10.158  1.00  0.00     0.156 A 
ENDROOT
BRANCH   6  10
ATOM     10  C   UNL     1      -6.360  12.239 -11.289  1.00  0.00     0.335 C 
ATOM     11  O   UNL     1      -6.015  12.915 -10.341  1.00  0.00    -0.246 OA
BRANCH  10  12
ATOM     12  O   UNL     1      -6.233  12.721 -12.542  1.00  0.00    -0.478 OA
ATOM     13  H   UNL     1      -7.023  12.711 -13.098  1.00  0.00     0.297 HD
ENDBRANCH  10  12
ENDBRANCH   6  10
BRANCH   7  14
ATOM     14  C   UNL     1      -7.107   5.247  -9.107  1.00  0.00     0.040 A 
ATOM     15  C   UNL     1      -6.385   5.012  -7.936  1.00  0.00     0.034 A 
ATOM     16  C   UNL     1      -7.733   4.183  -9.760  1.00  0.00     0.034 A 
ATOM     17  C   UNL     1      -6.296   3.731  -7.429  1.00  0.00     0.043 A 
ATOM     18  C   UNL     1      -7.636   2.907  -9.243  1.00  0.00     0.043 A 
ATOM     19  C   UNL     1      -6.918   2.680  -8.081  1.00  0.00     0.041 A 
ATOM     20  Cl  UNL     1      -5.399   3.436  -5.972  1.00  0.00    -0.084 Cl
ATOM     21  Cl  UNL     1      -8.413   1.582 -10.054  1.00  0.00    -0.084 Cl
ENDBRANCH   7  14
TORSDOF 3
ENDMDL
MODEL 6
REMARK VINA RESULT:    -4.095      5.083      6.562
REMARK INTER + INTRA:          -4.989
REMARK INTER:                  -4.702
REMARK INTRA:                  -0.287
REMARK UNBOUND:                -0.296
REMARK SMILES O=C(O)c1ccc2nc(-c3cc(Cl)cc(Cl)c3)oc2c1
REMARK SMILES IDX 5 1 6 2 20 3 8 4 18 5 4 6 9 7 7 8 19 9 2 10 1 11 3 12 10 14
REMARK SMILES IDX 11 15 17 16 12 17 15 18 14 19 13 20 16 21
REMARK H PARENT 3 13
ROOT
ATOM      1  C   UNL     1      -8.173  10.597 -11.525  1.00  0.00     0.018 A 
ATOM      2  C   UNL     1      -8.706   9.358 -11.329  1.00  0.00     0.033 A 
ATOM      3  C   UNL     1      -6.157   9.942 -10.347  1.00  0.00     0.065 A 
ATOM      4  N   UNL     1      -8.233   7.102 -10.295  1.00  0.00    -0.209 NA
ATOM      5  O   UNL     1      -6.251   7.567  -9.529  1.00  0.00    -0.436 OA
ATOM      6  C   UNL     1      -6.894  10.904 -11.040  1.00  0.00     0.063 A 
ATOM      7  C   UNL     1      -7.205   6.624  -9.639  1.00  0.00     0.227 A 
ATOM      8  C   UNL     1      -7.978   8.384 -10.636  1.00  0.00     0.110 A 
ATOM      9  C   UNL     1      -6.697   8.685 -10.142  1.00  0.00     0.156 A 
ENDROOT
BRANCH   6  10
ATOM     10  C   UNL     1      -6.326  12.246 -11.263  1.00  0.00     0.335 C 
ATOM     11  O   UNL     1      -5.960  12.915 -10.317  1.00  0.00    -0.246 OA
BRANCH  10  12
ATOM     12  O   UNL     1      -6.213  12.731 -12.515  1.00  0.00    -0.478 OA
ATOM     13  H   UNL     1      -5.458  12.429 -13.037  1.00  0.00     0.297 HD
ENDBRANCH  10  12
ENDBRANCH   6  10
BRANCH   7  14
ATOM     14  C   UNL     1      -7.109   5.252  -9.100  1.00  0.00     0.040 A 
ATOM     15  C   UNL     1      -7.744   4.195  -9.753  1.00  0.00     0.034 A 
ATOM     16  C   UNL     1      -6.382   5.007  -7.933  1.00  0.00     0.034 A 
ATOM     17  C   UNL     1      -7.650   2.915  -9.244  1.00  0.00     0.043 A 
ATOM     18  C   UNL     1      -6.295   3.723  -7.434  1.00  0.00     0.043 A 
ATOM     19  C   UNL     1      -6.927   2.679  -8.087  1.00  0.00     0.041 A 
ATOM     20  Cl  UNL     1      -8.439   1.599 -10.056  1.00  0.00    -0.084 Cl
ATOM     21  Cl  UNL     1      -5.391   3.417  -5.983  1.00  0.00    -0.084 Cl
ENDBRANCH   7  14
TORSDOF 3
ENDMDL
MODEL 7
REMARK VINA RESULT:    -4.068      3.741      7.660
REMARK INTER + INTRA:          -4.958
REMARK INTER:                  -4.660
REMARK INTRA:                  -0.298
REMARK UNBOUND:                -0.296
REMARK SMILES O=C(O)c1ccc2nc(-c3cc(Cl)cc(Cl)c3)oc2c1
REMARK SMILES IDX 5 1 6 2 20 3 8 4 18 5 4 6 9 7 7 8 19 9 2 10 1 11 3 12 10 14
REMARK SMILES IDX 11 15 17 16 12 17 15 18 14 19 13 20 16 21
REMARK H PARENT 3 13
ROOT
ATOM      1  C   UNL     1      -3.306   2.364  -3.703  1.00  0.00     0.018 A 
ATOM      2  C   UNL     1      -3.966   3.396  -4.300  1.00  0.00     0.033 A 
ATOM      3  C   UNL     1      -4.026   0.856  -5.460  1.00  0.00     0.065 A 
ATOM      4  N   UNL     1      -5.403   3.984  -6.293  1.00  0.00    -0.209 NA
ATOM      5  O   UNL     1      -5.449   2.001  -7.187  1.00  0.00    -0.436 OA
ATOM      6  C   UNL     1      -3.326   1.084  -4.274  1.00  0.00     0.063 A 
ATOM      7  C   UNL     1      -5.860   3.278  -7.298  1.00  0.00     0.227 A 
ATOM      8  C   UNL     1      -4.673   3.181  -5.490  1.00  0.00     0.110 A 
ATOM      9  C   UNL     1      -4.701   1.899  -6.066  1.00  0.00     0.156 A 
ENDROOT
BRANCH   6  10
ATOM     10  C   UNL     1      -2.603  -0.023  -3.622  1.00  0.00     0.335 C 
ATOM     11  O   UNL     1      -1.975   0.179  -2.602  1.00  0.00    -0.246 OA
BRANCH  10  12
ATOM     12  O   UNL     1      -2.639  -1.259  -4.157  1.00  0.00    -0.478 OA
ATOM     13  H   UNL     1      -1.829  -1.580  -4.575  1.00  0.00     0.297 HD
ENDBRANCH  10  12
ENDBRANCH   6  10
BRANCH   7  14
ATOM     14  C   UNL     1      -6.703   3.807  -8.390  1.00  0.00     0.040 A 
ATOM     15  C   UNL     1      -6.852   5.184  -8.557  1.00  0.00     0.034 A 
ATOM     16  C   UNL     1      -7.356   2.929  -9.259  1.00  0.00     0.034 A 
ATOM     17  C   UNL     1      -7.641   5.672  -9.581  1.00  0.00     0.043 A 
ATOM     18  C   UNL     1      -8.141   3.429 -10.278  1.00  0.00     0.043 A 
ATOM     19  C   UNL     1      -8.285   4.796 -10.438  1.00  0.00     0.041 A 
ATOM     20  Cl  UNL     1      -7.826   7.384  -9.791  1.00  0.00    -0.084 Cl
ATOM     21  Cl  UNL     1      -8.953   2.339 -11.359  1.00  0.00    -0.084 Cl
ENDBRANCH   7  14
TORSDOF 3
ENDMDL
MODEL 8
REMARK VINA RESULT:    -4.060      3.741      7.424
REMARK INTER + INTRA:          -4.949
REMARK INTER:                  -4.651
REMARK INTRA:                  -0.298
REMARK UNBOUND:                -0.296
REMARK SMILES O=C(O)c1ccc2nc(-c3cc(Cl)cc(Cl)c3)oc2c1
REMARK SMILES IDX 5 1 6 2 20 3 8 4 18 5 4 6 9 7 7 8 19 9 2 10 1 11 3 12 10 14
REMARK SMILES IDX 11 15 17 16 12 17 15 18 14 19 13 20 16 21
REMARK H PARENT 3 13
ROOT
ATOM      1  C   UNL     1      -3.316   2.361  -3.695  1.00  0.00     0.018 A 
ATOM      2  C   UNL     1      -3.977   3.394  -4.290  1.00  0.00     0.033 A 
ATOM      3  C   UNL     1      -4.026   0.859  -5.461  1.00  0.00     0.065 A 
ATOM      4  N   UNL     1      -5.409   3.986  -6.285  1.00  0.00    -0.209 NA
ATOM      5  O   UNL     1      -5.447   2.007  -7.188  1.00  0.00    -0.436 OA
ATOM      6  C   UNL     1      -3.330   1.083  -4.272  1.00  0.00     0.063 A 
ATOM      7  C   UNL     1      -5.861   3.284  -7.294  1.00  0.00     0.227 A 
ATOM      8  C   UNL     1      -4.679   3.182  -5.483  1.00  0.00     0.110 A 
ATOM      9  C   UNL     1      -4.702   1.903  -6.065  1.00  0.00     0.156 A 
ENDROOT
BRANCH   6  10
ATOM     10  C   UNL     1      -2.607  -0.025  -3.623  1.00  0.00     0.335 C 
ATOM     11  O   UNL     1      -1.979   0.176  -2.602  1.00  0.00    -0.246 OA
BRANCH  10  12
ATOM     12  O   UNL     1      -2.641  -1.260  -4.161  1.00  0.00    -0.478 OA
ATOM     13  H   UNL     1      -3.490  -1.721  -4.150  1.00  0.00     0.297 HD
ENDBRANCH  10  12
ENDBRANCH   6  10
BRANCH   7  14
ATOM     14  C   UNL     1      -6.702   3.815  -8.387  1.00  0.00     0.040 A 
ATOM     15  C   UNL     1      -7.354   2.942  -9.258  1.00  0.00     0.034 A 
ATOM     16  C   UNL     1      -6.847   5.194  -8.552  1.00  0.00     0.034 A 
ATOM     17  C   UNL     1      -8.140   3.444 -10.276  1.00  0.00     0.043 A 
ATOM     18  C   UNL     1      -7.635   5.685  -9.574  1.00  0.00     0.043 A 
ATOM     19  C   UNL     1      -8.279   4.813 -10.435  1.00  0.00     0.041 A 
ATOM     20  Cl  UNL     1      -8.953   2.359 -11.360  1.00  0.00    -0.084 Cl
ATOM     21  Cl  UNL     1      -7.817   7.399  -9.781  1.00  0.00    -0.084 Cl
ENDBRANCH   7  14
TORSDOF 3
ENDMDL
MODEL 9
REMARK VINA RESULT:    -3.990      4.016      7.150
REMARK INTER + INTRA:          -4.869
REMARK INTER:                  -4.583
REMARK INTRA:                  -0.287
REMARK UNBOUND:                -0.296
REMARK SMILES O=C(O)c1ccc2nc(-c3cc(Cl)cc(Cl)c3)oc2c1
REMARK SMILES IDX 5 1 6 2 20 3 8 4 18 5 4 6 9 7 7 8 19 9 2 10 1 11 3 12 10 14
REMARK SMILES IDX 11 15 17 16 12 17 15 18 14 19 13 20 16 21
REMARK H PARENT 3 13
ROOT
ATOM      1  C   UNL     1      -4.652   0.534  -5.037  1.00  0.00     0.018 A 
ATOM      2  C   UNL     1      -5.614   1.490  -5.171  1.00  0.00     0.033 A 
ATOM      3  C   UNL     1      -3.617   1.251  -7.109  1.00  0.00     0.065 A 
ATOM      4  N   UNL     1      -6.398   3.362  -6.675  1.00  0.00    -0.209 NA
ATOM      5  O   UNL     1      -4.842   3.167  -8.183  1.00  0.00    -0.436 OA
ATOM      6  C   UNL     1      -3.642   0.404  -6.000  1.00  0.00     0.063 A 
ATOM      7  C   UNL     1      -5.942   3.844  -7.804  1.00  0.00     0.227 A 
ATOM      8  C   UNL     1      -5.601   2.347  -6.278  1.00  0.00     0.110 A 
ATOM      9  C   UNL     1      -4.595   2.219  -7.252  1.00  0.00     0.156 A 
ENDROOT
BRANCH   6  10
ATOM     10  C   UNL     1      -2.603  -0.630  -5.842  1.00  0.00     0.335 C 
ATOM     11  O   UNL     1      -2.699  -1.456  -4.956  1.00  0.00    -0.246 OA
BRANCH  10  12
ATOM     12  O   UNL     1      -1.547  -0.658  -6.678  1.00  0.00    -0.478 OA
ATOM     13  H   UNL     1      -0.915  -1.380  -6.563  1.00  0.00     0.297 HD
ENDBRANCH  10  12
ENDBRANCH   6  10
BRANCH   7  14
ATOM     14  C   UNL     1      -6.547   4.965  -8.552  1.00  0.00     0.040 A 
ATOM     15  C   UNL     1      -7.529   4.719  -9.513  1.00  0.00     0.034 A 
ATOM     16  C   UNL     1      -6.138   6.277  -8.301  1.00  0.00     0.034 A 
ATOM     17  C   UNL     1      -8.092   5.771 -10.208  1.00  0.00     0.043 A 
ATOM     18  C   UNL     1      -6.708   7.320  -9.003  1.00  0.00     0.043 A 
ATOM     19  C   UNL     1      -7.681   7.069  -9.954  1.00  0.00     0.041 A 
ATOM     20  Cl  UNL     1      -9.314   5.467 -11.402  1.00  0.00    -0.084 Cl
ATOM     21  Cl  UNL     1      -6.200   8.952  -8.692  1.00  0.00    -0.084 Cl
ENDBRANCH   7  14
TORSDOF 3
ENDMDL
