MODEL 1
REMARK VINA RESULT:    -5.707      0.000      0.000
REMARK INTER + INTRA:          -8.346
REMARK INTER:                  -7.875
REMARK INTRA:                  -0.471
REMARK UNBOUND:                -0.471
REMARK SMILES Cc1n[nH]c(C)c1CCCOc1cc(C(=O)O)ccc1F
REMARK SMILES IDX 11 1 12 2 14 3 18 4 13 5 19 6 20 7 21 8 15 9 16 10 17 11
REMARK SMILES IDX 10 13 9 14 8 15 7 16 5 17 2 18 4 19 3 20 6 21 1 22
REMARK H PARENT 17 12 4 23
ROOT
ATOM      1  O   UNL     1      -3.080   2.786  -7.517  1.00  0.00    -0.490 OA
ENDROOT
BRANCH   1   2
ATOM      2  C   UNL     1      -3.172   2.314  -6.246  1.00  0.00     0.155 A 
ATOM      3  C   UNL     1      -3.687   2.661  -3.922  1.00  0.00     0.063 A 
ATOM      4  C   UNL     1      -3.364   1.328  -3.656  1.00  0.00     0.019 A 
ATOM      5  C   UNL     1      -3.588   3.151  -5.226  1.00  0.00     0.065 A 
ATOM      6  C   UNL     1      -2.956   0.499  -4.680  1.00  0.00     0.044 A 
ATOM      7  C   UNL     1      -2.864   0.986  -5.973  1.00  0.00     0.165 A 
ATOM      8  F   UNL     1      -2.463   0.169  -6.973  1.00  0.00    -0.203 F 
BRANCH   3   9
ATOM      9  C   UNL     1      -4.124   3.550  -2.829  1.00  0.00     0.335 C 
ATOM     10  O   UNL     1      -3.972   4.751  -2.924  1.00  0.00    -0.246 OA
BRANCH   9  11
ATOM     11  O   UNL     1      -4.699   3.029  -1.727  1.00  0.00    -0.478 OA
ATOM     12  H   UNL     1      -4.111   2.776  -1.002  1.00  0.00     0.297 HD
ENDBRANCH   9  11
ENDBRANCH   3   9
ENDBRANCH   1   2
BRANCH   1  13
ATOM     13  C   UNL     1      -3.928   2.182  -8.497  1.00  0.00     0.230 C 
BRANCH  13  14
ATOM     14  C   UNL     1      -4.807   3.255  -9.141  1.00  0.00     0.046 C 
BRANCH  14  15
ATOM     15  C   UNL     1      -6.155   3.312  -8.418  1.00  0.00     0.043 C 
BRANCH  15  16
ATOM     16  C   UNL     1      -7.170   3.992  -9.299  1.00  0.00    -0.004 A 
ATOM     17  C   UNL     1      -7.391   5.325  -9.377  1.00  0.00     0.036 A 
ATOM     18  C   UNL     1      -8.046   3.358 -10.187  1.00  0.00     0.063 A 
ATOM     19  N   UNL     1      -8.377   5.527 -10.276  1.00  0.00    -0.282 N 
ATOM     20  N   UNL     1      -8.775   4.276 -10.768  1.00  0.00    -0.181 NA
ATOM     21  C   UNL     1      -6.667   6.392  -8.599  1.00  0.00     0.066 C 
ATOM     22  C   UNL     1      -8.142   1.872 -10.423  1.00  0.00     0.069 C 
ATOM     23  H   UNL     1      -8.746   6.385 -10.536  1.00  0.00     0.190 HD
ENDBRANCH  15  16
ENDBRANCH  14  15
ENDBRANCH  13  14
ENDBRANCH   1  13
TORSDOF 7
ENDMDL
MODEL 2
REMARK VINA RESULT:    -5.641      2.155      3.760
REMARK INTER + INTRA:          -8.256
REMARK INTER:                  -7.590
REMARK INTRA:                  -0.666
REMARK UNBOUND:                -0.471
REMARK SMILES Cc1n[nH]c(C)c1CCCOc1cc(C(=O)O)ccc1F
REMARK SMILES IDX 11 1 12 2 14 3 18 4 13 5 19 6 20 7 21 8 15 9 16 10 17 11
REMARK SMILES IDX 10 13 9 14 8 15 7 16 5 17 2 18 4 19 3 20 6 21 1 22
REMARK H PARENT 17 12 4 23
ROOT
ATOM      1  O   UNL     1      -5.390   3.564  -5.464  1.00  0.00    -0.490 OA
ENDROOT
BRANCH   1   2
ATOM      2  C   UNL     1      -4.506   2.629  -5.024  1.00  0.00     0.155 A 
ATOM      3  C   UNL     1      -3.190   0.655  -5.412  1.00  0.00     0.063 A 
ATOM      4  C   UNL     1      -2.692   0.735  -4.108  1.00  0.00     0.019 A 
ATOM      5  C   UNL     1      -4.101   1.610  -5.865  1.00  0.00     0.065 A 
ATOM      6  C   UNL     1      -3.096   1.759  -3.278  1.00  0.00     0.044 A 
ATOM      7  C   UNL     1      -3.997   2.708  -3.732  1.00  0.00     0.165 A 
ATOM      8  F   UNL     1      -4.389   3.709  -2.913  1.00  0.00    -0.203 F 
BRANCH   3   9
ATOM      9  C   UNL     1      -2.758  -0.440  -6.303  1.00  0.00     0.335 C 
ATOM     10  O   UNL     1      -3.584  -1.171  -6.811  1.00  0.00    -0.246 OA
BRANCH   9  11
ATOM     11  O   UNL     1      -1.448  -0.623  -6.558  1.00  0.00    -0.478 OA
ATOM     12  H   UNL     1      -1.116  -0.299  -7.408  1.00  0.00     0.297 HD
ENDBRANCH   9  11
ENDBRANCH   3   9
ENDBRANCH   1   2
BRANCH   1  13
ATOM     13  C   UNL     1      -6.771   3.197  -5.473  1.00  0.00     0.230 C 
BRANCH  13  14
ATOM     14  C   UNL     1      -7.481   3.915  -6.622  1.00  0.00     0.046 C 
BRANCH  14  15
ATOM     15  C   UNL     1      -6.567   3.942  -7.849  1.00  0.00     0.043 C 
BRANCH  15  16
ATOM     16  C   UNL     1      -7.339   4.444  -9.041  1.00  0.00    -0.004 A 
ATOM     17  C   UNL     1      -7.984   3.679  -9.952  1.00  0.00     0.036 A 
ATOM     18  C   UNL     1      -7.522   5.784  -9.398  1.00  0.00     0.063 A 
ATOM     19  N   UNL     1      -8.549   4.505 -10.857  1.00  0.00    -0.282 N 
ATOM     20  N   UNL     1      -8.241   5.822 -10.490  1.00  0.00    -0.181 NA
ATOM     21  C   UNL     1      -8.058   2.175  -9.955  1.00  0.00     0.066 C 
ATOM     22  C   UNL     1      -6.975   6.979  -8.659  1.00  0.00     0.069 C 
ATOM     23  H   UNL     1      -9.074   4.235 -11.627  1.00  0.00     0.190 HD
ENDBRANCH  15  16
ENDBRANCH  14  15
ENDBRANCH  13  14
ENDBRANCH   1  13
TORSDOF 7
ENDMDL
MODEL 3
REMARK VINA RESULT:    -5.576      0.346      1.793
REMARK INTER + INTRA:          -8.166
REMARK INTER:                  -7.607
REMARK INTRA:                  -0.559
REMARK UNBOUND:                -0.471
REMARK SMILES Cc1n[nH]c(C)c1CCCOc1cc(C(=O)O)ccc1F
REMARK SMILES IDX 11 1 12 2 14 3 18 4 13 5 19 6 20 7 21 8 15 9 16 10 17 11
REMARK SMILES IDX 10 13 9 14 8 15 7 16 5 17 2 18 4 19 3 20 6 21 1 22
REMARK H PARENT 17 12 4 23
ROOT
ATOM      1  O   UNL     1      -3.236   2.650  -7.535  1.00  0.00    -0.490 OA
ENDROOT
BRANCH   1   2
ATOM      2  C   UNL     1      -3.267   2.218  -6.246  1.00  0.00     0.155 A 
ATOM      3  C   UNL     1      -3.699   2.628  -3.916  1.00  0.00     0.063 A 
ATOM      4  C   UNL     1      -3.334   1.312  -3.621  1.00  0.00     0.019 A 
ATOM      5  C   UNL     1      -3.663   3.077  -5.238  1.00  0.00     0.065 A 
ATOM      6  C   UNL     1      -2.946   0.460  -4.634  1.00  0.00     0.044 A 
ATOM      7  C   UNL     1      -2.916   0.907  -5.944  1.00  0.00     0.165 A 
ATOM      8  F   UNL     1      -2.535   0.067  -6.932  1.00  0.00    -0.203 F 
BRANCH   3   9
ATOM      9  C   UNL     1      -4.115   3.542  -2.835  1.00  0.00     0.335 C 
ATOM     10  O   UNL     1      -3.981   4.741  -2.967  1.00  0.00    -0.246 OA
BRANCH   9  11
ATOM     11  O   UNL     1      -4.650   3.045  -1.702  1.00  0.00    -0.478 OA
ATOM     12  H   UNL     1      -5.275   3.610  -1.227  1.00  0.00     0.297 HD
ENDBRANCH   9  11
ENDBRANCH   3   9
ENDBRANCH   1   2
BRANCH   1  13
ATOM     13  C   UNL     1      -4.350   2.307  -8.361  1.00  0.00     0.230 C 
BRANCH  13  14
ATOM     14  C   UNL     1      -5.138   3.572  -8.706  1.00  0.00     0.046 C 
BRANCH  14  15
ATOM     15  C   UNL     1      -6.601   3.389  -8.298  1.00  0.00     0.043 C 
BRANCH  15  16
ATOM     16  C   UNL     1      -7.497   3.883  -9.404  1.00  0.00    -0.004 A 
ATOM     17  C   UNL     1      -8.206   3.111 -10.260  1.00  0.00     0.036 A 
ATOM     18  C   UNL     1      -7.749   5.222  -9.723  1.00  0.00     0.063 A 
ATOM     19  N   UNL     1      -8.877   3.932 -11.095  1.00  0.00    -0.282 N 
ATOM     20  N   UNL     1      -8.570   5.253 -10.741  1.00  0.00    -0.181 NA
ATOM     21  C   UNL     1      -8.241   1.606 -10.277  1.00  0.00     0.066 C 
ATOM     22  C   UNL     1      -7.164   6.422  -9.023  1.00  0.00     0.069 C 
ATOM     23  H   UNL     1      -9.467   3.657 -11.814  1.00  0.00     0.190 HD
ENDBRANCH  15  16
ENDBRANCH  14  15
ENDBRANCH  13  14
ENDBRANCH   1  13
TORSDOF 7
ENDMDL
MODEL 4
REMARK VINA RESULT:    -5.525      2.148      3.324
REMARK INTER + INTRA:          -8.096
REMARK INTER:                  -7.480
REMARK INTRA:                  -0.616
REMARK UNBOUND:                -0.471
REMARK SMILES Cc1n[nH]c(C)c1CCCOc1cc(C(=O)O)ccc1F
REMARK SMILES IDX 11 1 12 2 14 3 18 4 13 5 19 6 20 7 21 8 15 9 16 10 17 11
REMARK SMILES IDX 10 13 9 14 8 15 7 16 5 17 2 18 4 19 3 20 6 21 1 22
REMARK H PARENT 17 12 4 23
ROOT
ATOM      1  O   UNL     1      -5.389   3.525  -5.392  1.00  0.00    -0.490 OA
ENDROOT
BRANCH   1   2
ATOM      2  C   UNL     1      -4.496   2.590  -4.972  1.00  0.00     0.155 A 
ATOM      3  C   UNL     1      -3.178   0.624  -5.396  1.00  0.00     0.063 A 
ATOM      4  C   UNL     1      -2.663   0.694  -4.098  1.00  0.00     0.019 A 
ATOM      5  C   UNL     1      -4.099   1.580  -5.828  1.00  0.00     0.065 A 
ATOM      6  C   UNL     1      -3.060   1.709  -3.253  1.00  0.00     0.044 A 
ATOM      7  C   UNL     1      -3.970   2.659  -3.687  1.00  0.00     0.165 A 
ATOM      8  F   UNL     1      -4.356   3.651  -2.854  1.00  0.00    -0.203 F 
BRANCH   3   9
ATOM      9  C   UNL     1      -2.754  -0.461  -6.303  1.00  0.00     0.335 C 
ATOM     10  O   UNL     1      -3.582  -1.201  -6.793  1.00  0.00    -0.246 OA
BRANCH   9  11
ATOM     11  O   UNL     1      -1.448  -0.625  -6.592  1.00  0.00    -0.478 OA
ATOM     12  H   UNL     1      -1.192  -0.554  -7.523  1.00  0.00     0.297 HD
ENDBRANCH   9  11
ENDBRANCH   3   9
ENDBRANCH   1   2
BRANCH   1  13
ATOM     13  C   UNL     1      -6.763   3.134  -5.441  1.00  0.00     0.230 C 
BRANCH  13  14
ATOM     14  C   UNL     1      -7.462   3.870  -6.586  1.00  0.00     0.046 C 
BRANCH  14  15
ATOM     15  C   UNL     1      -6.623   3.746  -7.859  1.00  0.00     0.043 C 
BRANCH  15  16
ATOM     16  C   UNL     1      -7.404   4.282  -9.031  1.00  0.00    -0.004 A 
ATOM     17  C   UNL     1      -7.543   5.586  -9.367  1.00  0.00     0.036 A 
ATOM     18  C   UNL     1      -8.109   3.519  -9.968  1.00  0.00     0.063 A 
ATOM     19  N   UNL     1      -8.314   5.646 -10.473  1.00  0.00    -0.282 N 
ATOM     20  N   UNL     1      -8.661   4.336 -10.828  1.00  0.00    -0.181 NA
ATOM     21  C   UNL     1      -6.943   6.759  -8.637  1.00  0.00     0.066 C 
ATOM     22  C   UNL     1      -8.225   2.016  -9.977  1.00  0.00     0.069 C 
ATOM     23  H   UNL     1      -8.581   6.453 -10.938  1.00  0.00     0.190 HD
ENDBRANCH  15  16
ENDBRANCH  14  15
ENDBRANCH  13  14
ENDBRANCH   1  13
TORSDOF 7
ENDMDL
MODEL 5
REMARK VINA RESULT:    -4.746      3.776      6.567
REMARK INTER + INTRA:          -7.020
REMARK INTER:                  -6.187
REMARK INTRA:                  -0.833
REMARK UNBOUND:                -0.471
REMARK SMILES Cc1n[nH]c(C)c1CCCOc1cc(C(=O)O)ccc1F
REMARK SMILES IDX 11 1 12 2 14 3 18 4 13 5 19 6 20 7 21 8 15 9 16 10 17 11
REMARK SMILES IDX 10 13 9 14 8 15 7 16 5 17 2 18 4 19 3 20 6 21 1 22
REMARK H PARENT 17 12 4 23
ROOT
ATOM      1  O   UNL     1      -5.709   2.143  -7.859  1.00  0.00    -0.490 OA
ENDROOT
BRANCH   1   2
ATOM      2  C   UNL     1      -6.433   3.089  -8.514  1.00  0.00     0.155 A 
ATOM      3  C   UNL     1      -6.946   5.399  -8.943  1.00  0.00     0.063 A 
ATOM      4  C   UNL     1      -7.915   5.007  -9.872  1.00  0.00     0.019 A 
ATOM      5  C   UNL     1      -6.205   4.430  -8.264  1.00  0.00     0.065 A 
ATOM      6  C   UNL     1      -8.131   3.668 -10.118  1.00  0.00     0.044 A 
ATOM      7  C   UNL     1      -7.390   2.708  -9.447  1.00  0.00     0.165 A 
ATOM      8  F   UNL     1      -7.607   1.398  -9.694  1.00  0.00    -0.203 F 
BRANCH   3   9
ATOM      9  C   UNL     1      -6.713   6.832  -8.677  1.00  0.00     0.335 C 
ATOM     10  O   UNL     1      -7.371   7.409  -7.836  1.00  0.00    -0.246 OA
BRANCH   9  11
ATOM     11  O   UNL     1      -5.763   7.498  -9.363  1.00  0.00    -0.478 OA
ATOM     12  H   UNL     1      -4.966   7.752  -8.877  1.00  0.00     0.297 HD
ENDBRANCH   9  11
ENDBRANCH   3   9
ENDBRANCH   1   2
BRANCH   1  13
ATOM     13  C   UNL     1      -4.372   2.489  -7.489  1.00  0.00     0.230 C 
BRANCH  13  14
ATOM     14  C   UNL     1      -3.773   1.370  -6.636  1.00  0.00     0.046 C 
BRANCH  14  15
ATOM     15  C   UNL     1      -4.784   0.948  -5.566  1.00  0.00     0.043 C 
BRANCH  15  16
ATOM     16  C   UNL     1      -4.673   1.869  -4.379  1.00  0.00    -0.004 A 
ATOM     17  C   UNL     1      -3.639   1.925  -3.508  1.00  0.00     0.036 A 
ATOM     18  C   UNL     1      -5.619   2.822  -3.985  1.00  0.00     0.063 A 
ATOM     19  N   UNL     1      -3.923   2.875  -2.592  1.00  0.00    -0.282 N 
ATOM     20  N   UNL     1      -5.174   3.420  -2.911  1.00  0.00    -0.181 NA
ATOM     21  C   UNL     1      -2.393   1.079  -3.553  1.00  0.00     0.066 C 
ATOM     22  C   UNL     1      -6.931   3.102  -4.673  1.00  0.00     0.069 C 
ATOM     23  H   UNL     1      -3.361   3.133  -1.845  1.00  0.00     0.190 HD
ENDBRANCH  15  16
ENDBRANCH  14  15
ENDBRANCH  13  14
ENDBRANCH   1  13
TORSDOF 7
ENDMDL
MODEL 6
REMARK VINA RESULT:    -4.731      3.916      7.086
REMARK INTER + INTRA:          -7.000
REMARK INTER:                  -6.137
REMARK INTRA:                  -0.863
REMARK UNBOUND:                -0.471
REMARK SMILES Cc1n[nH]c(C)c1CCCOc1cc(C(=O)O)ccc1F
REMARK SMILES IDX 11 1 12 2 14 3 18 4 13 5 19 6 20 7 21 8 15 9 16 10 17 11
REMARK SMILES IDX 10 13 9 14 8 15 7 16 5 17 2 18 4 19 3 20 6 21 1 22
REMARK H PARENT 17 12 4 23
ROOT
ATOM      1  O   UNL     1      -5.657   4.179  -6.706  1.00  0.00    -0.490 OA
ENDROOT
BRANCH   1   2
ATOM      2  C   UNL     1      -6.427   4.295  -7.821  1.00  0.00     0.155 A 
ATOM      3  C   UNL     1      -7.754   3.290  -9.555  1.00  0.00     0.063 A 
ATOM      4  C   UNL     1      -8.006   4.556 -10.091  1.00  0.00     0.019 A 
ATOM      5  C   UNL     1      -6.959   3.166  -8.414  1.00  0.00     0.065 A 
ATOM      6  C   UNL     1      -7.475   5.677  -9.489  1.00  0.00     0.044 A 
ATOM      7  C   UNL     1      -6.691   5.552  -8.354  1.00  0.00     0.165 A 
ATOM      8  F   UNL     1      -6.174   6.655  -7.769  1.00  0.00    -0.203 F 
BRANCH   3   9
ATOM      9  C   UNL     1      -8.320   2.088 -10.197  1.00  0.00     0.335 C 
ATOM     10  O   UNL     1      -9.406   1.668  -9.851  1.00  0.00    -0.246 OA
BRANCH   9  11
ATOM     11  O   UNL     1      -7.635   1.459 -11.173  1.00  0.00    -0.478 OA
ATOM     12  H   UNL     1      -6.786   1.064 -10.929  1.00  0.00     0.297 HD
ENDBRANCH   9  11
ENDBRANCH   3   9
ENDBRANCH   1   2
BRANCH   1  13
ATOM     13  C   UNL     1      -6.025   3.167  -5.766  1.00  0.00     0.230 C 
BRANCH  13  14
ATOM     14  C   UNL     1      -4.947   3.058  -4.686  1.00  0.00     0.046 C 
BRANCH  14  15
ATOM     15  C   UNL     1      -3.564   3.151  -5.335  1.00  0.00     0.043 C 
BRANCH  15  16
ATOM     16  C   UNL     1      -3.121   1.780  -5.773  1.00  0.00    -0.004 A 
ATOM     17  C   UNL     1      -2.978   1.360  -7.052  1.00  0.00     0.036 A 
ATOM     18  C   UNL     1      -2.779   0.717  -4.931  1.00  0.00     0.063 A 
ATOM     19  N   UNL     1      -2.566   0.075  -7.020  1.00  0.00    -0.282 N 
ATOM     20  N   UNL     1      -2.453  -0.308  -5.676  1.00  0.00    -0.181 NA
ATOM     21  C   UNL     1      -3.233   2.180  -8.290  1.00  0.00     0.066 C 
ATOM     22  C   UNL     1      -2.795   0.743  -3.424  1.00  0.00     0.069 C 
ATOM     23  H   UNL     1      -2.382  -0.485  -7.790  1.00  0.00     0.190 HD
ENDBRANCH  15  16
ENDBRANCH  14  15
ENDBRANCH  13  14
ENDBRANCH   1  13
TORSDOF 7
ENDMDL
MODEL 7
REMARK VINA RESULT:    -4.608      4.804      7.828
REMARK INTER + INTRA:          -6.830
REMARK INTER:                  -6.142
REMARK INTRA:                  -0.688
REMARK UNBOUND:                -0.471
REMARK SMILES Cc1n[nH]c(C)c1CCCOc1cc(C(=O)O)ccc1F
REMARK SMILES IDX 11 1 12 2 14 3 18 4 13 5 19 6 20 7 21 8 15 9 16 10 17 11
REMARK SMILES IDX 10 13 9 14 8 15 7 16 5 17 2 18 4 19 3 20 6 21 1 22
REMARK H PARENT 17 12 4 23
ROOT
ATOM      1  O   UNL     1      -6.986   5.515  -8.315  1.00  0.00    -0.490 OA
ENDROOT
BRANCH   1   2
ATOM      2  C   UNL     1      -7.221   6.634  -9.049  1.00  0.00     0.155 A 
ATOM      3  C   UNL     1      -8.579   7.860 -10.610  1.00  0.00     0.063 A 
ATOM      4  C   UNL     1      -7.689   8.936 -10.533  1.00  0.00     0.019 A 
ATOM      5  C   UNL     1      -8.338   6.707  -9.861  1.00  0.00     0.065 A 
ATOM      6  C   UNL     1      -6.582   8.857  -9.716  1.00  0.00     0.044 A 
ATOM      7  C   UNL     1      -6.347   7.713  -8.970  1.00  0.00     0.165 A 
ATOM      8  F   UNL     1      -5.260   7.642  -8.171  1.00  0.00    -0.203 F 
BRANCH   3   9
ATOM      9  C   UNL     1      -9.766   7.942 -11.483  1.00  0.00     0.335 C 
ATOM     10  O   UNL     1      -9.635   8.188 -12.665  1.00  0.00    -0.246 OA
BRANCH   9  11
ATOM     11  O   UNL     1     -10.995   7.736 -10.970  1.00  0.00    -0.478 OA
ATOM     12  H   UNL     1     -11.114   7.921 -10.028  1.00  0.00     0.297 HD
ENDBRANCH   9  11
ENDBRANCH   3   9
ENDBRANCH   1   2
BRANCH   1  13
ATOM     13  C   UNL     1      -7.242   4.258  -8.947  1.00  0.00     0.230 C 
BRANCH  13  14
ATOM     14  C   UNL     1      -6.471   3.155  -8.221  1.00  0.00     0.046 C 
BRANCH  14  15
ATOM     15  C   UNL     1      -5.586   3.779  -7.140  1.00  0.00     0.043 C 
BRANCH  15  16
ATOM     16  C   UNL     1      -4.979   2.689  -6.295  1.00  0.00    -0.004 A 
ATOM     17  C   UNL     1      -5.463   2.231  -5.117  1.00  0.00     0.036 A 
ATOM     18  C   UNL     1      -3.819   1.966  -6.593  1.00  0.00     0.063 A 
ATOM     19  N   UNL     1      -4.635   1.258  -4.682  1.00  0.00    -0.282 N 
ATOM     20  N   UNL     1      -3.608   1.114  -5.624  1.00  0.00    -0.181 NA
ATOM     21  C   UNL     1      -6.704   2.720  -4.417  1.00  0.00     0.066 C 
ATOM     22  C   UNL     1      -2.953   2.148  -7.814  1.00  0.00     0.069 C 
ATOM     23  H   UNL     1      -4.733   0.750  -3.862  1.00  0.00     0.190 HD
ENDBRANCH  15  16
ENDBRANCH  14  15
ENDBRANCH  13  14
ENDBRANCH   1  13
TORSDOF 7
ENDMDL
MODEL 8
REMARK VINA RESULT:    -4.570      4.555      7.956
REMARK INTER + INTRA:          -6.778
REMARK INTER:                  -6.071
REMARK INTRA:                  -0.707
REMARK UNBOUND:                -0.471
REMARK SMILES Cc1n[nH]c(C)c1CCCOc1cc(C(=O)O)ccc1F
REMARK SMILES IDX 11 1 12 2 14 3 18 4 13 5 19 6 20 7 21 8 15 9 16 10 17 11
REMARK SMILES IDX 10 13 9 14 8 15 7 16 5 17 2 18 4 19 3 20 6 21 1 22
REMARK H PARENT 17 12 4 23
ROOT
ATOM      1  O   UNL     1      -7.205   2.639  -9.703  1.00  0.00    -0.490 OA
ENDROOT
BRANCH   1   2
ATOM      2  C   UNL     1      -8.297   2.488 -10.498  1.00  0.00     0.155 A 
ATOM      3  C   UNL     1      -9.739   3.302 -12.243  1.00  0.00     0.063 A 
ATOM      4  C   UNL     1     -10.528   2.155 -12.120  1.00  0.00     0.019 A 
ATOM      5  C   UNL     1      -8.618   3.463 -11.424  1.00  0.00     0.065 A 
ATOM      6  C   UNL     1     -10.197   1.186 -11.197  1.00  0.00     0.044 A 
ATOM      7  C   UNL     1      -9.082   1.345 -10.390  1.00  0.00     0.165 A 
ATOM      8  F   UNL     1      -8.763   0.392  -9.488  1.00  0.00    -0.203 F 
BRANCH   3   9
ATOM      9  C   UNL     1     -10.091   4.341 -13.230  1.00  0.00     0.335 C 
ATOM     10  O   UNL     1     -11.200   4.834 -13.224  1.00  0.00    -0.246 OA
BRANCH   9  11
ATOM     11  O   UNL     1      -9.178   4.748 -14.133  1.00  0.00    -0.478 OA
ATOM     12  H   UNL     1      -9.128   4.252 -14.962  1.00  0.00     0.297 HD
ENDBRANCH   9  11
ENDBRANCH   3   9
ENDBRANCH   1   2
BRANCH   1  13
ATOM     13  C   UNL     1      -6.901   3.965  -9.263  1.00  0.00     0.230 C 
BRANCH  13  14
ATOM     14  C   UNL     1      -6.466   3.928  -7.797  1.00  0.00     0.046 C 
BRANCH  14  15
ATOM     15  C   UNL     1      -6.040   2.506  -7.427  1.00  0.00     0.043 C 
BRANCH  15  16
ATOM     16  C   UNL     1      -4.970   2.561  -6.368  1.00  0.00    -0.004 A 
ATOM     17  C   UNL     1      -5.174   2.703  -5.037  1.00  0.00     0.036 A 
ATOM     18  C   UNL     1      -3.591   2.467  -6.584  1.00  0.00     0.063 A 
ATOM     19  N   UNL     1      -3.966   2.707  -4.434  1.00  0.00    -0.282 N 
ATOM     20  N   UNL     1      -2.988   2.561  -5.427  1.00  0.00    -0.181 NA
ATOM     21  C   UNL     1      -6.509   2.835  -4.352  1.00  0.00     0.066 C 
ATOM     22  C   UNL     1      -2.916   2.300  -7.921  1.00  0.00     0.069 C 
ATOM     23  H   UNL     1      -3.804   2.795  -3.482  1.00  0.00     0.190 HD
ENDBRANCH  15  16
ENDBRANCH  14  15
ENDBRANCH  13  14
ENDBRANCH   1  13
TORSDOF 7
ENDMDL
