MODEL 1
REMARK VINA RESULT:    -5.711      0.000      0.000
REMARK INTER + INTRA:          -8.526
REMARK INTER:                  -7.881
REMARK INTRA:                  -0.645
REMARK UNBOUND:                -0.645
REMARK SMILES Cc1n[nH]c(C)c1CCCOc1cc(C(=O)O)ccc1F
REMARK SMILES IDX 11 1 12 2 14 3 18 4 13 5 19 6 20 7 21 8 15 9 16 10 17 11
REMARK SMILES IDX 10 13 9 14 8 15 7 16 5 17 2 18 4 19 3 20 6 21 1 22
REMARK H PARENT 17 12 4 23
ROOT
ATOM      1  O   UNL     1      -5.886  -1.984   2.748  1.00  0.00    -0.490 OA
ENDROOT
BRANCH   1   2
ATOM      2  C   UNL     1      -4.685  -2.385   2.253  1.00  0.00     0.155 A 
ATOM      3  C   UNL     1      -3.171  -4.141   1.616  1.00  0.00     0.063 A 
ATOM      4  C   UNL     1      -2.230  -3.184   1.229  1.00  0.00     0.019 A 
ATOM      5  C   UNL     1      -4.404  -3.733   2.130  1.00  0.00     0.065 A 
ATOM      6  C   UNL     1      -2.522  -1.842   1.350  1.00  0.00     0.044 A 
ATOM      7  C   UNL     1      -3.747  -1.439   1.855  1.00  0.00     0.165 A 
ATOM      8  F   UNL     1      -4.027  -0.123   1.971  1.00  0.00    -0.203 F 
BRANCH   3   9
ATOM      9  C   UNL     1      -2.862  -5.579   1.487  1.00  0.00     0.335 C 
ATOM     10  O   UNL     1      -2.944  -6.307   2.455  1.00  0.00    -0.246 OA
BRANCH   9  11
ATOM     11  O   UNL     1      -2.495  -6.084   0.293  1.00  0.00    -0.478 OA
ATOM     12  H   UNL     1      -2.021  -6.928   0.300  1.00  0.00     0.297 HD
ENDBRANCH   9  11
ENDBRANCH   3   9
ENDBRANCH   1   2
BRANCH   1  13
ATOM     13  C   UNL     1      -6.002  -1.889   4.170  1.00  0.00     0.230 C 
BRANCH  13  14
ATOM     14  C   UNL     1      -7.431  -2.241   4.589  1.00  0.00     0.046 C 
BRANCH  14  15
ATOM     15  C   UNL     1      -7.987  -3.316   3.653  1.00  0.00     0.043 C 
BRANCH  15  16
ATOM     16  C   UNL     1      -9.372  -3.706   4.100  1.00  0.00    -0.004 A 
ATOM     17  C   UNL     1      -9.687  -4.763   4.885  1.00  0.00     0.036 A 
ATOM     18  C   UNL     1     -10.558  -3.036   3.784  1.00  0.00     0.063 A 
ATOM     19  N   UNL     1     -11.026  -4.765   5.054  1.00  0.00    -0.282 N 
ATOM     20  N   UNL     1     -11.551  -3.674   4.349  1.00  0.00    -0.181 NA
ATOM     21  C   UNL     1      -8.717  -5.757   5.467  1.00  0.00     0.066 C 
ATOM     22  C   UNL     1     -10.674  -1.800   2.928  1.00  0.00     0.069 C 
ATOM     23  H   UNL     1     -11.535  -5.409   5.570  1.00  0.00     0.190 HD
ENDBRANCH  15  16
ENDBRANCH  14  15
ENDBRANCH  13  14
ENDBRANCH   1  13
TORSDOF 7
ENDMDL
MODEL 2
REMARK VINA RESULT:    -5.696      1.994      3.696
REMARK INTER + INTRA:          -8.505
REMARK INTER:                  -7.862
REMARK INTRA:                  -0.643
REMARK UNBOUND:                -0.645
REMARK SMILES Cc1n[nH]c(C)c1CCCOc1cc(C(=O)O)ccc1F
REMARK SMILES IDX 11 1 12 2 14 3 18 4 13 5 19 6 20 7 21 8 15 9 16 10 17 11
REMARK SMILES IDX 10 13 9 14 8 15 7 16 5 17 2 18 4 19 3 20 6 21 1 22
REMARK H PARENT 17 12 4 23
ROOT
ATOM      1  O   UNL     1      -5.468  -4.695   2.416  1.00  0.00    -0.490 OA
ENDROOT
BRANCH   1   2
ATOM      2  C   UNL     1      -4.412  -3.918   2.057  1.00  0.00     0.155 A 
ATOM      3  C   UNL     1      -3.431  -1.745   1.742  1.00  0.00     0.063 A 
ATOM      4  C   UNL     1      -2.239  -2.347   1.329  1.00  0.00     0.019 A 
ATOM      5  C   UNL     1      -4.519  -2.540   2.107  1.00  0.00     0.065 A 
ATOM      6  C   UNL     1      -2.140  -3.722   1.288  1.00  0.00     0.044 A 
ATOM      7  C   UNL     1      -3.219  -4.509   1.655  1.00  0.00     0.165 A 
ATOM      8  F   UNL     1      -3.115  -5.855   1.613  1.00  0.00    -0.203 F 
BRANCH   3   9
ATOM      9  C   UNL     1      -3.540  -0.274   1.788  1.00  0.00     0.335 C 
ATOM     10  O   UNL     1      -4.451   0.286   1.212  1.00  0.00    -0.246 OA
BRANCH   9  11
ATOM     11  O   UNL     1      -2.633   0.448   2.474  1.00  0.00    -0.478 OA
ATOM     12  H   UNL     1      -2.962   1.211   2.969  1.00  0.00     0.297 HD
ENDBRANCH   9  11
ENDBRANCH   3   9
ENDBRANCH   1   2
BRANCH   1  13
ATOM     13  C   UNL     1      -6.473  -4.922   1.425  1.00  0.00     0.230 C 
BRANCH  13  14
ATOM     14  C   UNL     1      -7.847  -4.978   2.096  1.00  0.00     0.046 C 
BRANCH  14  15
ATOM     15  C   UNL     1      -7.840  -4.094   3.345  1.00  0.00     0.043 C 
BRANCH  15  16
ATOM     16  C   UNL     1      -9.193  -4.148   4.007  1.00  0.00    -0.004 A 
ATOM     17  C   UNL     1     -10.232  -3.314   3.765  1.00  0.00     0.036 A 
ATOM     18  C   UNL     1      -9.600  -5.072   4.975  1.00  0.00     0.063 A 
ATOM     19  N   UNL     1     -11.256  -3.694   4.557  1.00  0.00    -0.282 N 
ATOM     20  N   UNL     1     -10.834  -4.797   5.310  1.00  0.00    -0.181 NA
ATOM     21  C   UNL     1     -10.242  -2.168   2.787  1.00  0.00     0.066 C 
ATOM     22  C   UNL     1      -8.757  -6.186   5.542  1.00  0.00     0.069 C 
ATOM     23  H   UNL     1     -12.131  -3.276   4.598  1.00  0.00     0.190 HD
ENDBRANCH  15  16
ENDBRANCH  14  15
ENDBRANCH  13  14
ENDBRANCH   1  13
TORSDOF 7
ENDMDL
MODEL 3
REMARK VINA RESULT:    -5.654      1.999      3.248
REMARK INTER + INTRA:          -8.447
REMARK INTER:                  -7.783
REMARK INTRA:                  -0.664
REMARK UNBOUND:                -0.645
REMARK SMILES Cc1n[nH]c(C)c1CCCOc1cc(C(=O)O)ccc1F
REMARK SMILES IDX 11 1 12 2 14 3 18 4 13 5 19 6 20 7 21 8 15 9 16 10 17 11
REMARK SMILES IDX 10 13 9 14 8 15 7 16 5 17 2 18 4 19 3 20 6 21 1 22
REMARK H PARENT 17 12 4 23
ROOT
ATOM      1  O   UNL     1      -5.583  -4.628   2.500  1.00  0.00    -0.490 OA
ENDROOT
BRANCH   1   2
ATOM      2  C   UNL     1      -4.514  -3.875   2.127  1.00  0.00     0.155 A 
ATOM      3  C   UNL     1      -3.494  -1.726   1.778  1.00  0.00     0.063 A 
ATOM      4  C   UNL     1      -2.315  -2.355   1.369  1.00  0.00     0.019 A 
ATOM      5  C   UNL     1      -4.596  -2.496   2.157  1.00  0.00     0.065 A 
ATOM      6  C   UNL     1      -2.241  -3.732   1.348  1.00  0.00     0.044 A 
ATOM      7  C   UNL     1      -3.334  -4.494   1.729  1.00  0.00     0.165 A 
ATOM      8  F   UNL     1      -3.255  -5.842   1.706  1.00  0.00    -0.203 F 
BRANCH   3   9
ATOM      9  C   UNL     1      -3.577  -0.252   1.803  1.00  0.00     0.335 C 
ATOM     10  O   UNL     1      -4.483   0.315   1.229  1.00  0.00    -0.246 OA
BRANCH   9  11
ATOM     11  O   UNL     1      -2.649   0.463   2.468  1.00  0.00    -0.478 OA
ATOM     12  H   UNL     1      -1.723   0.306   2.235  1.00  0.00     0.297 HD
ENDBRANCH   9  11
ENDBRANCH   3   9
ENDBRANCH   1   2
BRANCH   1  13
ATOM     13  C   UNL     1      -6.572  -4.890   1.502  1.00  0.00     0.230 C 
BRANCH  13  14
ATOM     14  C   UNL     1      -7.950  -4.974   2.161  1.00  0.00     0.046 C 
BRANCH  14  15
ATOM     15  C   UNL     1      -7.945  -4.165   3.460  1.00  0.00     0.043 C 
BRANCH  15  16
ATOM     16  C   UNL     1      -9.273  -4.319   4.154  1.00  0.00    -0.004 A 
ATOM     17  C   UNL     1      -9.583  -5.255   5.081  1.00  0.00     0.036 A 
ATOM     18  C   UNL     1     -10.402  -3.515   3.960  1.00  0.00     0.063 A 
ATOM     19  N   UNL     1     -10.864  -5.056   5.455  1.00  0.00    -0.282 N 
ATOM     20  N   UNL     1     -11.358  -3.960   4.734  1.00  0.00    -0.181 NA
ATOM     21  C   UNL     1      -8.663  -6.328   5.602  1.00  0.00     0.066 C 
ATOM     22  C   UNL     1     -10.502  -2.346   3.014  1.00  0.00     0.069 C 
ATOM     23  H   UNL     1     -11.357  -5.578   6.106  1.00  0.00     0.190 HD
ENDBRANCH  15  16
ENDBRANCH  14  15
ENDBRANCH  13  14
ENDBRANCH   1  13
TORSDOF 7
ENDMDL
MODEL 4
REMARK VINA RESULT:    -5.077      7.844     11.044
REMARK INTER + INTRA:          -7.651
REMARK INTER:                  -6.779
REMARK INTRA:                  -0.873
REMARK UNBOUND:                -0.645
REMARK SMILES Cc1n[nH]c(C)c1CCCOc1cc(C(=O)O)ccc1F
REMARK SMILES IDX 11 1 12 2 14 3 18 4 13 5 19 6 20 7 21 8 15 9 16 10 17 11
REMARK SMILES IDX 10 13 9 14 8 15 7 16 5 17 2 18 4 19 3 20 6 21 1 22
REMARK H PARENT 17 12 4 23
ROOT
ATOM      1  O   UNL     1     -11.161  -7.042  11.232  1.00  0.00    -0.490 OA
ENDROOT
BRANCH   1   2
ATOM      2  C   UNL     1     -11.395  -8.328  11.604  1.00  0.00     0.155 A 
ATOM      3  C   UNL     1     -10.701 -10.628  11.717  1.00  0.00     0.063 A 
ATOM      4  C   UNL     1     -11.889 -10.950  12.380  1.00  0.00     0.019 A 
ATOM      5  C   UNL     1     -10.459  -9.308  11.330  1.00  0.00     0.065 A 
ATOM      6  C   UNL     1     -12.814  -9.964  12.654  1.00  0.00     0.044 A 
ATOM      7  C   UNL     1     -12.569  -8.655  12.273  1.00  0.00     0.165 A 
ATOM      8  F   UNL     1     -13.479  -7.694  12.545  1.00  0.00    -0.203 F 
BRANCH   3   9
ATOM      9  C   UNL     1      -9.709 -11.680  11.422  1.00  0.00     0.335 C 
ATOM     10  O   UNL     1      -9.919 -12.482  10.535  1.00  0.00    -0.246 OA
BRANCH   9  11
ATOM     11  O   UNL     1      -8.567 -11.747  12.134  1.00  0.00    -0.478 OA
ATOM     12  H   UNL     1      -7.801 -12.149  11.700  1.00  0.00     0.297 HD
ENDBRANCH   9  11
ENDBRANCH   3   9
ENDBRANCH   1   2
BRANCH   1  13
ATOM     13  C   UNL     1      -9.802  -6.677  10.980  1.00  0.00     0.230 C 
BRANCH  13  14
ATOM     14  C   UNL     1      -9.692  -6.054   9.588  1.00  0.00     0.046 C 
BRANCH  14  15
ATOM     15  C   UNL     1      -9.745  -7.158   8.529  1.00  0.00     0.043 C 
BRANCH  15  16
ATOM     16  C   UNL     1     -10.543  -6.680   7.344  1.00  0.00    -0.004 A 
ATOM     17  C   UNL     1     -10.041  -6.121   6.218  1.00  0.00     0.036 A 
ATOM     18  C   UNL     1     -11.934  -6.743   7.209  1.00  0.00     0.063 A 
ATOM     19  N   UNL     1     -11.077  -5.834   5.404  1.00  0.00    -0.282 N 
ATOM     20  N   UNL     1     -12.256  -6.230   6.050  1.00  0.00    -0.181 NA
ATOM     21  C   UNL     1      -8.585  -5.866   5.927  1.00  0.00     0.066 C 
ATOM     22  C   UNL     1     -12.897  -7.295   8.229  1.00  0.00     0.069 C 
ATOM     23  H   UNL     1     -11.017  -5.425   4.526  1.00  0.00     0.190 HD
ENDBRANCH  15  16
ENDBRANCH  14  15
ENDBRANCH  13  14
ENDBRANCH   1  13
TORSDOF 7
ENDMDL
MODEL 5
REMARK VINA RESULT:    -4.747      3.725      6.618
REMARK INTER + INTRA:          -7.195
REMARK INTER:                  -6.358
REMARK INTRA:                  -0.838
REMARK UNBOUND:                -0.645
REMARK SMILES Cc1n[nH]c(C)c1CCCOc1cc(C(=O)O)ccc1F
REMARK SMILES IDX 11 1 12 2 14 3 18 4 13 5 19 6 20 7 21 8 15 9 16 10 17 11
REMARK SMILES IDX 10 13 9 14 8 15 7 16 5 17 2 18 4 19 3 20 6 21 1 22
REMARK H PARENT 17 12 4 23
ROOT
ATOM      1  O   UNL     1      -7.060  -2.416   2.706  1.00  0.00    -0.490 OA
ENDROOT
BRANCH   1   2
ATOM      2  C   UNL     1      -8.123  -3.011   3.309  1.00  0.00     0.155 A 
ATOM      3  C   UNL     1      -9.022  -4.708   4.756  1.00  0.00     0.063 A 
ATOM      4  C   UNL     1     -10.308  -4.205   4.540  1.00  0.00     0.019 A 
ATOM      5  C   UNL     1      -7.928  -4.103   4.135  1.00  0.00     0.065 A 
ATOM      6  C   UNL     1     -10.492  -3.112   3.720  1.00  0.00     0.044 A 
ATOM      7  C   UNL     1      -9.405  -2.510   3.108  1.00  0.00     0.165 A 
ATOM      8  F   UNL     1      -9.592  -1.440   2.306  1.00  0.00    -0.203 F 
BRANCH   3   9
ATOM      9  C   UNL     1      -8.822  -5.877   5.634  1.00  0.00     0.335 C 
ATOM     10  O   UNL     1      -8.798  -6.995   5.161  1.00  0.00    -0.246 OA
BRANCH   9  11
ATOM     11  O   UNL     1      -8.659  -5.704   6.960  1.00  0.00    -0.478 OA
ATOM     12  H   UNL     1      -7.791  -5.919   7.328  1.00  0.00     0.297 HD
ENDBRANCH   9  11
ENDBRANCH   3   9
ENDBRANCH   1   2
BRANCH   1  13
ATOM     13  C   UNL     1      -5.869  -2.273   3.485  1.00  0.00     0.230 C 
BRANCH  13  14
ATOM     14  C   UNL     1      -4.737  -1.758   2.594  1.00  0.00     0.046 C 
BRANCH  14  15
ATOM     15  C   UNL     1      -4.873  -2.363   1.195  1.00  0.00     0.043 C 
BRANCH  15  16
ATOM     16  C   UNL     1      -4.115  -3.664   1.133  1.00  0.00    -0.004 A 
ATOM     17  C   UNL     1      -2.771  -3.805   1.196  1.00  0.00     0.036 A 
ATOM     18  C   UNL     1      -4.676  -4.939   1.007  1.00  0.00     0.063 A 
ATOM     19  N   UNL     1      -2.491  -5.123   1.106  1.00  0.00    -0.282 N 
ATOM     20  N   UNL     1      -3.704  -5.813   0.984  1.00  0.00    -0.181 NA
ATOM     21  C   UNL     1      -1.766  -2.692   1.341  1.00  0.00     0.066 C 
ATOM     22  C   UNL     1      -6.148  -5.250   0.903  1.00  0.00     0.069 C 
ATOM     23  H   UNL     1      -1.607  -5.521   1.122  1.00  0.00     0.190 HD
ENDBRANCH  15  16
ENDBRANCH  14  15
ENDBRANCH  13  14
ENDBRANCH   1  13
TORSDOF 7
ENDMDL
MODEL 6
REMARK VINA RESULT:    -4.707      3.778      7.143
REMARK INTER + INTRA:          -7.140
REMARK INTER:                  -6.297
REMARK INTRA:                  -0.843
REMARK UNBOUND:                -0.645
REMARK SMILES Cc1n[nH]c(C)c1CCCOc1cc(C(=O)O)ccc1F
REMARK SMILES IDX 11 1 12 2 14 3 18 4 13 5 19 6 20 7 21 8 15 9 16 10 17 11
REMARK SMILES IDX 10 13 9 14 8 15 7 16 5 17 2 18 4 19 3 20 6 21 1 22
REMARK H PARENT 17 12 4 23
ROOT
ATOM      1  O   UNL     1      -6.490  -4.518   3.340  1.00  0.00    -0.490 OA
ENDROOT
BRANCH   1   2
ATOM      2  C   UNL     1      -7.788  -4.282   3.667  1.00  0.00     0.155 A 
ATOM      3  C   UNL     1      -9.822  -3.036   3.369  1.00  0.00     0.063 A 
ATOM      4  C   UNL     1     -10.443  -3.823   4.342  1.00  0.00     0.019 A 
ATOM      5  C   UNL     1      -8.487  -3.272   3.034  1.00  0.00     0.065 A 
ATOM      6  C   UNL     1      -9.739  -4.833   4.963  1.00  0.00     0.044 A 
ATOM      7  C   UNL     1      -8.417  -5.069   4.626  1.00  0.00     0.165 A 
ATOM      8  F   UNL     1      -7.733  -6.060   5.239  1.00  0.00    -0.203 F 
BRANCH   3   9
ATOM      9  C   UNL     1     -10.573  -1.954   2.702  1.00  0.00     0.335 C 
ATOM     10  O   UNL     1     -11.171  -2.177   1.669  1.00  0.00    -0.246 OA
BRANCH   9  11
ATOM     11  O   UNL     1     -10.600  -0.720   3.242  1.00  0.00    -0.478 OA
ATOM     12  H   UNL     1      -9.778  -0.211   3.215  1.00  0.00     0.297 HD
ENDBRANCH   9  11
ENDBRANCH   3   9
ENDBRANCH   1   2
BRANCH   1  13
ATOM     13  C   UNL     1      -6.142  -4.426   1.957  1.00  0.00     0.230 C 
BRANCH  13  14
ATOM     14  C   UNL     1      -4.622  -4.518   1.806  1.00  0.00     0.046 C 
BRANCH  14  15
ATOM     15  C   UNL     1      -3.949  -3.849   3.007  1.00  0.00     0.043 C 
BRANCH  15  16
ATOM     16  C   UNL     1      -3.698  -2.396   2.698  1.00  0.00    -0.004 A 
ATOM     17  C   UNL     1      -2.820  -1.916   1.786  1.00  0.00     0.036 A 
ATOM     18  C   UNL     1      -4.334  -1.304   3.297  1.00  0.00     0.063 A 
ATOM     19  N   UNL     1      -2.894  -0.569   1.813  1.00  0.00    -0.282 N 
ATOM     20  N   UNL     1      -3.848  -0.209   2.773  1.00  0.00    -0.181 NA
ATOM     21  C   UNL     1      -1.922  -2.739   0.900  1.00  0.00     0.066 C 
ATOM     22  C   UNL     1      -5.389  -1.377   4.372  1.00  0.00     0.069 C 
ATOM     23  H   UNL     1      -2.377   0.042   1.265  1.00  0.00     0.190 HD
ENDBRANCH  15  16
ENDBRANCH  14  15
ENDBRANCH  13  14
ENDBRANCH   1  13
TORSDOF 7
ENDMDL
MODEL 7
REMARK VINA RESULT:    -4.598      3.751      6.639
REMARK INTER + INTRA:          -6.990
REMARK INTER:                  -6.132
REMARK INTRA:                  -0.858
REMARK UNBOUND:                -0.645
REMARK SMILES Cc1n[nH]c(C)c1CCCOc1cc(C(=O)O)ccc1F
REMARK SMILES IDX 11 1 12 2 14 3 18 4 13 5 19 6 20 7 21 8 15 9 16 10 17 11
REMARK SMILES IDX 10 13 9 14 8 15 7 16 5 17 2 18 4 19 3 20 6 21 1 22
REMARK H PARENT 17 12 4 23
ROOT
ATOM      1  O   UNL     1      -7.130  -2.525   2.721  1.00  0.00    -0.490 OA
ENDROOT
BRANCH   1   2
ATOM      2  C   UNL     1      -8.199  -3.099   3.334  1.00  0.00     0.155 A 
ATOM      3  C   UNL     1      -9.116  -4.766   4.803  1.00  0.00     0.063 A 
ATOM      4  C   UNL     1     -10.397  -4.251   4.583  1.00  0.00     0.019 A 
ATOM      5  C   UNL     1      -8.016  -4.182   4.172  1.00  0.00     0.065 A 
ATOM      6  C   UNL     1     -10.568  -3.165   3.750  1.00  0.00     0.044 A 
ATOM      7  C   UNL     1      -9.475  -2.585   3.129  1.00  0.00     0.165 A 
ATOM      8  F   UNL     1      -9.650  -1.522   2.313  1.00  0.00    -0.203 F 
BRANCH   3   9
ATOM      9  C   UNL     1      -8.929  -5.927   5.695  1.00  0.00     0.335 C 
ATOM     10  O   UNL     1      -7.833  -6.439   5.805  1.00  0.00    -0.246 OA
BRANCH   9  11
ATOM     11  O   UNL     1      -9.973  -6.416   6.393  1.00  0.00    -0.478 OA
ATOM     12  H   UNL     1     -10.780  -6.611   5.897  1.00  0.00     0.297 HD
ENDBRANCH   9  11
ENDBRANCH   3   9
ENDBRANCH   1   2
BRANCH   1  13
ATOM     13  C   UNL     1      -5.999  -2.221   3.541  1.00  0.00     0.230 C 
BRANCH  13  14
ATOM     14  C   UNL     1      -4.823  -1.807   2.655  1.00  0.00     0.046 C 
BRANCH  14  15
ATOM     15  C   UNL     1      -4.985  -2.433   1.268  1.00  0.00     0.043 C 
BRANCH  15  16
ATOM     16  C   UNL     1      -4.193  -3.712   1.196  1.00  0.00    -0.004 A 
ATOM     17  C   UNL     1      -4.703  -4.959   1.070  1.00  0.00     0.036 A 
ATOM     18  C   UNL     1      -2.799  -3.821   1.243  1.00  0.00     0.063 A 
ATOM     19  N   UNL     1      -3.669  -5.826   1.044  1.00  0.00    -0.282 N 
ATOM     20  N   UNL     1      -2.484  -5.088   1.158  1.00  0.00    -0.181 NA
ATOM     21  C   UNL     1      -6.164  -5.315   0.975  1.00  0.00     0.066 C 
ATOM     22  C   UNL     1      -1.827  -2.676   1.378  1.00  0.00     0.069 C 
ATOM     23  H   UNL     1      -3.735  -6.790   0.962  1.00  0.00     0.190 HD
ENDBRANCH  15  16
ENDBRANCH  14  15
ENDBRANCH  13  14
ENDBRANCH   1  13
TORSDOF 7
ENDMDL
MODEL 8
REMARK VINA RESULT:    -4.557      3.784      7.138
REMARK INTER + INTRA:          -6.933
REMARK INTER:                  -6.101
REMARK INTRA:                  -0.832
REMARK UNBOUND:                -0.645
REMARK SMILES Cc1n[nH]c(C)c1CCCOc1cc(C(=O)O)ccc1F
REMARK SMILES IDX 11 1 12 2 14 3 18 4 13 5 19 6 20 7 21 8 15 9 16 10 17 11
REMARK SMILES IDX 10 13 9 14 8 15 7 16 5 17 2 18 4 19 3 20 6 21 1 22
REMARK H PARENT 17 12 4 23
ROOT
ATOM      1  O   UNL     1      -6.488  -4.522   3.269  1.00  0.00    -0.490 OA
ENDROOT
BRANCH   1   2
ATOM      2  C   UNL     1      -7.781  -4.264   3.599  1.00  0.00     0.155 A 
ATOM      3  C   UNL     1      -9.804  -3.002   3.285  1.00  0.00     0.063 A 
ATOM      4  C   UNL     1     -10.427  -3.760   4.280  1.00  0.00     0.019 A 
ATOM      5  C   UNL     1      -8.474  -3.261   2.947  1.00  0.00     0.065 A 
ATOM      6  C   UNL     1      -9.729  -4.763   4.921  1.00  0.00     0.044 A 
ATOM      7  C   UNL     1      -8.412  -5.021   4.580  1.00  0.00     0.165 A 
ATOM      8  F   UNL     1      -7.735  -6.005   5.211  1.00  0.00    -0.203 F 
BRANCH   3   9
ATOM      9  C   UNL     1     -10.547  -1.928   2.598  1.00  0.00     0.335 C 
ATOM     10  O   UNL     1     -10.530  -0.798   3.040  1.00  0.00    -0.246 OA
BRANCH   9  11
ATOM     11  O   UNL     1     -11.240  -2.201   1.474  1.00  0.00    -0.478 OA
ATOM     12  H   UNL     1     -10.749  -2.186   0.641  1.00  0.00     0.297 HD
ENDBRANCH   9  11
ENDBRANCH   3   9
ENDBRANCH   1   2
BRANCH   1  13
ATOM     13  C   UNL     1      -6.193  -4.688   1.880  1.00  0.00     0.230 C 
BRANCH  13  14
ATOM     14  C   UNL     1      -4.699  -4.460   1.645  1.00  0.00     0.046 C 
BRANCH  14  15
ATOM     15  C   UNL     1      -4.078  -3.827   2.892  1.00  0.00     0.043 C 
BRANCH  15  16
ATOM     16  C   UNL     1      -3.776  -2.376   2.622  1.00  0.00    -0.004 A 
ATOM     17  C   UNL     1      -4.365  -1.315   3.221  1.00  0.00     0.036 A 
ATOM     18  C   UNL     1      -2.832  -1.886   1.713  1.00  0.00     0.063 A 
ATOM     19  N   UNL     1      -3.819  -0.194   2.704  1.00  0.00    -0.282 N 
ATOM     20  N   UNL     1      -2.862  -0.579   1.756  1.00  0.00    -0.181 NA
ATOM     21  C   UNL     1      -5.439  -1.375   4.277  1.00  0.00     0.066 C 
ATOM     22  C   UNL     1      -1.944  -2.721   0.826  1.00  0.00     0.069 C 
ATOM     23  H   UNL     1      -4.049   0.716   2.946  1.00  0.00     0.190 HD
ENDBRANCH  15  16
ENDBRANCH  14  15
ENDBRANCH  13  14
ENDBRANCH   1  13
TORSDOF 7
ENDMDL
MODEL 9
REMARK VINA RESULT:    -4.378      4.067      7.048
REMARK INTER + INTRA:          -6.687
REMARK INTER:                  -6.314
REMARK INTRA:                  -0.373
REMARK UNBOUND:                -0.645
REMARK SMILES Cc1n[nH]c(C)c1CCCOc1cc(C(=O)O)ccc1F
REMARK SMILES IDX 11 1 12 2 14 3 18 4 13 5 19 6 20 7 21 8 15 9 16 10 17 11
REMARK SMILES IDX 10 13 9 14 8 15 7 16 5 17 2 18 4 19 3 20 6 21 1 22
REMARK H PARENT 17 12 4 23
ROOT
ATOM      1  O   UNL     1      -7.252  -2.034   3.367  1.00  0.00    -0.490 OA
ENDROOT
BRANCH   1   2
ATOM      2  C   UNL     1      -8.303  -2.803   3.756  1.00  0.00     0.155 A 
ATOM      3  C   UNL     1      -9.164  -4.754   4.867  1.00  0.00     0.063 A 
ATOM      4  C   UNL     1     -10.466  -4.355   4.551  1.00  0.00     0.019 A 
ATOM      5  C   UNL     1      -8.082  -3.969   4.465  1.00  0.00     0.065 A 
ATOM      6  C   UNL     1     -10.677  -3.187   3.849  1.00  0.00     0.044 A 
ATOM      7  C   UNL     1      -9.602  -2.408   3.455  1.00  0.00     0.165 A 
ATOM      8  F   UNL     1      -9.816  -1.265   2.767  1.00  0.00    -0.203 F 
BRANCH   3   9
ATOM      9  C   UNL     1      -8.934  -6.003   5.619  1.00  0.00     0.335 C 
ATOM     10  O   UNL     1      -9.073  -7.077   5.070  1.00  0.00    -0.246 OA
BRANCH   9  11
ATOM     11  O   UNL     1      -8.564  -5.951   6.914  1.00  0.00    -0.478 OA
ATOM     12  H   UNL     1      -7.921  -6.609   7.213  1.00  0.00     0.297 HD
ENDBRANCH   9  11
ENDBRANCH   3   9
ENDBRANCH   1   2
BRANCH   1  13
ATOM     13  C   UNL     1      -6.266  -1.733   4.357  1.00  0.00     0.230 C 
BRANCH  13  14
ATOM     14  C   UNL     1      -4.908  -2.273   3.905  1.00  0.00     0.046 C 
BRANCH  14  15
ATOM     15  C   UNL     1      -4.999  -2.721   2.444  1.00  0.00     0.043 C 
BRANCH  15  16
ATOM     16  C   UNL     1      -3.627  -2.693   1.823  1.00  0.00    -0.004 A 
ATOM     17  C   UNL     1      -2.940  -1.585   1.458  1.00  0.00     0.036 A 
ATOM     18  C   UNL     1      -2.833  -3.806   1.528  1.00  0.00     0.063 A 
ATOM     19  N   UNL     1      -1.758  -1.984   0.944  1.00  0.00    -0.282 N 
ATOM     20  N   UNL     1      -1.716  -3.383   0.995  1.00  0.00    -0.181 NA
ATOM     21  C   UNL     1      -3.412  -0.161   1.600  1.00  0.00     0.066 C 
ATOM     22  C   UNL     1      -3.206  -5.247   1.771  1.00  0.00     0.069 C 
ATOM     23  H   UNL     1      -1.061  -1.404   0.599  1.00  0.00     0.190 HD
ENDBRANCH  15  16
ENDBRANCH  14  15
ENDBRANCH  13  14
ENDBRANCH   1  13
TORSDOF 7
ENDMDL
