MODEL 1
REMARK VINA RESULT:    -4.439      0.000      0.000
REMARK INTER + INTRA:          -5.371
REMARK INTER:                  -5.087
REMARK INTRA:                  -0.284
REMARK UNBOUND:                -0.284
REMARK SMILES O=C(O)c1ccc2nc(-c3cc(Cl)cc(Cl)c3)oc2c1
REMARK SMILES IDX 5 1 6 2 20 3 8 4 18 5 4 6 9 7 7 8 19 9 2 10 1 11 3 12 10 14
REMARK SMILES IDX 11 15 17 16 12 17 15 18 14 19 13 20 16 21
REMARK H PARENT 3 13
ROOT
ATOM      1  C   UNL     1     -11.931  -7.941   8.830  1.00  0.00     0.018 A 
ATOM      2  C   UNL     1     -12.109  -7.275   7.655  1.00  0.00     0.033 A 
ATOM      3  C   UNL     1      -9.600  -7.274   8.882  1.00  0.00     0.065 A 
ATOM      4  N   UNL     1     -10.909  -5.865   5.936  1.00  0.00    -0.209 NA
ATOM      5  O   UNL     1      -8.956  -5.873   6.896  1.00  0.00    -0.436 OA
ATOM      6  C   UNL     1     -10.678  -7.948   9.458  1.00  0.00     0.063 A 
ATOM      7  C   UNL     1      -9.674  -5.439   5.842  1.00  0.00     0.227 A 
ATOM      8  C   UNL     1     -11.037  -6.594   7.065  1.00  0.00     0.110 A 
ATOM      9  C   UNL     1      -9.776  -6.601   7.687  1.00  0.00     0.156 A 
ENDROOT
BRANCH   6  10
ATOM     10  C   UNL     1     -10.498  -8.668  10.732  1.00  0.00     0.335 C 
ATOM     11  O   UNL     1     -10.858  -8.157  11.774  1.00  0.00    -0.246 OA
BRANCH  10  12
ATOM     12  O   UNL     1      -9.935  -9.892  10.742  1.00  0.00    -0.478 OA
ATOM     13  H   UNL     1      -9.177 -10.022  11.327  1.00  0.00     0.297 HD
ENDBRANCH  10  12
ENDBRANCH   6  10
BRANCH   7  14
ATOM     14  C   UNL     1      -9.146  -4.608   4.741  1.00  0.00     0.040 A 
ATOM     15  C   UNL     1      -7.827  -4.766   4.313  1.00  0.00     0.034 A 
ATOM     16  C   UNL     1      -9.965  -3.660   4.125  1.00  0.00     0.034 A 
ATOM     17  C   UNL     1      -7.340  -3.986   3.283  1.00  0.00     0.043 A 
ATOM     18  C   UNL     1      -9.466  -2.886   3.095  1.00  0.00     0.043 A 
ATOM     19  C   UNL     1      -8.157  -3.048   2.676  1.00  0.00     0.041 A 
ATOM     20  Cl  UNL     1      -5.700  -4.181   2.748  1.00  0.00    -0.084 Cl
ATOM     21  Cl  UNL     1     -10.483  -1.707   2.327  1.00  0.00    -0.084 Cl
ENDBRANCH   7  14
TORSDOF 3
ENDMDL
MODEL 2
REMARK VINA RESULT:    -4.418      0.082      2.020
REMARK INTER + INTRA:          -5.347
REMARK INTER:                  -5.063
REMARK INTRA:                  -0.285
REMARK UNBOUND:                -0.284
REMARK SMILES O=C(O)c1ccc2nc(-c3cc(Cl)cc(Cl)c3)oc2c1
REMARK SMILES IDX 5 1 6 2 20 3 8 4 18 5 4 6 9 7 7 8 19 9 2 10 1 11 3 12 10 14
REMARK SMILES IDX 11 15 17 16 12 17 15 18 14 19 13 20 16 21
REMARK H PARENT 3 13
ROOT
ATOM      1  C   UNL     1     -11.944  -7.976   8.869  1.00  0.00     0.018 A 
ATOM      2  C   UNL     1     -12.119  -7.301   7.699  1.00  0.00     0.033 A 
ATOM      3  C   UNL     1      -9.607  -7.330   8.921  1.00  0.00     0.065 A 
ATOM      4  N   UNL     1     -10.910  -5.890   5.987  1.00  0.00    -0.209 NA
ATOM      5  O   UNL     1      -8.955  -5.922   6.943  1.00  0.00    -0.436 OA
ATOM      6  C   UNL     1     -10.690  -7.998   9.496  1.00  0.00     0.063 A 
ATOM      7  C   UNL     1      -9.671  -5.475   5.893  1.00  0.00     0.227 A 
ATOM      8  C   UNL     1     -11.042  -6.626   7.112  1.00  0.00     0.110 A 
ATOM      9  C   UNL     1      -9.780  -6.647   7.731  1.00  0.00     0.156 A 
ENDROOT
BRANCH   6  10
ATOM     10  C   UNL     1     -10.514  -8.727  10.765  1.00  0.00     0.335 C 
ATOM     11  O   UNL     1     -10.848  -8.212  11.813  1.00  0.00    -0.246 OA
BRANCH  10  12
ATOM     12  O   UNL     1      -9.982  -9.966  10.763  1.00  0.00    -0.478 OA
ATOM     13  H   UNL     1     -10.372 -10.611  10.158  1.00  0.00     0.297 HD
ENDBRANCH  10  12
ENDBRANCH   6  10
BRANCH   7  14
ATOM     14  C   UNL     1      -9.138  -4.641   4.796  1.00  0.00     0.040 A 
ATOM     15  C   UNL     1      -9.968  -3.731   4.141  1.00  0.00     0.034 A 
ATOM     16  C   UNL     1      -7.801  -4.763   4.410  1.00  0.00     0.034 A 
ATOM     17  C   UNL     1      -9.463  -2.953   3.117  1.00  0.00     0.043 A 
ATOM     18  C   UNL     1      -7.309  -3.980   3.385  1.00  0.00     0.043 A 
ATOM     19  C   UNL     1      -8.137  -3.078   2.739  1.00  0.00     0.041 A 
ATOM     20  Cl  UNL     1     -10.493  -1.819   2.301  1.00  0.00    -0.084 Cl
ATOM     21  Cl  UNL     1      -5.647  -4.129   2.904  1.00  0.00    -0.084 Cl
ENDBRANCH   7  14
TORSDOF 3
ENDMDL
MODEL 3
REMARK VINA RESULT:    -4.383      5.136      6.765
REMARK INTER + INTRA:          -5.308
REMARK INTER:                  -5.012
REMARK INTRA:                  -0.296
REMARK UNBOUND:                -0.284
REMARK SMILES O=C(O)c1ccc2nc(-c3cc(Cl)cc(Cl)c3)oc2c1
REMARK SMILES IDX 5 1 6 2 20 3 8 4 18 5 4 6 9 7 7 8 19 9 2 10 1 11 3 12 10 14
REMARK SMILES IDX 11 15 17 16 12 17 15 18 14 19 13 20 16 21
REMARK H PARENT 3 13
ROOT
ATOM      1  C   UNL     1     -10.661  -4.055   4.592  1.00  0.00     0.018 A 
ATOM      2  C   UNL     1      -9.403  -4.575   4.539  1.00  0.00     0.033 A 
ATOM      3  C   UNL     1     -10.005  -2.256   3.104  1.00  0.00     0.065 A 
ATOM      4  N   UNL     1      -7.117  -4.218   3.526  1.00  0.00    -0.209 NA
ATOM      5  O   UNL     1      -7.592  -2.409   2.415  1.00  0.00    -0.436 OA
ATOM      6  C   UNL     1     -10.979  -2.892   3.876  1.00  0.00     0.063 A 
ATOM      7  C   UNL     1      -6.634  -3.303   2.723  1.00  0.00     0.227 A 
ATOM      8  C   UNL     1      -8.417  -3.947   3.769  1.00  0.00     0.110 A 
ATOM      9  C   UNL     1      -8.726  -2.778   3.051  1.00  0.00     0.156 A 
ENDROOT
BRANCH   6  10
ATOM     10  C   UNL     1     -12.345  -2.341   3.936  1.00  0.00     0.335 C 
ATOM     11  O   UNL     1     -12.595  -1.278   3.405  1.00  0.00    -0.246 OA
BRANCH  10  12
ATOM     12  O   UNL     1     -13.317  -3.017   4.581  1.00  0.00    -0.478 OA
ATOM     13  H   UNL     1     -13.171  -3.208   5.518  1.00  0.00     0.297 HD
ENDBRANCH  10  12
ENDBRANCH   6  10
BRANCH   7  14
ATOM     14  C   UNL     1      -5.242  -3.259   2.228  1.00  0.00     0.040 A 
ATOM     15  C   UNL     1      -4.657  -2.038   1.889  1.00  0.00     0.034 A 
ATOM     16  C   UNL     1      -4.508  -4.439   2.097  1.00  0.00     0.034 A 
ATOM     17  C   UNL     1      -3.356  -2.004   1.429  1.00  0.00     0.043 A 
ATOM     18  C   UNL     1      -3.208  -4.392   1.636  1.00  0.00     0.043 A 
ATOM     19  C   UNL     1      -2.633  -3.178   1.301  1.00  0.00     0.041 A 
ATOM     20  Cl  UNL     1      -2.625  -0.487   1.008  1.00  0.00    -0.084 Cl
ATOM     21  Cl  UNL     1      -2.292  -5.858   1.472  1.00  0.00    -0.084 Cl
ENDBRANCH   7  14
TORSDOF 3
ENDMDL
MODEL 4
REMARK VINA RESULT:    -4.383      5.133      6.609
REMARK INTER + INTRA:          -5.307
REMARK INTER:                  -5.011
REMARK INTRA:                  -0.296
REMARK UNBOUND:                -0.284
REMARK SMILES O=C(O)c1ccc2nc(-c3cc(Cl)cc(Cl)c3)oc2c1
REMARK SMILES IDX 5 1 6 2 20 3 8 4 18 5 4 6 9 7 7 8 19 9 2 10 1 11 3 12 10 14
REMARK SMILES IDX 11 15 17 16 12 17 15 18 14 19 13 20 16 21
REMARK H PARENT 3 13
ROOT
ATOM      1  C   UNL     1     -10.658  -4.057   4.589  1.00  0.00     0.018 A 
ATOM      2  C   UNL     1      -9.400  -4.578   4.537  1.00  0.00     0.033 A 
ATOM      3  C   UNL     1     -10.004  -2.263   3.095  1.00  0.00     0.065 A 
ATOM      4  N   UNL     1      -7.114  -4.223   3.522  1.00  0.00    -0.209 NA
ATOM      5  O   UNL     1      -7.591  -2.417   2.406  1.00  0.00    -0.436 OA
ATOM      6  C   UNL     1     -10.977  -2.897   3.870  1.00  0.00     0.063 A 
ATOM      7  C   UNL     1      -6.632  -3.310   2.716  1.00  0.00     0.227 A 
ATOM      8  C   UNL     1      -8.414  -3.951   3.765  1.00  0.00     0.110 A 
ATOM      9  C   UNL     1      -8.725  -2.785   3.044  1.00  0.00     0.156 A 
ENDROOT
BRANCH   6  10
ATOM     10  C   UNL     1     -12.343  -2.347   3.929  1.00  0.00     0.335 C 
ATOM     11  O   UNL     1     -12.602  -1.302   3.366  1.00  0.00    -0.246 OA
BRANCH  10  12
ATOM     12  O   UNL     1     -13.305  -3.002   4.609  1.00  0.00    -0.478 OA
ATOM     13  H   UNL     1     -13.280  -2.942   5.573  1.00  0.00     0.297 HD
ENDBRANCH  10  12
ENDBRANCH   6  10
BRANCH   7  14
ATOM     14  C   UNL     1      -5.241  -3.266   2.221  1.00  0.00     0.040 A 
ATOM     15  C   UNL     1      -4.506  -4.445   2.090  1.00  0.00     0.034 A 
ATOM     16  C   UNL     1      -4.655  -2.044   1.883  1.00  0.00     0.034 A 
ATOM     17  C   UNL     1      -3.206  -4.398   1.625  1.00  0.00     0.043 A 
ATOM     18  C   UNL     1      -3.355  -2.010   1.420  1.00  0.00     0.043 A 
ATOM     19  C   UNL     1      -2.632  -3.183   1.292  1.00  0.00     0.041 A 
ATOM     20  Cl  UNL     1      -2.291  -5.863   1.461  1.00  0.00    -0.084 Cl
ATOM     21  Cl  UNL     1      -2.625  -0.491   0.999  1.00  0.00    -0.084 Cl
ENDBRANCH   7  14
TORSDOF 3
ENDMDL
MODEL 5
REMARK VINA RESULT:    -4.309      3.760      5.799
REMARK INTER + INTRA:          -5.222
REMARK INTER:                  -4.926
REMARK INTRA:                  -0.296
REMARK UNBOUND:                -0.284
REMARK SMILES O=C(O)c1ccc2nc(-c3cc(Cl)cc(Cl)c3)oc2c1
REMARK SMILES IDX 5 1 6 2 20 3 8 4 18 5 4 6 9 7 7 8 19 9 2 10 1 11 3 12 10 14
REMARK SMILES IDX 11 15 17 16 12 17 15 18 14 19 13 20 16 21
REMARK H PARENT 3 13
ROOT
ATOM      1  C   UNL     1     -10.757  -3.712   4.292  1.00  0.00     0.018 A 
ATOM      2  C   UNL     1      -9.913  -2.913   3.580  1.00  0.00     0.033 A 
ATOM      3  C   UNL     1      -8.935  -5.229   4.799  1.00  0.00     0.065 A 
ATOM      4  N   UNL     1      -7.509  -2.680   2.838  1.00  0.00    -0.209 NA
ATOM      5  O   UNL     1      -6.756  -4.488   3.786  1.00  0.00    -0.436 OA
ATOM      6  C   UNL     1     -10.281  -4.876   4.911  1.00  0.00     0.063 A 
ATOM      7  C   UNL     1      -6.443  -3.415   3.035  1.00  0.00     0.227 A 
ATOM      8  C   UNL     1      -8.560  -3.256   3.460  1.00  0.00     0.110 A 
ATOM      9  C   UNL     1      -8.075  -4.424   4.074  1.00  0.00     0.156 A 
ENDROOT
BRANCH   6  10
ATOM     10  C   UNL     1     -11.203  -5.729   5.683  1.00  0.00     0.335 C 
ATOM     11  O   UNL     1     -10.777  -6.693   6.285  1.00  0.00    -0.246 OA
BRANCH  10  12
ATOM     12  O   UNL     1     -12.519  -5.439   5.719  1.00  0.00    -0.478 OA
ATOM     13  H   UNL     1     -12.815  -4.831   6.410  1.00  0.00     0.297 HD
ENDBRANCH  10  12
ENDBRANCH   6  10
BRANCH   7  14
ATOM     14  C   UNL     1      -5.096  -3.111   2.510  1.00  0.00     0.040 A 
ATOM     15  C   UNL     1      -4.742  -1.797   2.205  1.00  0.00     0.034 A 
ATOM     16  C   UNL     1      -4.171  -4.140   2.317  1.00  0.00     0.034 A 
ATOM     17  C   UNL     1      -3.481  -1.519   1.715  1.00  0.00     0.043 A 
ATOM     18  C   UNL     1      -2.914  -3.850   1.827  1.00  0.00     0.043 A 
ATOM     19  C   UNL     1      -2.569  -2.544   1.526  1.00  0.00     0.041 A 
ATOM     20  Cl  UNL     1      -3.039   0.116   1.335  1.00  0.00    -0.084 Cl
ATOM     21  Cl  UNL     1      -1.762  -5.127   1.586  1.00  0.00    -0.084 Cl
ENDBRANCH   7  14
TORSDOF 3
ENDMDL
MODEL 6
REMARK VINA RESULT:    -4.298      3.760      5.563
REMARK INTER + INTRA:          -5.210
REMARK INTER:                  -4.914
REMARK INTRA:                  -0.296
REMARK UNBOUND:                -0.284
REMARK SMILES O=C(O)c1ccc2nc(-c3cc(Cl)cc(Cl)c3)oc2c1
REMARK SMILES IDX 5 1 6 2 20 3 8 4 18 5 4 6 9 7 7 8 19 9 2 10 1 11 3 12 10 14
REMARK SMILES IDX 11 15 17 16 12 17 15 18 14 19 13 20 16 21
REMARK H PARENT 3 13
ROOT
ATOM      1  C   UNL     1     -10.757  -3.712   4.291  1.00  0.00     0.018 A 
ATOM      2  C   UNL     1      -9.912  -2.914   3.579  1.00  0.00     0.033 A 
ATOM      3  C   UNL     1      -8.935  -5.228   4.800  1.00  0.00     0.065 A 
ATOM      4  N   UNL     1      -7.509  -2.681   2.837  1.00  0.00    -0.209 NA
ATOM      5  O   UNL     1      -6.756  -4.488   3.788  1.00  0.00    -0.436 OA
ATOM      6  C   UNL     1     -10.281  -4.876   4.911  1.00  0.00     0.063 A 
ATOM      7  C   UNL     1      -6.443  -3.416   3.036  1.00  0.00     0.227 A 
ATOM      8  C   UNL     1      -8.560  -3.256   3.460  1.00  0.00     0.110 A 
ATOM      9  C   UNL     1      -8.075  -4.424   4.075  1.00  0.00     0.156 A 
ENDROOT
BRANCH   6  10
ATOM     10  C   UNL     1     -11.203  -5.728   5.683  1.00  0.00     0.335 C 
ATOM     11  O   UNL     1     -10.777  -6.692   6.286  1.00  0.00    -0.246 OA
BRANCH  10  12
ATOM     12  O   UNL     1     -12.519  -5.437   5.720  1.00  0.00    -0.478 OA
ATOM     13  H   UNL     1     -13.125  -6.169   5.898  1.00  0.00     0.297 HD
ENDBRANCH  10  12
ENDBRANCH   6  10
BRANCH   7  14
ATOM     14  C   UNL     1      -5.095  -3.112   2.511  1.00  0.00     0.040 A 
ATOM     15  C   UNL     1      -4.170  -4.139   2.319  1.00  0.00     0.034 A 
ATOM     16  C   UNL     1      -4.742  -1.796   2.206  1.00  0.00     0.034 A 
ATOM     17  C   UNL     1      -2.912  -3.849   1.827  1.00  0.00     0.043 A 
ATOM     18  C   UNL     1      -3.482  -1.518   1.715  1.00  0.00     0.043 A 
ATOM     19  C   UNL     1      -2.569  -2.541   1.527  1.00  0.00     0.041 A 
ATOM     20  Cl  UNL     1      -1.760  -5.124   1.587  1.00  0.00    -0.084 Cl
ATOM     21  Cl  UNL     1      -3.042   0.118   1.335  1.00  0.00    -0.084 Cl
ENDBRANCH   7  14
TORSDOF 3
ENDMDL
MODEL 7
REMARK VINA RESULT:    -4.175      5.184      8.802
REMARK INTER + INTRA:          -5.068
REMARK INTER:                  -4.770
REMARK INTRA:                  -0.298
REMARK UNBOUND:                -0.284
REMARK SMILES O=C(O)c1ccc2nc(-c3cc(Cl)cc(Cl)c3)oc2c1
REMARK SMILES IDX 5 1 6 2 20 3 8 4 18 5 4 6 9 7 7 8 19 9 2 10 1 11 3 12 10 14
REMARK SMILES IDX 11 15 17 16 12 17 15 18 14 19 13 20 16 21
REMARK H PARENT 3 13
ROOT
ATOM      1  C   UNL     1      -2.634  -3.854   1.890  1.00  0.00     0.018 A 
ATOM      2  C   UNL     1      -3.572  -4.581   2.562  1.00  0.00     0.033 A 
ATOM      3  C   UNL     1      -4.247  -2.084   1.507  1.00  0.00     0.065 A 
ATOM      4  N   UNL     1      -5.982  -4.551   3.318  1.00  0.00    -0.209 NA
ATOM      5  O   UNL     1      -6.501  -2.607   2.489  1.00  0.00    -0.436 OA
ATOM      6  C   UNL     1      -2.958  -2.599   1.357  1.00  0.00     0.063 A 
ATOM      7  C   UNL     1      -6.946  -3.675   3.179  1.00  0.00     0.227 A 
ATOM      8  C   UNL     1      -4.868  -4.077   2.719  1.00  0.00     0.110 A 
ATOM      9  C   UNL     1      -5.202  -2.820   2.183  1.00  0.00     0.156 A 
ENDROOT
BRANCH   6  10
ATOM     10  C   UNL     1      -1.934  -1.819   0.637  1.00  0.00     0.335 C 
ATOM     11  O   UNL     1      -0.855  -2.318   0.389  1.00  0.00    -0.246 OA
BRANCH  10  12
ATOM     12  O   UNL     1      -2.195  -0.553   0.257  1.00  0.00    -0.478 OA
ATOM     13  H   UNL     1      -2.897  -0.088   0.730  1.00  0.00     0.297 HD
ENDBRANCH  10  12
ENDBRANCH   6  10
BRANCH   7  14
ATOM     14  C   UNL     1      -8.319  -3.836   3.701  1.00  0.00     0.040 A 
ATOM     15  C   UNL     1      -8.620  -4.885   4.570  1.00  0.00     0.034 A 
ATOM     16  C   UNL     1      -9.321  -2.939   3.325  1.00  0.00     0.034 A 
ATOM     17  C   UNL     1      -9.904  -5.030   5.055  1.00  0.00     0.043 A 
ATOM     18  C   UNL     1     -10.601  -3.094   3.816  1.00  0.00     0.043 A 
ATOM     19  C   UNL     1     -10.893  -4.137   4.679  1.00  0.00     0.041 A 
ATOM     20  Cl  UNL     1     -10.281  -6.333   6.138  1.00  0.00    -0.084 Cl
ATOM     21  Cl  UNL     1     -11.849  -1.980   3.350  1.00  0.00    -0.084 Cl
ENDBRANCH   7  14
TORSDOF 3
ENDMDL
MODEL 8
REMARK VINA RESULT:    -4.166      5.220      8.964
REMARK INTER + INTRA:          -5.059
REMARK INTER:                  -4.761
REMARK INTRA:                  -0.298
REMARK UNBOUND:                -0.284
REMARK SMILES O=C(O)c1ccc2nc(-c3cc(Cl)cc(Cl)c3)oc2c1
REMARK SMILES IDX 5 1 6 2 20 3 8 4 18 5 4 6 9 7 7 8 19 9 2 10 1 11 3 12 10 14
REMARK SMILES IDX 11 15 17 16 12 17 15 18 14 19 13 20 16 21
REMARK H PARENT 3 13
ROOT
ATOM      1  C   UNL     1      -2.639  -3.860   1.880  1.00  0.00     0.018 A 
ATOM      2  C   UNL     1      -3.586  -4.572   2.553  1.00  0.00     0.033 A 
ATOM      3  C   UNL     1      -4.234  -2.081   1.469  1.00  0.00     0.065 A 
ATOM      4  N   UNL     1      -6.001  -4.514   3.294  1.00  0.00    -0.209 NA
ATOM      5  O   UNL     1      -6.499  -2.575   2.443  1.00  0.00    -0.436 OA
ATOM      6  C   UNL     1      -2.949  -2.607   1.332  1.00  0.00     0.063 A 
ATOM      7  C   UNL     1      -6.957  -3.632   3.140  1.00  0.00     0.227 A 
ATOM      8  C   UNL     1      -4.880  -4.055   2.698  1.00  0.00     0.110 A 
ATOM      9  C   UNL     1      -5.200  -2.802   2.147  1.00  0.00     0.156 A 
ENDROOT
BRANCH   6  10
ATOM     10  C   UNL     1      -1.914  -1.843   0.612  1.00  0.00     0.335 C 
ATOM     11  O   UNL     1      -0.838  -2.354   0.374  1.00  0.00    -0.246 OA
BRANCH  10  12
ATOM     12  O   UNL     1      -2.162  -0.578   0.218  1.00  0.00    -0.478 OA
ATOM     13  H   UNL     1      -2.376   0.063   0.909  1.00  0.00     0.297 HD
ENDBRANCH  10  12
ENDBRANCH   6  10
BRANCH   7  14
ATOM     14  C   UNL     1      -8.334  -3.777   3.655  1.00  0.00     0.040 A 
ATOM     15  C   UNL     1      -9.328  -2.880   3.261  1.00  0.00     0.034 A 
ATOM     16  C   UNL     1      -8.646  -4.812   4.539  1.00  0.00     0.034 A 
ATOM     17  C   UNL     1     -10.613  -3.021   3.745  1.00  0.00     0.043 A 
ATOM     18  C   UNL     1      -9.935  -4.943   5.016  1.00  0.00     0.043 A 
ATOM     19  C   UNL     1     -10.916  -4.050   4.621  1.00  0.00     0.041 A 
ATOM     20  Cl  UNL     1     -11.851  -1.907   3.256  1.00  0.00    -0.084 Cl
ATOM     21  Cl  UNL     1     -10.325  -6.229   6.115  1.00  0.00    -0.084 Cl
ENDBRANCH   7  14
TORSDOF 3
ENDMDL
MODEL 9
REMARK VINA RESULT:    -3.727      3.987      7.989
REMARK INTER + INTRA:          -4.556
REMARK INTER:                  -4.268
REMARK INTRA:                  -0.288
REMARK UNBOUND:                -0.284
REMARK SMILES O=C(O)c1ccc2nc(-c3cc(Cl)cc(Cl)c3)oc2c1
REMARK SMILES IDX 5 1 6 2 20 3 8 4 18 5 4 6 9 7 7 8 19 9 2 10 1 11 3 12 10 14
REMARK SMILES IDX 11 15 17 16 12 17 15 18 14 19 13 20 16 21
REMARK H PARENT 3 13
ROOT
ATOM      1  C   UNL     1      -5.942  -3.750   1.430  1.00  0.00     0.018 A 
ATOM      2  C   UNL     1      -6.769  -4.776   1.777  1.00  0.00     0.033 A 
ATOM      3  C   UNL     1      -6.436  -2.616   3.516  1.00  0.00     0.065 A 
ATOM      4  N   UNL     1      -8.313  -5.590   3.604  1.00  0.00    -0.209 NA
ATOM      5  O   UNL     1      -8.052  -3.901   4.950  1.00  0.00    -0.436 OA
ATOM      6  C   UNL     1      -5.763  -2.660   2.293  1.00  0.00     0.063 A 
ATOM      7  C   UNL     1      -8.665  -5.084   4.760  1.00  0.00     0.227 A 
ATOM      8  C   UNL     1      -7.450  -4.745   3.000  1.00  0.00     0.110 A 
ATOM      9  C   UNL     1      -7.280  -3.653   3.869  1.00  0.00     0.156 A 
ENDROOT
BRANCH   6  10
ATOM     10  C   UNL     1      -4.862  -1.559   1.910  1.00  0.00     0.335 C 
ATOM     11  O   UNL     1      -4.448  -0.791   2.755  1.00  0.00    -0.246 OA
BRANCH  10  12
ATOM     12  O   UNL     1      -4.497  -1.403   0.621  1.00  0.00    -0.478 OA
ATOM     13  H   UNL     1      -3.620  -1.032   0.455  1.00  0.00     0.297 HD
ENDBRANCH  10  12
ENDBRANCH   6  10
BRANCH   7  14
ATOM     14  C   UNL     1      -9.600  -5.719   5.712  1.00  0.00     0.040 A 
ATOM     15  C   UNL     1     -10.938  -5.902   5.365  1.00  0.00     0.034 A 
ATOM     16  C   UNL     1      -9.146  -6.136   6.965  1.00  0.00     0.034 A 
ATOM     17  C   UNL     1     -11.806  -6.497   6.259  1.00  0.00     0.043 A 
ATOM     18  C   UNL     1     -10.023  -6.729   7.851  1.00  0.00     0.043 A 
ATOM     19  C   UNL     1     -11.350  -6.909   7.500  1.00  0.00     0.041 A 
ATOM     20  Cl  UNL     1     -13.472  -6.727   5.829  1.00  0.00    -0.084 Cl
ATOM     21  Cl  UNL     1      -9.461  -7.249   9.410  1.00  0.00    -0.084 Cl
ENDBRANCH   7  14
TORSDOF 3
ENDMDL
