MODEL 1
REMARK VINA RESULT:    -5.320      0.000      0.000
REMARK INTER + INTRA:          -6.393
REMARK INTER:                  -6.098
REMARK INTRA:                  -0.296
REMARK UNBOUND:                -0.296
REMARK SMILES O=C(O)c1ccc2nc(-c3cc(Cl)cc(Cl)c3)oc2c1
REMARK SMILES IDX 5 1 6 2 20 3 8 4 18 5 4 6 9 7 7 8 19 9 2 10 1 11 3 12 10 14
REMARK SMILES IDX 11 15 17 16 12 17 15 18 14 19 13 20 16 21
REMARK H PARENT 3 13
ROOT
ATOM      1  C   UNL     1       3.343  -2.484  -0.265  1.00  0.00     0.018 A 
ATOM      2  C   UNL     1       1.988  -2.612  -0.186  1.00  0.00     0.033 A 
ATOM      3  C   UNL     1       3.115  -0.121  -0.760  1.00  0.00     0.065 A 
ATOM      4  N   UNL     1      -0.172  -1.317  -0.383  1.00  0.00    -0.209 NA
ATOM      5  O   UNL     1       0.713   0.618  -0.834  1.00  0.00    -0.436 OA
ATOM      6  C   UNL     1       3.923  -1.240  -0.551  1.00  0.00     0.063 A 
ATOM      7  C   UNL     1      -0.433  -0.060  -0.643  1.00  0.00     0.227 A 
ATOM      8  C   UNL     1       1.166  -1.498  -0.395  1.00  0.00     0.110 A 
ATOM      9  C   UNL     1       1.740  -0.248  -0.686  1.00  0.00     0.156 A 
ENDROOT
BRANCH   6  10
ATOM     10  C   UNL     1       5.390  -1.113  -0.627  1.00  0.00     0.335 C 
ATOM     11  O   UNL     1       5.924  -0.061  -0.339  1.00  0.00    -0.246 OA
BRANCH  10  12
ATOM     12  O   UNL     1       6.138  -2.163  -1.019  1.00  0.00    -0.478 OA
ATOM     13  H   UNL     1       6.971  -1.966  -1.467  1.00  0.00     0.297 HD
ENDBRANCH  10  12
ENDBRANCH   6  10
BRANCH   7  14
ATOM     14  C   UNL     1      -1.788   0.525  -0.718  1.00  0.00     0.040 A 
ATOM     15  C   UNL     1      -1.951   1.883  -0.994  1.00  0.00     0.034 A 
ATOM     16  C   UNL     1      -2.911  -0.279  -0.511  1.00  0.00     0.034 A 
ATOM     17  C   UNL     1      -3.220   2.424  -1.063  1.00  0.00     0.043 A 
ATOM     18  C   UNL     1      -4.174   0.273  -0.583  1.00  0.00     0.043 A 
ATOM     19  C   UNL     1      -4.329   1.621  -0.857  1.00  0.00     0.041 A 
ATOM     20  Cl  UNL     1      -3.425   4.113  -1.407  1.00  0.00    -0.084 Cl
ATOM     21  Cl  UNL     1      -5.572  -0.726  -0.327  1.00  0.00    -0.084 Cl
ENDBRANCH   7  14
TORSDOF 3
ENDMDL
MODEL 2
REMARK VINA RESULT:    -5.317      3.910      7.420
REMARK INTER + INTRA:          -6.390
REMARK INTER:                  -6.095
REMARK INTRA:                  -0.295
REMARK UNBOUND:                -0.296
REMARK SMILES O=C(O)c1ccc2nc(-c3cc(Cl)cc(Cl)c3)oc2c1
REMARK SMILES IDX 5 1 6 2 20 3 8 4 18 5 4 6 9 7 7 8 19 9 2 10 1 11 3 12 10 14
REMARK SMILES IDX 11 15 17 16 12 17 15 18 14 19 13 20 16 21
REMARK H PARENT 3 13
ROOT
ATOM      1  C   UNL     1      -3.358   0.379  -1.417  1.00  0.00     0.018 A 
ATOM      2  C   UNL     1      -2.431  -0.583  -1.685  1.00  0.00     0.033 A 
ATOM      3  C   UNL     1      -1.692   1.693  -0.244  1.00  0.00     0.065 A 
ATOM      4  N   UNL     1      -0.003  -1.190  -1.344  1.00  0.00    -0.209 NA
ATOM      5  O   UNL     1       0.564   0.583  -0.218  1.00  0.00    -0.436 OA
ATOM      6  C   UNL     1      -3.002   1.528  -0.696  1.00  0.00     0.063 A 
ATOM      7  C   UNL     1       0.988  -0.584  -0.738  1.00  0.00     0.227 A 
ATOM      8  C   UNL     1      -1.113  -0.430  -1.237  1.00  0.00     0.110 A 
ATOM      9  C   UNL     1      -0.749   0.717  -0.509  1.00  0.00     0.156 A 
ENDROOT
BRANCH   6  10
ATOM     10  C   UNL     1      -4.012   2.564  -0.418  1.00  0.00     0.335 C 
ATOM     11  O   UNL     1      -3.681   3.731  -0.343  1.00  0.00    -0.246 OA
BRANCH  10  12
ATOM     12  O   UNL     1      -5.303   2.219  -0.244  1.00  0.00    -0.478 OA
ATOM     13  H   UNL     1      -5.937   2.937  -0.119  1.00  0.00     0.297 HD
ENDBRANCH  10  12
ENDBRANCH   6  10
BRANCH   7  14
ATOM     14  C   UNL     1       2.367  -1.105  -0.641  1.00  0.00     0.040 A 
ATOM     15  C   UNL     1       3.369  -0.332  -0.054  1.00  0.00     0.034 A 
ATOM     16  C   UNL     1       2.673  -2.374  -1.137  1.00  0.00     0.034 A 
ATOM     17  C   UNL     1       4.656  -0.825   0.035  1.00  0.00     0.043 A 
ATOM     18  C   UNL     1       3.963  -2.857  -1.042  1.00  0.00     0.043 A 
ATOM     19  C   UNL     1       4.953  -2.084  -0.459  1.00  0.00     0.041 A 
ATOM     20  Cl  UNL     1       5.904   0.135   0.765  1.00  0.00    -0.084 Cl
ATOM     21  Cl  UNL     1       4.345  -4.435  -1.658  1.00  0.00    -0.084 Cl
ENDBRANCH   7  14
TORSDOF 3
ENDMDL
MODEL 3
REMARK VINA RESULT:    -5.314      0.018      2.020
REMARK INTER + INTRA:          -6.387
REMARK INTER:                  -6.091
REMARK INTRA:                  -0.296
REMARK UNBOUND:                -0.296
REMARK SMILES O=C(O)c1ccc2nc(-c3cc(Cl)cc(Cl)c3)oc2c1
REMARK SMILES IDX 5 1 6 2 20 3 8 4 18 5 4 6 9 7 7 8 19 9 2 10 1 11 3 12 10 14
REMARK SMILES IDX 11 15 17 16 12 17 15 18 14 19 13 20 16 21
REMARK H PARENT 3 13
ROOT
ATOM      1  C   UNL     1       3.331  -2.490  -0.273  1.00  0.00     0.018 A 
ATOM      2  C   UNL     1       1.976  -2.619  -0.202  1.00  0.00     0.033 A 
ATOM      3  C   UNL     1       3.106  -0.122  -0.741  1.00  0.00     0.065 A 
ATOM      4  N   UNL     1      -0.183  -1.322  -0.393  1.00  0.00    -0.209 NA
ATOM      5  O   UNL     1       0.704   0.619  -0.817  1.00  0.00    -0.436 OA
ATOM      6  C   UNL     1       3.913  -1.243  -0.541  1.00  0.00     0.063 A 
ATOM      7  C   UNL     1      -0.444  -0.062  -0.640  1.00  0.00     0.227 A 
ATOM      8  C   UNL     1       1.155  -1.502  -0.401  1.00  0.00     0.110 A 
ATOM      9  C   UNL     1       1.730  -0.249  -0.675  1.00  0.00     0.156 A 
ENDROOT
BRANCH   6  10
ATOM     10  C   UNL     1       5.379  -1.115  -0.610  1.00  0.00     0.335 C 
ATOM     11  O   UNL     1       5.910  -0.056  -0.339  1.00  0.00    -0.246 OA
BRANCH  10  12
ATOM     12  O   UNL     1       6.132  -2.172  -0.974  1.00  0.00    -0.478 OA
ATOM     13  H   UNL     1       5.996  -2.522  -1.864  1.00  0.00     0.297 HD
ENDBRANCH  10  12
ENDBRANCH   6  10
BRANCH   7  14
ATOM     14  C   UNL     1      -1.798   0.524  -0.714  1.00  0.00     0.040 A 
ATOM     15  C   UNL     1      -2.921  -0.277  -0.504  1.00  0.00     0.034 A 
ATOM     16  C   UNL     1      -1.959   1.883  -0.994  1.00  0.00     0.034 A 
ATOM     17  C   UNL     1      -4.184   0.277  -0.573  1.00  0.00     0.043 A 
ATOM     18  C   UNL     1      -3.227   2.425  -1.061  1.00  0.00     0.043 A 
ATOM     19  C   UNL     1      -4.337   1.625  -0.852  1.00  0.00     0.041 A 
ATOM     20  Cl  UNL     1      -5.582  -0.717  -0.312  1.00  0.00    -0.084 Cl
ATOM     21  Cl  UNL     1      -3.429   4.114  -1.410  1.00  0.00    -0.084 Cl
ENDBRANCH   7  14
TORSDOF 3
ENDMDL
MODEL 4
REMARK VINA RESULT:    -5.313      3.908      7.631
REMARK INTER + INTRA:          -6.385
REMARK INTER:                  -6.090
REMARK INTRA:                  -0.295
REMARK UNBOUND:                -0.296
REMARK SMILES O=C(O)c1ccc2nc(-c3cc(Cl)cc(Cl)c3)oc2c1
REMARK SMILES IDX 5 1 6 2 20 3 8 4 18 5 4 6 9 7 7 8 19 9 2 10 1 11 3 12 10 14
REMARK SMILES IDX 11 15 17 16 12 17 15 18 14 19 13 20 16 21
REMARK H PARENT 3 13
ROOT
ATOM      1  C   UNL     1      -3.361   0.381  -1.407  1.00  0.00     0.018 A 
ATOM      2  C   UNL     1      -2.438  -0.586  -1.669  1.00  0.00     0.033 A 
ATOM      3  C   UNL     1      -1.685   1.704  -0.258  1.00  0.00     0.065 A 
ATOM      4  N   UNL     1      -0.009  -1.195  -1.334  1.00  0.00    -0.209 NA
ATOM      5  O   UNL     1       0.568   0.589  -0.230  1.00  0.00    -0.436 OA
ATOM      6  C   UNL     1      -2.998   1.537  -0.702  1.00  0.00     0.063 A 
ATOM      7  C   UNL     1       0.986  -0.585  -0.740  1.00  0.00     0.227 A 
ATOM      8  C   UNL     1      -1.117  -0.431  -1.229  1.00  0.00     0.110 A 
ATOM      9  C   UNL     1      -0.746   0.723  -0.517  1.00  0.00     0.156 A 
ENDROOT
BRANCH   6  10
ATOM     10  C   UNL     1      -4.004   2.579  -0.430  1.00  0.00     0.335 C 
ATOM     11  O   UNL     1      -3.668   3.745  -0.360  1.00  0.00    -0.246 OA
BRANCH  10  12
ATOM     12  O   UNL     1      -5.297   2.240  -0.257  1.00  0.00    -0.478 OA
ATOM     13  H   UNL     1      -5.959   2.791  -0.695  1.00  0.00     0.297 HD
ENDBRANCH  10  12
ENDBRANCH   6  10
BRANCH   7  14
ATOM     14  C   UNL     1       2.365  -1.109  -0.644  1.00  0.00     0.040 A 
ATOM     15  C   UNL     1       2.669  -2.377  -1.139  1.00  0.00     0.034 A 
ATOM     16  C   UNL     1       3.368  -0.336  -0.055  1.00  0.00     0.034 A 
ATOM     17  C   UNL     1       3.959  -2.860  -1.047  1.00  0.00     0.043 A 
ATOM     18  C   UNL     1       4.654  -0.830   0.031  1.00  0.00     0.043 A 
ATOM     19  C   UNL     1       4.950  -2.089  -0.462  1.00  0.00     0.041 A 
ATOM     20  Cl  UNL     1       4.341  -4.437  -1.663  1.00  0.00    -0.084 Cl
ATOM     21  Cl  UNL     1       5.903   0.130   0.763  1.00  0.00    -0.084 Cl
ENDBRANCH   7  14
TORSDOF 3
ENDMDL
MODEL 5
REMARK VINA RESULT:    -4.652     11.065     11.754
REMARK INTER + INTRA:          -5.627
REMARK INTER:                  -5.332
REMARK INTRA:                  -0.296
REMARK UNBOUND:                -0.296
REMARK SMILES O=C(O)c1ccc2nc(-c3cc(Cl)cc(Cl)c3)oc2c1
REMARK SMILES IDX 5 1 6 2 20 3 8 4 18 5 4 6 9 7 7 8 19 9 2 10 1 11 3 12 10 14
REMARK SMILES IDX 11 15 17 16 12 17 15 18 14 19 13 20 16 21
REMARK H PARENT 3 13
ROOT
ATOM      1  C   UNL     1      -0.795  -1.867  13.417  1.00  0.00     0.018 A 
ATOM      2  C   UNL     1      -0.495  -2.507  12.252  1.00  0.00     0.033 A 
ATOM      3  C   UNL     1      -1.381   0.141  12.191  1.00  0.00     0.065 A 
ATOM      4  N   UNL     1      -0.415  -2.196   9.746  1.00  0.00    -0.209 NA
ATOM      5  O   UNL     1      -1.101  -0.132   9.708  1.00  0.00    -0.436 OA
ATOM      6  C   UNL     1      -1.243  -0.539  13.403  1.00  0.00     0.063 A 
ATOM      7  C   UNL     1      -0.697  -1.181   8.967  1.00  0.00     0.227 A 
ATOM      8  C   UNL     1      -0.630  -1.837  11.030  1.00  0.00     0.110 A 
ATOM      9  C   UNL     1      -1.074  -0.503  11.007  1.00  0.00     0.156 A 
ENDROOT
BRANCH   6  10
ATOM     10  C   UNL     1      -1.570   0.141  14.669  1.00  0.00     0.335 C 
ATOM     11  O   UNL     1      -1.810   1.332  14.675  1.00  0.00    -0.246 OA
BRANCH  10  12
ATOM     12  O   UNL     1      -1.601  -0.558  15.821  1.00  0.00    -0.478 OA
ATOM     13  H   UNL     1      -1.545  -1.520  15.753  1.00  0.00     0.297 HD
ENDBRANCH  10  12
ENDBRANCH   6  10
BRANCH   7  14
ATOM     14  C   UNL     1      -0.587  -1.187   7.494  1.00  0.00     0.040 A 
ATOM     15  C   UNL     1      -0.336  -0.000   6.804  1.00  0.00     0.034 A 
ATOM     16  C   UNL     1      -0.733  -2.382   6.786  1.00  0.00     0.034 A 
ATOM     17  C   UNL     1      -0.233  -0.013   5.427  1.00  0.00     0.043 A 
ATOM     18  C   UNL     1      -0.628  -2.382   5.409  1.00  0.00     0.043 A 
ATOM     19  C   UNL     1      -0.379  -1.201   4.731  1.00  0.00     0.041 A 
ATOM     20  Cl  UNL     1       0.079   1.462   4.568  1.00  0.00    -0.084 Cl
ATOM     21  Cl  UNL     1      -0.809  -3.867   4.527  1.00  0.00    -0.084 Cl
ENDBRANCH   7  14
TORSDOF 3
ENDMDL
MODEL 6
REMARK VINA RESULT:    -4.649     11.064     11.916
REMARK INTER + INTRA:          -5.624
REMARK INTER:                  -5.328
REMARK INTRA:                  -0.296
REMARK UNBOUND:                -0.296
REMARK SMILES O=C(O)c1ccc2nc(-c3cc(Cl)cc(Cl)c3)oc2c1
REMARK SMILES IDX 5 1 6 2 20 3 8 4 18 5 4 6 9 7 7 8 19 9 2 10 1 11 3 12 10 14
REMARK SMILES IDX 11 15 17 16 12 17 15 18 14 19 13 20 16 21
REMARK H PARENT 3 13
ROOT
ATOM      1  C   UNL     1      -0.795  -1.867  13.417  1.00  0.00     0.018 A 
ATOM      2  C   UNL     1      -0.495  -2.508  12.252  1.00  0.00     0.033 A 
ATOM      3  C   UNL     1      -1.381   0.141  12.190  1.00  0.00     0.065 A 
ATOM      4  N   UNL     1      -0.415  -2.198   9.746  1.00  0.00    -0.209 NA
ATOM      5  O   UNL     1      -1.101  -0.133   9.707  1.00  0.00    -0.436 OA
ATOM      6  C   UNL     1      -1.243  -0.539  13.401  1.00  0.00     0.063 A 
ATOM      7  C   UNL     1      -0.697  -1.183   8.967  1.00  0.00     0.227 A 
ATOM      8  C   UNL     1      -0.629  -1.838  11.029  1.00  0.00     0.110 A 
ATOM      9  C   UNL     1      -1.073  -0.504  11.006  1.00  0.00     0.156 A 
ENDROOT
BRANCH   6  10
ATOM     10  C   UNL     1      -1.570   0.141  14.668  1.00  0.00     0.335 C 
ATOM     11  O   UNL     1      -1.810   1.332  14.673  1.00  0.00    -0.246 OA
BRANCH  10  12
ATOM     12  O   UNL     1      -1.601  -0.557  15.820  1.00  0.00    -0.478 OA
ATOM     13  H   UNL     1      -2.360  -1.138  15.961  1.00  0.00     0.297 HD
ENDBRANCH  10  12
ENDBRANCH   6  10
BRANCH   7  14
ATOM     14  C   UNL     1      -0.586  -1.190   7.493  1.00  0.00     0.040 A 
ATOM     15  C   UNL     1      -0.731  -2.383   6.785  1.00  0.00     0.034 A 
ATOM     16  C   UNL     1      -0.335  -0.002   6.804  1.00  0.00     0.034 A 
ATOM     17  C   UNL     1      -0.627  -2.383   5.408  1.00  0.00     0.043 A 
ATOM     18  C   UNL     1      -0.234  -0.014   5.427  1.00  0.00     0.043 A 
ATOM     19  C   UNL     1      -0.378  -1.201   4.730  1.00  0.00     0.041 A 
ATOM     20  Cl  UNL     1      -0.808  -3.866   4.525  1.00  0.00    -0.084 Cl
ATOM     21  Cl  UNL     1       0.078   1.463   4.568  1.00  0.00    -0.084 Cl
ENDBRANCH   7  14
TORSDOF 3
ENDMDL
MODEL 7
REMARK VINA RESULT:    -4.628     11.038     11.659
REMARK INTER + INTRA:          -5.600
REMARK INTER:                  -5.304
REMARK INTRA:                  -0.295
REMARK UNBOUND:                -0.296
REMARK SMILES O=C(O)c1ccc2nc(-c3cc(Cl)cc(Cl)c3)oc2c1
REMARK SMILES IDX 5 1 6 2 20 3 8 4 18 5 4 6 9 7 7 8 19 9 2 10 1 11 3 12 10 14
REMARK SMILES IDX 11 15 17 16 12 17 15 18 14 19 13 20 16 21
REMARK H PARENT 3 13
ROOT
ATOM      1  C   UNL     1      -0.912  -1.763  13.420  1.00  0.00     0.018 A 
ATOM      2  C   UNL     1      -1.031  -0.880  12.389  1.00  0.00     0.033 A 
ATOM      3  C   UNL     1      -0.108  -3.470  11.896  1.00  0.00     0.065 A 
ATOM      4  N   UNL     1      -0.706  -0.639   9.895  1.00  0.00    -0.209 NA
ATOM      5  O   UNL     1       0.007  -2.660   9.519  1.00  0.00    -0.436 OA
ATOM      6  C   UNL     1      -0.448  -3.066  13.188  1.00  0.00     0.063 A 
ATOM      7  C   UNL     1      -0.289  -1.467   8.969  1.00  0.00     0.227 A 
ATOM      8  C   UNL     1      -0.694  -1.272  11.087  1.00  0.00     0.110 A 
ATOM      9  C   UNL     1      -0.233  -2.578  10.846  1.00  0.00     0.156 A 
ENDROOT
BRANCH   6  10
ATOM     10  C   UNL     1      -0.318  -4.010  14.312  1.00  0.00     0.335 C 
ATOM     11  O   UNL     1      -0.080  -5.182  14.096  1.00  0.00    -0.246 OA
BRANCH  10  12
ATOM     12  O   UNL     1      -0.463  -3.575  15.579  1.00  0.00    -0.478 OA
ATOM     13  H   UNL     1      -0.875  -4.183  16.208  1.00  0.00     0.297 HD
ENDBRANCH  10  12
ENDBRANCH   6  10
BRANCH   7  14
ATOM     14  C   UNL     1      -0.163  -1.139   7.534  1.00  0.00     0.040 A 
ATOM     15  C   UNL     1       0.073   0.177   7.133  1.00  0.00     0.034 A 
ATOM     16  C   UNL     1      -0.281  -2.145   6.573  1.00  0.00     0.034 A 
ATOM     17  C   UNL     1       0.191   0.476   5.791  1.00  0.00     0.043 A 
ATOM     18  C   UNL     1      -0.161  -1.833   5.234  1.00  0.00     0.043 A 
ATOM     19  C   UNL     1       0.073  -0.526   4.843  1.00  0.00     0.041 A 
ATOM     20  Cl  UNL     1       0.485   2.112   5.290  1.00  0.00    -0.084 Cl
ATOM     21  Cl  UNL     1      -0.307  -3.083   4.037  1.00  0.00    -0.084 Cl
ENDBRANCH   7  14
TORSDOF 3
ENDMDL
MODEL 8
REMARK VINA RESULT:    -4.624     11.038     11.811
REMARK INTER + INTRA:          -5.596
REMARK INTER:                  -5.300
REMARK INTRA:                  -0.296
REMARK UNBOUND:                -0.296
REMARK SMILES O=C(O)c1ccc2nc(-c3cc(Cl)cc(Cl)c3)oc2c1
REMARK SMILES IDX 5 1 6 2 20 3 8 4 18 5 4 6 9 7 7 8 19 9 2 10 1 11 3 12 10 14
REMARK SMILES IDX 11 15 17 16 12 17 15 18 14 19 13 20 16 21
REMARK H PARENT 3 13
ROOT
ATOM      1  C   UNL     1      -0.913  -1.761  13.419  1.00  0.00     0.018 A 
ATOM      2  C   UNL     1      -1.031  -0.877  12.388  1.00  0.00     0.033 A 
ATOM      3  C   UNL     1      -0.108  -3.467  11.895  1.00  0.00     0.065 A 
ATOM      4  N   UNL     1      -0.703  -0.635   9.895  1.00  0.00    -0.209 NA
ATOM      5  O   UNL     1       0.010  -2.656   9.518  1.00  0.00    -0.436 OA
ATOM      6  C   UNL     1      -0.449  -3.064  13.187  1.00  0.00     0.063 A 
ATOM      7  C   UNL     1      -0.286  -1.462   8.969  1.00  0.00     0.227 A 
ATOM      8  C   UNL     1      -0.692  -1.269  11.087  1.00  0.00     0.110 A 
ATOM      9  C   UNL     1      -0.231  -2.575  10.846  1.00  0.00     0.156 A 
ENDROOT
BRANCH   6  10
ATOM     10  C   UNL     1      -0.320  -4.009  14.311  1.00  0.00     0.335 C 
ATOM     11  O   UNL     1      -0.084  -5.181  14.094  1.00  0.00    -0.246 OA
BRANCH  10  12
ATOM     12  O   UNL     1      -0.465  -3.574  15.578  1.00  0.00    -0.478 OA
ATOM     13  H   UNL     1      -1.356  -3.596  15.951  1.00  0.00     0.297 HD
ENDBRANCH  10  12
ENDBRANCH   6  10
BRANCH   7  14
ATOM     14  C   UNL     1      -0.159  -1.133   7.534  1.00  0.00     0.040 A 
ATOM     15  C   UNL     1      -0.275  -2.137   6.572  1.00  0.00     0.034 A 
ATOM     16  C   UNL     1       0.080   0.184   7.136  1.00  0.00     0.034 A 
ATOM     17  C   UNL     1      -0.156  -1.823   5.233  1.00  0.00     0.043 A 
ATOM     18  C   UNL     1       0.196   0.485   5.794  1.00  0.00     0.043 A 
ATOM     19  C   UNL     1       0.080  -0.515   4.844  1.00  0.00     0.041 A 
ATOM     20  Cl  UNL     1      -0.302  -3.070   4.034  1.00  0.00    -0.084 Cl
ATOM     21  Cl  UNL     1       0.492   2.122   5.296  1.00  0.00    -0.084 Cl
ENDBRANCH   7  14
TORSDOF 3
ENDMDL
MODEL 9
REMARK VINA RESULT:    -4.594     14.583     15.172
REMARK INTER + INTRA:          -5.561
REMARK INTER:                  -5.274
REMARK INTRA:                  -0.286
REMARK UNBOUND:                -0.296
REMARK SMILES O=C(O)c1ccc2nc(-c3cc(Cl)cc(Cl)c3)oc2c1
REMARK SMILES IDX 5 1 6 2 20 3 8 4 18 5 4 6 9 7 7 8 19 9 2 10 1 11 3 12 10 14
REMARK SMILES IDX 11 15 17 16 12 17 15 18 14 19 13 20 16 21
REMARK H PARENT 3 13
ROOT
ATOM      1  C   UNL     1       1.374  -6.494  16.563  1.00  0.00     0.018 A 
ATOM      2  C   UNL     1       0.473  -5.523  16.241  1.00  0.00     0.033 A 
ATOM      3  C   UNL     1       2.460  -6.232  14.411  1.00  0.00     0.065 A 
ATOM      4  N   UNL     1      -0.187  -3.915  14.408  1.00  0.00    -0.209 NA
ATOM      5  O   UNL     1       1.361  -4.477  12.986  1.00  0.00    -0.436 OA
ATOM      6  C   UNL     1       2.378  -6.859  15.655  1.00  0.00     0.063 A 
ATOM      7  C   UNL     1       0.303  -3.677  13.217  1.00  0.00     0.227 A 
ATOM      8  C   UNL     1       0.544  -4.886  14.996  1.00  0.00     0.110 A 
ATOM      9  C   UNL     1       1.545  -5.250  14.079  1.00  0.00     0.156 A 
ENDROOT
BRANCH   6  10
ATOM     10  C   UNL     1       3.350  -7.906  16.017  1.00  0.00     0.335 C 
ATOM     11  O   UNL     1       4.148  -7.712  16.912  1.00  0.00    -0.246 OA
BRANCH  10  12
ATOM     12  O   UNL     1       3.356  -9.080  15.354  1.00  0.00    -0.478 OA
ATOM     13  H   UNL     1       4.166  -9.314  14.883  1.00  0.00     0.297 HD
ENDBRANCH  10  12
ENDBRANCH   6  10
BRANCH   7  14
ATOM     14  C   UNL     1      -0.228  -2.677  12.267  1.00  0.00     0.040 A 
ATOM     15  C   UNL     1      -0.064  -2.859  10.893  1.00  0.00     0.034 A 
ATOM     16  C   UNL     1      -0.896  -1.546  12.741  1.00  0.00     0.034 A 
ATOM     17  C   UNL     1      -0.564  -1.922  10.011  1.00  0.00     0.043 A 
ATOM     18  C   UNL     1      -1.391  -0.616  11.849  1.00  0.00     0.043 A 
ATOM     19  C   UNL     1      -1.225  -0.803  10.487  1.00  0.00     0.041 A 
ATOM     20  Cl  UNL     1      -0.362  -2.146   8.302  1.00  0.00    -0.084 Cl
ATOM     21  Cl  UNL     1      -2.222   0.791  12.436  1.00  0.00    -0.084 Cl
ENDBRANCH   7  14
TORSDOF 3
ENDMDL
