MODEL 1
REMARK VINA RESULT:    -5.825      0.000      0.000
REMARK INTER + INTRA:          -8.725
REMARK INTER:                  -8.039
REMARK INTRA:                  -0.686
REMARK UNBOUND:                -0.686
REMARK SMILES Cc1n[nH]c(C)c1CCCOc1cc(C(=O)O)ccc1F
REMARK SMILES IDX 11 1 12 2 14 3 18 4 13 5 19 6 20 7 21 8 15 9 16 10 17 11
REMARK SMILES IDX 10 13 9 14 8 15 7 16 5 17 2 18 4 19 3 20 6 21 1 22
REMARK H PARENT 17 12 4 23
ROOT
ATOM      1  O   UNL     1      -0.612  -2.365   8.119  1.00  0.00    -0.490 OA
ENDROOT
BRANCH   1   2
ATOM      2  C   UNL     1      -0.386  -1.724   6.942  1.00  0.00     0.155 A 
ATOM      3  C   UNL     1       0.186   0.271   5.728  1.00  0.00     0.063 A 
ATOM      4  C   UNL     1       0.081  -0.434   4.526  1.00  0.00     0.019 A 
ATOM      5  C   UNL     1      -0.051  -0.383   6.939  1.00  0.00     0.065 A 
ATOM      6  C   UNL     1      -0.248  -1.773   4.540  1.00  0.00     0.044 A 
ATOM      7  C   UNL     1      -0.477  -2.421   5.742  1.00  0.00     0.165 A 
ATOM      8  F   UNL     1      -0.800  -3.733   5.749  1.00  0.00    -0.203 F 
BRANCH   3   9
ATOM      9  C   UNL     1       0.538   1.705   5.716  1.00  0.00     0.335 C 
ATOM     10  O   UNL     1      -0.177   2.511   6.275  1.00  0.00    -0.246 OA
BRANCH   9  11
ATOM     11  O   UNL     1       1.659   2.117   5.092  1.00  0.00    -0.478 OA
ATOM     12  H   UNL     1       2.484   2.072   5.595  1.00  0.00     0.297 HD
ENDBRANCH   9  11
ENDBRANCH   3   9
ENDBRANCH   1   2
BRANCH   1  13
ATOM     13  C   UNL     1      -1.942  -2.314   8.641  1.00  0.00     0.230 C 
BRANCH  13  14
ATOM     14  C   UNL     1      -1.907  -2.563  10.150  1.00  0.00     0.046 C 
BRANCH  14  15
ATOM     15  C   UNL     1      -0.612  -1.992  10.731  1.00  0.00     0.043 C 
BRANCH  15  16
ATOM     16  C   UNL     1      -0.762  -1.820  12.221  1.00  0.00    -0.004 A 
ATOM     17  C   UNL     1      -1.203  -0.709  12.854  1.00  0.00     0.036 A 
ATOM     18  C   UNL     1      -0.476  -2.784  13.193  1.00  0.00     0.063 A 
ATOM     19  N   UNL     1      -1.190  -0.958  14.180  1.00  0.00    -0.282 N 
ATOM     20  N   UNL     1      -0.725  -2.267  14.368  1.00  0.00    -0.181 NA
ATOM     21  C   UNL     1      -1.632   0.577  12.196  1.00  0.00     0.066 C 
ATOM     22  C   UNL     1       0.043  -4.176  12.933  1.00  0.00     0.069 C 
ATOM     23  H   UNL     1      -1.454  -0.341  14.880  1.00  0.00     0.190 HD
ENDBRANCH  15  16
ENDBRANCH  14  15
ENDBRANCH  13  14
ENDBRANCH   1  13
TORSDOF 7
ENDMDL
MODEL 2
REMARK VINA RESULT:    -5.780      2.021      3.685
REMARK INTER + INTRA:          -8.663
REMARK INTER:                  -8.004
REMARK INTRA:                  -0.659
REMARK UNBOUND:                -0.686
REMARK SMILES Cc1n[nH]c(C)c1CCCOc1cc(C(=O)O)ccc1F
REMARK SMILES IDX 11 1 12 2 14 3 18 4 13 5 19 6 20 7 21 8 15 9 16 10 17 11
REMARK SMILES IDX 10 13 9 14 8 15 7 16 5 17 2 18 4 19 3 20 6 21 1 22
REMARK H PARENT 17 12 4 23
ROOT
ATOM      1  O   UNL     1      -0.027   0.060   8.129  1.00  0.00    -0.490 OA
ENDROOT
BRANCH   1   2
ATOM      2  C   UNL     1      -0.103  -0.389   6.848  1.00  0.00     0.155 A 
ATOM      3  C   UNL     1      -0.541  -2.157   5.278  1.00  0.00     0.063 A 
ATOM      4  C   UNL     1      -0.263  -1.284   4.223  1.00  0.00     0.019 A 
ATOM      5  C   UNL     1      -0.458  -1.701   6.596  1.00  0.00     0.065 A 
ATOM      6  C   UNL     1       0.085   0.024   4.485  1.00  0.00     0.044 A 
ATOM      7  C   UNL     1       0.161   0.476   5.792  1.00  0.00     0.165 A 
ATOM      8  F   UNL     1       0.502   1.759   6.041  1.00  0.00    -0.203 F 
BRANCH   3   9
ATOM      9  C   UNL     1      -0.913  -3.559   5.002  1.00  0.00     0.335 C 
ATOM     10  O   UNL     1      -0.286  -4.466   5.509  1.00  0.00    -0.246 OA
BRANCH   9  11
ATOM     11  O   UNL     1      -1.955  -3.831   4.192  1.00  0.00    -0.478 OA
ATOM     12  H   UNL     1      -2.693  -3.204   4.200  1.00  0.00     0.297 HD
ENDBRANCH   9  11
ENDBRANCH   3   9
ENDBRANCH   1   2
BRANCH   1  13
ATOM     13  C   UNL     1       1.203  -0.165   8.823  1.00  0.00     0.230 C 
BRANCH  13  14
ATOM     14  C   UNL     1       0.915  -0.383  10.310  1.00  0.00     0.046 C 
BRANCH  14  15
ATOM     15  C   UNL     1      -0.455  -1.044  10.473  1.00  0.00     0.043 C 
BRANCH  15  16
ATOM     16  C   UNL     1      -0.719  -1.302  11.933  1.00  0.00    -0.004 A 
ATOM     17  C   UNL     1      -0.427  -2.439  12.606  1.00  0.00     0.036 A 
ATOM     18  C   UNL     1      -1.303  -0.406  12.835  1.00  0.00     0.063 A 
ATOM     19  N   UNL     1      -0.819  -2.271  13.887  1.00  0.00    -0.282 N 
ATOM     20  N   UNL     1      -1.370  -0.989  14.005  1.00  0.00    -0.181 NA
ATOM     21  C   UNL     1       0.219  -3.671  12.029  1.00  0.00     0.066 C 
ATOM     22  C   UNL     1      -1.784   0.985  12.512  1.00  0.00     0.069 C 
ATOM     23  H   UNL     1      -0.735  -2.924  14.599  1.00  0.00     0.190 HD
ENDBRANCH  15  16
ENDBRANCH  14  15
ENDBRANCH  13  14
ENDBRANCH   1  13
TORSDOF 7
ENDMDL
MODEL 3
REMARK VINA RESULT:    -5.685      2.013      3.241
REMARK INTER + INTRA:          -8.531
REMARK INTER:                  -7.871
REMARK INTRA:                  -0.660
REMARK UNBOUND:                -0.686
REMARK SMILES Cc1n[nH]c(C)c1CCCOc1cc(C(=O)O)ccc1F
REMARK SMILES IDX 11 1 12 2 14 3 18 4 13 5 19 6 20 7 21 8 15 9 16 10 17 11
REMARK SMILES IDX 10 13 9 14 8 15 7 16 5 17 2 18 4 19 3 20 6 21 1 22
REMARK H PARENT 17 12 4 23
ROOT
ATOM      1  O   UNL     1      -0.081  -0.017   8.226  1.00  0.00    -0.490 OA
ENDROOT
BRANCH   1   2
ATOM      2  C   UNL     1      -0.147  -0.436   6.934  1.00  0.00     0.155 A 
ATOM      3  C   UNL     1      -0.565  -2.169   5.321  1.00  0.00     0.063 A 
ATOM      4  C   UNL     1      -0.287  -1.269   4.288  1.00  0.00     0.019 A 
ATOM      5  C   UNL     1      -0.493  -1.743   6.649  1.00  0.00     0.065 A 
ATOM      6  C   UNL     1       0.051   0.035   4.583  1.00  0.00     0.044 A 
ATOM      7  C   UNL     1       0.117   0.456   5.901  1.00  0.00     0.165 A 
ATOM      8  F   UNL     1       0.449   1.735   6.182  1.00  0.00    -0.203 F 
BRANCH   3   9
ATOM      9  C   UNL     1      -0.928  -3.565   5.009  1.00  0.00     0.335 C 
ATOM     10  O   UNL     1      -0.284  -4.480   5.480  1.00  0.00    -0.246 OA
BRANCH   9  11
ATOM     11  O   UNL     1      -1.979  -3.824   4.206  1.00  0.00    -0.478 OA
ATOM     12  H   UNL     1      -1.782  -4.138   3.313  1.00  0.00     0.297 HD
ENDBRANCH   9  11
ENDBRANCH   3   9
ENDBRANCH   1   2
BRANCH   1  13
ATOM     13  C   UNL     1       1.170  -0.180   8.898  1.00  0.00     0.230 C 
BRANCH  13  14
ATOM     14  C   UNL     1       0.922  -0.410  10.390  1.00  0.00     0.046 C 
BRANCH  14  15
ATOM     15  C   UNL     1      -0.451  -1.059  10.584  1.00  0.00     0.043 C 
BRANCH  15  16
ATOM     16  C   UNL     1      -0.644  -1.400  12.038  1.00  0.00    -0.004 A 
ATOM     17  C   UNL     1      -1.172  -0.588  12.983  1.00  0.00     0.036 A 
ATOM     18  C   UNL     1      -0.317  -2.615  12.650  1.00  0.00     0.063 A 
ATOM     19  N   UNL     1      -1.172  -1.262  14.152  1.00  0.00    -0.282 N 
ATOM     20  N   UNL     1      -0.626  -2.531  13.918  1.00  0.00    -0.181 NA
ATOM     21  C   UNL     1      -1.671   0.817  12.768  1.00  0.00     0.066 C 
ATOM     22  C   UNL     1       0.299  -3.810  11.968  1.00  0.00     0.069 C 
ATOM     23  H   UNL     1      -1.493  -0.928  15.004  1.00  0.00     0.190 HD
ENDBRANCH  15  16
ENDBRANCH  14  15
ENDBRANCH  13  14
ENDBRANCH   1  13
TORSDOF 7
ENDMDL
MODEL 4
REMARK VINA RESULT:    -5.487      0.886      1.931
REMARK INTER + INTRA:          -8.259
REMARK INTER:                  -7.597
REMARK INTRA:                  -0.662
REMARK UNBOUND:                -0.686
REMARK SMILES Cc1n[nH]c(C)c1CCCOc1cc(C(=O)O)ccc1F
REMARK SMILES IDX 11 1 12 2 14 3 18 4 13 5 19 6 20 7 21 8 15 9 16 10 17 11
REMARK SMILES IDX 10 13 9 14 8 15 7 16 5 17 2 18 4 19 3 20 6 21 1 22
REMARK H PARENT 17 12 4 23
ROOT
ATOM      1  O   UNL     1      -2.172  -2.086   7.645  1.00  0.00    -0.490 OA
ENDROOT
BRANCH   1   2
ATOM      2  C   UNL     1      -1.432  -1.650   6.591  1.00  0.00     0.155 A 
ATOM      3  C   UNL     1      -0.212   0.097   5.477  1.00  0.00     0.063 A 
ATOM      4  C   UNL     1       0.088  -0.783   4.433  1.00  0.00     0.019 A 
ATOM      5  C   UNL     1      -0.976  -0.345   6.558  1.00  0.00     0.065 A 
ATOM      6  C   UNL     1      -0.366  -2.084   4.477  1.00  0.00     0.044 A 
ATOM      7  C   UNL     1      -1.119  -2.522   5.554  1.00  0.00     0.165 A 
ATOM      8  F   UNL     1      -1.561  -3.799   5.591  1.00  0.00    -0.203 F 
BRANCH   3   9
ATOM      9  C   UNL     1       0.272   1.491   5.433  1.00  0.00     0.335 C 
ATOM     10  O   UNL     1       1.016   1.903   6.299  1.00  0.00    -0.246 OA
BRANCH   9  11
ATOM     11  O   UNL     1      -0.106   2.304   4.427  1.00  0.00    -0.478 OA
ATOM     12  H   UNL     1      -0.077   1.937   3.532  1.00  0.00     0.297 HD
ENDBRANCH   9  11
ENDBRANCH   3   9
ENDBRANCH   1   2
BRANCH   1  13
ATOM     13  C   UNL     1      -1.466  -2.712   8.719  1.00  0.00     0.230 C 
BRANCH  13  14
ATOM     14  C   UNL     1      -1.836  -2.030  10.037  1.00  0.00     0.046 C 
BRANCH  14  15
ATOM     15  C   UNL     1      -0.564  -1.548  10.737  1.00  0.00     0.043 C 
BRANCH  15  16
ATOM     16  C   UNL     1      -0.622  -1.916  12.197  1.00  0.00    -0.004 A 
ATOM     17  C   UNL     1      -0.227  -3.091  12.739  1.00  0.00     0.036 A 
ATOM     18  C   UNL     1      -1.089  -1.100  13.234  1.00  0.00     0.063 A 
ATOM     19  N   UNL     1      -0.443  -3.024  14.069  1.00  0.00    -0.282 N 
ATOM     20  N   UNL     1      -0.988  -1.766  14.355  1.00  0.00    -0.181 NA
ATOM     21  C   UNL     1       0.350  -4.264  11.990  1.00  0.00     0.066 C 
ATOM     22  C   UNL     1      -1.627   0.300  13.082  1.00  0.00     0.069 C 
ATOM     23  H   UNL     1      -0.254  -3.724  14.714  1.00  0.00     0.190 HD
ENDBRANCH  15  16
ENDBRANCH  14  15
ENDBRANCH  13  14
ENDBRANCH   1  13
TORSDOF 7
ENDMDL
MODEL 5
REMARK VINA RESULT:    -4.836      3.702      6.681
REMARK INTER + INTRA:          -7.360
REMARK INTER:                  -6.509
REMARK INTRA:                  -0.851
REMARK UNBOUND:                -0.686
REMARK SMILES Cc1n[nH]c(C)c1CCCOc1cc(C(=O)O)ccc1F
REMARK SMILES IDX 11 1 12 2 14 3 18 4 13 5 19 6 20 7 21 8 15 9 16 10 17 11
REMARK SMILES IDX 10 13 9 14 8 15 7 16 5 17 2 18 4 19 3 20 6 21 1 22
REMARK H PARENT 17 12 4 23
ROOT
ATOM      1  O   UNL     1      -0.340  -2.472   9.109  1.00  0.00    -0.490 OA
ENDROOT
BRANCH   1   2
ATOM      2  C   UNL     1      -0.509  -2.181  10.427  1.00  0.00     0.155 A 
ATOM      3  C   UNL     1      -1.240  -0.680  12.157  1.00  0.00     0.063 A 
ATOM      4  C   UNL     1      -0.854  -1.612  13.124  1.00  0.00     0.019 A 
ATOM      5  C   UNL     1      -1.064  -0.972  10.803  1.00  0.00     0.065 A 
ATOM      6  C   UNL     1      -0.306  -2.817  12.739  1.00  0.00     0.044 A 
ATOM      7  C   UNL     1      -0.137  -3.107  11.395  1.00  0.00     0.165 A 
ATOM      8  F   UNL     1       0.400  -4.291  11.025  1.00  0.00    -0.203 F 
BRANCH   3   9
ATOM      9  C   UNL     1      -1.827   0.612  12.565  1.00  0.00     0.335 C 
ATOM     10  O   UNL     1      -1.104   1.550  12.831  1.00  0.00    -0.246 OA
BRANCH   9  11
ATOM     11  O   UNL     1      -3.165   0.750  12.637  1.00  0.00    -0.478 OA
ATOM     12  H   UNL     1      -3.511   1.652  12.692  1.00  0.00     0.297 HD
ENDBRANCH   9  11
ENDBRANCH   3   9
ENDBRANCH   1   2
BRANCH   1  13
ATOM     13  C   UNL     1      -1.383  -2.070   8.218  1.00  0.00     0.230 C 
BRANCH  13  14
ATOM     14  C   UNL     1      -0.958  -2.351   6.776  1.00  0.00     0.046 C 
BRANCH  14  15
ATOM     15  C   UNL     1       0.531  -2.035   6.612  1.00  0.00     0.043 C 
BRANCH  15  16
ATOM     16  C   UNL     1       0.698  -0.591   6.219  1.00  0.00    -0.004 A 
ATOM     17  C   UNL     1       0.348  -0.043   5.032  1.00  0.00     0.036 A 
ATOM     18  C   UNL     1       1.237   0.423   7.018  1.00  0.00     0.063 A 
ATOM     19  N   UNL     1       0.660   1.269   5.076  1.00  0.00    -0.282 N 
ATOM     20  N   UNL     1       1.221   1.537   6.331  1.00  0.00    -0.181 NA
ATOM     21  C   UNL     1      -0.278  -0.768   3.869  1.00  0.00     0.066 C 
ATOM     22  C   UNL     1       1.757   0.259   8.423  1.00  0.00     0.069 C 
ATOM     23  H   UNL     1       0.522   1.913   4.364  1.00  0.00     0.190 HD
ENDBRANCH  15  16
ENDBRANCH  14  15
ENDBRANCH  13  14
ENDBRANCH   1  13
TORSDOF 7
ENDMDL
MODEL 6
REMARK VINA RESULT:    -4.795      3.685      6.664
REMARK INTER + INTRA:          -7.303
REMARK INTER:                  -6.450
REMARK INTRA:                  -0.854
REMARK UNBOUND:                -0.686
REMARK SMILES Cc1n[nH]c(C)c1CCCOc1cc(C(=O)O)ccc1F
REMARK SMILES IDX 11 1 12 2 14 3 18 4 13 5 19 6 20 7 21 8 15 9 16 10 17 11
REMARK SMILES IDX 10 13 9 14 8 15 7 16 5 17 2 18 4 19 3 20 6 21 1 22
REMARK H PARENT 17 12 4 23
ROOT
ATOM      1  O   UNL     1      -0.333  -2.597   9.104  1.00  0.00    -0.490 OA
ENDROOT
BRANCH   1   2
ATOM      2  C   UNL     1      -0.497  -2.274  10.414  1.00  0.00     0.155 A 
ATOM      3  C   UNL     1      -1.240  -0.738  12.108  1.00  0.00     0.063 A 
ATOM      4  C   UNL     1      -0.834  -1.638  13.097  1.00  0.00     0.019 A 
ATOM      5  C   UNL     1      -1.067  -1.064  10.761  1.00  0.00     0.065 A 
ATOM      6  C   UNL     1      -0.272  -2.845  12.741  1.00  0.00     0.044 A 
ATOM      7  C   UNL     1      -0.106  -3.169  11.404  1.00  0.00     0.165 A 
ATOM      8  F   UNL     1       0.445  -4.354  11.062  1.00  0.00    -0.203 F 
BRANCH   3   9
ATOM      9  C   UNL     1      -1.842   0.556  12.486  1.00  0.00     0.335 C 
ATOM     10  O   UNL     1      -3.049   0.666  12.556  1.00  0.00    -0.246 OA
BRANCH   9  11
ATOM     11  O   UNL     1      -1.052   1.612  12.760  1.00  0.00    -0.478 OA
ATOM     12  H   UNL     1      -0.578   2.011  12.016  1.00  0.00     0.297 HD
ENDBRANCH   9  11
ENDBRANCH   3   9
ENDBRANCH   1   2
BRANCH   1  13
ATOM     13  C   UNL     1      -1.314  -2.107   8.187  1.00  0.00     0.230 C 
BRANCH  13  14
ATOM     14  C   UNL     1      -0.873  -2.417   6.755  1.00  0.00     0.046 C 
BRANCH  14  15
ATOM     15  C   UNL     1       0.596  -2.025   6.578  1.00  0.00     0.043 C 
BRANCH  15  16
ATOM     16  C   UNL     1       0.688  -0.563   6.226  1.00  0.00    -0.004 A 
ATOM     17  C   UNL     1       1.168   0.419   7.023  1.00  0.00     0.036 A 
ATOM     18  C   UNL     1       0.298   0.018   5.014  1.00  0.00     0.063 A 
ATOM     19  N   UNL     1       1.079   1.582   6.343  1.00  0.00    -0.282 N 
ATOM     20  N   UNL     1       0.525   1.304   5.086  1.00  0.00    -0.181 NA
ATOM     21  C   UNL     1       1.707   0.246   8.419  1.00  0.00     0.066 C 
ATOM     22  C   UNL     1      -0.294  -0.711   3.835  1.00  0.00     0.069 C 
ATOM     23  H   UNL     1       1.350   2.455   6.667  1.00  0.00     0.190 HD
ENDBRANCH  15  16
ENDBRANCH  14  15
ENDBRANCH  13  14
ENDBRANCH   1  13
TORSDOF 7
ENDMDL
MODEL 7
REMARK VINA RESULT:    -4.511      4.185      7.755
REMARK INTER + INTRA:          -6.911
REMARK INTER:                  -6.643
REMARK INTRA:                  -0.268
REMARK UNBOUND:                -0.686
REMARK SMILES Cc1n[nH]c(C)c1CCCOc1cc(C(=O)O)ccc1F
REMARK SMILES IDX 11 1 12 2 14 3 18 4 13 5 19 6 20 7 21 8 15 9 16 10 17 11
REMARK SMILES IDX 10 13 9 14 8 15 7 16 5 17 2 18 4 19 3 20 6 21 1 22
REMARK H PARENT 17 12 4 23
ROOT
ATOM      1  O   UNL     1      -0.772  -0.204   9.747  1.00  0.00    -0.490 OA
ENDROOT
BRANCH   1   2
ATOM      2  C   UNL     1      -0.805  -0.764  10.986  1.00  0.00     0.155 A 
ATOM      3  C   UNL     1      -0.400  -2.633  12.444  1.00  0.00     0.063 A 
ATOM      4  C   UNL     1      -0.872  -1.886  13.526  1.00  0.00     0.019 A 
ATOM      5  C   UNL     1      -0.368  -2.063  11.169  1.00  0.00     0.065 A 
ATOM      6  C   UNL     1      -1.300  -0.589  13.335  1.00  0.00     0.044 A 
ATOM      7  C   UNL     1      -1.264  -0.024  12.070  1.00  0.00     0.165 A 
ATOM      8  F   UNL     1      -1.684   1.247  11.889  1.00  0.00    -0.203 F 
BRANCH   3   9
ATOM      9  C   UNL     1       0.059  -4.021  12.646  1.00  0.00     0.335 C 
ATOM     10  O   UNL     1       1.052  -4.242  13.309  1.00  0.00    -0.246 OA
BRANCH   9  11
ATOM     11  O   UNL     1      -0.628  -5.043  12.099  1.00  0.00    -0.478 OA
ATOM     12  H   UNL     1      -1.437  -4.821  11.617  1.00  0.00     0.297 HD
ENDBRANCH   9  11
ENDBRANCH   3   9
ENDBRANCH   1   2
BRANCH   1  13
ATOM     13  C   UNL     1       0.338  -0.544   8.912  1.00  0.00     0.230 C 
BRANCH  13  14
ATOM     14  C   UNL     1      -0.067  -1.673   7.963  1.00  0.00     0.046 C 
BRANCH  14  15
ATOM     15  C   UNL     1      -1.139  -1.167   6.996  1.00  0.00     0.043 C 
BRANCH  15  16
ATOM     16  C   UNL     1      -0.580  -1.134   5.597  1.00  0.00    -0.004 A 
ATOM     17  C   UNL     1      -0.538  -2.173   4.732  1.00  0.00     0.036 A 
ATOM     18  C   UNL     1      -0.020  -0.021   4.960  1.00  0.00     0.063 A 
ATOM     19  N   UNL     1       0.036  -1.736   3.591  1.00  0.00    -0.282 N 
ATOM     20  N   UNL     1       0.356  -0.383   3.761  1.00  0.00    -0.181 NA
ATOM     21  C   UNL     1      -1.040  -3.569   4.995  1.00  0.00     0.066 C 
ATOM     22  C   UNL     1       0.136   1.354   5.558  1.00  0.00     0.069 C 
ATOM     23  H   UNL     1       0.198  -2.265   2.795  1.00  0.00     0.190 HD
ENDBRANCH  15  16
ENDBRANCH  14  15
ENDBRANCH  13  14
ENDBRANCH   1  13
TORSDOF 7
ENDMDL
MODEL 8
REMARK VINA RESULT:    -4.426      4.668      7.917
REMARK INTER + INTRA:          -6.794
REMARK INTER:                  -6.108
REMARK INTRA:                  -0.686
REMARK UNBOUND:                -0.686
REMARK SMILES Cc1n[nH]c(C)c1CCCOc1cc(C(=O)O)ccc1F
REMARK SMILES IDX 11 1 12 2 14 3 18 4 13 5 19 6 20 7 21 8 15 9 16 10 17 11
REMARK SMILES IDX 10 13 9 14 8 15 7 16 5 17 2 18 4 19 3 20 6 21 1 22
REMARK H PARENT 17 12 4 23
ROOT
ATOM      1  O   UNL     1      -0.973  -0.133  11.742  1.00  0.00    -0.490 OA
ENDROOT
BRANCH   1   2
ATOM      2  C   UNL     1      -1.576   0.297  12.882  1.00  0.00     0.155 A 
ATOM      3  C   UNL     1      -1.791   0.250  15.276  1.00  0.00     0.063 A 
ATOM      4  C   UNL     1      -2.815   1.197  15.200  1.00  0.00     0.019 A 
ATOM      5  C   UNL     1      -1.172  -0.198  14.107  1.00  0.00     0.065 A 
ATOM      6  C   UNL     1      -3.207   1.690  13.973  1.00  0.00     0.044 A 
ATOM      7  C   UNL     1      -2.589   1.248  12.815  1.00  0.00     0.165 A 
ATOM      8  F   UNL     1      -2.978   1.735  11.616  1.00  0.00    -0.203 F 
BRANCH   3   9
ATOM      9  C   UNL     1      -1.368  -0.280  16.588  1.00  0.00     0.335 C 
ATOM     10  O   UNL     1      -2.177  -0.820  17.314  1.00  0.00    -0.246 OA
BRANCH   9  11
ATOM     11  O   UNL     1      -0.082  -0.170  16.976  1.00  0.00    -0.478 OA
ATOM     12  H   UNL     1       0.207  -0.737  17.704  1.00  0.00     0.297 HD
ENDBRANCH   9  11
ENDBRANCH   3   9
ENDBRANCH   1   2
BRANCH   1  13
ATOM     13  C   UNL     1      -0.545  -1.497  11.709  1.00  0.00     0.230 C 
BRANCH  13  14
ATOM     14  C   UNL     1      -0.410  -1.954  10.256  1.00  0.00     0.046 C 
BRANCH  14  15
ATOM     15  C   UNL     1      -0.797  -0.805   9.322  1.00  0.00     0.043 C 
BRANCH  15  16
ATOM     16  C   UNL     1      -0.387  -1.143   7.912  1.00  0.00    -0.004 A 
ATOM     17  C   UNL     1       0.766  -0.772   7.307  1.00  0.00     0.036 A 
ATOM     18  C   UNL     1      -1.127  -1.901   6.999  1.00  0.00     0.063 A 
ATOM     19  N   UNL     1       0.752  -1.272   6.054  1.00  0.00    -0.282 N 
ATOM     20  N   UNL     1      -0.448  -1.973   5.883  1.00  0.00    -0.181 NA
ATOM     21  C   UNL     1       1.867   0.052   7.923  1.00  0.00     0.066 C 
ATOM     22  C   UNL     1      -2.478  -2.518   7.253  1.00  0.00     0.069 C 
ATOM     23  H   UNL     1       1.450  -1.164   5.389  1.00  0.00     0.190 HD
ENDBRANCH  15  16
ENDBRANCH  14  15
ENDBRANCH  13  14
ENDBRANCH   1  13
TORSDOF 7
ENDMDL
MODEL 9
REMARK VINA RESULT:    -4.393      4.366      8.178
REMARK INTER + INTRA:          -6.748
REMARK INTER:                  -6.043
REMARK INTRA:                  -0.706
REMARK UNBOUND:                -0.686
REMARK SMILES Cc1n[nH]c(C)c1CCCOc1cc(C(=O)O)ccc1F
REMARK SMILES IDX 11 1 12 2 14 3 18 4 13 5 19 6 20 7 21 8 15 9 16 10 17 11
REMARK SMILES IDX 10 13 9 14 8 15 7 16 5 17 2 18 4 19 3 20 6 21 1 22
REMARK H PARENT 17 12 4 23
ROOT
ATOM      1  O   UNL     1      -0.537  -3.182  11.765  1.00  0.00    -0.490 OA
ENDROOT
BRANCH   1   2
ATOM      2  C   UNL     1      -0.041  -3.871  12.827  1.00  0.00     0.155 A 
ATOM      3  C   UNL     1      -0.170  -4.520  15.139  1.00  0.00     0.063 A 
ATOM      4  C   UNL     1       0.984  -5.292  14.983  1.00  0.00     0.019 A 
ATOM      5  C   UNL     1      -0.680  -3.808  14.051  1.00  0.00     0.065 A 
ATOM      6  C   UNL     1       1.611  -5.354  13.756  1.00  0.00     0.044 A 
ATOM      7  C   UNL     1       1.101  -4.650  12.678  1.00  0.00     0.165 A 
ATOM      8  F   UNL     1       1.720  -4.714  11.479  1.00  0.00    -0.203 F 
BRANCH   3   9
ATOM      9  C   UNL     1      -0.845  -4.453  16.450  1.00  0.00     0.335 C 
ATOM     10  O   UNL     1      -0.288  -4.876  17.442  1.00  0.00    -0.246 OA
BRANCH   9  11
ATOM     11  O   UNL     1      -2.077  -3.915  16.547  1.00  0.00    -0.478 OA
ATOM     12  H   UNL     1      -2.706  -4.130  15.844  1.00  0.00     0.297 HD
ENDBRANCH   9  11
ENDBRANCH   3   9
ENDBRANCH   1   2
BRANCH   1  13
ATOM     13  C   UNL     1      -0.243  -1.784  11.703  1.00  0.00     0.230 C 
BRANCH  13  14
ATOM     14  C   UNL     1      -0.749  -1.216  10.376  1.00  0.00     0.046 C 
BRANCH  14  15
ATOM     15  C   UNL     1      -0.188  -2.045   9.219  1.00  0.00     0.043 C 
BRANCH  15  16
ATOM     16  C   UNL     1      -0.429  -1.323   7.919  1.00  0.00    -0.004 A 
ATOM     17  C   UNL     1      -1.493  -1.491   7.099  1.00  0.00     0.036 A 
ATOM     18  C   UNL     1       0.404  -0.354   7.349  1.00  0.00     0.063 A 
ATOM     19  N   UNL     1      -1.334  -0.663   6.045  1.00  0.00    -0.282 N 
ATOM     20  N   UNL     1      -0.134   0.037   6.223  1.00  0.00    -0.181 NA
ATOM     21  C   UNL     1      -2.646  -2.433   7.323  1.00  0.00     0.066 C 
ATOM     22  C   UNL     1       1.704   0.144   7.927  1.00  0.00     0.069 C 
ATOM     23  H   UNL     1      -1.944  -0.570   5.296  1.00  0.00     0.190 HD
ENDBRANCH  15  16
ENDBRANCH  14  15
ENDBRANCH  13  14
ENDBRANCH   1  13
TORSDOF 7
ENDMDL
