MODEL 1
REMARK VINA RESULT:    -5.173      0.000      0.000
REMARK INTER + INTRA:          -6.227
REMARK INTER:                  -5.929
REMARK INTRA:                  -0.297
REMARK UNBOUND:                -0.297
REMARK SMILES O=C(O)c1ccc2nc(-c3cc(Cl)cc(Cl)c3)oc2c1
REMARK SMILES IDX 5 1 6 2 20 3 8 4 18 5 4 6 9 7 7 8 19 9 2 10 1 11 3 12 10 14
REMARK SMILES IDX 11 15 17 16 12 17 15 18 14 19 13 20 16 21
REMARK H PARENT 3 13
ROOT
ATOM      1  C   UNL     1      -2.512   3.026   4.445  1.00  0.00     0.018 A 
ATOM      2  C   UNL     1      -2.801   3.896   5.454  1.00  0.00     0.033 A 
ATOM      3  C   UNL     1      -4.090   1.420   5.346  1.00  0.00     0.065 A 
ATOM      4  N   UNL     1      -4.220   4.179   7.525  1.00  0.00    -0.209 NA
ATOM      5  O   UNL     1      -5.216   2.246   7.436  1.00  0.00    -0.436 OA
ATOM      6  C   UNL     1      -3.152   1.781   4.376  1.00  0.00     0.063 A 
ATOM      7  C   UNL     1      -5.096   3.403   8.114  1.00  0.00     0.227 A 
ATOM      8  C   UNL     1      -3.739   3.546   6.433  1.00  0.00     0.110 A 
ATOM      9  C   UNL     1      -4.382   2.297   6.374  1.00  0.00     0.156 A 
ENDROOT
BRANCH   6  10
ATOM     10  C   UNL     1      -2.836   0.852   3.277  1.00  0.00     0.335 C 
ATOM     11  O   UNL     1      -1.852   1.036   2.590  1.00  0.00    -0.246 OA
BRANCH  10  12
ATOM     12  O   UNL     1      -3.640  -0.202   3.032  1.00  0.00    -0.478 OA
ATOM     13  H   UNL     1      -3.651  -0.909   3.692  1.00  0.00     0.297 HD
ENDBRANCH  10  12
ENDBRANCH   6  10
BRANCH   7  14
ATOM     14  C   UNL     1      -5.841   3.748   9.343  1.00  0.00     0.040 A 
ATOM     15  C   UNL     1      -6.684   2.808   9.938  1.00  0.00     0.034 A 
ATOM     16  C   UNL     1      -5.705   5.015   9.912  1.00  0.00     0.034 A 
ATOM     17  C   UNL     1      -7.377   3.136  11.087  1.00  0.00     0.043 A 
ATOM     18  C   UNL     1      -6.403   5.331  11.061  1.00  0.00     0.043 A 
ATOM     19  C   UNL     1      -7.237   4.395  11.647  1.00  0.00     0.041 A 
ATOM     20  Cl  UNL     1      -8.425   1.969  11.830  1.00  0.00    -0.084 Cl
ATOM     21  Cl  UNL     1      -6.235   6.907  11.771  1.00  0.00    -0.084 Cl
ENDBRANCH   7  14
TORSDOF 3
ENDMDL
MODEL 2
REMARK VINA RESULT:    -5.165      0.011      2.019
REMARK INTER + INTRA:          -6.218
REMARK INTER:                  -5.920
REMARK INTRA:                  -0.297
REMARK UNBOUND:                -0.297
REMARK SMILES O=C(O)c1ccc2nc(-c3cc(Cl)cc(Cl)c3)oc2c1
REMARK SMILES IDX 5 1 6 2 20 3 8 4 18 5 4 6 9 7 7 8 19 9 2 10 1 11 3 12 10 14
REMARK SMILES IDX 11 15 17 16 12 17 15 18 14 19 13 20 16 21
REMARK H PARENT 3 13
ROOT
ATOM      1  C   UNL     1      -2.517   3.025   4.440  1.00  0.00     0.018 A 
ATOM      2  C   UNL     1      -2.803   3.895   5.448  1.00  0.00     0.033 A 
ATOM      3  C   UNL     1      -4.095   1.421   5.345  1.00  0.00     0.065 A 
ATOM      4  N   UNL     1      -4.220   4.182   7.521  1.00  0.00    -0.209 NA
ATOM      5  O   UNL     1      -5.217   2.251   7.436  1.00  0.00    -0.436 OA
ATOM      6  C   UNL     1      -3.159   1.780   4.373  1.00  0.00     0.063 A 
ATOM      7  C   UNL     1      -5.095   3.408   8.113  1.00  0.00     0.227 A 
ATOM      8  C   UNL     1      -3.740   3.548   6.429  1.00  0.00     0.110 A 
ATOM      9  C   UNL     1      -4.384   2.299   6.373  1.00  0.00     0.156 A 
ENDROOT
BRANCH   6  10
ATOM     10  C   UNL     1      -2.846   0.849   3.274  1.00  0.00     0.335 C 
ATOM     11  O   UNL     1      -1.858   1.027   2.590  1.00  0.00    -0.246 OA
BRANCH  10  12
ATOM     12  O   UNL     1      -3.655  -0.200   3.028  1.00  0.00    -0.478 OA
ATOM     13  H   UNL     1      -3.237  -1.014   2.717  1.00  0.00     0.297 HD
ENDBRANCH  10  12
ENDBRANCH   6  10
BRANCH   7  14
ATOM     14  C   UNL     1      -5.838   3.755   9.342  1.00  0.00     0.040 A 
ATOM     15  C   UNL     1      -5.706   5.024   9.906  1.00  0.00     0.034 A 
ATOM     16  C   UNL     1      -6.673   2.812   9.945  1.00  0.00     0.034 A 
ATOM     17  C   UNL     1      -6.404   5.342  11.055  1.00  0.00     0.043 A 
ATOM     18  C   UNL     1      -7.365   3.142  11.093  1.00  0.00     0.043 A 
ATOM     19  C   UNL     1      -7.231   4.403  11.647  1.00  0.00     0.041 A 
ATOM     20  Cl  UNL     1      -6.242   6.921  11.758  1.00  0.00    -0.084 Cl
ATOM     21  Cl  UNL     1      -8.405   1.971  11.844  1.00  0.00    -0.084 Cl
ENDBRANCH   7  14
TORSDOF 3
ENDMDL
MODEL 3
REMARK VINA RESULT:    -4.980      3.929      7.848
REMARK INTER + INTRA:          -6.006
REMARK INTER:                  -5.715
REMARK INTRA:                  -0.290
REMARK UNBOUND:                -0.297
REMARK SMILES O=C(O)c1ccc2nc(-c3cc(Cl)cc(Cl)c3)oc2c1
REMARK SMILES IDX 5 1 6 2 20 3 8 4 18 5 4 6 9 7 7 8 19 9 2 10 1 11 3 12 10 14
REMARK SMILES IDX 11 15 17 16 12 17 15 18 14 19 13 20 16 21
REMARK H PARENT 3 13
ROOT
ATOM      1  C   UNL     1      -7.259   4.068  11.532  1.00  0.00     0.018 A 
ATOM      2  C   UNL     1      -7.051   3.130  10.565  1.00  0.00     0.033 A 
ATOM      3  C   UNL     1      -5.700   5.572  10.440  1.00  0.00     0.065 A 
ATOM      4  N   UNL     1      -5.761   2.678   8.441  1.00  0.00    -0.209 NA
ATOM      5  O   UNL     1      -4.709   4.580   8.354  1.00  0.00    -0.436 OA
ATOM      6  C   UNL     1      -6.589   5.299  11.482  1.00  0.00     0.063 A 
ATOM      7  C   UNL     1      -4.900   3.389   7.756  1.00  0.00     0.227 A 
ATOM      8  C   UNL     1      -6.162   3.391   9.515  1.00  0.00     0.110 A 
ATOM      9  C   UNL     1      -5.484   4.621   9.460  1.00  0.00     0.156 A 
ENDROOT
BRANCH   6  10
ATOM     10  C   UNL     1      -6.826   6.308  12.529  1.00  0.00     0.335 C 
ATOM     11  O   UNL     1      -6.921   7.482  12.232  1.00  0.00    -0.246 OA
BRANCH  10  12
ATOM     12  O   UNL     1      -6.937   5.929  13.818  1.00  0.00    -0.478 OA
ATOM     13  H   UNL     1      -6.322   6.328  14.448  1.00  0.00     0.297 HD
ENDBRANCH  10  12
ENDBRANCH   6  10
BRANCH   7  14
ATOM     14  C   UNL     1      -4.236   2.947   6.512  1.00  0.00     0.040 A 
ATOM     15  C   UNL     1      -2.932   3.357   6.230  1.00  0.00     0.034 A 
ATOM     16  C   UNL     1      -4.911   2.118   5.614  1.00  0.00     0.034 A 
ATOM     17  C   UNL     1      -2.317   2.940   5.066  1.00  0.00     0.043 A 
ATOM     18  C   UNL     1      -4.285   1.708   4.454  1.00  0.00     0.043 A 
ATOM     19  C   UNL     1      -2.992   2.118   4.180  1.00  0.00     0.041 A 
ATOM     20  Cl  UNL     1      -0.695   3.448   4.713  1.00  0.00    -0.084 Cl
ATOM     21  Cl  UNL     1      -5.123   0.677   3.336  1.00  0.00    -0.084 Cl
ENDBRANCH   7  14
TORSDOF 3
ENDMDL
MODEL 4
REMARK VINA RESULT:    -4.975      3.769      7.664
REMARK INTER + INTRA:          -6.000
REMARK INTER:                  -5.709
REMARK INTRA:                  -0.291
REMARK UNBOUND:                -0.297
REMARK SMILES O=C(O)c1ccc2nc(-c3cc(Cl)cc(Cl)c3)oc2c1
REMARK SMILES IDX 5 1 6 2 20 3 8 4 18 5 4 6 9 7 7 8 19 9 2 10 1 11 3 12 10 14
REMARK SMILES IDX 11 15 17 16 12 17 15 18 14 19 13 20 16 21
REMARK H PARENT 3 13
ROOT
ATOM      1  C   UNL     1      -6.889   4.947  11.459  1.00  0.00     0.018 A 
ATOM      2  C   UNL     1      -5.966   5.237  10.499  1.00  0.00     0.033 A 
ATOM      3  C   UNL     1      -7.242   2.753  10.489  1.00  0.00     0.065 A 
ATOM      4  N   UNL     1      -4.817   4.291   8.458  1.00  0.00    -0.209 NA
ATOM      5  O   UNL     1      -5.819   2.360   8.454  1.00  0.00    -0.436 OA
ATOM      6  C   UNL     1      -7.536   3.703  11.468  1.00  0.00     0.063 A 
ATOM      7  C   UNL     1      -4.914   3.142   7.836  1.00  0.00     0.227 A 
ATOM      8  C   UNL     1      -5.662   4.293   9.511  1.00  0.00     0.110 A 
ATOM      9  C   UNL     1      -6.310   3.045   9.510  1.00  0.00     0.156 A 
ENDROOT
BRANCH   6  10
ATOM     10  C   UNL     1      -8.528   3.398  12.515  1.00  0.00     0.335 C 
ATOM     11  O   UNL     1      -8.578   2.285  12.998  1.00  0.00    -0.246 OA
BRANCH  10  12
ATOM     12  O   UNL     1      -9.381   4.354  12.935  1.00  0.00    -0.478 OA
ATOM     13  H   UNL     1     -10.279   4.074  13.155  1.00  0.00     0.297 HD
ENDBRANCH  10  12
ENDBRANCH   6  10
BRANCH   7  14
ATOM     14  C   UNL     1      -4.144   2.762   6.633  1.00  0.00     0.040 A 
ATOM     15  C   UNL     1      -2.840   3.228   6.460  1.00  0.00     0.034 A 
ATOM     16  C   UNL     1      -4.720   1.937   5.666  1.00  0.00     0.034 A 
ATOM     17  C   UNL     1      -2.126   2.868   5.334  1.00  0.00     0.043 A 
ATOM     18  C   UNL     1      -3.996   1.584   4.544  1.00  0.00     0.043 A 
ATOM     19  C   UNL     1      -2.702   2.049   4.378  1.00  0.00     0.041 A 
ATOM     20  Cl  UNL     1      -0.503   3.445   5.116  1.00  0.00    -0.084 Cl
ATOM     21  Cl  UNL     1      -4.709   0.557   3.340  1.00  0.00    -0.084 Cl
ENDBRANCH   7  14
TORSDOF 3
ENDMDL
MODEL 5
REMARK VINA RESULT:    -4.975      3.929      7.637
REMARK INTER + INTRA:          -5.999
REMARK INTER:                  -5.709
REMARK INTRA:                  -0.290
REMARK UNBOUND:                -0.297
REMARK SMILES O=C(O)c1ccc2nc(-c3cc(Cl)cc(Cl)c3)oc2c1
REMARK SMILES IDX 5 1 6 2 20 3 8 4 18 5 4 6 9 7 7 8 19 9 2 10 1 11 3 12 10 14
REMARK SMILES IDX 11 15 17 16 12 17 15 18 14 19 13 20 16 21
REMARK H PARENT 3 13
ROOT
ATOM      1  C   UNL     1      -7.259   4.064  11.531  1.00  0.00     0.018 A 
ATOM      2  C   UNL     1      -7.050   3.126  10.564  1.00  0.00     0.033 A 
ATOM      3  C   UNL     1      -5.701   5.568  10.439  1.00  0.00     0.065 A 
ATOM      4  N   UNL     1      -5.759   2.674   8.441  1.00  0.00    -0.209 NA
ATOM      5  O   UNL     1      -4.708   4.577   8.353  1.00  0.00    -0.436 OA
ATOM      6  C   UNL     1      -6.590   5.295  11.480  1.00  0.00     0.063 A 
ATOM      7  C   UNL     1      -4.898   3.385   7.756  1.00  0.00     0.227 A 
ATOM      8  C   UNL     1      -6.161   3.387   9.515  1.00  0.00     0.110 A 
ATOM      9  C   UNL     1      -5.483   4.617   9.460  1.00  0.00     0.156 A 
ENDROOT
BRANCH   6  10
ATOM     10  C   UNL     1      -6.828   6.304  12.528  1.00  0.00     0.335 C 
ATOM     11  O   UNL     1      -6.918   7.479  12.230  1.00  0.00    -0.246 OA
BRANCH  10  12
ATOM     12  O   UNL     1      -6.944   5.925  13.816  1.00  0.00    -0.478 OA
ATOM     13  H   UNL     1      -6.217   5.410  14.190  1.00  0.00     0.297 HD
ENDBRANCH  10  12
ENDBRANCH   6  10
BRANCH   7  14
ATOM     14  C   UNL     1      -4.233   2.943   6.512  1.00  0.00     0.040 A 
ATOM     15  C   UNL     1      -4.905   2.113   5.615  1.00  0.00     0.034 A 
ATOM     16  C   UNL     1      -2.929   3.355   6.231  1.00  0.00     0.034 A 
ATOM     17  C   UNL     1      -4.279   1.705   4.454  1.00  0.00     0.043 A 
ATOM     18  C   UNL     1      -2.313   2.941   5.068  1.00  0.00     0.043 A 
ATOM     19  C   UNL     1      -2.985   2.117   4.181  1.00  0.00     0.041 A 
ATOM     20  Cl  UNL     1      -5.113   0.672   3.336  1.00  0.00    -0.084 Cl
ATOM     21  Cl  UNL     1      -0.691   3.452   4.716  1.00  0.00    -0.084 Cl
ENDBRANCH   7  14
TORSDOF 3
ENDMDL
MODEL 6
REMARK VINA RESULT:    -4.974      3.769      7.448
REMARK INTER + INTRA:          -5.998
REMARK INTER:                  -5.708
REMARK INTRA:                  -0.291
REMARK UNBOUND:                -0.297
REMARK SMILES O=C(O)c1ccc2nc(-c3cc(Cl)cc(Cl)c3)oc2c1
REMARK SMILES IDX 5 1 6 2 20 3 8 4 18 5 4 6 9 7 7 8 19 9 2 10 1 11 3 12 10 14
REMARK SMILES IDX 11 15 17 16 12 17 15 18 14 19 13 20 16 21
REMARK H PARENT 3 13
ROOT
ATOM      1  C   UNL     1      -6.887   4.947  11.457  1.00  0.00     0.018 A 
ATOM      2  C   UNL     1      -5.964   5.237  10.498  1.00  0.00     0.033 A 
ATOM      3  C   UNL     1      -7.240   2.752  10.488  1.00  0.00     0.065 A 
ATOM      4  N   UNL     1      -4.813   4.289   8.458  1.00  0.00    -0.209 NA
ATOM      5  O   UNL     1      -5.816   2.358   8.455  1.00  0.00    -0.436 OA
ATOM      6  C   UNL     1      -7.535   3.703  11.467  1.00  0.00     0.063 A 
ATOM      7  C   UNL     1      -4.910   3.140   7.837  1.00  0.00     0.227 A 
ATOM      8  C   UNL     1      -5.660   4.291   9.510  1.00  0.00     0.110 A 
ATOM      9  C   UNL     1      -6.308   3.044   9.510  1.00  0.00     0.156 A 
ENDROOT
BRANCH   6  10
ATOM     10  C   UNL     1      -8.527   3.399  12.513  1.00  0.00     0.335 C 
ATOM     11  O   UNL     1      -8.579   2.285  12.996  1.00  0.00    -0.246 OA
BRANCH  10  12
ATOM     12  O   UNL     1      -9.378   4.355  12.934  1.00  0.00    -0.478 OA
ATOM     13  H   UNL     1      -9.564   4.391  13.882  1.00  0.00     0.297 HD
ENDBRANCH  10  12
ENDBRANCH   6  10
BRANCH   7  14
ATOM     14  C   UNL     1      -4.140   2.759   6.635  1.00  0.00     0.040 A 
ATOM     15  C   UNL     1      -4.713   1.931   5.668  1.00  0.00     0.034 A 
ATOM     16  C   UNL     1      -2.835   3.226   6.462  1.00  0.00     0.034 A 
ATOM     17  C   UNL     1      -3.988   1.580   4.547  1.00  0.00     0.043 A 
ATOM     18  C   UNL     1      -2.121   2.867   5.337  1.00  0.00     0.043 A 
ATOM     19  C   UNL     1      -2.694   2.046   4.381  1.00  0.00     0.041 A 
ATOM     20  Cl  UNL     1      -4.698   0.551   3.343  1.00  0.00    -0.084 Cl
ATOM     21  Cl  UNL     1      -0.498   3.447   5.120  1.00  0.00    -0.084 Cl
ENDBRANCH   7  14
TORSDOF 3
ENDMDL
MODEL 7
REMARK VINA RESULT:    -4.723      1.995      2.302
REMARK INTER + INTRA:          -5.710
REMARK INTER:                  -5.424
REMARK INTRA:                  -0.287
REMARK UNBOUND:                -0.297
REMARK SMILES O=C(O)c1ccc2nc(-c3cc(Cl)cc(Cl)c3)oc2c1
REMARK SMILES IDX 5 1 6 2 20 3 8 4 18 5 4 6 9 7 7 8 19 9 2 10 1 11 3 12 10 14
REMARK SMILES IDX 11 15 17 16 12 17 15 18 14 19 13 20 16 21
REMARK H PARENT 3 13
ROOT
ATOM      1  C   UNL     1      -3.403   3.610   4.752  1.00  0.00     0.018 A 
ATOM      2  C   UNL     1      -4.642   3.638   5.319  1.00  0.00     0.033 A 
ATOM      3  C   UNL     1      -2.410   3.047   6.891  1.00  0.00     0.065 A 
ATOM      4  N   UNL     1      -5.862   3.328   7.509  1.00  0.00    -0.209 NA
ATOM      5  O   UNL     1      -4.118   2.873   8.728  1.00  0.00    -0.436 OA
ATOM      6  C   UNL     1      -2.274   3.313   5.527  1.00  0.00     0.063 A 
ATOM      7  C   UNL     1      -5.455   3.031   8.718  1.00  0.00     0.227 A 
ATOM      8  C   UNL     1      -4.793   3.373   6.685  1.00  0.00     0.110 A 
ATOM      9  C   UNL     1      -3.665   3.079   7.471  1.00  0.00     0.156 A 
ENDROOT
BRANCH   6  10
ATOM     10  C   UNL     1      -0.940   3.280   4.901  1.00  0.00     0.335 C 
ATOM     11  O   UNL     1      -0.813   3.559   3.726  1.00  0.00    -0.246 OA
BRANCH  10  12
ATOM     12  O   UNL     1       0.140   2.939   5.633  1.00  0.00    -0.478 OA
ATOM     13  H   UNL     1       0.998   3.261   5.325  1.00  0.00     0.297 HD
ENDBRANCH  10  12
ENDBRANCH   6  10
BRANCH   7  14
ATOM     14  C   UNL     1      -6.334   2.890   9.897  1.00  0.00     0.040 A 
ATOM     15  C   UNL     1      -6.817   1.634  10.266  1.00  0.00     0.034 A 
ATOM     16  C   UNL     1      -6.686   4.014  10.647  1.00  0.00     0.034 A 
ATOM     17  C   UNL     1      -7.638   1.509  11.369  1.00  0.00     0.043 A 
ATOM     18  C   UNL     1      -7.507   3.877  11.748  1.00  0.00     0.043 A 
ATOM     19  C   UNL     1      -7.983   2.628  12.108  1.00  0.00     0.041 A 
ATOM     20  Cl  UNL     1      -8.239  -0.053  11.830  1.00  0.00    -0.084 Cl
ATOM     21  Cl  UNL     1      -7.946   5.274  12.681  1.00  0.00    -0.084 Cl
ENDBRANCH   7  14
TORSDOF 3
ENDMDL
MODEL 8
REMARK VINA RESULT:    -4.435     10.325     11.229
REMARK INTER + INTRA:          -5.381
REMARK INTER:                  -5.087
REMARK INTRA:                  -0.294
REMARK UNBOUND:                -0.297
REMARK SMILES O=C(O)c1ccc2nc(-c3cc(Cl)cc(Cl)c3)oc2c1
REMARK SMILES IDX 5 1 6 2 20 3 8 4 18 5 4 6 9 7 7 8 19 9 2 10 1 11 3 12 10 14
REMARK SMILES IDX 11 15 17 16 12 17 15 18 14 19 13 20 16 21
REMARK H PARENT 3 13
ROOT
ATOM      1  C   UNL     1      -1.439   3.120  -2.686  1.00  0.00     0.018 A 
ATOM      2  C   UNL     1      -1.481   1.763  -2.564  1.00  0.00     0.033 A 
ATOM      3  C   UNL     1       0.005   3.273  -0.744  1.00  0.00     0.065 A 
ATOM      4  N   UNL     1      -0.639  -0.160  -1.159  1.00  0.00    -0.209 NA
ATOM      5  O   UNL     1       0.512   1.023   0.258  1.00  0.00    -0.436 OA
ATOM      6  C   UNL     1      -0.695   3.891  -1.781  1.00  0.00     0.063 A 
ATOM      7  C   UNL     1       0.130  -0.217  -0.101  1.00  0.00     0.227 A 
ATOM      8  C   UNL     1      -0.783   1.131  -1.528  1.00  0.00     0.110 A 
ATOM      9  C   UNL     1      -0.040   1.897  -0.613  1.00  0.00     0.156 A 
ENDROOT
BRANCH   6  10
ATOM     10  C   UNL     1      -0.652   5.357  -1.927  1.00  0.00     0.335 C 
ATOM     11  O   UNL     1       0.383   5.958  -1.715  1.00  0.00    -0.246 OA
BRANCH  10  12
ATOM     12  O   UNL     1      -1.759   6.031  -2.294  1.00  0.00    -0.478 OA
ATOM     13  H   UNL     1      -2.354   6.316  -1.588  1.00  0.00     0.297 HD
ENDBRANCH  10  12
ENDBRANCH   6  10
BRANCH   7  14
ATOM     14  C   UNL     1       0.521  -1.460   0.597  1.00  0.00     0.040 A 
ATOM     15  C   UNL     1       1.456  -1.419   1.632  1.00  0.00     0.034 A 
ATOM     16  C   UNL     1      -0.045  -2.680   0.223  1.00  0.00     0.034 A 
ATOM     17  C   UNL     1       1.816  -2.583   2.280  1.00  0.00     0.043 A 
ATOM     18  C   UNL     1       0.322  -3.838   0.880  1.00  0.00     0.043 A 
ATOM     19  C   UNL     1       1.251  -3.791   1.905  1.00  0.00     0.041 A 
ATOM     20  Cl  UNL     1       2.979  -2.535   3.568  1.00  0.00    -0.084 Cl
ATOM     21  Cl  UNL     1      -0.381  -5.357   0.416  1.00  0.00    -0.084 Cl
ENDBRANCH   7  14
TORSDOF 3
ENDMDL
MODEL 9
REMARK VINA RESULT:    -4.425     10.362     11.121
REMARK INTER + INTRA:          -5.369
REMARK INTER:                  -5.073
REMARK INTRA:                  -0.296
REMARK UNBOUND:                -0.297
REMARK SMILES O=C(O)c1ccc2nc(-c3cc(Cl)cc(Cl)c3)oc2c1
REMARK SMILES IDX 5 1 6 2 20 3 8 4 18 5 4 6 9 7 7 8 19 9 2 10 1 11 3 12 10 14
REMARK SMILES IDX 11 15 17 16 12 17 15 18 14 19 13 20 16 21
REMARK H PARENT 3 13
ROOT
ATOM      1  C   UNL     1      -1.450   3.115  -2.701  1.00  0.00     0.018 A 
ATOM      2  C   UNL     1      -1.511   1.760  -2.567  1.00  0.00     0.033 A 
ATOM      3  C   UNL     1       0.042   3.261  -0.796  1.00  0.00     0.065 A 
ATOM      4  N   UNL     1      -0.663  -0.165  -1.167  1.00  0.00    -0.209 NA
ATOM      5  O   UNL     1       0.540   1.012   0.211  1.00  0.00    -0.436 OA
ATOM      6  C   UNL     1      -0.674   3.881  -1.822  1.00  0.00     0.063 A 
ATOM      7  C   UNL     1       0.131  -0.225  -0.127  1.00  0.00     0.227 A 
ATOM      8  C   UNL     1      -0.797   1.125  -1.543  1.00  0.00     0.110 A 
ATOM      9  C   UNL     1      -0.020   1.888  -0.653  1.00  0.00     0.156 A 
ENDROOT
BRANCH   6  10
ATOM     10  C   UNL     1      -0.612   5.346  -1.981  1.00  0.00     0.335 C 
ATOM     11  O   UNL     1       0.350   5.961  -1.566  1.00  0.00    -0.246 OA
BRANCH  10  12
ATOM     12  O   UNL     1      -1.622   6.002  -2.585  1.00  0.00    -0.478 OA
ATOM     13  H   UNL     1      -2.242   6.475  -2.014  1.00  0.00     0.297 HD
ENDBRANCH  10  12
ENDBRANCH   6  10
BRANCH   7  14
ATOM     14  C   UNL     1       0.519  -1.468   0.571  1.00  0.00     0.040 A 
ATOM     15  C   UNL     1      -0.048  -2.687   0.200  1.00  0.00     0.034 A 
ATOM     16  C   UNL     1       1.456  -1.426   1.606  1.00  0.00     0.034 A 
ATOM     17  C   UNL     1       0.320  -3.845   0.856  1.00  0.00     0.043 A 
ATOM     18  C   UNL     1       1.816  -2.590   2.255  1.00  0.00     0.043 A 
ATOM     19  C   UNL     1       1.249  -3.797   1.882  1.00  0.00     0.041 A 
ATOM     20  Cl  UNL     1      -0.385  -5.363   0.396  1.00  0.00    -0.084 Cl
ATOM     21  Cl  UNL     1       2.980  -2.541   3.542  1.00  0.00    -0.084 Cl
ENDBRANCH   7  14
TORSDOF 3
ENDMDL
