MODEL 1
REMARK VINA RESULT:    -5.922      0.000      0.000
REMARK INTER + INTRA:          -8.859
REMARK INTER:                  -8.172
REMARK INTRA:                  -0.687
REMARK UNBOUND:                -0.687
REMARK SMILES Cc1n[nH]c(C)c1CCCOc1cc(C(=O)O)ccc1F
REMARK SMILES IDX 11 1 12 2 14 3 18 4 13 5 19 6 20 7 21 8 15 9 16 10 17 11
REMARK SMILES IDX 10 13 9 14 8 15 7 16 5 17 2 18 4 19 3 20 6 21 1 22
REMARK H PARENT 17 12 4 23
ROOT
ATOM      1  O   UNL     1      -2.974   2.255   7.880  1.00  0.00    -0.490 OA
ENDROOT
BRANCH   1   2
ATOM      2  C   UNL     1      -2.988   2.180   6.523  1.00  0.00     0.155 A 
ATOM      3  C   UNL     1      -4.063   1.506   4.480  1.00  0.00     0.063 A 
ATOM      4  C   UNL     1      -3.003   2.047   3.748  1.00  0.00     0.019 A 
ATOM      5  C   UNL     1      -4.050   1.577   5.875  1.00  0.00     0.065 A 
ATOM      6  C   UNL     1      -1.951   2.652   4.403  1.00  0.00     0.044 A 
ATOM      7  C   UNL     1      -1.942   2.725   5.786  1.00  0.00     0.165 A 
ATOM      8  F   UNL     1      -0.909   3.320   6.422  1.00  0.00    -0.203 F 
BRANCH   3   9
ATOM      9  C   UNL     1      -5.191   0.858   3.782  1.00  0.00     0.335 C 
ATOM     10  O   UNL     1      -5.775  -0.070   4.303  1.00  0.00    -0.246 OA
BRANCH   9  11
ATOM     11  O   UNL     1      -5.576   1.301   2.569  1.00  0.00    -0.478 OA
ATOM     12  H   UNL     1      -5.585   0.656   1.848  1.00  0.00     0.297 HD
ENDBRANCH   9  11
ENDBRANCH   3   9
ENDBRANCH   1   2
BRANCH   1  13
ATOM     13  C   UNL     1      -3.565   3.414   8.472  1.00  0.00     0.230 C 
BRANCH  13  14
ATOM     14  C   UNL     1      -4.669   2.985   9.440  1.00  0.00     0.046 C 
BRANCH  14  15
ATOM     15  C   UNL     1      -5.946   3.771   9.138  1.00  0.00     0.043 C 
BRANCH  15  16
ATOM     16  C   UNL     1      -6.449   4.419  10.401  1.00  0.00    -0.004 A 
ATOM     17  C   UNL     1      -6.149   5.668  10.830  1.00  0.00     0.036 A 
ATOM     18  C   UNL     1      -7.314   3.840  11.336  1.00  0.00     0.063 A 
ATOM     19  N   UNL     1      -6.796   5.868  11.997  1.00  0.00    -0.282 N 
ATOM     20  N   UNL     1      -7.517   4.705  12.296  1.00  0.00    -0.181 NA
ATOM     21  C   UNL     1      -5.254   6.656  10.129  1.00  0.00     0.066 C 
ATOM     22  C   UNL     1      -7.901   2.454  11.257  1.00  0.00     0.069 C 
ATOM     23  H   UNL     1      -6.766   6.675  12.535  1.00  0.00     0.190 HD
ENDBRANCH  15  16
ENDBRANCH  14  15
ENDBRANCH  13  14
ENDBRANCH   1  13
TORSDOF 7
ENDMDL
MODEL 2
REMARK VINA RESULT:    -5.895      2.197      3.673
REMARK INTER + INTRA:          -8.822
REMARK INTER:                  -8.136
REMARK INTRA:                  -0.686
REMARK UNBOUND:                -0.687
REMARK SMILES Cc1n[nH]c(C)c1CCCOc1cc(C(=O)O)ccc1F
REMARK SMILES IDX 11 1 12 2 14 3 18 4 13 5 19 6 20 7 21 8 15 9 16 10 17 11
REMARK SMILES IDX 10 13 9 14 8 15 7 16 5 17 2 18 4 19 3 20 6 21 1 22
REMARK H PARENT 17 12 4 23
ROOT
ATOM      1  O   UNL     1      -5.745   3.568   5.793  1.00  0.00    -0.490 OA
ENDROOT
BRANCH   1   2
ATOM      2  C   UNL     1      -4.620   3.021   5.261  1.00  0.00     0.155 A 
ATOM      3  C   UNL     1      -2.224   2.953   5.063  1.00  0.00     0.063 A 
ATOM      4  C   UNL     1      -2.332   1.883   4.170  1.00  0.00     0.019 A 
ATOM      5  C   UNL     1      -3.378   3.520   5.607  1.00  0.00     0.065 A 
ATOM      6  C   UNL     1      -3.575   1.388   3.835  1.00  0.00     0.044 A 
ATOM      7  C   UNL     1      -4.718   1.949   4.380  1.00  0.00     0.165 A 
ATOM      8  F   UNL     1      -5.932   1.459   4.048  1.00  0.00    -0.203 F 
BRANCH   3   9
ATOM      9  C   UNL     1      -0.896   3.485   5.424  1.00  0.00     0.335 C 
ATOM     10  O   UNL     1      -0.748   4.676   5.608  1.00  0.00    -0.246 OA
BRANCH   9  11
ATOM     11  O   UNL     1       0.152   2.647   5.556  1.00  0.00    -0.478 OA
ATOM     12  H   UNL     1       0.567   2.332   4.741  1.00  0.00     0.297 HD
ENDBRANCH   9  11
ENDBRANCH   3   9
ENDBRANCH   1   2
BRANCH   1  13
ATOM     13  C   UNL     1      -6.202   3.030   7.036  1.00  0.00     0.230 C 
BRANCH  13  14
ATOM     14  C   UNL     1      -6.299   4.152   8.071  1.00  0.00     0.046 C 
BRANCH  14  15
ATOM     15  C   UNL     1      -5.586   3.723   9.356  1.00  0.00     0.043 C 
BRANCH  15  16
ATOM     16  C   UNL     1      -6.511   3.911  10.531  1.00  0.00    -0.004 A 
ATOM     17  C   UNL     1      -7.377   2.991  11.017  1.00  0.00     0.036 A 
ATOM     18  C   UNL     1      -6.622   5.063  11.316  1.00  0.00     0.063 A 
ATOM     19  N   UNL     1      -8.018   3.545  12.068  1.00  0.00    -0.282 N 
ATOM     20  N   UNL     1      -7.529   4.848  12.233  1.00  0.00    -0.181 NA
ATOM     21  C   UNL     1      -7.587   1.599  10.481  1.00  0.00     0.066 C 
ATOM     22  C   UNL     1      -5.840   6.338  11.129  1.00  0.00     0.069 C 
ATOM     23  H   UNL     1      -8.697   3.117  12.612  1.00  0.00     0.190 HD
ENDBRANCH  15  16
ENDBRANCH  14  15
ENDBRANCH  13  14
ENDBRANCH   1  13
TORSDOF 7
ENDMDL
MODEL 3
REMARK VINA RESULT:    -5.820      2.230      3.292
REMARK INTER + INTRA:          -8.719
REMARK INTER:                  -8.035
REMARK INTRA:                  -0.684
REMARK UNBOUND:                -0.687
REMARK SMILES Cc1n[nH]c(C)c1CCCOc1cc(C(=O)O)ccc1F
REMARK SMILES IDX 11 1 12 2 14 3 18 4 13 5 19 6 20 7 21 8 15 9 16 10 17 11
REMARK SMILES IDX 10 13 9 14 8 15 7 16 5 17 2 18 4 19 3 20 6 21 1 22
REMARK H PARENT 17 12 4 23
ROOT
ATOM      1  O   UNL     1      -5.797   3.655   5.482  1.00  0.00    -0.490 OA
ENDROOT
BRANCH   1   2
ATOM      2  C   UNL     1      -4.646   3.064   5.065  1.00  0.00     0.155 A 
ATOM      3  C   UNL     1      -2.243   2.967   5.029  1.00  0.00     0.063 A 
ATOM      4  C   UNL     1      -2.305   1.835   4.211  1.00  0.00     0.019 A 
ATOM      5  C   UNL     1      -3.423   3.580   5.455  1.00  0.00     0.065 A 
ATOM      6  C   UNL     1      -3.529   1.325   3.833  1.00  0.00     0.044 A 
ATOM      7  C   UNL     1      -4.698   1.931   4.261  1.00  0.00     0.165 A 
ATOM      8  F   UNL     1      -5.894   1.426   3.886  1.00  0.00    -0.203 F 
BRANCH   3   9
ATOM      9  C   UNL     1      -0.935   3.516   5.436  1.00  0.00     0.335 C 
ATOM     10  O   UNL     1      -0.822   4.699   5.681  1.00  0.00    -0.246 OA
BRANCH   9  11
ATOM     11  O   UNL     1       0.133   2.701   5.542  1.00  0.00    -0.478 OA
ATOM     12  H   UNL     1       0.216   1.997   4.883  1.00  0.00     0.297 HD
ENDBRANCH   9  11
ENDBRANCH   3   9
ENDBRANCH   1   2
BRANCH   1  13
ATOM     13  C   UNL     1      -6.449   3.078   6.616  1.00  0.00     0.230 C 
BRANCH  13  14
ATOM     14  C   UNL     1      -6.535   4.115   7.737  1.00  0.00     0.046 C 
BRANCH  14  15
ATOM     15  C   UNL     1      -5.674   3.662   8.918  1.00  0.00     0.043 C 
BRANCH  15  16
ATOM     16  C   UNL     1      -6.393   3.960  10.208  1.00  0.00    -0.004 A 
ATOM     17  C   UNL     1      -6.346   5.125  10.895  1.00  0.00     0.036 A 
ATOM     18  C   UNL     1      -7.233   3.084  10.904  1.00  0.00     0.063 A 
ATOM     19  N   UNL     1      -7.123   4.989  11.991  1.00  0.00    -0.282 N 
ATOM     20  N   UNL     1      -7.666   3.697  11.976  1.00  0.00    -0.181 NA
ATOM     21  C   UNL     1      -5.567   6.354  10.507  1.00  0.00     0.066 C 
ATOM     22  C   UNL     1      -7.571   1.673  10.496  1.00  0.00     0.069 C 
ATOM     23  H   UNL     1      -7.278   5.665  12.668  1.00  0.00     0.190 HD
ENDBRANCH  15  16
ENDBRANCH  14  15
ENDBRANCH  13  14
ENDBRANCH   1  13
TORSDOF 7
ENDMDL
MODEL 4
REMARK VINA RESULT:    -5.816      0.458      1.797
REMARK INTER + INTRA:          -8.713
REMARK INTER:                  -8.005
REMARK INTRA:                  -0.709
REMARK UNBOUND:                -0.687
REMARK SMILES Cc1n[nH]c(C)c1CCCOc1cc(C(=O)O)ccc1F
REMARK SMILES IDX 11 1 12 2 14 3 18 4 13 5 19 6 20 7 21 8 15 9 16 10 17 11
REMARK SMILES IDX 10 13 9 14 8 15 7 16 5 17 2 18 4 19 3 20 6 21 1 22
REMARK H PARENT 17 12 4 23
ROOT
ATOM      1  O   UNL     1      -2.733   2.570   7.744  1.00  0.00    -0.490 OA
ENDROOT
BRANCH   1   2
ATOM      2  C   UNL     1      -2.797   2.392   6.397  1.00  0.00     0.155 A 
ATOM      3  C   UNL     1      -3.956   1.588   4.450  1.00  0.00     0.063 A 
ATOM      4  C   UNL     1      -2.912   2.048   3.643  1.00  0.00     0.019 A 
ATOM      5  C   UNL     1      -3.892   1.764   5.834  1.00  0.00     0.065 A 
ATOM      6  C   UNL     1      -1.827   2.679   4.214  1.00  0.00     0.044 A 
ATOM      7  C   UNL     1      -1.768   2.857   5.586  1.00  0.00     0.165 A 
ATOM      8  F   UNL     1      -0.701   3.476   6.138  1.00  0.00    -0.203 F 
BRANCH   3   9
ATOM      9  C   UNL     1      -5.120   0.912   3.843  1.00  0.00     0.335 C 
ATOM     10  O   UNL     1      -5.664  -0.003   4.426  1.00  0.00    -0.246 OA
BRANCH   9  11
ATOM     11  O   UNL     1      -5.582   1.316   2.643  1.00  0.00    -0.478 OA
ATOM     12  H   UNL     1      -6.053   0.660   2.110  1.00  0.00     0.297 HD
ENDBRANCH   9  11
ENDBRANCH   3   9
ENDBRANCH   1   2
BRANCH   1  13
ATOM     13  C   UNL     1      -3.954   2.430   8.475  1.00  0.00     0.230 C 
BRANCH  13  14
ATOM     14  C   UNL     1      -4.241   3.722   9.240  1.00  0.00     0.046 C 
BRANCH  14  15
ATOM     15  C   UNL     1      -5.676   4.174   8.960  1.00  0.00     0.043 C 
BRANCH  15  16
ATOM     16  C   UNL     1      -6.364   4.499  10.259  1.00  0.00    -0.004 A 
ATOM     17  C   UNL     1      -7.127   3.653  10.990  1.00  0.00     0.036 A 
ATOM     18  C   UNL     1      -6.323   5.727  10.928  1.00  0.00     0.063 A 
ATOM     19  N   UNL     1      -7.559   4.324  12.079  1.00  0.00    -0.282 N 
ATOM     20  N   UNL     1      -7.044   5.626  12.015  1.00  0.00    -0.181 NA
ATOM     21  C   UNL     1      -7.439   2.220  10.649  1.00  0.00     0.066 C 
ATOM     22  C   UNL     1      -5.584   6.959  10.469  1.00  0.00     0.069 C 
ATOM     23  H   UNL     1      -8.126   3.969  12.781  1.00  0.00     0.190 HD
ENDBRANCH  15  16
ENDBRANCH  14  15
ENDBRANCH  13  14
ENDBRANCH   1  13
TORSDOF 7
ENDMDL
MODEL 5
REMARK VINA RESULT:    -5.119      4.385      7.902
REMARK INTER + INTRA:          -7.751
REMARK INTER:                  -7.130
REMARK INTRA:                  -0.621
REMARK UNBOUND:                -0.687
REMARK SMILES Cc1n[nH]c(C)c1CCCOc1cc(C(=O)O)ccc1F
REMARK SMILES IDX 11 1 12 2 14 3 18 4 13 5 19 6 20 7 21 8 15 9 16 10 17 11
REMARK SMILES IDX 10 13 9 14 8 15 7 16 5 17 2 18 4 19 3 20 6 21 1 22
REMARK H PARENT 17 12 4 23
ROOT
ATOM      1  O   UNL     1      -5.678   2.582   8.429  1.00  0.00    -0.490 OA
ENDROOT
BRANCH   1   2
ATOM      2  C   UNL     1      -6.265   3.102   9.540  1.00  0.00     0.155 A 
ATOM      3  C   UNL     1      -6.574   4.921  11.082  1.00  0.00     0.063 A 
ATOM      4  C   UNL     1      -7.484   4.147  11.807  1.00  0.00     0.019 A 
ATOM      5  C   UNL     1      -5.965   4.389   9.943  1.00  0.00     0.065 A 
ATOM      6  C   UNL     1      -7.782   2.866  11.394  1.00  0.00     0.044 A 
ATOM      7  C   UNL     1      -7.180   2.342  10.261  1.00  0.00     0.165 A 
ATOM      8  F   UNL     1      -7.476   1.086   9.862  1.00  0.00    -0.203 F 
BRANCH   3   9
ATOM      9  C   UNL     1      -6.253   6.293  11.521  1.00  0.00     0.335 C 
ATOM     10  O   UNL     1      -5.318   6.887  11.025  1.00  0.00    -0.246 OA
BRANCH   9  11
ATOM     11  O   UNL     1      -7.003   6.889  12.469  1.00  0.00    -0.478 OA
ATOM     12  H   UNL     1      -6.841   6.628  13.386  1.00  0.00     0.297 HD
ENDBRANCH   9  11
ENDBRANCH   3   9
ENDBRANCH   1   2
BRANCH   1  13
ATOM     13  C   UNL     1      -5.729   3.373   7.239  1.00  0.00     0.230 C 
BRANCH  13  14
ATOM     14  C   UNL     1      -4.306   3.645   6.748  1.00  0.00     0.046 C 
BRANCH  14  15
ATOM     15  C   UNL     1      -3.572   2.317   6.548  1.00  0.00     0.043 C 
BRANCH  15  16
ATOM     16  C   UNL     1      -3.007   2.260   5.152  1.00  0.00    -0.004 A 
ATOM     17  C   UNL     1      -3.616   1.727   4.068  1.00  0.00     0.036 A 
ATOM     18  C   UNL     1      -1.763   2.754   4.747  1.00  0.00     0.063 A 
ATOM     19  N   UNL     1      -2.784   1.872   3.015  1.00  0.00    -0.282 N 
ATOM     20  N   UNL     1      -1.625   2.516   3.468  1.00  0.00    -0.181 NA
ATOM     21  C   UNL     1      -4.979   1.086   4.040  1.00  0.00     0.066 C 
ATOM     22  C   UNL     1      -0.750   3.433   5.634  1.00  0.00     0.069 C 
ATOM     23  H   UNL     1      -2.957   1.582   2.107  1.00  0.00     0.190 HD
ENDBRANCH  15  16
ENDBRANCH  14  15
ENDBRANCH  13  14
ENDBRANCH   1  13
TORSDOF 7
ENDMDL
MODEL 6
REMARK VINA RESULT:    -4.991      4.395      7.765
REMARK INTER + INTRA:          -7.574
REMARK INTER:                  -6.892
REMARK INTRA:                  -0.682
REMARK UNBOUND:                -0.687
REMARK SMILES Cc1n[nH]c(C)c1CCCOc1cc(C(=O)O)ccc1F
REMARK SMILES IDX 11 1 12 2 14 3 18 4 13 5 19 6 20 7 21 8 15 9 16 10 17 11
REMARK SMILES IDX 10 13 9 14 8 15 7 16 5 17 2 18 4 19 3 20 6 21 1 22
REMARK H PARENT 17 12 4 23
ROOT
ATOM      1  O   UNL     1      -5.586   2.703   8.513  1.00  0.00    -0.490 OA
ENDROOT
BRANCH   1   2
ATOM      2  C   UNL     1      -6.246   3.163   9.610  1.00  0.00     0.155 A 
ATOM      3  C   UNL     1      -6.671   4.905  11.212  1.00  0.00     0.063 A 
ATOM      4  C   UNL     1      -7.611   4.087  11.845  1.00  0.00     0.019 A 
ATOM      5  C   UNL     1      -5.988   4.434  10.088  1.00  0.00     0.065 A 
ATOM      6  C   UNL     1      -7.865   2.823  11.357  1.00  0.00     0.044 A 
ATOM      7  C   UNL     1      -7.190   2.360  10.239  1.00  0.00     0.165 A 
ATOM      8  F   UNL     1      -7.444   1.121   9.765  1.00  0.00    -0.203 F 
BRANCH   3   9
ATOM      9  C   UNL     1      -6.396   6.259  11.732  1.00  0.00     0.335 C 
ATOM     10  O   UNL     1      -7.056   6.702  12.650  1.00  0.00    -0.246 OA
BRANCH   9  11
ATOM     11  O   UNL     1      -5.409   7.000  11.192  1.00  0.00    -0.478 OA
ATOM     12  H   UNL     1      -5.673   7.786  10.693  1.00  0.00     0.297 HD
ENDBRANCH   9  11
ENDBRANCH   3   9
ENDBRANCH   1   2
BRANCH   1  13
ATOM     13  C   UNL     1      -5.806   3.400   7.284  1.00  0.00     0.230 C 
BRANCH  13  14
ATOM     14  C   UNL     1      -4.460   3.722   6.633  1.00  0.00     0.046 C 
BRANCH  14  15
ATOM     15  C   UNL     1      -3.616   2.449   6.550  1.00  0.00     0.043 C 
BRANCH  15  16
ATOM     16  C   UNL     1      -3.027   2.325   5.169  1.00  0.00    -0.004 A 
ATOM     17  C   UNL     1      -1.808   2.766   4.781  1.00  0.00     0.036 A 
ATOM     18  C   UNL     1      -3.641   1.728   4.063  1.00  0.00     0.063 A 
ATOM     19  N   UNL     1      -1.658   2.464   3.474  1.00  0.00    -0.282 N 
ATOM     20  N   UNL     1      -2.824   1.817   3.045  1.00  0.00    -0.181 NA
ATOM     21  C   UNL     1      -0.798   3.467   5.651  1.00  0.00     0.066 C 
ATOM     22  C   UNL     1      -5.011   1.101   4.045  1.00  0.00     0.069 C 
ATOM     23  H   UNL     1      -0.882   2.662   2.928  1.00  0.00     0.190 HD
ENDBRANCH  15  16
ENDBRANCH  14  15
ENDBRANCH  13  14
ENDBRANCH   1  13
TORSDOF 7
ENDMDL
MODEL 7
REMARK VINA RESULT:    -4.953      3.939      6.816
REMARK INTER + INTRA:          -7.522
REMARK INTER:                  -6.743
REMARK INTRA:                  -0.779
REMARK UNBOUND:                -0.687
REMARK SMILES Cc1n[nH]c(C)c1CCCOc1cc(C(=O)O)ccc1F
REMARK SMILES IDX 11 1 12 2 14 3 18 4 13 5 19 6 20 7 21 8 15 9 16 10 17 11
REMARK SMILES IDX 10 13 9 14 8 15 7 16 5 17 2 18 4 19 3 20 6 21 1 22
REMARK H PARENT 17 12 4 23
ROOT
ATOM      1  O   UNL     1      -4.450   3.990   7.913  1.00  0.00    -0.490 OA
ENDROOT
BRANCH   1   2
ATOM      2  C   UNL     1      -5.300   4.005   8.973  1.00  0.00     0.155 A 
ATOM      3  C   UNL     1      -6.820   2.864  10.446  1.00  0.00     0.063 A 
ATOM      4  C   UNL     1      -7.027   4.055  11.149  1.00  0.00     0.019 A 
ATOM      5  C   UNL     1      -5.951   2.846   9.354  1.00  0.00     0.065 A 
ATOM      6  C   UNL     1      -6.369   5.204  10.765  1.00  0.00     0.044 A 
ATOM      7  C   UNL     1      -5.503   5.182   9.684  1.00  0.00     0.165 A 
ATOM      8  F   UNL     1      -4.861   6.312   9.314  1.00  0.00    -0.203 F 
BRANCH   3   9
ATOM      9  C   UNL     1      -7.523   1.632  10.854  1.00  0.00     0.335 C 
ATOM     10  O   UNL     1      -8.231   1.634  11.840  1.00  0.00    -0.246 OA
BRANCH   9  11
ATOM     11  O   UNL     1      -7.383   0.505  10.128  1.00  0.00    -0.478 OA
ATOM     12  H   UNL     1      -8.194   0.070   9.833  1.00  0.00     0.297 HD
ENDBRANCH   9  11
ENDBRANCH   3   9
ENDBRANCH   1   2
BRANCH   1  13
ATOM     13  C   UNL     1      -3.677   2.802   7.717  1.00  0.00     0.230 C 
BRANCH  13  14
ATOM     14  C   UNL     1      -2.709   3.010   6.551  1.00  0.00     0.046 C 
BRANCH  14  15
ATOM     15  C   UNL     1      -3.437   3.713   5.403  1.00  0.00     0.043 C 
BRANCH  15  16
ATOM     16  C   UNL     1      -4.215   2.700   4.605  1.00  0.00    -0.004 A 
ATOM     17  C   UNL     1      -3.690   1.741   3.807  1.00  0.00     0.036 A 
ATOM     18  C   UNL     1      -5.608   2.579   4.562  1.00  0.00     0.063 A 
ATOM     19  N   UNL     1      -4.714   1.043   3.274  1.00  0.00    -0.282 N 
ATOM     20  N   UNL     1      -5.908   1.591   3.759  1.00  0.00    -0.181 NA
ATOM     21  C   UNL     1      -2.224   1.497   3.560  1.00  0.00     0.066 C 
ATOM     22  C   UNL     1      -6.594   3.446   5.304  1.00  0.00     0.069 C 
ATOM     23  H   UNL     1      -4.637   0.295   2.662  1.00  0.00     0.190 HD
ENDBRANCH  15  16
ENDBRANCH  14  15
ENDBRANCH  13  14
ENDBRANCH   1  13
TORSDOF 7
ENDMDL
MODEL 8
REMARK VINA RESULT:    -4.941      4.232      7.493
REMARK INTER + INTRA:          -7.505
REMARK INTER:                  -6.917
REMARK INTRA:                  -0.588
REMARK UNBOUND:                -0.687
REMARK SMILES Cc1n[nH]c(C)c1CCCOc1cc(C(=O)O)ccc1F
REMARK SMILES IDX 11 1 12 2 14 3 18 4 13 5 19 6 20 7 21 8 15 9 16 10 17 11
REMARK SMILES IDX 10 13 9 14 8 15 7 16 5 17 2 18 4 19 3 20 6 21 1 22
REMARK H PARENT 17 12 4 23
ROOT
ATOM      1  O   UNL     1      -4.857   4.223   8.348  1.00  0.00    -0.490 OA
ENDROOT
BRANCH   1   2
ATOM      2  C   UNL     1      -5.616   4.384   9.464  1.00  0.00     0.155 A 
ATOM      3  C   UNL     1      -7.165   3.505  11.080  1.00  0.00     0.063 A 
ATOM      4  C   UNL     1      -7.152   4.730  11.753  1.00  0.00     0.019 A 
ATOM      5  C   UNL     1      -6.391   3.338   9.930  1.00  0.00     0.065 A 
ATOM      6  C   UNL     1      -6.371   5.765  11.284  1.00  0.00     0.044 A 
ATOM      7  C   UNL     1      -5.600   5.595  10.146  1.00  0.00     0.165 A 
ATOM      8  F   UNL     1      -4.837   6.614   9.693  1.00  0.00    -0.203 F 
BRANCH   3   9
ATOM      9  C   UNL     1      -7.999   2.394  11.579  1.00  0.00     0.335 C 
ATOM     10  O   UNL     1      -7.537   1.275  11.657  1.00  0.00    -0.246 OA
BRANCH   9  11
ATOM     11  O   UNL     1      -9.273   2.625  11.954  1.00  0.00    -0.478 OA
ATOM     12  H   UNL     1      -9.763   3.294  11.456  1.00  0.00     0.297 HD
ENDBRANCH   9  11
ENDBRANCH   3   9
ENDBRANCH   1   2
BRANCH   1  13
ATOM     13  C   UNL     1      -3.997   3.081   8.307  1.00  0.00     0.230 C 
BRANCH  13  14
ATOM     14  C   UNL     1      -4.414   2.172   7.149  1.00  0.00     0.046 C 
BRANCH  14  15
ATOM     15  C   UNL     1      -4.431   2.977   5.849  1.00  0.00     0.043 C 
BRANCH  15  16
ATOM     16  C   UNL     1      -3.560   2.298   4.824  1.00  0.00    -0.004 A 
ATOM     17  C   UNL     1      -3.968   1.392   3.906  1.00  0.00     0.036 A 
ATOM     18  C   UNL     1      -2.186   2.497   4.651  1.00  0.00     0.063 A 
ATOM     19  N   UNL     1      -2.890   1.026   3.181  1.00  0.00    -0.282 N 
ATOM     20  N   UNL     1      -1.782   1.730   3.671  1.00  0.00    -0.181 NA
ATOM     21  C   UNL     1      -5.375   0.884   3.725  1.00  0.00     0.066 C 
ATOM     22  C   UNL     1      -1.318   3.425   5.461  1.00  0.00     0.069 C 
ATOM     23  H   UNL     1      -2.884   0.388   2.451  1.00  0.00     0.190 HD
ENDBRANCH  15  16
ENDBRANCH  14  15
ENDBRANCH  13  14
ENDBRANCH   1  13
TORSDOF 7
ENDMDL
MODEL 9
REMARK VINA RESULT:    -4.870      4.339      7.439
REMARK INTER + INTRA:          -7.407
REMARK INTER:                  -6.572
REMARK INTRA:                  -0.834
REMARK UNBOUND:                -0.687
REMARK SMILES Cc1n[nH]c(C)c1CCCOc1cc(C(=O)O)ccc1F
REMARK SMILES IDX 11 1 12 2 14 3 18 4 13 5 19 6 20 7 21 8 15 9 16 10 17 11
REMARK SMILES IDX 10 13 9 14 8 15 7 16 5 17 2 18 4 19 3 20 6 21 1 22
REMARK H PARENT 17 12 4 23
ROOT
ATOM      1  O   UNL     1      -5.933   3.549   7.898  1.00  0.00    -0.490 OA
ENDROOT
BRANCH   1   2
ATOM      2  C   UNL     1      -6.286   3.946   9.149  1.00  0.00     0.155 A 
ATOM      3  C   UNL     1      -7.452   3.549  11.215  1.00  0.00     0.063 A 
ATOM      4  C   UNL     1      -6.987   4.771  11.708  1.00  0.00     0.019 A 
ATOM      5  C   UNL     1      -7.096   3.140   9.928  1.00  0.00     0.065 A 
ATOM      6  C   UNL     1      -6.175   5.566  10.926  1.00  0.00     0.044 A 
ATOM      7  C   UNL     1      -5.819   5.155   9.652  1.00  0.00     0.165 A 
ATOM      8  F   UNL     1      -5.022   5.938   8.891  1.00  0.00    -0.203 F 
BRANCH   3   9
ATOM      9  C   UNL     1      -8.322   2.697  12.049  1.00  0.00     0.335 C 
ATOM     10  O   UNL     1      -8.510   1.538  11.742  1.00  0.00    -0.246 OA
BRANCH   9  11
ATOM     11  O   UNL     1      -8.901   3.204  13.155  1.00  0.00    -0.478 OA
ATOM     12  H   UNL     1      -9.052   4.159  13.173  1.00  0.00     0.297 HD
ENDBRANCH   9  11
ENDBRANCH   3   9
ENDBRANCH   1   2
BRANCH   1  13
ATOM     13  C   UNL     1      -5.086   2.401   7.796  1.00  0.00     0.230 C 
BRANCH  13  14
ATOM     14  C   UNL     1      -3.711   2.828   7.281  1.00  0.00     0.046 C 
BRANCH  14  15
ATOM     15  C   UNL     1      -3.865   3.512   5.921  1.00  0.00     0.043 C 
BRANCH  15  16
ATOM     16  C   UNL     1      -3.248   2.651   4.851  1.00  0.00    -0.004 A 
ATOM     17  C   UNL     1      -1.938   2.620   4.510  1.00  0.00     0.036 A 
ATOM     18  C   UNL     1      -3.925   1.736   4.038  1.00  0.00     0.063 A 
ATOM     19  N   UNL     1      -1.794   1.722   3.512  1.00  0.00    -0.282 N 
ATOM     20  N   UNL     1      -3.056   1.184   3.231  1.00  0.00    -0.181 NA
ATOM     21  C   UNL     1      -0.839   3.440   5.133  1.00  0.00     0.066 C 
ATOM     22  C   UNL     1      -5.404   1.445   4.077  1.00  0.00     0.069 C 
ATOM     23  H   UNL     1      -0.963   1.492   3.068  1.00  0.00     0.190 HD
ENDBRANCH  15  16
ENDBRANCH  14  15
ENDBRANCH  13  14
ENDBRANCH   1  13
TORSDOF 7
ENDMDL
