MODEL 1
REMARK VINA RESULT:    -5.878      0.000      0.000
REMARK INTER + INTRA:          -8.777
REMARK INTER:                  -8.112
REMARK INTRA:                  -0.665
REMARK UNBOUND:                -0.665
REMARK SMILES Cc1n[nH]c(C)c1CCCOc1cc(C(=O)O)ccc1F
REMARK SMILES IDX 11 1 12 2 14 3 18 4 13 5 19 6 20 7 21 8 15 9 16 10 17 11
REMARK SMILES IDX 10 13 9 14 8 15 7 16 5 17 2 18 4 19 3 20 6 21 1 22
REMARK H PARENT 17 12 4 23
ROOT
ATOM      1  O   UNL     1       6.958  -2.595   6.287  1.00  0.00    -0.490 OA
ENDROOT
BRANCH   1   2
ATOM      2  C   UNL     1       5.891  -2.469   5.454  1.00  0.00     0.155 A 
ATOM      3  C   UNL     1       4.018  -3.439   4.300  1.00  0.00     0.063 A 
ATOM      4  C   UNL     1       3.709  -2.188   3.758  1.00  0.00     0.019 A 
ATOM      5  C   UNL     1       5.116  -3.573   5.152  1.00  0.00     0.065 A 
ATOM      6  C   UNL     1       4.485  -1.092   4.070  1.00  0.00     0.044 A 
ATOM      7  C   UNL     1       5.571  -1.226   4.919  1.00  0.00     0.165 A 
ATOM      8  F   UNL     1       6.327  -0.148   5.221  1.00  0.00    -0.203 F 
BRANCH   3   9
ATOM      9  C   UNL     1       3.189  -4.614   3.969  1.00  0.00     0.335 C 
ATOM     10  O   UNL     1       3.711  -5.698   3.803  1.00  0.00    -0.246 OA
BRANCH   9  11
ATOM     11  O   UNL     1       1.852  -4.486   3.856  1.00  0.00    -0.478 OA
ATOM     12  H   UNL     1       1.495  -3.587   3.872  1.00  0.00     0.297 HD
ENDBRANCH   9  11
ENDBRANCH   3   9
ENDBRANCH   1   2
BRANCH   1  13
ATOM     13  C   UNL     1       6.688  -2.596   7.691  1.00  0.00     0.230 C 
BRANCH  13  14
ATOM     14  C   UNL     1       7.320  -3.834   8.331  1.00  0.00     0.046 C 
BRANCH  14  15
ATOM     15  C   UNL     1       6.361  -4.416   9.371  1.00  0.00     0.043 C 
BRANCH  15  16
ATOM     16  C   UNL     1       7.080  -4.574  10.686  1.00  0.00    -0.004 A 
ATOM     17  C   UNL     1       7.168  -3.641  11.662  1.00  0.00     0.036 A 
ATOM     18  C   UNL     1       7.769  -5.713  11.116  1.00  0.00     0.063 A 
ATOM     19  N   UNL     1       7.892  -4.168  12.671  1.00  0.00    -0.282 N 
ATOM     20  N   UNL     1       8.263  -5.468  12.302  1.00  0.00    -0.181 NA
ATOM     21  C   UNL     1       6.564  -2.261  11.629  1.00  0.00     0.066 C 
ATOM     22  C   UNL     1       7.927  -6.996  10.340  1.00  0.00     0.069 C 
ATOM     23  H   UNL     1       8.118  -3.725  13.504  1.00  0.00     0.190 HD
ENDBRANCH  15  16
ENDBRANCH  14  15
ENDBRANCH  13  14
ENDBRANCH   1  13
TORSDOF 7
ENDMDL
MODEL 2
REMARK VINA RESULT:    -5.861      2.090      3.597
REMARK INTER + INTRA:          -8.752
REMARK INTER:                  -8.103
REMARK INTRA:                  -0.649
REMARK UNBOUND:                -0.665
REMARK SMILES Cc1n[nH]c(C)c1CCCOc1cc(C(=O)O)ccc1F
REMARK SMILES IDX 11 1 12 2 14 3 18 4 13 5 19 6 20 7 21 8 15 9 16 10 17 11
REMARK SMILES IDX 10 13 9 14 8 15 7 16 5 17 2 18 4 19 3 20 6 21 1 22
REMARK H PARENT 17 12 4 23
ROOT
ATOM      1  O   UNL     1       4.116  -3.982   7.021  1.00  0.00    -0.490 OA
ENDROOT
BRANCH   1   2
ATOM      2  C   UNL     1       4.165  -3.215   5.900  1.00  0.00     0.155 A 
ATOM      3  C   UNL     1       4.818  -1.186   4.785  1.00  0.00     0.063 A 
ATOM      4  C   UNL     1       4.264  -1.666   3.595  1.00  0.00     0.019 A 
ATOM      5  C   UNL     1       4.765  -1.970   5.940  1.00  0.00     0.065 A 
ATOM      6  C   UNL     1       3.673  -2.912   3.563  1.00  0.00     0.044 A 
ATOM      7  C   UNL     1       3.626  -3.689   4.709  1.00  0.00     0.165 A 
ATOM      8  F   UNL     1       3.045  -4.909   4.671  1.00  0.00    -0.203 F 
BRANCH   3   9
ATOM      9  C   UNL     1       5.452   0.146   4.822  1.00  0.00     0.335 C 
ATOM     10  O   UNL     1       5.251   0.888   5.762  1.00  0.00    -0.246 OA
BRANCH   9  11
ATOM     11  O   UNL     1       6.259   0.536   3.816  1.00  0.00    -0.478 OA
ATOM     12  H   UNL     1       6.049   1.377   3.386  1.00  0.00     0.297 HD
ENDBRANCH   9  11
ENDBRANCH   3   9
ENDBRANCH   1   2
BRANCH   1  13
ATOM     13  C   UNL     1       4.918  -3.564   8.129  1.00  0.00     0.230 C 
BRANCH  13  14
ATOM     14  C   UNL     1       5.541  -4.791   8.797  1.00  0.00     0.046 C 
BRANCH  14  15
ATOM     15  C   UNL     1       7.043  -4.563   8.981  1.00  0.00     0.043 C 
BRANCH  15  16
ATOM     16  C   UNL     1       7.439  -4.925  10.389  1.00  0.00    -0.004 A 
ATOM     17  C   UNL     1       7.885  -6.132  10.805  1.00  0.00     0.036 A 
ATOM     18  C   UNL     1       7.415  -4.070  11.496  1.00  0.00     0.063 A 
ATOM     19  N   UNL     1       8.129  -6.047  12.130  1.00  0.00    -0.282 N 
ATOM     20  N   UNL     1       7.822  -4.743  12.541  1.00  0.00    -0.181 NA
ATOM     21  C   UNL     1       8.077  -7.353   9.944  1.00  0.00     0.066 C 
ATOM     22  C   UNL     1       6.983  -2.626  11.489  1.00  0.00     0.069 C 
ATOM     23  H   UNL     1       8.458  -6.761  12.697  1.00  0.00     0.190 HD
ENDBRANCH  15  16
ENDBRANCH  14  15
ENDBRANCH  13  14
ENDBRANCH   1  13
TORSDOF 7
ENDMDL
MODEL 3
REMARK VINA RESULT:    -5.859      2.070      3.119
REMARK INTER + INTRA:          -8.750
REMARK INTER:                  -8.118
REMARK INTRA:                  -0.632
REMARK UNBOUND:                -0.665
REMARK SMILES Cc1n[nH]c(C)c1CCCOc1cc(C(=O)O)ccc1F
REMARK SMILES IDX 11 1 12 2 14 3 18 4 13 5 19 6 20 7 21 8 15 9 16 10 17 11
REMARK SMILES IDX 10 13 9 14 8 15 7 16 5 17 2 18 4 19 3 20 6 21 1 22
REMARK H PARENT 17 12 4 23
ROOT
ATOM      1  O   UNL     1       4.176  -4.025   7.023  1.00  0.00    -0.490 OA
ENDROOT
BRANCH   1   2
ATOM      2  C   UNL     1       4.209  -3.253   5.904  1.00  0.00     0.155 A 
ATOM      3  C   UNL     1       4.832  -1.213   4.793  1.00  0.00     0.063 A 
ATOM      4  C   UNL     1       4.275  -1.694   3.606  1.00  0.00     0.019 A 
ATOM      5  C   UNL     1       4.795  -2.002   5.945  1.00  0.00     0.065 A 
ATOM      6  C   UNL     1       3.697  -2.946   3.573  1.00  0.00     0.044 A 
ATOM      7  C   UNL     1       3.667  -3.728   4.715  1.00  0.00     0.165 A 
ATOM      8  F   UNL     1       3.099  -4.954   4.677  1.00  0.00    -0.203 F 
BRANCH   3   9
ATOM      9  C   UNL     1       5.451   0.126   4.832  1.00  0.00     0.335 C 
ATOM     10  O   UNL     1       5.262   0.856   5.783  1.00  0.00    -0.246 OA
BRANCH   9  11
ATOM     11  O   UNL     1       6.233   0.536   3.813  1.00  0.00    -0.478 OA
ATOM     12  H   UNL     1       6.373  -0.089   3.088  1.00  0.00     0.297 HD
ENDBRANCH   9  11
ENDBRANCH   3   9
ENDBRANCH   1   2
BRANCH   1  13
ATOM     13  C   UNL     1       4.936  -3.573   8.146  1.00  0.00     0.230 C 
BRANCH  13  14
ATOM     14  C   UNL     1       5.524  -4.778   8.881  1.00  0.00     0.046 C 
BRANCH  14  15
ATOM     15  C   UNL     1       7.038  -4.604   9.019  1.00  0.00     0.043 C 
BRANCH  15  16
ATOM     16  C   UNL     1       7.442  -4.823  10.454  1.00  0.00    -0.004 A 
ATOM     17  C   UNL     1       7.445  -3.887  11.432  1.00  0.00     0.036 A 
ATOM     18  C   UNL     1       7.873  -6.030  11.012  1.00  0.00     0.063 A 
ATOM     19  N   UNL     1       7.870  -4.480  12.567  1.00  0.00    -0.282 N 
ATOM     20  N   UNL     1       8.137  -5.825  12.277  1.00  0.00    -0.181 NA
ATOM     21  C   UNL     1       7.045  -2.443  11.280  1.00  0.00     0.066 C 
ATOM     22  C   UNL     1       8.022  -7.340  10.280  1.00  0.00     0.069 C 
ATOM     23  H   UNL     1       7.973  -4.052  13.431  1.00  0.00     0.190 HD
ENDBRANCH  15  16
ENDBRANCH  14  15
ENDBRANCH  13  14
ENDBRANCH   1  13
TORSDOF 7
ENDMDL
MODEL 4
REMARK VINA RESULT:    -5.812      0.459      1.786
REMARK INTER + INTRA:          -8.686
REMARK INTER:                  -8.046
REMARK INTRA:                  -0.640
REMARK UNBOUND:                -0.665
REMARK SMILES Cc1n[nH]c(C)c1CCCOc1cc(C(=O)O)ccc1F
REMARK SMILES IDX 11 1 12 2 14 3 18 4 13 5 19 6 20 7 21 8 15 9 16 10 17 11
REMARK SMILES IDX 10 13 9 14 8 15 7 16 5 17 2 18 4 19 3 20 6 21 1 22
REMARK H PARENT 17 12 4 23
ROOT
ATOM      1  O   UNL     1       6.877  -2.415   6.327  1.00  0.00    -0.490 OA
ENDROOT
BRANCH   1   2
ATOM      2  C   UNL     1       5.822  -2.330   5.473  1.00  0.00     0.155 A 
ATOM      3  C   UNL     1       3.995  -3.366   4.302  1.00  0.00     0.063 A 
ATOM      4  C   UNL     1       3.664  -2.132   3.736  1.00  0.00     0.019 A 
ATOM      5  C   UNL     1       5.082  -3.458   5.175  1.00  0.00     0.065 A 
ATOM      6  C   UNL     1       4.405  -1.011   4.044  1.00  0.00     0.044 A 
ATOM      7  C   UNL     1       5.479  -1.104   4.914  1.00  0.00     0.165 A 
ATOM      8  F   UNL     1       6.201  -0.002   5.212  1.00  0.00    -0.203 F 
BRANCH   3   9
ATOM      9  C   UNL     1       3.204  -4.568   3.975  1.00  0.00     0.335 C 
ATOM     10  O   UNL     1       3.761  -5.631   3.791  1.00  0.00    -0.246 OA
BRANCH   9  11
ATOM     11  O   UNL     1       1.862  -4.487   3.886  1.00  0.00    -0.478 OA
ATOM     12  H   UNL     1       1.451  -4.852   3.090  1.00  0.00     0.297 HD
ENDBRANCH   9  11
ENDBRANCH   3   9
ENDBRANCH   1   2
BRANCH   1  13
ATOM     13  C   UNL     1       6.936  -3.566   7.173  1.00  0.00     0.230 C 
BRANCH  13  14
ATOM     14  C   UNL     1       7.282  -3.133   8.598  1.00  0.00     0.046 C 
BRANCH  14  15
ATOM     15  C   UNL     1       6.285  -3.758   9.577  1.00  0.00     0.043 C 
BRANCH  15  16
ATOM     16  C   UNL     1       7.030  -4.347  10.747  1.00  0.00    -0.004 A 
ATOM     17  C   UNL     1       7.596  -5.576  10.794  1.00  0.00     0.036 A 
ATOM     18  C   UNL     1       7.266  -3.718  11.974  1.00  0.00     0.063 A 
ATOM     19  N   UNL     1       8.163  -5.721  12.010  1.00  0.00    -0.282 N 
ATOM     20  N   UNL     1       7.939  -4.543  12.734  1.00  0.00    -0.181 NA
ATOM     21  C   UNL     1       7.592  -6.597   9.687  1.00  0.00     0.066 C 
ATOM     22  C   UNL     1       6.813  -2.333  12.358  1.00  0.00     0.069 C 
ATOM     23  H   UNL     1       8.640  -6.504  12.327  1.00  0.00     0.190 HD
ENDBRANCH  15  16
ENDBRANCH  14  15
ENDBRANCH  13  14
ENDBRANCH   1  13
TORSDOF 7
ENDMDL
MODEL 5
REMARK VINA RESULT:    -5.232      4.243      7.579
REMARK INTER + INTRA:          -7.884
REMARK INTER:                  -7.281
REMARK INTRA:                  -0.603
REMARK UNBOUND:                -0.665
REMARK SMILES Cc1n[nH]c(C)c1CCCOc1cc(C(=O)O)ccc1F
REMARK SMILES IDX 11 1 12 2 14 3 18 4 13 5 19 6 20 7 21 8 15 9 16 10 17 11
REMARK SMILES IDX 10 13 9 14 8 15 7 16 5 17 2 18 4 19 3 20 6 21 1 22
REMARK H PARENT 17 12 4 23
ROOT
ATOM      1  O   UNL     1       5.929  -2.912   8.645  1.00  0.00    -0.490 OA
ENDROOT
BRANCH   1   2
ATOM      2  C   UNL     1       6.516  -3.506   9.717  1.00  0.00     0.155 A 
ATOM      3  C   UNL     1       7.583  -5.412  10.725  1.00  0.00     0.063 A 
ATOM      4  C   UNL     1       7.722  -4.698  11.918  1.00  0.00     0.019 A 
ATOM      5  C   UNL     1       6.975  -4.806   9.622  1.00  0.00     0.065 A 
ATOM      6  C   UNL     1       7.267  -3.399  12.001  1.00  0.00     0.044 A 
ATOM      7  C   UNL     1       6.670  -2.799  10.905  1.00  0.00     0.165 A 
ATOM      8  F   UNL     1       6.225  -1.526  10.994  1.00  0.00    -0.203 F 
BRANCH   3   9
ATOM      9  C   UNL     1       8.069  -6.802  10.632  1.00  0.00     0.335 C 
ATOM     10  O   UNL     1       8.849  -7.229  11.458  1.00  0.00    -0.246 OA
BRANCH   9  11
ATOM     11  O   UNL     1       7.643  -7.599   9.632  1.00  0.00    -0.478 OA
ATOM     12  H   UNL     1       7.853  -8.541   9.701  1.00  0.00     0.297 HD
ENDBRANCH   9  11
ENDBRANCH   3   9
ENDBRANCH   1   2
BRANCH   1  13
ATOM     13  C   UNL     1       6.604  -3.027   7.389  1.00  0.00     0.230 C 
BRANCH  13  14
ATOM     14  C   UNL     1       5.688  -3.720   6.380  1.00  0.00     0.046 C 
BRANCH  14  15
ATOM     15  C   UNL     1       4.380  -2.936   6.256  1.00  0.00     0.043 C 
BRANCH  15  16
ATOM     16  C   UNL     1       4.161  -2.547   4.817  1.00  0.00    -0.004 A 
ATOM     17  C   UNL     1       3.569  -3.308   3.867  1.00  0.00     0.036 A 
ATOM     18  C   UNL     1       4.527  -1.332   4.227  1.00  0.00     0.063 A 
ATOM     19  N   UNL     1       3.568  -2.603   2.716  1.00  0.00    -0.282 N 
ATOM     20  N   UNL     1       4.179  -1.368   2.967  1.00  0.00    -0.181 NA
ATOM     21  C   UNL     1       3.012  -4.694   4.061  1.00  0.00     0.066 C 
ATOM     22  C   UNL     1       5.217  -0.185   4.922  1.00  0.00     0.069 C 
ATOM     23  H   UNL     1       3.208  -2.900   1.866  1.00  0.00     0.190 HD
ENDBRANCH  15  16
ENDBRANCH  14  15
ENDBRANCH  13  14
ENDBRANCH   1  13
TORSDOF 7
ENDMDL
MODEL 6
REMARK VINA RESULT:    -5.201      4.372      7.915
REMARK INTER + INTRA:          -7.842
REMARK INTER:                  -7.210
REMARK INTRA:                  -0.631
REMARK UNBOUND:                -0.665
REMARK SMILES Cc1n[nH]c(C)c1CCCOc1cc(C(=O)O)ccc1F
REMARK SMILES IDX 11 1 12 2 14 3 18 4 13 5 19 6 20 7 21 8 15 9 16 10 17 11
REMARK SMILES IDX 10 13 9 14 8 15 7 16 5 17 2 18 4 19 3 20 6 21 1 22
REMARK H PARENT 17 12 4 23
ROOT
ATOM      1  O   UNL     1       6.303  -4.600   7.773  1.00  0.00    -0.490 OA
ENDROOT
BRANCH   1   2
ATOM      2  C   UNL     1       6.835  -4.956   8.972  1.00  0.00     0.155 A 
ATOM      3  C   UNL     1       7.401  -4.418  11.247  1.00  0.00     0.063 A 
ATOM      4  C   UNL     1       7.916  -5.706  11.419  1.00  0.00     0.019 A 
ATOM      5  C   UNL     1       6.859  -4.048  10.014  1.00  0.00     0.065 A 
ATOM      6  C   UNL     1       7.882  -6.607  10.375  1.00  0.00     0.044 A 
ATOM      7  C   UNL     1       7.339  -6.238   9.155  1.00  0.00     0.165 A 
ATOM      8  F   UNL     1       7.309  -7.126   8.137  1.00  0.00    -0.203 F 
BRANCH   3   9
ATOM      9  C   UNL     1       7.436  -3.452  12.362  1.00  0.00     0.335 C 
ATOM     10  O   UNL     1       7.665  -3.834  13.490  1.00  0.00    -0.246 OA
BRANCH   9  11
ATOM     11  O   UNL     1       7.218  -2.143  12.125  1.00  0.00    -0.478 OA
ATOM     12  H   UNL     1       7.225  -1.551  12.890  1.00  0.00     0.297 HD
ENDBRANCH   9  11
ENDBRANCH   3   9
ENDBRANCH   1   2
BRANCH   1  13
ATOM     13  C   UNL     1       5.025  -3.960   7.794  1.00  0.00     0.230 C 
BRANCH  13  14
ATOM     14  C   UNL     1       5.129  -2.590   7.122  1.00  0.00     0.046 C 
BRANCH  14  15
ATOM     15  C   UNL     1       5.744  -2.750   5.729  1.00  0.00     0.043 C 
BRANCH  15  16
ATOM     16  C   UNL     1       4.801  -2.190   4.696  1.00  0.00    -0.004 A 
ATOM     17  C   UNL     1       3.861  -2.886   4.015  1.00  0.00     0.036 A 
ATOM     18  C   UNL     1       4.738  -0.858   4.276  1.00  0.00     0.063 A 
ATOM     19  N   UNL     1       3.231  -2.026   3.188  1.00  0.00    -0.282 N 
ATOM     20  N   UNL     1       3.802  -0.759   3.367  1.00  0.00    -0.181 NA
ATOM     21  C   UNL     1       3.571  -4.358   4.155  1.00  0.00     0.066 C 
ATOM     22  C   UNL     1       5.607   0.268   4.774  1.00  0.00     0.069 C 
ATOM     23  H   UNL     1       2.510  -2.246   2.578  1.00  0.00     0.190 HD
ENDBRANCH  15  16
ENDBRANCH  14  15
ENDBRANCH  13  14
ENDBRANCH   1  13
TORSDOF 7
ENDMDL
MODEL 7
REMARK VINA RESULT:    -5.197      4.379      7.775
REMARK INTER + INTRA:          -7.836
REMARK INTER:                  -7.183
REMARK INTRA:                  -0.654
REMARK UNBOUND:                -0.665
REMARK SMILES Cc1n[nH]c(C)c1CCCOc1cc(C(=O)O)ccc1F
REMARK SMILES IDX 11 1 12 2 14 3 18 4 13 5 19 6 20 7 21 8 15 9 16 10 17 11
REMARK SMILES IDX 10 13 9 14 8 15 7 16 5 17 2 18 4 19 3 20 6 21 1 22
REMARK H PARENT 17 12 4 23
ROOT
ATOM      1  O   UNL     1       6.416  -4.532   7.771  1.00  0.00    -0.490 OA
ENDROOT
BRANCH   1   2
ATOM      2  C   UNL     1       6.923  -4.912   8.974  1.00  0.00     0.155 A 
ATOM      3  C   UNL     1       7.439  -4.421  11.271  1.00  0.00     0.063 A 
ATOM      4  C   UNL     1       7.955  -5.710  11.426  1.00  0.00     0.019 A 
ATOM      5  C   UNL     1       6.921  -4.026  10.035  1.00  0.00     0.065 A 
ATOM      6  C   UNL     1       7.946  -6.589  10.364  1.00  0.00     0.044 A 
ATOM      7  C   UNL     1       7.428  -6.197   9.141  1.00  0.00     0.165 A 
ATOM      8  F   UNL     1       7.423  -7.062   8.103  1.00  0.00    -0.203 F 
BRANCH   3   9
ATOM      9  C   UNL     1       7.446  -3.478  12.406  1.00  0.00     0.335 C 
ATOM     10  O   UNL     1       7.775  -3.860  13.511  1.00  0.00    -0.246 OA
BRANCH   9  11
ATOM     11  O   UNL     1       7.093  -2.192  12.215  1.00  0.00    -0.478 OA
ATOM     12  H   UNL     1       6.672  -1.736  12.958  1.00  0.00     0.297 HD
ENDBRANCH   9  11
ENDBRANCH   3   9
ENDBRANCH   1   2
BRANCH   1  13
ATOM     13  C   UNL     1       5.071  -4.046   7.758  1.00  0.00     0.230 C 
BRANCH  13  14
ATOM     14  C   UNL     1       5.039  -2.657   7.118  1.00  0.00     0.046 C 
BRANCH  14  15
ATOM     15  C   UNL     1       5.720  -2.710   5.749  1.00  0.00     0.043 C 
BRANCH  15  16
ATOM     16  C   UNL     1       4.795  -2.143   4.704  1.00  0.00    -0.004 A 
ATOM     17  C   UNL     1       4.755  -0.855   4.290  1.00  0.00     0.036 A 
ATOM     18  C   UNL     1       3.830  -2.856   3.985  1.00  0.00     0.063 A 
ATOM     19  N   UNL     1       3.794  -0.755   3.348  1.00  0.00    -0.282 N 
ATOM     20  N   UNL     1       3.225  -2.024   3.177  1.00  0.00    -0.181 NA
ATOM     21  C   UNL     1       5.627   0.266   4.791  1.00  0.00     0.066 C 
ATOM     22  C   UNL     1       3.530  -4.327   4.126  1.00  0.00     0.069 C 
ATOM     23  H   UNL     1       3.541   0.052   2.873  1.00  0.00     0.190 HD
ENDBRANCH  15  16
ENDBRANCH  14  15
ENDBRANCH  13  14
ENDBRANCH   1  13
TORSDOF 7
ENDMDL
MODEL 8
REMARK VINA RESULT:    -5.145      4.312      7.554
REMARK INTER + INTRA:          -7.764
REMARK INTER:                  -7.099
REMARK INTRA:                  -0.666
REMARK UNBOUND:                -0.665
REMARK SMILES Cc1n[nH]c(C)c1CCCOc1cc(C(=O)O)ccc1F
REMARK SMILES IDX 11 1 12 2 14 3 18 4 13 5 19 6 20 7 21 8 15 9 16 10 17 11
REMARK SMILES IDX 10 13 9 14 8 15 7 16 5 17 2 18 4 19 3 20 6 21 1 22
REMARK H PARENT 17 12 4 23
ROOT
ATOM      1  O   UNL     1       5.800  -3.256   8.781  1.00  0.00    -0.490 OA
ENDROOT
BRANCH   1   2
ATOM      2  C   UNL     1       6.460  -3.726   9.873  1.00  0.00     0.155 A 
ATOM      3  C   UNL     1       7.650  -5.488  10.995  1.00  0.00     0.063 A 
ATOM      4  C   UNL     1       7.812  -4.663  12.111  1.00  0.00     0.019 A 
ATOM      5  C   UNL     1       6.969  -5.011   9.873  1.00  0.00     0.065 A 
ATOM      6  C   UNL     1       7.305  -3.381  12.100  1.00  0.00     0.044 A 
ATOM      7  C   UNL     1       6.635  -2.908  10.984  1.00  0.00     0.165 A 
ATOM      8  F   UNL     1       6.140  -1.650  10.979  1.00  0.00    -0.203 F 
BRANCH   3   9
ATOM      9  C   UNL     1       8.192  -6.861  11.004  1.00  0.00     0.335 C 
ATOM     10  O   UNL     1       8.004  -7.594  10.054  1.00  0.00    -0.246 OA
BRANCH   9  11
ATOM     11  O   UNL     1       8.900  -7.299  12.063  1.00  0.00    -0.478 OA
ATOM     12  H   UNL     1       9.310  -8.172  11.987  1.00  0.00     0.297 HD
ENDBRANCH   9  11
ENDBRANCH   3   9
ENDBRANCH   1   2
BRANCH   1  13
ATOM     13  C   UNL     1       6.563  -3.096   7.582  1.00  0.00     0.230 C 
BRANCH  13  14
ATOM     14  C   UNL     1       5.770  -3.648   6.397  1.00  0.00     0.046 C 
BRANCH  14  15
ATOM     15  C   UNL     1       4.436  -2.906   6.286  1.00  0.00     0.043 C 
BRANCH  15  16
ATOM     16  C   UNL     1       4.195  -2.514   4.851  1.00  0.00    -0.004 A 
ATOM     17  C   UNL     1       4.533  -1.334   4.281  1.00  0.00     0.036 A 
ATOM     18  C   UNL     1       3.589  -3.308   3.871  1.00  0.00     0.063 A 
ATOM     19  N   UNL     1       4.148  -1.377   2.988  1.00  0.00    -0.282 N 
ATOM     20  N   UNL     1       3.554  -2.625   2.756  1.00  0.00    -0.181 NA
ATOM     21  C   UNL     1       5.216  -0.180   4.967  1.00  0.00     0.066 C 
ATOM     22  C   UNL     1       3.057  -4.704   4.070  1.00  0.00     0.069 C 
ATOM     23  H   UNL     1       4.262  -0.669   2.335  1.00  0.00     0.190 HD
ENDBRANCH  15  16
ENDBRANCH  14  15
ENDBRANCH  13  14
ENDBRANCH   1  13
TORSDOF 7
ENDMDL
MODEL 9
REMARK VINA RESULT:    -5.030      4.453      8.032
REMARK INTER + INTRA:          -7.606
REMARK INTER:                  -6.983
REMARK INTRA:                  -0.623
REMARK UNBOUND:                -0.665
REMARK SMILES Cc1n[nH]c(C)c1CCCOc1cc(C(=O)O)ccc1F
REMARK SMILES IDX 11 1 12 2 14 3 18 4 13 5 19 6 20 7 21 8 15 9 16 10 17 11
REMARK SMILES IDX 10 13 9 14 8 15 7 16 5 17 2 18 4 19 3 20 6 21 1 22
REMARK H PARENT 17 12 4 23
ROOT
ATOM      1  O   UNL     1       6.719  -4.684   7.871  1.00  0.00    -0.490 OA
ENDROOT
BRANCH   1   2
ATOM      2  C   UNL     1       7.206  -5.382   8.931  1.00  0.00     0.155 A 
ATOM      3  C   UNL     1       7.823  -5.493  11.252  1.00  0.00     0.063 A 
ATOM      4  C   UNL     1       8.191  -6.831  11.086  1.00  0.00     0.019 A 
ATOM      5  C   UNL     1       7.329  -4.771  10.164  1.00  0.00     0.065 A 
ATOM      6  C   UNL     1       8.059  -7.435   9.853  1.00  0.00     0.044 A 
ATOM      7  C   UNL     1       7.564  -6.717   8.777  1.00  0.00     0.165 A 
ATOM      8  F   UNL     1       7.437  -7.314   7.572  1.00  0.00    -0.203 F 
BRANCH   3   9
ATOM      9  C   UNL     1       7.963  -4.845  12.570  1.00  0.00     0.335 C 
ATOM     10  O   UNL     1       7.333  -3.838  12.822  1.00  0.00    -0.246 OA
BRANCH   9  11
ATOM     11  O   UNL     1       8.786  -5.374  13.497  1.00  0.00    -0.478 OA
ATOM     12  H   UNL     1       8.701  -5.041  14.401  1.00  0.00     0.297 HD
ENDBRANCH   9  11
ENDBRANCH   3   9
ENDBRANCH   1   2
BRANCH   1  13
ATOM     13  C   UNL     1       6.065  -3.445   8.156  1.00  0.00     0.230 C 
BRANCH  13  14
ATOM     14  C   UNL     1       5.001  -3.174   7.090  1.00  0.00     0.046 C 
BRANCH  14  15
ATOM     15  C   UNL     1       5.645  -3.226   5.703  1.00  0.00     0.043 C 
BRANCH  15  16
ATOM     16  C   UNL     1       4.764  -2.508   4.713  1.00  0.00    -0.004 A 
ATOM     17  C   UNL     1       3.766  -3.063   3.986  1.00  0.00     0.036 A 
ATOM     18  C   UNL     1       4.830  -1.150   4.386  1.00  0.00     0.063 A 
ATOM     19  N   UNL     1       3.224  -2.091   3.223  1.00  0.00    -0.282 N 
ATOM     20  N   UNL     1       3.912  -0.900   3.488  1.00  0.00    -0.181 NA
ATOM     21  C   UNL     1       3.336  -4.506   4.024  1.00  0.00     0.066 C 
ATOM     22  C   UNL     1       5.800  -0.149   4.961  1.00  0.00     0.069 C 
ATOM     23  H   UNL     1       2.489  -2.198   2.600  1.00  0.00     0.190 HD
ENDBRANCH  15  16
ENDBRANCH  14  15
ENDBRANCH  13  14
ENDBRANCH   1  13
TORSDOF 7
ENDMDL
