MODEL 1
REMARK VINA RESULT:    -3.978      0.000      0.000
REMARK INTER + INTRA:          -4.843
REMARK INTER:                  -4.559
REMARK INTRA:                  -0.284
REMARK UNBOUND:                -0.284
REMARK SMILES O=C(O)c1ccc2nc(-c3cc(Cl)cc(Cl)c3)oc2c1
REMARK SMILES IDX 5 1 6 2 20 3 8 4 18 5 4 6 9 7 7 8 19 9 2 10 1 11 3 12 10 14
REMARK SMILES IDX 11 15 17 16 12 17 15 18 14 19 13 20 16 21
REMARK H PARENT 3 13
ROOT
ATOM      1  C   UNL     1      11.233  -7.697   3.397  1.00  0.00     0.018 A 
ATOM      2  C   UNL     1      10.898  -6.542   2.755  1.00  0.00     0.033 A 
ATOM      3  C   UNL     1       8.890  -8.200   3.764  1.00  0.00     0.065 A 
ATOM      4  N   UNL     1       8.926  -5.138   2.033  1.00  0.00    -0.209 NA
ATOM      5  O   UNL     1       7.368  -6.432   2.827  1.00  0.00    -0.436 OA
ATOM      6  C   UNL     1      10.236  -8.540   3.907  1.00  0.00     0.063 A 
ATOM      7  C   UNL     1       7.632  -5.289   2.167  1.00  0.00     0.227 A 
ATOM      8  C   UNL     1       9.552  -6.189   2.605  1.00  0.00     0.110 A 
ATOM      9  C   UNL     1       8.546  -7.027   3.118  1.00  0.00     0.156 A 
ENDROOT
BRANCH   6  10
ATOM     10  C   UNL     1      10.611  -9.789   4.594  1.00  0.00     0.335 C 
ATOM     11  O   UNL     1      10.814  -9.787   5.791  1.00  0.00    -0.246 OA
BRANCH  10  12
ATOM     12  O   UNL     1      10.728 -10.935   3.893  1.00  0.00    -0.478 OA
ATOM     13  H   UNL     1      11.046 -10.863   2.983  1.00  0.00     0.297 HD
ENDBRANCH  10  12
ENDBRANCH   6  10
BRANCH   7  14
ATOM     14  C   UNL     1       6.613  -4.342   1.669  1.00  0.00     0.040 A 
ATOM     15  C   UNL     1       6.874  -3.559   0.544  1.00  0.00     0.034 A 
ATOM     16  C   UNL     1       5.385  -4.226   2.324  1.00  0.00     0.034 A 
ATOM     17  C   UNL     1       5.917  -2.677   0.083  1.00  0.00     0.043 A 
ATOM     18  C   UNL     1       4.436  -3.341   1.853  1.00  0.00     0.043 A 
ATOM     19  C   UNL     1       4.701  -2.567   0.736  1.00  0.00     0.041 A 
ATOM     20  Cl  UNL     1       6.239  -1.702  -1.317  1.00  0.00    -0.084 Cl
ATOM     21  Cl  UNL     1       2.908  -3.196   2.665  1.00  0.00    -0.084 Cl
ENDBRANCH   7  14
TORSDOF 3
ENDMDL
MODEL 2
REMARK VINA RESULT:    -3.977      0.002      2.019
REMARK INTER + INTRA:          -4.843
REMARK INTER:                  -4.559
REMARK INTRA:                  -0.284
REMARK UNBOUND:                -0.284
REMARK SMILES O=C(O)c1ccc2nc(-c3cc(Cl)cc(Cl)c3)oc2c1
REMARK SMILES IDX 5 1 6 2 20 3 8 4 18 5 4 6 9 7 7 8 19 9 2 10 1 11 3 12 10 14
REMARK SMILES IDX 11 15 17 16 12 17 15 18 14 19 13 20 16 21
REMARK H PARENT 3 13
ROOT
ATOM      1  C   UNL     1      11.234  -7.697   3.397  1.00  0.00     0.018 A 
ATOM      2  C   UNL     1      10.898  -6.542   2.756  1.00  0.00     0.033 A 
ATOM      3  C   UNL     1       8.891  -8.201   3.765  1.00  0.00     0.065 A 
ATOM      4  N   UNL     1       8.926  -5.139   2.034  1.00  0.00    -0.209 NA
ATOM      5  O   UNL     1       7.368  -6.434   2.827  1.00  0.00    -0.436 OA
ATOM      6  C   UNL     1      10.237  -8.540   3.908  1.00  0.00     0.063 A 
ATOM      7  C   UNL     1       7.631  -5.290   2.168  1.00  0.00     0.227 A 
ATOM      8  C   UNL     1       9.552  -6.190   2.606  1.00  0.00     0.110 A 
ATOM      9  C   UNL     1       8.546  -7.028   3.119  1.00  0.00     0.156 A 
ENDROOT
BRANCH   6  10
ATOM     10  C   UNL     1      10.612  -9.790   4.594  1.00  0.00     0.335 C 
ATOM     11  O   UNL     1      10.815  -9.787   5.792  1.00  0.00    -0.246 OA
BRANCH  10  12
ATOM     12  O   UNL     1      10.731 -10.935   3.894  1.00  0.00    -0.478 OA
ATOM     13  H   UNL     1      10.688 -11.762   4.393  1.00  0.00     0.297 HD
ENDBRANCH  10  12
ENDBRANCH   6  10
BRANCH   7  14
ATOM     14  C   UNL     1       6.612  -4.343   1.670  1.00  0.00     0.040 A 
ATOM     15  C   UNL     1       5.384  -4.228   2.323  1.00  0.00     0.034 A 
ATOM     16  C   UNL     1       6.874  -3.562   0.543  1.00  0.00     0.034 A 
ATOM     17  C   UNL     1       4.436  -3.341   1.853  1.00  0.00     0.043 A 
ATOM     18  C   UNL     1       5.918  -2.678   0.083  1.00  0.00     0.043 A 
ATOM     19  C   UNL     1       4.702  -2.568   0.735  1.00  0.00     0.041 A 
ATOM     20  Cl  UNL     1       2.908  -3.195   2.663  1.00  0.00    -0.084 Cl
ATOM     21  Cl  UNL     1       6.241  -1.705  -1.318  1.00  0.00    -0.084 Cl
ENDBRANCH   7  14
TORSDOF 3
ENDMDL
MODEL 3
REMARK VINA RESULT:    -3.968      3.966      7.853
REMARK INTER + INTRA:          -4.832
REMARK INTER:                  -4.534
REMARK INTRA:                  -0.298
REMARK UNBOUND:                -0.284
REMARK SMILES O=C(O)c1ccc2nc(-c3cc(Cl)cc(Cl)c3)oc2c1
REMARK SMILES IDX 5 1 6 2 20 3 8 4 18 5 4 6 9 7 7 8 19 9 2 10 1 11 3 12 10 14
REMARK SMILES IDX 11 15 17 16 12 17 15 18 14 19 13 20 16 21
REMARK H PARENT 3 13
ROOT
ATOM      1  C   UNL     1       4.050  -3.232   1.923  1.00  0.00     0.018 A 
ATOM      2  C   UNL     1       4.667  -4.292   2.516  1.00  0.00     0.033 A 
ATOM      3  C   UNL     1       6.158  -2.511   0.965  1.00  0.00     0.065 A 
ATOM      4  N   UNL     1       6.912  -5.417   2.799  1.00  0.00    -0.209 NA
ATOM      5  O   UNL     1       8.067  -4.022   1.593  1.00  0.00    -0.436 OA
ATOM      6  C   UNL     1       4.785  -2.331   1.140  1.00  0.00     0.063 A 
ATOM      7  C   UNL     1       8.109  -5.137   2.347  1.00  0.00     0.227 A 
ATOM      8  C   UNL     1       6.044  -4.485   2.349  1.00  0.00     0.110 A 
ATOM      9  C   UNL     1       6.789  -3.583   1.569  1.00  0.00     0.156 A 
ENDROOT
BRANCH   6  10
ATOM     10  C   UNL     1       4.106  -1.191   0.498  1.00  0.00     0.335 C 
ATOM     11  O   UNL     1       2.928  -0.985   0.715  1.00  0.00    -0.246 OA
BRANCH  10  12
ATOM     12  O   UNL     1       4.790  -0.377  -0.330  1.00  0.00    -0.478 OA
ATOM     13  H   UNL     1       5.292   0.343   0.077  1.00  0.00     0.297 HD
ENDBRANCH  10  12
ENDBRANCH   6  10
BRANCH   7  14
ATOM     14  C   UNL     1       9.326  -5.927   2.625  1.00  0.00     0.040 A 
ATOM     15  C   UNL     1       9.228  -7.161   3.271  1.00  0.00     0.034 A 
ATOM     16  C   UNL     1      10.578  -5.443   2.243  1.00  0.00     0.034 A 
ATOM     17  C   UNL     1      10.369  -7.895   3.527  1.00  0.00     0.043 A 
ATOM     18  C   UNL     1      11.712  -6.186   2.505  1.00  0.00     0.043 A 
ATOM     19  C   UNL     1      11.608  -7.409   3.146  1.00  0.00     0.041 A 
ATOM     20  Cl  UNL     1      10.250  -9.430   4.329  1.00  0.00    -0.084 Cl
ATOM     21  Cl  UNL     1      13.270  -5.586   2.031  1.00  0.00    -0.084 Cl
ENDBRANCH   7  14
TORSDOF 3
ENDMDL
MODEL 4
REMARK VINA RESULT:    -3.957      2.445      3.044
REMARK INTER + INTRA:          -4.820
REMARK INTER:                  -4.535
REMARK INTRA:                  -0.284
REMARK UNBOUND:                -0.284
REMARK SMILES O=C(O)c1ccc2nc(-c3cc(Cl)cc(Cl)c3)oc2c1
REMARK SMILES IDX 5 1 6 2 20 3 8 4 18 5 4 6 9 7 7 8 19 9 2 10 1 11 3 12 10 14
REMARK SMILES IDX 11 15 17 16 12 17 15 18 14 19 13 20 16 21
REMARK H PARENT 3 13
ROOT
ATOM      1  C   UNL     1      11.745  -7.146   2.932  1.00  0.00     0.018 A 
ATOM      2  C   UNL     1      10.391  -7.117   3.086  1.00  0.00     0.033 A 
ATOM      3  C   UNL     1      11.699  -4.946   1.913  1.00  0.00     0.065 A 
ATOM      4  N   UNL     1       8.346  -5.692   2.674  1.00  0.00    -0.209 NA
ATOM      5  O   UNL     1       9.372  -4.007   1.757  1.00  0.00    -0.436 OA
ATOM      6  C   UNL     1      12.415  -6.063   2.346  1.00  0.00     0.063 A 
ATOM      7  C   UNL     1       8.182  -4.507   2.140  1.00  0.00     0.227 A 
ATOM      8  C   UNL     1       9.660  -6.003   2.656  1.00  0.00     0.110 A 
ATOM      9  C   UNL     1      10.325  -4.915   2.064  1.00  0.00     0.156 A 
ENDROOT
BRANCH   6  10
ATOM     10  C   UNL     1      13.881  -6.103   2.190  1.00  0.00     0.335 C 
ATOM     11  O   UNL     1      14.374  -6.662   1.230  1.00  0.00    -0.246 OA
BRANCH  10  12
ATOM     12  O   UNL     1      14.673  -5.521   3.111  1.00  0.00    -0.478 OA
ATOM     13  H   UNL     1      14.327  -5.456   4.011  1.00  0.00     0.297 HD
ENDBRANCH  10  12
ENDBRANCH   6  10
BRANCH   7  14
ATOM     14  C   UNL     1       6.883  -3.822   1.981  1.00  0.00     0.040 A 
ATOM     15  C   UNL     1       6.683  -2.934   0.924  1.00  0.00     0.034 A 
ATOM     16  C   UNL     1       5.849  -4.062   2.889  1.00  0.00     0.034 A 
ATOM     17  C   UNL     1       5.466  -2.298   0.781  1.00  0.00     0.043 A 
ATOM     18  C   UNL     1       4.637  -3.420   2.735  1.00  0.00     0.043 A 
ATOM     19  C   UNL     1       4.445  -2.539   1.685  1.00  0.00     0.041 A 
ATOM     20  Cl  UNL     1       5.215  -1.192  -0.534  1.00  0.00    -0.084 Cl
ATOM     21  Cl  UNL     1       3.351  -3.716   3.863  1.00  0.00    -0.084 Cl
ENDBRANCH   7  14
TORSDOF 3
ENDMDL
MODEL 5
REMARK VINA RESULT:    -3.955      2.446      3.621
REMARK INTER + INTRA:          -4.818
REMARK INTER:                  -4.533
REMARK INTRA:                  -0.284
REMARK UNBOUND:                -0.284
REMARK SMILES O=C(O)c1ccc2nc(-c3cc(Cl)cc(Cl)c3)oc2c1
REMARK SMILES IDX 5 1 6 2 20 3 8 4 18 5 4 6 9 7 7 8 19 9 2 10 1 11 3 12 10 14
REMARK SMILES IDX 11 15 17 16 12 17 15 18 14 19 13 20 16 21
REMARK H PARENT 3 13
ROOT
ATOM      1  C   UNL     1      11.745  -7.145   2.928  1.00  0.00     0.018 A 
ATOM      2  C   UNL     1      10.391  -7.118   3.082  1.00  0.00     0.033 A 
ATOM      3  C   UNL     1      11.698  -4.942   1.915  1.00  0.00     0.065 A 
ATOM      4  N   UNL     1       8.345  -5.694   2.671  1.00  0.00    -0.209 NA
ATOM      5  O   UNL     1       9.370  -4.005   1.759  1.00  0.00    -0.436 OA
ATOM      6  C   UNL     1      12.415  -6.059   2.346  1.00  0.00     0.063 A 
ATOM      7  C   UNL     1       8.180  -4.508   2.140  1.00  0.00     0.227 A 
ATOM      8  C   UNL     1       9.660  -6.003   2.654  1.00  0.00     0.110 A 
ATOM      9  C   UNL     1      10.323  -4.913   2.065  1.00  0.00     0.156 A 
ENDROOT
BRANCH   6  10
ATOM     10  C   UNL     1      13.880  -6.097   2.191  1.00  0.00     0.335 C 
ATOM     11  O   UNL     1      14.375  -6.655   1.232  1.00  0.00    -0.246 OA
BRANCH  10  12
ATOM     12  O   UNL     1      14.672  -5.514   3.113  1.00  0.00    -0.478 OA
ATOM     13  H   UNL     1      14.248  -5.210   3.927  1.00  0.00     0.297 HD
ENDBRANCH  10  12
ENDBRANCH   6  10
BRANCH   7  14
ATOM     14  C   UNL     1       6.880  -3.824   1.982  1.00  0.00     0.040 A 
ATOM     15  C   UNL     1       5.847  -4.063   2.888  1.00  0.00     0.034 A 
ATOM     16  C   UNL     1       6.681  -2.936   0.922  1.00  0.00     0.034 A 
ATOM     17  C   UNL     1       4.635  -3.420   2.735  1.00  0.00     0.043 A 
ATOM     18  C   UNL     1       5.464  -2.299   0.780  1.00  0.00     0.043 A 
ATOM     19  C   UNL     1       4.443  -2.541   1.683  1.00  0.00     0.041 A 
ATOM     20  Cl  UNL     1       3.348  -3.716   3.863  1.00  0.00    -0.084 Cl
ATOM     21  Cl  UNL     1       5.213  -1.194  -0.536  1.00  0.00    -0.084 Cl
ENDBRANCH   7  14
TORSDOF 3
ENDMDL
MODEL 6
REMARK VINA RESULT:    -3.942      3.748      7.387
REMARK INTER + INTRA:          -4.802
REMARK INTER:                  -4.505
REMARK INTRA:                  -0.297
REMARK UNBOUND:                -0.284
REMARK SMILES O=C(O)c1ccc2nc(-c3cc(Cl)cc(Cl)c3)oc2c1
REMARK SMILES IDX 5 1 6 2 20 3 8 4 18 5 4 6 9 7 7 8 19 9 2 10 1 11 3 12 10 14
REMARK SMILES IDX 11 15 17 16 12 17 15 18 14 19 13 20 16 21
REMARK H PARENT 3 13
ROOT
ATOM      1  C   UNL     1       5.262  -2.020   0.865  1.00  0.00     0.018 A 
ATOM      2  C   UNL     1       6.600  -2.279   0.863  1.00  0.00     0.033 A 
ATOM      3  C   UNL     1       4.838  -4.092   2.052  1.00  0.00     0.065 A 
ATOM      4  N   UNL     1       8.325  -3.969   1.603  1.00  0.00    -0.209 NA
ATOM      5  O   UNL     1       6.946  -5.378   2.523  1.00  0.00    -0.436 OA
ATOM      6  C   UNL     1       4.366  -2.919   1.459  1.00  0.00     0.063 A 
ATOM      7  C   UNL     1       8.235  -5.110   2.239  1.00  0.00     0.227 A 
ATOM      8  C   UNL     1       7.087  -3.451   1.453  1.00  0.00     0.110 A 
ATOM      9  C   UNL     1       6.195  -4.360   2.047  1.00  0.00     0.156 A 
ENDROOT
BRANCH   6  10
ATOM     10  C   UNL     1       2.921  -2.625   1.461  1.00  0.00     0.335 C 
ATOM     11  O   UNL     1       2.477  -1.758   0.736  1.00  0.00    -0.246 OA
BRANCH  10  12
ATOM     12  O   UNL     1       2.093  -3.318   2.268  1.00  0.00    -0.478 OA
ATOM     13  H   UNL     1       1.987  -2.993   3.172  1.00  0.00     0.297 HD
ENDBRANCH  10  12
ENDBRANCH   6  10
BRANCH   7  14
ATOM     14  C   UNL     1       9.379  -5.977   2.591  1.00  0.00     0.040 A 
ATOM     15  C   UNL     1      10.681  -5.578   2.285  1.00  0.00     0.034 A 
ATOM     16  C   UNL     1       9.161  -7.200   3.229  1.00  0.00     0.034 A 
ATOM     17  C   UNL     1      11.745  -6.392   2.618  1.00  0.00     0.043 A 
ATOM     18  C   UNL     1      10.234  -8.004   3.556  1.00  0.00     0.043 A 
ATOM     19  C   UNL     1      11.523  -7.603   3.251  1.00  0.00     0.041 A 
ATOM     20  Cl  UNL     1      13.366  -5.897   2.240  1.00  0.00    -0.084 Cl
ATOM     21  Cl  UNL     1       9.965  -9.525   4.351  1.00  0.00    -0.084 Cl
ENDBRANCH   7  14
TORSDOF 3
ENDMDL
MODEL 7
REMARK VINA RESULT:    -3.871      4.743      8.209
REMARK INTER + INTRA:          -4.721
REMARK INTER:                  -4.441
REMARK INTRA:                  -0.281
REMARK UNBOUND:                -0.284
REMARK SMILES O=C(O)c1ccc2nc(-c3cc(Cl)cc(Cl)c3)oc2c1
REMARK SMILES IDX 5 1 6 2 20 3 8 4 18 5 4 6 9 7 7 8 19 9 2 10 1 11 3 12 10 14
REMARK SMILES IDX 11 15 17 16 12 17 15 18 14 19 13 20 16 21
REMARK H PARENT 3 13
ROOT
ATOM      1  C   UNL     1       9.931  -4.942   2.108  1.00  0.00     0.018 A 
ATOM      2  C   UNL     1      10.842  -5.902   2.433  1.00  0.00     0.033 A 
ATOM      3  C   UNL     1       8.143  -6.288   3.042  1.00  0.00     0.065 A 
ATOM      4  N   UNL     1      11.074  -8.179   3.502  1.00  0.00    -0.209 NA
ATOM      5  O   UNL     1       8.969  -8.475   3.968  1.00  0.00    -0.436 OA
ATOM      6  C   UNL     1       8.573  -5.121   2.409  1.00  0.00     0.063 A 
ATOM      7  C   UNL     1      10.206  -9.003   4.035  1.00  0.00     0.227 A 
ATOM      8  C   UNL     1      10.424  -7.078   3.068  1.00  0.00     0.110 A 
ATOM      9  C   UNL     1       9.063  -7.267   3.369  1.00  0.00     0.156 A 
ENDROOT
BRANCH   6  10
ATOM     10  C   UNL     1       7.598  -4.073   2.058  1.00  0.00     0.335 C 
ATOM     11  O   UNL     1       7.378  -3.814   0.891  1.00  0.00    -0.246 OA
BRANCH  10  12
ATOM     12  O   UNL     1       6.950  -3.401   3.030  1.00  0.00    -0.478 OA
ATOM     13  H   UNL     1       6.369  -2.680   2.754  1.00  0.00     0.297 HD
ENDBRANCH  10  12
ENDBRANCH   6  10
BRANCH   7  14
ATOM     14  C   UNL     1      10.536 -10.318   4.622  1.00  0.00     0.040 A 
ATOM     15  C   UNL     1      11.409 -10.402   5.707  1.00  0.00     0.034 A 
ATOM     16  C   UNL     1       9.976 -11.482   4.091  1.00  0.00     0.034 A 
ATOM     17  C   UNL     1      11.713 -11.634   6.251  1.00  0.00     0.043 A 
ATOM     18  C   UNL     1      10.287 -12.708   4.644  1.00  0.00     0.043 A 
ATOM     19  C   UNL     1      11.154 -12.785   5.721  1.00  0.00     0.041 A 
ATOM     20  Cl  UNL     1      12.799 -11.742   7.601  1.00  0.00    -0.084 Cl
ATOM     21  Cl  UNL     1       9.592 -14.157   3.987  1.00  0.00    -0.084 Cl
ENDBRANCH   7  14
TORSDOF 3
ENDMDL
MODEL 8
REMARK VINA RESULT:    -3.865      4.743      8.207
REMARK INTER + INTRA:          -4.714
REMARK INTER:                  -4.434
REMARK INTRA:                  -0.280
REMARK UNBOUND:                -0.284
REMARK SMILES O=C(O)c1ccc2nc(-c3cc(Cl)cc(Cl)c3)oc2c1
REMARK SMILES IDX 5 1 6 2 20 3 8 4 18 5 4 6 9 7 7 8 19 9 2 10 1 11 3 12 10 14
REMARK SMILES IDX 11 15 17 16 12 17 15 18 14 19 13 20 16 21
REMARK H PARENT 3 13
ROOT
ATOM      1  C   UNL     1       9.929  -4.941   2.110  1.00  0.00     0.018 A 
ATOM      2  C   UNL     1      10.839  -5.901   2.434  1.00  0.00     0.033 A 
ATOM      3  C   UNL     1       8.141  -6.287   3.044  1.00  0.00     0.065 A 
ATOM      4  N   UNL     1      11.071  -8.180   3.501  1.00  0.00    -0.209 NA
ATOM      5  O   UNL     1       8.967  -8.475   3.968  1.00  0.00    -0.436 OA
ATOM      6  C   UNL     1       8.571  -5.119   2.411  1.00  0.00     0.063 A 
ATOM      7  C   UNL     1      10.203  -9.003   4.033  1.00  0.00     0.227 A 
ATOM      8  C   UNL     1      10.421  -7.078   3.068  1.00  0.00     0.110 A 
ATOM      9  C   UNL     1       9.061  -7.267   3.369  1.00  0.00     0.156 A 
ENDROOT
BRANCH   6  10
ATOM     10  C   UNL     1       7.596  -4.071   2.062  1.00  0.00     0.335 C 
ATOM     11  O   UNL     1       7.373  -3.813   0.896  1.00  0.00    -0.246 OA
BRANCH  10  12
ATOM     12  O   UNL     1       6.953  -3.396   3.035  1.00  0.00    -0.478 OA
ATOM     13  H   UNL     1       6.879  -2.438   2.931  1.00  0.00     0.297 HD
ENDBRANCH  10  12
ENDBRANCH   6  10
BRANCH   7  14
ATOM     14  C   UNL     1      10.533 -10.319   4.619  1.00  0.00     0.040 A 
ATOM     15  C   UNL     1       9.973 -11.483   4.090  1.00  0.00     0.034 A 
ATOM     16  C   UNL     1      11.406 -10.403   5.705  1.00  0.00     0.034 A 
ATOM     17  C   UNL     1      10.286 -12.709   4.641  1.00  0.00     0.043 A 
ATOM     18  C   UNL     1      11.712 -11.635   6.248  1.00  0.00     0.043 A 
ATOM     19  C   UNL     1      11.153 -12.786   5.718  1.00  0.00     0.041 A 
ATOM     20  Cl  UNL     1       9.592 -14.158   3.984  1.00  0.00    -0.084 Cl
ATOM     21  Cl  UNL     1      12.798 -11.742   7.599  1.00  0.00    -0.084 Cl
ENDBRANCH   7  14
TORSDOF 3
ENDMDL
MODEL 9
REMARK VINA RESULT:    -3.654      4.114      7.129
REMARK INTER + INTRA:          -4.472
REMARK INTER:                  -4.186
REMARK INTRA:                  -0.287
REMARK UNBOUND:                -0.284
REMARK SMILES O=C(O)c1ccc2nc(-c3cc(Cl)cc(Cl)c3)oc2c1
REMARK SMILES IDX 5 1 6 2 20 3 8 4 18 5 4 6 9 7 7 8 19 9 2 10 1 11 3 12 10 14
REMARK SMILES IDX 11 15 17 16 12 17 15 18 14 19 13 20 16 21
REMARK H PARENT 3 13
ROOT
ATOM      1  C   UNL     1       4.643  -4.466   1.390  1.00  0.00     0.018 A 
ATOM      2  C   UNL     1       5.790  -4.929   0.818  1.00  0.00     0.033 A 
ATOM      3  C   UNL     1       5.851  -3.907   3.417  1.00  0.00     0.065 A 
ATOM      4  N   UNL     1       8.257  -5.269   1.242  1.00  0.00    -0.209 NA
ATOM      5  O   UNL     1       8.295  -4.476   3.268  1.00  0.00    -0.436 OA
ATOM      6  C   UNL     1       4.658  -3.949   2.693  1.00  0.00     0.063 A 
ATOM      7  C   UNL     1       9.024  -5.018   2.274  1.00  0.00     0.227 A 
ATOM      8  C   UNL     1       6.993  -4.893   1.533  1.00  0.00     0.110 A 
ATOM      9  C   UNL     1       7.016  -4.380   2.842  1.00  0.00     0.156 A 
ENDROOT
BRANCH   6  10
ATOM     10  C   UNL     1       3.412  -3.445   3.299  1.00  0.00     0.335 C 
ATOM     11  O   UNL     1       2.366  -3.519   2.686  1.00  0.00    -0.246 OA
BRANCH  10  12
ATOM     12  O   UNL     1       3.433  -2.903   4.533  1.00  0.00    -0.478 OA
ATOM     13  H   UNL     1       3.064  -3.433   5.252  1.00  0.00     0.297 HD
ENDBRANCH  10  12
ENDBRANCH   6  10
BRANCH   7  14
ATOM     14  C   UNL     1      10.475  -5.292   2.338  1.00  0.00     0.040 A 
ATOM     15  C   UNL     1      11.391  -4.299   1.991  1.00  0.00     0.034 A 
ATOM     16  C   UNL     1      10.933  -6.547   2.744  1.00  0.00     0.034 A 
ATOM     17  C   UNL     1      12.746  -4.561   2.054  1.00  0.00     0.043 A 
ATOM     18  C   UNL     1      12.290  -6.796   2.803  1.00  0.00     0.043 A 
ATOM     19  C   UNL     1      13.194  -5.807   2.458  1.00  0.00     0.041 A 
ATOM     20  Cl  UNL     1      13.888  -3.326   1.624  1.00  0.00    -0.084 Cl
ATOM     21  Cl  UNL     1      12.863  -8.356   3.308  1.00  0.00    -0.084 Cl
ENDBRANCH   7  14
TORSDOF 3
ENDMDL
