MODEL 1
REMARK VINA RESULT:    -5.597      0.000      0.000
REMARK INTER + INTRA:          -8.266
REMARK INTER:                  -7.723
REMARK INTRA:                  -0.543
REMARK UNBOUND:                -0.543
REMARK SMILES Cc1n[nH]c(C)c1CCCOc1cc(C(=O)O)ccc1F
REMARK SMILES IDX 11 1 12 2 14 3 18 4 13 5 19 6 20 7 21 8 15 9 16 10 17 11
REMARK SMILES IDX 10 13 9 14 8 15 7 16 5 17 2 18 4 19 3 20 6 21 1 22
REMARK H PARENT 17 12 4 23
ROOT
ATOM      1  O   UNL     1       6.580  -5.257  -0.182  1.00  0.00    -0.490 OA
ENDROOT
BRANCH   1   2
ATOM      2  C   UNL     1       5.875  -4.256   0.409  1.00  0.00     0.155 A 
ATOM      3  C   UNL     1       4.513  -3.448   2.219  1.00  0.00     0.063 A 
ATOM      4  C   UNL     1       4.449  -2.194   1.605  1.00  0.00     0.019 A 
ATOM      5  C   UNL     1       5.232  -4.480   1.612  1.00  0.00     0.065 A 
ATOM      6  C   UNL     1       5.098  -1.978   0.408  1.00  0.00     0.044 A 
ATOM      7  C   UNL     1       5.815  -3.002  -0.189  1.00  0.00     0.165 A 
ATOM      8  F   UNL     1       6.449  -2.784  -1.362  1.00  0.00    -0.203 F 
BRANCH   3   9
ATOM      9  C   UNL     1       3.820  -3.682   3.500  1.00  0.00     0.335 C 
ATOM     10  O   UNL     1       3.567  -4.815   3.856  1.00  0.00    -0.246 OA
BRANCH   9  11
ATOM     11  O   UNL     1       3.473  -2.638   4.279  1.00  0.00    -0.478 OA
ATOM     12  H   UNL     1       2.858  -1.994   3.901  1.00  0.00     0.297 HD
ENDBRANCH   9  11
ENDBRANCH   3   9
ENDBRANCH   1   2
BRANCH   1  13
ATOM     13  C   UNL     1       7.999  -5.092  -0.261  1.00  0.00     0.230 C 
BRANCH  13  14
ATOM     14  C   UNL     1       8.684  -6.172   0.577  1.00  0.00     0.046 C 
BRANCH  14  15
ATOM     15  C   UNL     1       9.050  -5.598   1.948  1.00  0.00     0.043 C 
BRANCH  15  16
ATOM     16  C   UNL     1      10.216  -6.361   2.519  1.00  0.00    -0.004 A 
ATOM     17  C   UNL     1      10.144  -7.512   3.228  1.00  0.00     0.036 A 
ATOM     18  C   UNL     1      11.566  -6.010   2.404  1.00  0.00     0.063 A 
ATOM     19  N   UNL     1      11.403  -7.872   3.556  1.00  0.00    -0.282 N 
ATOM     20  N   UNL     1      12.277  -6.911   3.031  1.00  0.00    -0.181 NA
ATOM     21  C   UNL     1       8.885  -8.257   3.586  1.00  0.00     0.066 C 
ATOM     22  C   UNL     1      12.106  -4.796   1.692  1.00  0.00     0.069 C 
ATOM     23  H   UNL     1      11.657  -8.657   4.065  1.00  0.00     0.190 HD
ENDBRANCH  15  16
ENDBRANCH  14  15
ENDBRANCH  13  14
ENDBRANCH   1  13
TORSDOF 7
ENDMDL
MODEL 2
REMARK VINA RESULT:    -5.556      2.302      3.911
REMARK INTER + INTRA:          -8.211
REMARK INTER:                  -7.753
REMARK INTRA:                  -0.458
REMARK UNBOUND:                -0.543
REMARK SMILES Cc1n[nH]c(C)c1CCCOc1cc(C(=O)O)ccc1F
REMARK SMILES IDX 11 1 12 2 14 3 18 4 13 5 19 6 20 7 21 8 15 9 16 10 17 11
REMARK SMILES IDX 10 13 9 14 8 15 7 16 5 17 2 18 4 19 3 20 6 21 1 22
REMARK H PARENT 17 12 4 23
ROOT
ATOM      1  O   UNL     1       7.007  -2.916   3.910  1.00  0.00    -0.490 OA
ENDROOT
BRANCH   1   2
ATOM      2  C   UNL     1       6.145  -2.842   2.861  1.00  0.00     0.155 A 
ATOM      3  C   UNL     1       5.720  -2.410   0.534  1.00  0.00     0.063 A 
ATOM      4  C   UNL     1       4.369  -2.706   0.729  1.00  0.00     0.019 A 
ATOM      5  C   UNL     1       6.608  -2.480   1.610  1.00  0.00     0.065 A 
ATOM      6  C   UNL     1       3.917  -3.071   1.980  1.00  0.00     0.044 A 
ATOM      7  C   UNL     1       4.800  -3.145   3.045  1.00  0.00     0.165 A 
ATOM      8  F   UNL     1       4.351  -3.504   4.267  1.00  0.00    -0.203 F 
BRANCH   3   9
ATOM      9  C   UNL     1       6.207  -2.019  -0.804  1.00  0.00     0.335 C 
ATOM     10  O   UNL     1       7.282  -1.468  -0.922  1.00  0.00    -0.246 OA
BRANCH   9  11
ATOM     11  O   UNL     1       5.461  -2.281  -1.895  1.00  0.00    -0.478 OA
ATOM     12  H   UNL     1       4.946  -3.100  -1.889  1.00  0.00     0.297 HD
ENDBRANCH   9  11
ENDBRANCH   3   9
ENDBRANCH   1   2
BRANCH   1  13
ATOM     13  C   UNL     1       7.243  -4.212   4.465  1.00  0.00     0.230 C 
BRANCH  13  14
ATOM     14  C   UNL     1       8.666  -4.660   4.124  1.00  0.00     0.046 C 
BRANCH  14  15
ATOM     15  C   UNL     1       8.619  -5.693   2.997  1.00  0.00     0.043 C 
BRANCH  15  16
ATOM     16  C   UNL     1       9.829  -6.588   3.084  1.00  0.00    -0.004 A 
ATOM     17  C   UNL     1      11.085  -6.268   2.693  1.00  0.00     0.036 A 
ATOM     18  C   UNL     1       9.853  -7.892   3.588  1.00  0.00     0.063 A 
ATOM     19  N   UNL     1      11.875  -7.336   2.936  1.00  0.00    -0.282 N 
ATOM     20  N   UNL     1      11.077  -8.344   3.494  1.00  0.00    -0.181 NA
ATOM     21  C   UNL     1      11.523  -4.957   2.096  1.00  0.00     0.066 C 
ATOM     22  C   UNL     1       8.671  -8.651   4.134  1.00  0.00     0.069 C 
ATOM     23  H   UNL     1      12.825  -7.394   2.755  1.00  0.00     0.190 HD
ENDBRANCH  15  16
ENDBRANCH  14  15
ENDBRANCH  13  14
ENDBRANCH   1  13
TORSDOF 7
ENDMDL
MODEL 3
REMARK VINA RESULT:    -5.495      2.267      3.430
REMARK INTER + INTRA:          -8.126
REMARK INTER:                  -7.520
REMARK INTRA:                  -0.606
REMARK UNBOUND:                -0.543
REMARK SMILES Cc1n[nH]c(C)c1CCCOc1cc(C(=O)O)ccc1F
REMARK SMILES IDX 11 1 12 2 14 3 18 4 13 5 19 6 20 7 21 8 15 9 16 10 17 11
REMARK SMILES IDX 10 13 9 14 8 15 7 16 5 17 2 18 4 19 3 20 6 21 1 22
REMARK H PARENT 17 12 4 23
ROOT
ATOM      1  O   UNL     1       6.982  -3.161   3.866  1.00  0.00    -0.490 OA
ENDROOT
BRANCH   1   2
ATOM      2  C   UNL     1       6.115  -2.981   2.834  1.00  0.00     0.155 A 
ATOM      3  C   UNL     1       5.696  -2.435   0.531  1.00  0.00     0.063 A 
ATOM      4  C   UNL     1       4.327  -2.630   0.737  1.00  0.00     0.019 A 
ATOM      5  C   UNL     1       6.589  -2.613   1.589  1.00  0.00     0.065 A 
ATOM      6  C   UNL     1       3.865  -3.003   1.981  1.00  0.00     0.044 A 
ATOM      7  C   UNL     1       4.753  -3.184   3.029  1.00  0.00     0.165 A 
ATOM      8  F   UNL     1       4.293  -3.550   4.245  1.00  0.00    -0.203 F 
BRANCH   3   9
ATOM      9  C   UNL     1       6.194  -2.036  -0.800  1.00  0.00     0.335 C 
ATOM     10  O   UNL     1       7.266  -1.476  -0.904  1.00  0.00    -0.246 OA
BRANCH   9  11
ATOM     11  O   UNL     1       5.462  -2.298  -1.900  1.00  0.00    -0.478 OA
ATOM     12  H   UNL     1       5.209  -1.544  -2.450  1.00  0.00     0.297 HD
ENDBRANCH   9  11
ENDBRANCH   3   9
ENDBRANCH   1   2
BRANCH   1  13
ATOM     13  C   UNL     1       7.343  -4.507   4.184  1.00  0.00     0.230 C 
BRANCH  13  14
ATOM     14  C   UNL     1       8.791  -4.760   3.760  1.00  0.00     0.046 C 
BRANCH  14  15
ATOM     15  C   UNL     1       8.830  -5.883   2.722  1.00  0.00     0.043 C 
BRANCH  15  16
ATOM     16  C   UNL     1       9.969  -6.819   3.037  1.00  0.00    -0.004 A 
ATOM     17  C   UNL     1       9.862  -8.034   3.625  1.00  0.00     0.036 A 
ATOM     18  C   UNL     1      11.322  -6.589   2.767  1.00  0.00     0.063 A 
ATOM     19  N   UNL     1      11.104  -8.551   3.729  1.00  0.00    -0.282 N 
ATOM     20  N   UNL     1      12.004  -7.623   3.188  1.00  0.00    -0.181 NA
ATOM     21  C   UNL     1       8.585  -8.691   4.080  1.00  0.00     0.066 C 
ATOM     22  C   UNL     1      11.896  -5.357   2.116  1.00  0.00     0.069 C 
ATOM     23  H   UNL     1      11.334  -9.411   4.112  1.00  0.00     0.190 HD
ENDBRANCH  15  16
ENDBRANCH  14  15
ENDBRANCH  13  14
ENDBRANCH   1  13
TORSDOF 7
ENDMDL
MODEL 4
REMARK VINA RESULT:    -5.486      0.152      1.773
REMARK INTER + INTRA:          -8.114
REMARK INTER:                  -7.569
REMARK INTRA:                  -0.545
REMARK UNBOUND:                -0.543
REMARK SMILES Cc1n[nH]c(C)c1CCCOc1cc(C(=O)O)ccc1F
REMARK SMILES IDX 11 1 12 2 14 3 18 4 13 5 19 6 20 7 21 8 15 9 16 10 17 11
REMARK SMILES IDX 10 13 9 14 8 15 7 16 5 17 2 18 4 19 3 20 6 21 1 22
REMARK H PARENT 17 12 4 23
ROOT
ATOM      1  O   UNL     1       6.600  -5.280  -0.130  1.00  0.00    -0.490 OA
ENDROOT
BRANCH   1   2
ATOM      2  C   UNL     1       5.883  -4.276   0.442  1.00  0.00     0.155 A 
ATOM      3  C   UNL     1       4.502  -3.453   2.230  1.00  0.00     0.063 A 
ATOM      4  C   UNL     1       4.433  -2.209   1.599  1.00  0.00     0.019 A 
ATOM      5  C   UNL     1       5.233  -4.489   1.644  1.00  0.00     0.065 A 
ATOM      6  C   UNL     1       5.089  -2.005   0.404  1.00  0.00     0.044 A 
ATOM      7  C   UNL     1       5.818  -3.031  -0.174  1.00  0.00     0.165 A 
ATOM      8  F   UNL     1       6.459  -2.825  -1.345  1.00  0.00    -0.203 F 
BRANCH   3   9
ATOM      9  C   UNL     1       3.801  -3.675   3.510  1.00  0.00     0.335 C 
ATOM     10  O   UNL     1       3.528  -4.803   3.866  1.00  0.00    -0.246 OA
BRANCH   9  11
ATOM     11  O   UNL     1       3.469  -2.625   4.287  1.00  0.00    -0.478 OA
ATOM     12  H   UNL     1       3.132  -2.822   5.172  1.00  0.00     0.297 HD
ENDBRANCH   9  11
ENDBRANCH   3   9
ENDBRANCH   1   2
BRANCH   1  13
ATOM     13  C   UNL     1       8.018  -5.108  -0.196  1.00  0.00     0.230 C 
BRANCH  13  14
ATOM     14  C   UNL     1       8.701  -6.176   0.660  1.00  0.00     0.046 C 
BRANCH  14  15
ATOM     15  C   UNL     1       9.172  -5.551   1.975  1.00  0.00     0.043 C 
BRANCH  15  16
ATOM     16  C   UNL     1      10.396  -6.279   2.468  1.00  0.00    -0.004 A 
ATOM     17  C   UNL     1      11.680  -5.889   2.291  1.00  0.00     0.036 A 
ATOM     18  C   UNL     1      10.406  -7.474   3.195  1.00  0.00     0.063 A 
ATOM     19  N   UNL     1      12.474  -6.808   2.879  1.00  0.00    -0.282 N 
ATOM     20  N   UNL     1      11.651  -7.795   3.436  1.00  0.00    -0.181 NA
ATOM     21  C   UNL     1      12.140  -4.650   1.567  1.00  0.00     0.066 C 
ATOM     22  C   UNL     1       9.192  -8.261   3.617  1.00  0.00     0.069 C 
ATOM     23  H   UNL     1      13.443  -6.788   2.910  1.00  0.00     0.190 HD
ENDBRANCH  15  16
ENDBRANCH  14  15
ENDBRANCH  13  14
ENDBRANCH   1  13
TORSDOF 7
ENDMDL
MODEL 5
REMARK VINA RESULT:    -4.624      3.791      6.531
REMARK INTER + INTRA:          -6.925
REMARK INTER:                  -6.123
REMARK INTRA:                  -0.802
REMARK UNBOUND:                -0.543
REMARK SMILES Cc1n[nH]c(C)c1CCCOc1cc(C(=O)O)ccc1F
REMARK SMILES IDX 11 1 12 2 14 3 18 4 13 5 19 6 20 7 21 8 15 9 16 10 17 11
REMARK SMILES IDX 10 13 9 14 8 15 7 16 5 17 2 18 4 19 3 20 6 21 1 22
REMARK H PARENT 17 12 4 23
ROOT
ATOM      1  O   UNL     1       8.555  -4.370   1.622  1.00  0.00    -0.490 OA
ENDROOT
BRANCH   1   2
ATOM      2  C   UNL     1       9.323  -5.361   2.149  1.00  0.00     0.155 A 
ATOM      3  C   UNL     1       9.519  -7.508   3.214  1.00  0.00     0.063 A 
ATOM      4  C   UNL     1      10.911  -7.379   3.210  1.00  0.00     0.019 A 
ATOM      5  C   UNL     1       8.727  -6.490   2.679  1.00  0.00     0.065 A 
ATOM      6  C   UNL     1      11.497  -6.252   2.673  1.00  0.00     0.044 A 
ATOM      7  C   UNL     1      10.709  -5.246   2.139  1.00  0.00     0.165 A 
ATOM      8  F   UNL     1      11.289  -4.144   1.615  1.00  0.00    -0.203 F 
BRANCH   3   9
ATOM      9  C   UNL     1       8.889  -8.713   3.787  1.00  0.00     0.335 C 
ATOM     10  O   UNL     1       8.588  -8.741   4.962  1.00  0.00    -0.246 OA
BRANCH   9  11
ATOM     11  O   UNL     1       8.641  -9.781   3.003  1.00  0.00    -0.478 OA
ATOM     12  H   UNL     1       8.828  -9.685   2.058  1.00  0.00     0.297 HD
ENDBRANCH   9  11
ENDBRANCH   3   9
ENDBRANCH   1   2
BRANCH   1  13
ATOM     13  C   UNL     1       7.465  -4.768   0.788  1.00  0.00     0.230 C 
BRANCH  13  14
ATOM     14  C   UNL     1       6.664  -3.533   0.373  1.00  0.00     0.046 C 
BRANCH  14  15
ATOM     15  C   UNL     1       6.662  -2.518   1.518  1.00  0.00     0.043 C 
BRANCH  15  16
ATOM     16  C   UNL     1       5.521  -2.818   2.455  1.00  0.00    -0.004 A 
ATOM     17  C   UNL     1       4.203  -2.696   2.169  1.00  0.00     0.036 A 
ATOM     18  C   UNL     1       5.635  -3.278   3.771  1.00  0.00     0.063 A 
ATOM     19  N   UNL     1       3.509  -3.060   3.268  1.00  0.00    -0.282 N 
ATOM     20  N   UNL     1       4.430  -3.416   4.262  1.00  0.00    -0.181 NA
ATOM     21  C   UNL     1       3.617  -2.238   0.860  1.00  0.00     0.066 C 
ATOM     22  C   UNL     1       6.924  -3.554   4.502  1.00  0.00     0.069 C 
ATOM     23  H   UNL     1       2.543  -3.071   3.355  1.00  0.00     0.190 HD
ENDBRANCH  15  16
ENDBRANCH  14  15
ENDBRANCH  13  14
ENDBRANCH   1  13
TORSDOF 7
ENDMDL
MODEL 6
REMARK VINA RESULT:    -4.613      3.931      7.003
REMARK INTER + INTRA:          -6.909
REMARK INTER:                  -6.086
REMARK INTRA:                  -0.823
REMARK UNBOUND:                -0.543
REMARK SMILES Cc1n[nH]c(C)c1CCCOc1cc(C(=O)O)ccc1F
REMARK SMILES IDX 11 1 12 2 14 3 18 4 13 5 19 6 20 7 21 8 15 9 16 10 17 11
REMARK SMILES IDX 10 13 9 14 8 15 7 16 5 17 2 18 4 19 3 20 6 21 1 22
REMARK H PARENT 17 12 4 23
ROOT
ATOM      1  O   UNL     1       7.425  -5.580   2.818  1.00  0.00    -0.490 OA
ENDROOT
BRANCH   1   2
ATOM      2  C   UNL     1       8.709  -6.025   2.844  1.00  0.00     0.155 A 
ATOM      3  C   UNL     1      11.053  -5.661   2.450  1.00  0.00     0.063 A 
ATOM      4  C   UNL     1      11.328  -6.949   2.915  1.00  0.00     0.019 A 
ATOM      5  C   UNL     1       9.734  -5.202   2.417  1.00  0.00     0.065 A 
ATOM      6  C   UNL     1      10.299  -7.761   3.345  1.00  0.00     0.044 A 
ATOM      7  C   UNL     1       8.992  -7.302   3.316  1.00  0.00     0.165 A 
ATOM      8  F   UNL     1       7.989  -8.102   3.739  1.00  0.00    -0.203 F 
BRANCH   3   9
ATOM      9  C   UNL     1      12.152  -4.789   1.989  1.00  0.00     0.335 C 
ATOM     10  O   UNL     1      12.559  -4.876   0.849  1.00  0.00    -0.246 OA
BRANCH   9  11
ATOM     11  O   UNL     1      12.699  -3.893   2.833  1.00  0.00    -0.478 OA
ATOM     12  H   UNL     1      13.630  -3.670   2.695  1.00  0.00     0.297 HD
ENDBRANCH   9  11
ENDBRANCH   3   9
ENDBRANCH   1   2
BRANCH   1  13
ATOM     13  C   UNL     1       7.196  -4.233   3.239  1.00  0.00     0.230 C 
BRANCH  13  14
ATOM     14  C   UNL     1       5.730  -3.867   3.002  1.00  0.00     0.046 C 
BRANCH  14  15
ATOM     15  C   UNL     1       5.235  -4.546   1.723  1.00  0.00     0.043 C 
BRANCH  15  16
ATOM     16  C   UNL     1       5.515  -3.655   0.540  1.00  0.00    -0.004 A 
ATOM     17  C   UNL     1       4.931  -2.460   0.287  1.00  0.00     0.036 A 
ATOM     18  C   UNL     1       6.428  -3.914  -0.488  1.00  0.00     0.063 A 
ATOM     19  N   UNL     1       5.452  -1.984  -0.863  1.00  0.00    -0.282 N 
ATOM     20  N   UNL     1       6.386  -2.916  -1.333  1.00  0.00    -0.181 NA
ATOM     21  C   UNL     1       3.888  -1.784   1.138  1.00  0.00     0.066 C 
ATOM     22  C   UNL     1       7.300  -5.138  -0.607  1.00  0.00     0.069 C 
ATOM     23  H   UNL     1       5.220  -1.144  -1.290  1.00  0.00     0.190 HD
ENDBRANCH  15  16
ENDBRANCH  14  15
ENDBRANCH  13  14
ENDBRANCH   1  13
TORSDOF 7
ENDMDL
MODEL 7
REMARK VINA RESULT:    -4.381      3.614      5.418
REMARK INTER + INTRA:          -6.589
REMARK INTER:                  -5.987
REMARK INTRA:                  -0.602
REMARK UNBOUND:                -0.543
REMARK SMILES Cc1n[nH]c(C)c1CCCOc1cc(C(=O)O)ccc1F
REMARK SMILES IDX 11 1 12 2 14 3 18 4 13 5 19 6 20 7 21 8 15 9 16 10 17 11
REMARK SMILES IDX 10 13 9 14 8 15 7 16 5 17 2 18 4 19 3 20 6 21 1 22
REMARK H PARENT 17 12 4 23
ROOT
ATOM      1  O   UNL     1       9.572  -6.850   3.280  1.00  0.00    -0.490 OA
ENDROOT
BRANCH   1   2
ATOM      2  C   UNL     1       8.744  -5.868   2.834  1.00  0.00     0.155 A 
ATOM      3  C   UNL     1       7.520  -4.821   1.049  1.00  0.00     0.063 A 
ATOM      4  C   UNL     1       7.045  -3.859   1.944  1.00  0.00     0.019 A 
ATOM      5  C   UNL     1       8.374  -5.829   1.503  1.00  0.00     0.065 A 
ATOM      6  C   UNL     1       7.416  -3.910   3.271  1.00  0.00     0.044 A 
ATOM      7  C   UNL     1       8.259  -4.913   3.720  1.00  0.00     0.165 A 
ATOM      8  F   UNL     1       8.618  -4.957   5.022  1.00  0.00    -0.203 F 
BRANCH   3   9
ATOM      9  C   UNL     1       7.124  -4.770  -0.373  1.00  0.00     0.335 C 
ATOM     10  O   UNL     1       6.419  -3.868  -0.775  1.00  0.00    -0.246 OA
BRANCH   9  11
ATOM     11  O   UNL     1       7.553  -5.722  -1.225  1.00  0.00    -0.478 OA
ATOM     12  H   UNL     1       8.048  -6.461  -0.845  1.00  0.00     0.297 HD
ENDBRANCH   9  11
ENDBRANCH   3   9
ENDBRANCH   1   2
BRANCH   1  13
ATOM     13  C   UNL     1       9.046  -8.179   3.306  1.00  0.00     0.230 C 
BRANCH  13  14
ATOM     14  C   UNL     1       9.477  -8.872   4.600  1.00  0.00     0.046 C 
BRANCH  14  15
ATOM     15  C   UNL     1      10.800  -9.605   4.370  1.00  0.00     0.043 C 
BRANCH  15  16
ATOM     16  C   UNL     1      10.717 -10.990   4.957  1.00  0.00    -0.004 A 
ATOM     17  C   UNL     1      11.238 -11.385   6.143  1.00  0.00     0.036 A 
ATOM     18  C   UNL     1      10.083 -12.094   4.377  1.00  0.00     0.063 A 
ATOM     19  N   UNL     1      10.949 -12.694   6.303  1.00  0.00    -0.282 N 
ATOM     20  N   UNL     1      10.227 -13.117   5.180  1.00  0.00    -0.181 NA
ATOM     21  C   UNL     1      12.002 -10.519   7.109  1.00  0.00     0.066 C 
ATOM     22  C   UNL     1       9.367 -12.105   3.050  1.00  0.00     0.069 C 
ATOM     23  H   UNL     1      11.197 -13.244   7.062  1.00  0.00     0.190 HD
ENDBRANCH  15  16
ENDBRANCH  14  15
ENDBRANCH  13  14
ENDBRANCH   1  13
TORSDOF 7
ENDMDL
MODEL 8
REMARK VINA RESULT:    -4.334      5.008      7.943
REMARK INTER + INTRA:          -6.524
REMARK INTER:                  -5.869
REMARK INTRA:                  -0.655
REMARK UNBOUND:                -0.543
REMARK SMILES Cc1n[nH]c(C)c1CCCOc1cc(C(=O)O)ccc1F
REMARK SMILES IDX 11 1 12 2 14 3 18 4 13 5 19 6 20 7 21 8 15 9 16 10 17 11
REMARK SMILES IDX 10 13 9 14 8 15 7 16 5 17 2 18 4 19 3 20 6 21 1 22
REMARK H PARENT 17 12 4 23
ROOT
ATOM      1  O   UNL     1       9.096  -7.734   3.675  1.00  0.00    -0.490 OA
ENDROOT
BRANCH   1   2
ATOM      2  C   UNL     1       9.611  -8.951   3.996  1.00  0.00     0.155 A 
ATOM      3  C   UNL     1      11.275 -10.287   5.103  1.00  0.00     0.063 A 
ATOM      4  C   UNL     1      10.643 -11.447   4.647  1.00  0.00     0.019 A 
ATOM      5  C   UNL     1      10.752  -9.036   4.772  1.00  0.00     0.065 A 
ATOM      6  C   UNL     1       9.502 -11.352   3.877  1.00  0.00     0.044 A 
ATOM      7  C   UNL     1       8.982 -10.110   3.555  1.00  0.00     0.165 A 
ATOM      8  F   UNL     1       7.864 -10.024   2.800  1.00  0.00    -0.203 F 
BRANCH   3   9
ATOM      9  C   UNL     1      12.496 -10.385   5.927  1.00  0.00     0.335 C 
ATOM     10  O   UNL     1      12.668 -11.347   6.647  1.00  0.00    -0.246 OA
BRANCH   9  11
ATOM     11  O   UNL     1      13.423  -9.408   5.876  1.00  0.00    -0.478 OA
ATOM     12  H   UNL     1      13.352  -8.700   6.531  1.00  0.00     0.297 HD
ENDBRANCH   9  11
ENDBRANCH   3   9
ENDBRANCH   1   2
BRANCH   1  13
ATOM     13  C   UNL     1       9.895  -6.890   2.843  1.00  0.00     0.230 C 
BRANCH  13  14
ATOM     14  C   UNL     1       9.222  -5.523   2.709  1.00  0.00     0.046 C 
BRANCH  14  15
ATOM     15  C   UNL     1       7.713  -5.712   2.532  1.00  0.00     0.043 C 
BRANCH  15  16
ATOM     16  C   UNL     1       7.101  -4.430   2.030  1.00  0.00    -0.004 A 
ATOM     17  C   UNL     1       6.825  -4.132   0.739  1.00  0.00     0.036 A 
ATOM     18  C   UNL     1       6.712  -3.340   2.815  1.00  0.00     0.063 A 
ATOM     19  N   UNL     1       6.287  -2.895   0.708  1.00  0.00    -0.282 N 
ATOM     20  N   UNL     1       6.230  -2.417   2.024  1.00  0.00    -0.181 NA
ATOM     21  C   UNL     1       7.075  -5.022  -0.451  1.00  0.00     0.066 C 
ATOM     22  C   UNL     1       6.837  -3.242   4.314  1.00  0.00     0.069 C 
ATOM     23  H   UNL     1       5.992  -2.420  -0.085  1.00  0.00     0.190 HD
ENDBRANCH  15  16
ENDBRANCH  14  15
ENDBRANCH  13  14
ENDBRANCH   1  13
TORSDOF 7
ENDMDL
MODEL 9
REMARK VINA RESULT:    -4.286      4.948      7.853
REMARK INTER + INTRA:          -6.458
REMARK INTER:                  -5.765
REMARK INTRA:                  -0.693
REMARK UNBOUND:                -0.543
REMARK SMILES Cc1n[nH]c(C)c1CCCOc1cc(C(=O)O)ccc1F
REMARK SMILES IDX 11 1 12 2 14 3 18 4 13 5 19 6 20 7 21 8 15 9 16 10 17 11
REMARK SMILES IDX 10 13 9 14 8 15 7 16 5 17 2 18 4 19 3 20 6 21 1 22
REMARK H PARENT 17 12 4 23
ROOT
ATOM      1  O   UNL     1       9.157  -7.583   3.582  1.00  0.00    -0.490 OA
ENDROOT
BRANCH   1   2
ATOM      2  C   UNL     1       9.618  -8.819   3.913  1.00  0.00     0.155 A 
ATOM      3  C   UNL     1      11.251 -10.221   4.985  1.00  0.00     0.063 A 
ATOM      4  C   UNL     1      10.535 -11.354   4.585  1.00  0.00     0.019 A 
ATOM      5  C   UNL     1      10.784  -8.950   4.643  1.00  0.00     0.065 A 
ATOM      6  C   UNL     1       9.370 -11.213   3.862  1.00  0.00     0.044 A 
ATOM      7  C   UNL     1       8.906  -9.951   3.529  1.00  0.00     0.165 A 
ATOM      8  F   UNL     1       7.763  -9.820   2.820  1.00  0.00    -0.203 F 
BRANCH   3   9
ATOM      9  C   UNL     1      12.498 -10.369   5.760  1.00  0.00     0.335 C 
ATOM     10  O   UNL     1      12.721 -11.398   6.362  1.00  0.00    -0.246 OA
BRANCH   9  11
ATOM     11  O   UNL     1      13.393  -9.362   5.792  1.00  0.00    -0.478 OA
ATOM     12  H   UNL     1      13.441  -8.843   6.607  1.00  0.00     0.297 HD
ENDBRANCH   9  11
ENDBRANCH   3   9
ENDBRANCH   1   2
BRANCH   1  13
ATOM     13  C   UNL     1      10.057  -6.723   2.879  1.00  0.00     0.230 C 
BRANCH  13  14
ATOM     14  C   UNL     1       9.335  -5.427   2.506  1.00  0.00     0.046 C 
BRANCH  14  15
ATOM     15  C   UNL     1       7.823  -5.663   2.520  1.00  0.00     0.043 C 
BRANCH  15  16
ATOM     16  C   UNL     1       7.116  -4.422   2.040  1.00  0.00    -0.004 A 
ATOM     17  C   UNL     1       6.707  -3.389   2.813  1.00  0.00     0.036 A 
ATOM     18  C   UNL     1       6.771  -4.132   0.716  1.00  0.00     0.063 A 
ATOM     19  N   UNL     1       6.119  -2.480   2.007  1.00  0.00    -0.282 N 
ATOM     20  N   UNL     1       6.167  -2.971   0.696  1.00  0.00    -0.181 NA
ATOM     21  C   UNL     1       6.879  -3.274   4.305  1.00  0.00     0.066 C 
ATOM     22  C   UNL     1       7.038  -5.010  -0.480  1.00  0.00     0.069 C 
ATOM     23  H   UNL     1       5.730  -1.637   2.286  1.00  0.00     0.190 HD
ENDBRANCH  15  16
ENDBRANCH  14  15
ENDBRANCH  13  14
ENDBRANCH   1  13
TORSDOF 7
ENDMDL
