MODEL 1
REMARK VINA RESULT:    -4.219      0.000      0.000
REMARK INTER + INTRA:          -5.133
REMARK INTER:                  -4.836
REMARK INTRA:                  -0.297
REMARK UNBOUND:                -0.297
REMARK SMILES O=C(O)c1ccc2nc(-c3cc(Cl)cc(Cl)c3)oc2c1
REMARK SMILES IDX 5 1 6 2 20 3 8 4 18 5 4 6 9 7 7 8 19 9 2 10 1 11 3 12 10 14
REMARK SMILES IDX 11 15 17 16 12 17 15 18 14 19 13 20 16 21
REMARK H PARENT 3 13
ROOT
ATOM      1  C   UNL     1       5.349   1.893   2.266  1.00  0.00     0.018 A 
ATOM      2  C   UNL     1       6.546   2.489   2.527  1.00  0.00     0.033 A 
ATOM      3  C   UNL     1       4.661   2.210   4.569  1.00  0.00     0.065 A 
ATOM      4  N   UNL     1       7.897   3.574   4.366  1.00  0.00    -0.209 NA
ATOM      5  O   UNL     1       6.425   3.349   5.952  1.00  0.00    -0.436 OA
ATOM      6  C   UNL     1       4.392   1.748   3.280  1.00  0.00     0.063 A 
ATOM      7  C   UNL     1       7.651   3.804   5.632  1.00  0.00     0.227 A 
ATOM      8  C   UNL     1       6.829   2.958   3.816  1.00  0.00     0.110 A 
ATOM      9  C   UNL     1       5.876   2.811   4.840  1.00  0.00     0.156 A 
ENDROOT
BRANCH   6  10
ATOM     10  C   UNL     1       3.098   1.106   2.983  1.00  0.00     0.335 C 
ATOM     11  O   UNL     1       2.974   0.421   1.988  1.00  0.00    -0.246 OA
BRANCH  10  12
ATOM     12  O   UNL     1       2.053   1.281   3.815  1.00  0.00    -0.478 OA
ATOM     13  H   UNL     1       1.585   2.126   3.762  1.00  0.00     0.297 HD
ENDBRANCH  10  12
ENDBRANCH   6  10
BRANCH   7  14
ATOM     14  C   UNL     1       8.583   4.464   6.570  1.00  0.00     0.040 A 
ATOM     15  C   UNL     1       8.201   4.693   7.892  1.00  0.00     0.034 A 
ATOM     16  C   UNL     1       9.849   4.861   6.136  1.00  0.00     0.034 A 
ATOM     17  C   UNL     1       9.077   5.310   8.764  1.00  0.00     0.043 A 
ATOM     18  C   UNL     1      10.716   5.476   7.017  1.00  0.00     0.043 A 
ATOM     19  C   UNL     1      10.331   5.701   8.327  1.00  0.00     0.041 A 
ATOM     20  Cl  UNL     1       8.604   5.596  10.409  1.00  0.00    -0.084 Cl
ATOM     21  Cl  UNL     1      12.291   5.970   6.479  1.00  0.00    -0.084 Cl
ENDBRANCH   7  14
TORSDOF 3
ENDMDL
MODEL 2
REMARK VINA RESULT:    -4.218      0.058      2.020
REMARK INTER + INTRA:          -5.131
REMARK INTER:                  -4.834
REMARK INTRA:                  -0.297
REMARK UNBOUND:                -0.297
REMARK SMILES O=C(O)c1ccc2nc(-c3cc(Cl)cc(Cl)c3)oc2c1
REMARK SMILES IDX 5 1 6 2 20 3 8 4 18 5 4 6 9 7 7 8 19 9 2 10 1 11 3 12 10 14
REMARK SMILES IDX 11 15 17 16 12 17 15 18 14 19 13 20 16 21
REMARK H PARENT 3 13
ROOT
ATOM      1  C   UNL     1       5.407   1.913   2.256  1.00  0.00     0.018 A 
ATOM      2  C   UNL     1       6.600   2.513   2.528  1.00  0.00     0.033 A 
ATOM      3  C   UNL     1       4.695   2.232   4.552  1.00  0.00     0.065 A 
ATOM      4  N   UNL     1       7.930   3.604   4.378  1.00  0.00    -0.209 NA
ATOM      5  O   UNL     1       6.443   3.377   5.950  1.00  0.00    -0.436 OA
ATOM      6  C   UNL     1       4.440   1.766   3.261  1.00  0.00     0.063 A 
ATOM      7  C   UNL     1       7.671   3.835   5.641  1.00  0.00     0.227 A 
ATOM      8  C   UNL     1       6.869   2.984   3.819  1.00  0.00     0.110 A 
ATOM      9  C   UNL     1       5.906   2.837   4.834  1.00  0.00     0.156 A 
ENDROOT
BRANCH   6  10
ATOM     10  C   UNL     1       3.151   1.121   2.953  1.00  0.00     0.335 C 
ATOM     11  O   UNL     1       3.033   0.450   1.947  1.00  0.00    -0.246 OA
BRANCH  10  12
ATOM     12  O   UNL     1       2.103   1.276   3.787  1.00  0.00    -0.478 OA
ATOM     13  H   UNL     1       2.053   0.679   4.544  1.00  0.00     0.297 HD
ENDBRANCH  10  12
ENDBRANCH   6  10
BRANCH   7  14
ATOM     14  C   UNL     1       8.592   4.499   6.587  1.00  0.00     0.040 A 
ATOM     15  C   UNL     1       9.870   4.876   6.173  1.00  0.00     0.034 A 
ATOM     16  C   UNL     1       8.186   4.750   7.899  1.00  0.00     0.034 A 
ATOM     17  C   UNL     1      10.725   5.498   7.061  1.00  0.00     0.043 A 
ATOM     18  C   UNL     1       9.051   5.372   8.778  1.00  0.00     0.043 A 
ATOM     19  C   UNL     1      10.317   5.744   8.361  1.00  0.00     0.041 A 
ATOM     20  Cl  UNL     1      12.315   5.969   6.549  1.00  0.00    -0.084 Cl
ATOM     21  Cl  UNL     1       8.549   5.685  10.411  1.00  0.00    -0.084 Cl
ENDBRANCH   7  14
TORSDOF 3
ENDMDL
MODEL 3
REMARK VINA RESULT:    -4.173      3.749      7.404
REMARK INTER + INTRA:          -5.080
REMARK INTER:                  -4.795
REMARK INTRA:                  -0.284
REMARK UNBOUND:                -0.297
REMARK SMILES O=C(O)c1ccc2nc(-c3cc(Cl)cc(Cl)c3)oc2c1
REMARK SMILES IDX 5 1 6 2 20 3 8 4 18 5 4 6 9 7 7 8 19 9 2 10 1 11 3 12 10 14
REMARK SMILES IDX 11 15 17 16 12 17 15 18 14 19 13 20 16 21
REMARK H PARENT 3 13
ROOT
ATOM      1  C   UNL     1      10.111   5.747   8.460  1.00  0.00     0.018 A 
ATOM      2  C   UNL     1       9.992   5.253   7.196  1.00  0.00     0.033 A 
ATOM      3  C   UNL     1       7.918   4.883   9.031  1.00  0.00     0.065 A 
ATOM      4  N   UNL     1       8.434   3.974   5.672  1.00  0.00    -0.209 NA
ATOM      5  O   UNL     1       6.822   3.695   7.105  1.00  0.00    -0.436 OA
ATOM      6  C   UNL     1       9.079   5.568   9.393  1.00  0.00     0.063 A 
ATOM      7  C   UNL     1       7.242   3.461   5.848  1.00  0.00     0.227 A 
ATOM      8  C   UNL     1       8.832   4.563   6.820  1.00  0.00     0.110 A 
ATOM      9  C   UNL     1       7.791   4.384   7.748  1.00  0.00     0.156 A 
ENDROOT
BRANCH   6  10
ATOM     10  C   UNL     1       9.222   6.103  10.759  1.00  0.00     0.335 C 
ATOM     11  O   UNL     1       8.988   7.274  10.980  1.00  0.00    -0.246 OA
BRANCH  10  12
ATOM     12  O   UNL     1       9.613   5.293  11.763  1.00  0.00    -0.478 OA
ATOM     13  H   UNL     1       9.177   4.433  11.828  1.00  0.00     0.297 HD
ENDBRANCH  10  12
ENDBRANCH   6  10
BRANCH   7  14
ATOM     14  C   UNL     1       6.472   2.734   4.817  1.00  0.00     0.040 A 
ATOM     15  C   UNL     1       5.077   2.760   4.836  1.00  0.00     0.034 A 
ATOM     16  C   UNL     1       7.139   2.016   3.822  1.00  0.00     0.034 A 
ATOM     17  C   UNL     1       4.364   2.079   3.869  1.00  0.00     0.043 A 
ATOM     18  C   UNL     1       6.414   1.340   2.861  1.00  0.00     0.043 A 
ATOM     19  C   UNL     1       5.031   1.370   2.885  1.00  0.00     0.041 A 
ATOM     20  Cl  UNL     1       2.628   2.111   3.889  1.00  0.00    -0.084 Cl
ATOM     21  Cl  UNL     1       7.241   0.447   1.622  1.00  0.00    -0.084 Cl
ENDBRANCH   7  14
TORSDOF 3
ENDMDL
MODEL 4
REMARK VINA RESULT:    -4.170      3.749      7.639
REMARK INTER + INTRA:          -5.077
REMARK INTER:                  -4.793
REMARK INTRA:                  -0.284
REMARK UNBOUND:                -0.297
REMARK SMILES O=C(O)c1ccc2nc(-c3cc(Cl)cc(Cl)c3)oc2c1
REMARK SMILES IDX 5 1 6 2 20 3 8 4 18 5 4 6 9 7 7 8 19 9 2 10 1 11 3 12 10 14
REMARK SMILES IDX 11 15 17 16 12 17 15 18 14 19 13 20 16 21
REMARK H PARENT 3 13
ROOT
ATOM      1  C   UNL     1      10.112   5.748   8.461  1.00  0.00     0.018 A 
ATOM      2  C   UNL     1       9.994   5.253   7.197  1.00  0.00     0.033 A 
ATOM      3  C   UNL     1       7.919   4.884   9.031  1.00  0.00     0.065 A 
ATOM      4  N   UNL     1       8.437   3.975   5.672  1.00  0.00    -0.209 NA
ATOM      5  O   UNL     1       6.823   3.696   7.105  1.00  0.00    -0.436 OA
ATOM      6  C   UNL     1       9.080   5.569   9.393  1.00  0.00     0.063 A 
ATOM      7  C   UNL     1       7.244   3.462   5.847  1.00  0.00     0.227 A 
ATOM      8  C   UNL     1       8.834   4.564   6.820  1.00  0.00     0.110 A 
ATOM      9  C   UNL     1       7.793   4.384   7.748  1.00  0.00     0.156 A 
ENDROOT
BRANCH   6  10
ATOM     10  C   UNL     1       9.222   6.104  10.759  1.00  0.00     0.335 C 
ATOM     11  O   UNL     1       8.987   7.275  10.981  1.00  0.00    -0.246 OA
BRANCH  10  12
ATOM     12  O   UNL     1       9.614   5.294  11.763  1.00  0.00    -0.478 OA
ATOM     13  H   UNL     1       9.200   5.432  12.625  1.00  0.00     0.297 HD
ENDBRANCH  10  12
ENDBRANCH   6  10
BRANCH   7  14
ATOM     14  C   UNL     1       6.475   2.734   4.817  1.00  0.00     0.040 A 
ATOM     15  C   UNL     1       7.140   2.018   3.821  1.00  0.00     0.034 A 
ATOM     16  C   UNL     1       5.079   2.762   4.835  1.00  0.00     0.034 A 
ATOM     17  C   UNL     1       6.415   1.340   2.861  1.00  0.00     0.043 A 
ATOM     18  C   UNL     1       4.366   2.080   3.870  1.00  0.00     0.043 A 
ATOM     19  C   UNL     1       5.031   1.371   2.885  1.00  0.00     0.041 A 
ATOM     20  Cl  UNL     1       7.240   0.447   1.622  1.00  0.00    -0.084 Cl
ATOM     21  Cl  UNL     1       2.630   2.113   3.891  1.00  0.00    -0.084 Cl
ENDBRANCH   7  14
TORSDOF 3
ENDMDL
MODEL 5
REMARK VINA RESULT:    -4.111      3.934      7.625
REMARK INTER + INTRA:          -5.009
REMARK INTER:                  -4.714
REMARK INTRA:                  -0.296
REMARK UNBOUND:                -0.297
REMARK SMILES O=C(O)c1ccc2nc(-c3cc(Cl)cc(Cl)c3)oc2c1
REMARK SMILES IDX 5 1 6 2 20 3 8 4 18 5 4 6 9 7 7 8 19 9 2 10 1 11 3 12 10 14
REMARK SMILES IDX 11 15 17 16 12 17 15 18 14 19 13 20 16 21
REMARK H PARENT 3 13
ROOT
ATOM      1  C   UNL     1      10.245   5.600   8.234  1.00  0.00     0.018 A 
ATOM      2  C   UNL     1       8.981   5.105   8.111  1.00  0.00     0.033 A 
ATOM      3  C   UNL     1      10.683   5.126   5.896  1.00  0.00     0.065 A 
ATOM      4  N   UNL     1       7.376   4.067   6.460  1.00  0.00    -0.209 NA
ATOM      5  O   UNL     1       8.709   4.083   4.741  1.00  0.00    -0.436 OA
ATOM      6  C   UNL     1      11.110   5.619   7.130  1.00  0.00     0.063 A 
ATOM      7  C   UNL     1       7.482   3.759   5.191  1.00  0.00     0.227 A 
ATOM      8  C   UNL     1       8.540   4.607   6.879  1.00  0.00     0.110 A 
ATOM      9  C   UNL     1       9.403   4.618   5.769  1.00  0.00     0.156 A 
ENDROOT
BRANCH   6  10
ATOM     10  C   UNL     1      12.473   6.163   7.273  1.00  0.00     0.335 C 
ATOM     11  O   UNL     1      13.259   6.081   6.351  1.00  0.00    -0.246 OA
BRANCH  10  12
ATOM     12  O   UNL     1      12.847   6.749   8.427  1.00  0.00    -0.478 OA
ATOM     13  H   UNL     1      12.149   6.950   9.065  1.00  0.00     0.297 HD
ENDBRANCH  10  12
ENDBRANCH   6  10
BRANCH   7  14
ATOM     14  C   UNL     1       6.413   3.146   4.376  1.00  0.00     0.040 A 
ATOM     15  C   UNL     1       5.073   3.351   4.708  1.00  0.00     0.034 A 
ATOM     16  C   UNL     1       6.740   2.358   3.271  1.00  0.00     0.034 A 
ATOM     17  C   UNL     1       4.079   2.776   3.942  1.00  0.00     0.043 A 
ATOM     18  C   UNL     1       5.737   1.788   2.512  1.00  0.00     0.043 A 
ATOM     19  C   UNL     1       4.410   1.995   2.847  1.00  0.00     0.041 A 
ATOM     20  Cl  UNL     1       2.412   3.030   4.352  1.00  0.00    -0.084 Cl
ATOM     21  Cl  UNL     1       6.141   0.808   1.137  1.00  0.00    -0.084 Cl
ENDBRANCH   7  14
TORSDOF 3
ENDMDL
MODEL 6
REMARK VINA RESULT:    -4.106      3.933      7.856
REMARK INTER + INTRA:          -5.004
REMARK INTER:                  -4.708
REMARK INTRA:                  -0.296
REMARK UNBOUND:                -0.297
REMARK SMILES O=C(O)c1ccc2nc(-c3cc(Cl)cc(Cl)c3)oc2c1
REMARK SMILES IDX 5 1 6 2 20 3 8 4 18 5 4 6 9 7 7 8 19 9 2 10 1 11 3 12 10 14
REMARK SMILES IDX 11 15 17 16 12 17 15 18 14 19 13 20 16 21
REMARK H PARENT 3 13
ROOT
ATOM      1  C   UNL     1      10.242   5.599   8.236  1.00  0.00     0.018 A 
ATOM      2  C   UNL     1       8.978   5.104   8.113  1.00  0.00     0.033 A 
ATOM      3  C   UNL     1      10.682   5.124   5.899  1.00  0.00     0.065 A 
ATOM      4  N   UNL     1       7.374   4.066   6.460  1.00  0.00    -0.209 NA
ATOM      5  O   UNL     1       8.709   4.081   4.742  1.00  0.00    -0.436 OA
ATOM      6  C   UNL     1      11.108   5.618   7.134  1.00  0.00     0.063 A 
ATOM      7  C   UNL     1       7.482   3.758   5.191  1.00  0.00     0.227 A 
ATOM      8  C   UNL     1       8.538   4.606   6.880  1.00  0.00     0.110 A 
ATOM      9  C   UNL     1       9.402   4.617   5.771  1.00  0.00     0.156 A 
ENDROOT
BRANCH   6  10
ATOM     10  C   UNL     1      12.470   6.161   7.278  1.00  0.00     0.335 C 
ATOM     11  O   UNL     1      13.258   6.079   6.357  1.00  0.00    -0.246 OA
BRANCH  10  12
ATOM     12  O   UNL     1      12.844   6.748   8.433  1.00  0.00    -0.478 OA
ATOM     13  H   UNL     1      12.156   7.204   8.936  1.00  0.00     0.297 HD
ENDBRANCH  10  12
ENDBRANCH   6  10
BRANCH   7  14
ATOM     14  C   UNL     1       6.414   3.145   4.375  1.00  0.00     0.040 A 
ATOM     15  C   UNL     1       6.740   2.359   3.269  1.00  0.00     0.034 A 
ATOM     16  C   UNL     1       5.073   3.350   4.707  1.00  0.00     0.034 A 
ATOM     17  C   UNL     1       5.737   1.788   2.511  1.00  0.00     0.043 A 
ATOM     18  C   UNL     1       4.079   2.774   3.942  1.00  0.00     0.043 A 
ATOM     19  C   UNL     1       4.410   1.995   2.846  1.00  0.00     0.041 A 
ATOM     20  Cl  UNL     1       6.141   0.809   1.135  1.00  0.00    -0.084 Cl
ATOM     21  Cl  UNL     1       2.411   3.028   4.353  1.00  0.00    -0.084 Cl
ENDBRANCH   7  14
TORSDOF 3
ENDMDL
MODEL 7
REMARK VINA RESULT:    -4.015      2.162      3.113
REMARK INTER + INTRA:          -4.899
REMARK INTER:                  -4.613
REMARK INTRA:                  -0.287
REMARK UNBOUND:                -0.297
REMARK SMILES O=C(O)c1ccc2nc(-c3cc(Cl)cc(Cl)c3)oc2c1
REMARK SMILES IDX 5 1 6 2 20 3 8 4 18 5 4 6 9 7 7 8 19 9 2 10 1 11 3 12 10 14
REMARK SMILES IDX 11 15 17 16 12 17 15 18 14 19 13 20 16 21
REMARK H PARENT 3 13
ROOT
ATOM      1  C   UNL     1       5.929   2.974   2.568  1.00  0.00     0.018 A 
ATOM      2  C   UNL     1       5.988   3.971   3.495  1.00  0.00     0.033 A 
ATOM      3  C   UNL     1       7.389   1.594   3.926  1.00  0.00     0.065 A 
ATOM      4  N   UNL     1       6.996   4.589   5.728  1.00  0.00    -0.209 NA
ATOM      5  O   UNL     1       8.088   2.736   6.053  1.00  0.00    -0.436 OA
ATOM      6  C   UNL     1       6.625   1.774   2.771  1.00  0.00     0.063 A 
ATOM      7  C   UNL     1       7.789   3.950   6.552  1.00  0.00     0.227 A 
ATOM      8  C   UNL     1       6.750   3.803   4.658  1.00  0.00     0.110 A 
ATOM      9  C   UNL     1       7.455   2.605   4.866  1.00  0.00     0.156 A 
ENDROOT
BRANCH   6  10
ATOM     10  C   UNL     1       6.549   0.700   1.764  1.00  0.00     0.335 C 
ATOM     11  O   UNL     1       5.983   0.898   0.708  1.00  0.00    -0.246 OA
BRANCH  10  12
ATOM     12  O   UNL     1       7.106  -0.501   2.016  1.00  0.00    -0.478 OA
ATOM     13  H   UNL     1       6.796  -0.973   2.800  1.00  0.00     0.297 HD
ENDBRANCH  10  12
ENDBRANCH   6  10
BRANCH   7  14
ATOM     14  C   UNL     1       8.283   4.485   7.838  1.00  0.00     0.040 A 
ATOM     15  C   UNL     1       9.433   5.274   7.874  1.00  0.00     0.034 A 
ATOM     16  C   UNL     1       7.600   4.202   9.022  1.00  0.00     0.034 A 
ATOM     17  C   UNL     1       9.889   5.771   9.078  1.00  0.00     0.043 A 
ATOM     18  C   UNL     1       8.065   4.705  10.221  1.00  0.00     0.043 A 
ATOM     19  C   UNL     1       9.207   5.487  10.250  1.00  0.00     0.041 A 
ATOM     20  Cl  UNL     1      11.319   6.753   9.125  1.00  0.00    -0.084 Cl
ATOM     21  Cl  UNL     1       7.217   4.354  11.695  1.00  0.00    -0.084 Cl
ENDBRANCH   7  14
TORSDOF 3
ENDMDL
MODEL 8
REMARK VINA RESULT:    -3.803      3.656      5.733
REMARK INTER + INTRA:          -4.656
REMARK INTER:                  -4.378
REMARK INTRA:                  -0.278
REMARK UNBOUND:                -0.297
REMARK SMILES O=C(O)c1ccc2nc(-c3cc(Cl)cc(Cl)c3)oc2c1
REMARK SMILES IDX 5 1 6 2 20 3 8 4 18 5 4 6 9 7 7 8 19 9 2 10 1 11 3 12 10 14
REMARK SMILES IDX 11 15 17 16 12 17 15 18 14 19 13 20 16 21
REMARK H PARENT 3 13
ROOT
ATOM      1  C   UNL     1       9.447   4.541   5.740  1.00  0.00     0.018 A 
ATOM      2  C   UNL     1      10.162   5.174   6.713  1.00  0.00     0.033 A 
ATOM      3  C   UNL     1       7.593   4.230   7.273  1.00  0.00     0.065 A 
ATOM      4  N   UNL     1      10.063   5.917   9.125  1.00  0.00    -0.209 NA
ATOM      5  O   UNL     1       8.064   5.175   9.555  1.00  0.00    -0.436 OA
ATOM      6  C   UNL     1       8.155   4.064   6.006  1.00  0.00     0.063 A 
ATOM      7  C   UNL     1       9.141   5.813  10.050  1.00  0.00     0.227 A 
ATOM      8  C   UNL     1       9.610   5.347   7.988  1.00  0.00     0.110 A 
ATOM      9  C   UNL     1       8.318   4.867   8.264  1.00  0.00     0.156 A 
ENDROOT
BRANCH   6  10
ATOM     10  C   UNL     1       7.389   3.387   4.945  1.00  0.00     0.335 C 
ATOM     11  O   UNL     1       6.723   4.040   4.166  1.00  0.00    -0.246 OA
BRANCH  10  12
ATOM     12  O   UNL     1       7.425   2.044   4.839  1.00  0.00    -0.478 OA
ATOM     13  H   UNL     1       6.972   1.537   5.526  1.00  0.00     0.297 HD
ENDBRANCH  10  12
ENDBRANCH   6  10
BRANCH   7  14
ATOM     14  C   UNL     1       9.267   6.319  11.432  1.00  0.00     0.040 A 
ATOM     15  C   UNL     1       9.450   7.682  11.666  1.00  0.00     0.034 A 
ATOM     16  C   UNL     1       9.205   5.434  12.511  1.00  0.00     0.034 A 
ATOM     17  C   UNL     1       9.566   8.149  12.960  1.00  0.00     0.043 A 
ATOM     18  C   UNL     1       9.322   5.913  13.800  1.00  0.00     0.043 A 
ATOM     19  C   UNL     1       9.503   7.266  14.025  1.00  0.00     0.041 A 
ATOM     20  Cl  UNL     1       9.793   9.845  13.253  1.00  0.00    -0.084 Cl
ATOM     21  Cl  UNL     1       9.244   4.814  15.143  1.00  0.00    -0.084 Cl
ENDBRANCH   7  14
TORSDOF 3
ENDMDL
MODEL 9
REMARK VINA RESULT:    -3.797      3.662      5.595
REMARK INTER + INTRA:          -4.649
REMARK INTER:                  -4.370
REMARK INTRA:                  -0.279
REMARK UNBOUND:                -0.297
REMARK SMILES O=C(O)c1ccc2nc(-c3cc(Cl)cc(Cl)c3)oc2c1
REMARK SMILES IDX 5 1 6 2 20 3 8 4 18 5 4 6 9 7 7 8 19 9 2 10 1 11 3 12 10 14
REMARK SMILES IDX 11 15 17 16 12 17 15 18 14 19 13 20 16 21
REMARK H PARENT 3 13
ROOT
ATOM      1  C   UNL     1       9.460   4.524   5.749  1.00  0.00     0.018 A 
ATOM      2  C   UNL     1      10.169   5.171   6.716  1.00  0.00     0.033 A 
ATOM      3  C   UNL     1       7.617   4.192   7.290  1.00  0.00     0.065 A 
ATOM      4  N   UNL     1      10.067   5.925   9.125  1.00  0.00    -0.209 NA
ATOM      5  O   UNL     1       8.080   5.154   9.565  1.00  0.00    -0.436 OA
ATOM      6  C   UNL     1       8.177   4.028   6.021  1.00  0.00     0.063 A 
ATOM      7  C   UNL     1       9.150   5.810  10.054  1.00  0.00     0.227 A 
ATOM      8  C   UNL     1       9.619   5.342   7.992  1.00  0.00     0.110 A 
ATOM      9  C   UNL     1       8.335   4.844   8.275  1.00  0.00     0.156 A 
ENDROOT
BRANCH   6  10
ATOM     10  C   UNL     1       7.417   3.335   4.966  1.00  0.00     0.335 C 
ATOM     11  O   UNL     1       6.814   3.978   4.129  1.00  0.00    -0.246 OA
BRANCH  10  12
ATOM     12  O   UNL     1       7.390   1.988   4.928  1.00  0.00    -0.478 OA
ATOM     13  H   UNL     1       8.241   1.532   4.910  1.00  0.00     0.297 HD
ENDBRANCH  10  12
ENDBRANCH   6  10
BRANCH   7  14
ATOM     14  C   UNL     1       9.273   6.325  11.433  1.00  0.00     0.040 A 
ATOM     15  C   UNL     1       9.203   5.448  12.517  1.00  0.00     0.034 A 
ATOM     16  C   UNL     1       9.457   7.690  11.658  1.00  0.00     0.034 A 
ATOM     17  C   UNL     1       9.320   5.935  13.804  1.00  0.00     0.043 A 
ATOM     18  C   UNL     1       9.572   8.165  12.949  1.00  0.00     0.043 A 
ATOM     19  C   UNL     1       9.503   7.291  14.020  1.00  0.00     0.041 A 
ATOM     20  Cl  UNL     1       9.235   4.847  15.154  1.00  0.00    -0.084 Cl
ATOM     21  Cl  UNL     1       9.803   9.863  13.230  1.00  0.00    -0.084 Cl
ENDBRANCH   7  14
TORSDOF 3
ENDMDL
