MODEL 1
REMARK VINA RESULT:    -5.590      0.000      0.000
REMARK INTER + INTRA:          -8.352
REMARK INTER:                  -7.714
REMARK INTRA:                  -0.638
REMARK UNBOUND:                -0.638
REMARK SMILES Cc1n[nH]c(C)c1CCCOc1cc(C(=O)O)ccc1F
REMARK SMILES IDX 11 1 12 2 14 3 18 4 13 5 19 6 20 7 21 8 15 9 16 10 17 11
REMARK SMILES IDX 10 13 9 14 8 15 7 16 5 17 2 18 4 19 3 20 6 21 1 22
REMARK H PARENT 17 12 4 23
ROOT
ATOM      1  O   UNL     1       7.337   1.020   5.258  1.00  0.00    -0.490 OA
ENDROOT
BRANCH   1   2
ATOM      2  C   UNL     1       6.338   1.342   4.393  1.00  0.00     0.155 A 
ATOM      3  C   UNL     1       4.228   2.402   3.942  1.00  0.00     0.063 A 
ATOM      4  C   UNL     1       4.314   1.998   2.607  1.00  0.00     0.019 A 
ATOM      5  C   UNL     1       5.249   2.069   4.835  1.00  0.00     0.065 A 
ATOM      6  C   UNL     1       5.408   1.278   2.175  1.00  0.00     0.044 A 
ATOM      7  C   UNL     1       6.421   0.953   3.061  1.00  0.00     0.165 A 
ATOM      8  F   UNL     1       7.490   0.247   2.630  1.00  0.00    -0.203 F 
BRANCH   3   9
ATOM      9  C   UNL     1       3.059   3.173   4.409  1.00  0.00     0.335 C 
ATOM     10  O   UNL     1       2.680   3.067   5.557  1.00  0.00    -0.246 OA
BRANCH   9  11
ATOM     11  O   UNL     1       2.416   4.001   3.561  1.00  0.00    -0.478 OA
ATOM     12  H   UNL     1       2.951   4.669   3.110  1.00  0.00     0.297 HD
ENDBRANCH   9  11
ENDBRANCH   3   9
ENDBRANCH   1   2
BRANCH   1  13
ATOM     13  C   UNL     1       8.532   1.802   5.188  1.00  0.00     0.230 C 
BRANCH  13  14
ATOM     14  C   UNL     1       8.706   2.583   6.492  1.00  0.00     0.046 C 
BRANCH  14  15
ATOM     15  C   UNL     1       8.469   4.072   6.229  1.00  0.00     0.043 C 
BRANCH  15  16
ATOM     16  C   UNL     1       9.397   4.889   7.089  1.00  0.00    -0.004 A 
ATOM     17  C   UNL     1       9.196   5.222   8.385  1.00  0.00     0.036 A 
ATOM     18  C   UNL     1      10.624   5.431   6.691  1.00  0.00     0.063 A 
ATOM     19  N   UNL     1      10.254   5.955   8.791  1.00  0.00    -0.282 N 
ATOM     20  N   UNL     1      11.135   6.077   7.708  1.00  0.00    -0.181 NA
ATOM     21  C   UNL     1       8.004   4.843   9.225  1.00  0.00     0.066 C 
ATOM     22  C   UNL     1      11.244   5.305   5.323  1.00  0.00     0.069 C 
ATOM     23  H   UNL     1      10.382   6.332   9.675  1.00  0.00     0.190 HD
ENDBRANCH  15  16
ENDBRANCH  14  15
ENDBRANCH  13  14
ENDBRANCH   1  13
TORSDOF 7
ENDMDL
MODEL 2
REMARK VINA RESULT:    -5.437      0.240      1.784
REMARK INTER + INTRA:          -8.141
REMARK INTER:                  -7.444
REMARK INTRA:                  -0.696
REMARK UNBOUND:                -0.638
REMARK SMILES Cc1n[nH]c(C)c1CCCOc1cc(C(=O)O)ccc1F
REMARK SMILES IDX 11 1 12 2 14 3 18 4 13 5 19 6 20 7 21 8 15 9 16 10 17 11
REMARK SMILES IDX 10 13 9 14 8 15 7 16 5 17 2 18 4 19 3 20 6 21 1 22
REMARK H PARENT 17 12 4 23
ROOT
ATOM      1  O   UNL     1       7.431   1.049   5.124  1.00  0.00    -0.490 OA
ENDROOT
BRANCH   1   2
ATOM      2  C   UNL     1       6.398   1.356   4.296  1.00  0.00     0.155 A 
ATOM      3  C   UNL     1       4.257   2.385   3.921  1.00  0.00     0.063 A 
ATOM      4  C   UNL     1       4.301   1.981   2.584  1.00  0.00     0.019 A 
ATOM      5  C   UNL     1       5.314   2.067   4.776  1.00  0.00     0.065 A 
ATOM      6  C   UNL     1       5.389   1.277   2.112  1.00  0.00     0.044 A 
ATOM      7  C   UNL     1       6.439   0.968   2.961  1.00  0.00     0.165 A 
ATOM      8  F   UNL     1       7.502   0.278   2.493  1.00  0.00    -0.203 F 
BRANCH   3   9
ATOM      9  C   UNL     1       3.094   3.139   4.429  1.00  0.00     0.335 C 
ATOM     10  O   UNL     1       2.817   3.105   5.610  1.00  0.00    -0.246 OA
BRANCH   9  11
ATOM     11  O   UNL     1       2.344   3.871   3.581  1.00  0.00    -0.478 OA
ATOM     12  H   UNL     1       2.801   4.548   3.063  1.00  0.00     0.297 HD
ENDBRANCH   9  11
ENDBRANCH   3   9
ENDBRANCH   1   2
BRANCH   1  13
ATOM     13  C   UNL     1       8.501   1.994   5.204  1.00  0.00     0.230 C 
BRANCH  13  14
ATOM     14  C   UNL     1       8.500   2.650   6.585  1.00  0.00     0.046 C 
BRANCH  14  15
ATOM     15  C   UNL     1       8.296   4.159   6.433  1.00  0.00     0.043 C 
BRANCH  15  16
ATOM     16  C   UNL     1       9.251   4.890   7.341  1.00  0.00    -0.004 A 
ATOM     17  C   UNL     1      10.475   5.356   7.000  1.00  0.00     0.036 A 
ATOM     18  C   UNL     1       9.027   5.213   8.683  1.00  0.00     0.063 A 
ATOM     19  N   UNL     1      11.009   5.946   8.090  1.00  0.00    -0.282 N 
ATOM     20  N   UNL     1      10.082   5.840   9.135  1.00  0.00    -0.181 NA
ATOM     21  C   UNL     1      11.125   5.237   5.646  1.00  0.00     0.066 C 
ATOM     22  C   UNL     1       7.788   4.884   9.476  1.00  0.00     0.069 C 
ATOM     23  H   UNL     1      11.880   6.369   8.141  1.00  0.00     0.190 HD
ENDBRANCH  15  16
ENDBRANCH  14  15
ENDBRANCH  13  14
ENDBRANCH   1  13
TORSDOF 7
ENDMDL
MODEL 3
REMARK VINA RESULT:    -5.392      2.179      3.769
REMARK INTER + INTRA:          -8.080
REMARK INTER:                  -7.339
REMARK INTRA:                  -0.741
REMARK UNBOUND:                -0.638
REMARK SMILES Cc1n[nH]c(C)c1CCCOc1cc(C(=O)O)ccc1F
REMARK SMILES IDX 11 1 12 2 14 3 18 4 13 5 19 6 20 7 21 8 15 9 16 10 17 11
REMARK SMILES IDX 10 13 9 14 8 15 7 16 5 17 2 18 4 19 3 20 6 21 1 22
REMARK H PARENT 17 12 4 23
ROOT
ATOM      1  O   UNL     1       5.185   4.871   4.524  1.00  0.00    -0.490 OA
ENDROOT
BRANCH   1   2
ATOM      2  C   UNL     1       4.936   3.655   3.971  1.00  0.00     0.155 A 
ATOM      3  C   UNL     1       5.699   1.701   2.795  1.00  0.00     0.063 A 
ATOM      4  C   UNL     1       4.409   1.165   2.856  1.00  0.00     0.019 A 
ATOM      5  C   UNL     1       5.957   2.953   3.358  1.00  0.00     0.065 A 
ATOM      6  C   UNL     1       3.399   1.871   3.476  1.00  0.00     0.044 A 
ATOM      7  C   UNL     1       3.659   3.110   4.037  1.00  0.00     0.165 A 
ATOM      8  F   UNL     1       2.664   3.796   4.643  1.00  0.00    -0.203 F 
BRANCH   3   9
ATOM      9  C   UNL     1       6.782   0.948   2.133  1.00  0.00     0.335 C 
ATOM     10  O   UNL     1       7.732   1.539   1.662  1.00  0.00    -0.246 OA
BRANCH   9  11
ATOM     11  O   UNL     1       6.720  -0.396   2.058  1.00  0.00    -0.478 OA
ATOM     12  H   UNL     1       6.867  -0.889   2.877  1.00  0.00     0.297 HD
ENDBRANCH   9  11
ENDBRANCH   3   9
ENDBRANCH   1   2
BRANCH   1  13
ATOM     13  C   UNL     1       6.555   5.266   4.634  1.00  0.00     0.230 C 
BRANCH  13  14
ATOM     14  C   UNL     1       6.912   5.462   6.109  1.00  0.00     0.046 C 
BRANCH  14  15
ATOM     15  C   UNL     1       7.859   4.347   6.557  1.00  0.00     0.043 C 
BRANCH  15  16
ATOM     16  C   UNL     1       8.945   4.928   7.424  1.00  0.00    -0.004 A 
ATOM     17  C   UNL     1      10.164   5.341   7.004  1.00  0.00     0.036 A 
ATOM     18  C   UNL     1       8.871   5.141   8.805  1.00  0.00     0.063 A 
ATOM     19  N   UNL     1      10.839   5.793   8.082  1.00  0.00    -0.282 N 
ATOM     20  N   UNL     1      10.007   5.653   9.201  1.00  0.00    -0.181 NA
ATOM     21  C   UNL     1      10.675   5.303   5.588  1.00  0.00     0.066 C 
ATOM     22  C   UNL     1       7.689   4.824   9.686  1.00  0.00     0.069 C 
ATOM     23  H   UNL     1      11.740   6.151   8.082  1.00  0.00     0.190 HD
ENDBRANCH  15  16
ENDBRANCH  14  15
ENDBRANCH  13  14
ENDBRANCH   1  13
TORSDOF 7
ENDMDL
MODEL 4
REMARK VINA RESULT:    -4.441      3.839      6.602
REMARK INTER + INTRA:          -6.767
REMARK INTER:                  -5.957
REMARK INTRA:                  -0.810
REMARK UNBOUND:                -0.638
REMARK SMILES Cc1n[nH]c(C)c1CCCOc1cc(C(=O)O)ccc1F
REMARK SMILES IDX 11 1 12 2 14 3 18 4 13 5 19 6 20 7 21 8 15 9 16 10 17 11
REMARK SMILES IDX 10 13 9 14 8 15 7 16 5 17 2 18 4 19 3 20 6 21 1 22
REMARK H PARENT 17 12 4 23
ROOT
ATOM      1  O   UNL     1       8.162   3.519   5.003  1.00  0.00    -0.490 OA
ENDROOT
BRANCH   1   2
ATOM      2  C   UNL     1       8.683   4.163   6.082  1.00  0.00     0.155 A 
ATOM      3  C   UNL     1       8.584   4.748   8.412  1.00  0.00     0.063 A 
ATOM      4  C   UNL     1       9.769   5.477   8.275  1.00  0.00     0.019 A 
ATOM      5  C   UNL     1       8.043   4.090   7.305  1.00  0.00     0.065 A 
ATOM      6  C   UNL     1      10.402   5.539   7.052  1.00  0.00     0.044 A 
ATOM      7  C   UNL     1       9.867   4.881   5.957  1.00  0.00     0.165 A 
ATOM      8  F   UNL     1      10.493   4.945   4.761  1.00  0.00    -0.203 F 
BRANCH   3   9
ATOM      9  C   UNL     1       7.903   4.680   9.720  1.00  0.00     0.335 C 
ATOM     10  O   UNL     1       8.420   5.175  10.700  1.00  0.00    -0.246 OA
BRANCH   9  11
ATOM     11  O   UNL     1       6.705   4.073   9.824  1.00  0.00    -0.478 OA
ATOM     12  H   UNL     1       6.390   3.872  10.716  1.00  0.00     0.297 HD
ENDBRANCH   9  11
ENDBRANCH   3   9
ENDBRANCH   1   2
BRANCH   1  13
ATOM     13  C   UNL     1       7.612   2.219   5.227  1.00  0.00     0.230 C 
BRANCH  13  14
ATOM     14  C   UNL     1       6.981   1.703   3.933  1.00  0.00     0.046 C 
BRANCH  14  15
ATOM     15  C   UNL     1       6.475   2.886   3.105  1.00  0.00     0.043 C 
BRANCH  15  16
ATOM     16  C   UNL     1       5.046   3.184   3.476  1.00  0.00    -0.004 A 
ATOM     17  C   UNL     1       3.978   2.387   3.239  1.00  0.00     0.036 A 
ATOM     18  C   UNL     1       4.588   4.331   4.133  1.00  0.00     0.063 A 
ATOM     19  N   UNL     1       2.883   3.011   3.722  1.00  0.00    -0.282 N 
ATOM     20  N   UNL     1       3.291   4.232   4.274  1.00  0.00    -0.181 NA
ATOM     21  C   UNL     1       4.007   1.044   2.558  1.00  0.00     0.066 C 
ATOM     22  C   UNL     1       5.440   5.489   4.587  1.00  0.00     0.069 C 
ATOM     23  H   UNL     1       1.974   2.673   3.691  1.00  0.00     0.190 HD
ENDBRANCH  15  16
ENDBRANCH  14  15
ENDBRANCH  13  14
ENDBRANCH   1  13
TORSDOF 7
ENDMDL
MODEL 5
REMARK VINA RESULT:    -4.413      3.985      7.144
REMARK INTER + INTRA:          -6.729
REMARK INTER:                  -6.010
REMARK INTRA:                  -0.719
REMARK UNBOUND:                -0.638
REMARK SMILES Cc1n[nH]c(C)c1CCCOc1cc(C(=O)O)ccc1F
REMARK SMILES IDX 11 1 12 2 14 3 18 4 13 5 19 6 20 7 21 8 15 9 16 10 17 11
REMARK SMILES IDX 10 13 9 14 8 15 7 16 5 17 2 18 4 19 3 20 6 21 1 22
REMARK H PARENT 17 12 4 23
ROOT
ATOM      1  O   UNL     1       7.007   3.750   6.082  1.00  0.00    -0.490 OA
ENDROOT
BRANCH   1   2
ATOM      2  C   UNL     1       8.085   4.350   6.654  1.00  0.00     0.155 A 
ATOM      3  C   UNL     1      10.263   5.350   6.463  1.00  0.00     0.063 A 
ATOM      4  C   UNL     1      10.272   5.584   7.841  1.00  0.00     0.019 A 
ATOM      5  C   UNL     1       9.160   4.730   5.873  1.00  0.00     0.065 A 
ATOM      6  C   UNL     1       9.192   5.207   8.611  1.00  0.00     0.044 A 
ATOM      7  C   UNL     1       8.098   4.596   8.023  1.00  0.00     0.165 A 
ATOM      8  F   UNL     1       7.042   4.229   8.783  1.00  0.00    -0.203 F 
BRANCH   3   9
ATOM      9  C   UNL     1      11.417   5.753   5.636  1.00  0.00     0.335 C 
ATOM     10  O   UNL     1      11.534   5.323   4.506  1.00  0.00    -0.246 OA
BRANCH   9  11
ATOM     11  O   UNL     1      12.337   6.603   6.132  1.00  0.00    -0.478 OA
ATOM     12  H   UNL     1      12.777   7.191   5.502  1.00  0.00     0.297 HD
ENDBRANCH   9  11
ENDBRANCH   3   9
ENDBRANCH   1   2
BRANCH   1  13
ATOM     13  C   UNL     1       6.443   4.388   4.934  1.00  0.00     0.230 C 
BRANCH  13  14
ATOM     14  C   UNL     1       5.162   3.659   4.523  1.00  0.00     0.046 C 
BRANCH  14  15
ATOM     15  C   UNL     1       5.259   2.188   4.935  1.00  0.00     0.043 C 
BRANCH  15  16
ATOM     16  C   UNL     1       5.936   1.403   3.842  1.00  0.00    -0.004 A 
ATOM     17  C   UNL     1       5.428   1.147   2.614  1.00  0.00     0.036 A 
ATOM     18  C   UNL     1       7.203   0.814   3.915  1.00  0.00     0.063 A 
ATOM     19  N   UNL     1       6.338   0.417   1.936  1.00  0.00    -0.282 N 
ATOM     20  N   UNL     1       7.442   0.217   2.776  1.00  0.00    -0.181 NA
ATOM     21  C   UNL     1       4.087   1.597   2.096  1.00  0.00     0.066 C 
ATOM     22  C   UNL     1       8.127   0.851   5.105  1.00  0.00     0.069 C 
ATOM     23  H   UNL     1       6.245   0.088   1.029  1.00  0.00     0.190 HD
ENDBRANCH  15  16
ENDBRANCH  14  15
ENDBRANCH  13  14
ENDBRANCH   1  13
TORSDOF 7
ENDMDL
MODEL 6
REMARK VINA RESULT:    -4.348      2.733      3.991
REMARK INTER + INTRA:          -6.638
REMARK INTER:                  -5.979
REMARK INTRA:                  -0.659
REMARK UNBOUND:                -0.638
REMARK SMILES Cc1n[nH]c(C)c1CCCOc1cc(C(=O)O)ccc1F
REMARK SMILES IDX 11 1 12 2 14 3 18 4 13 5 19 6 20 7 21 8 15 9 16 10 17 11
REMARK SMILES IDX 10 13 9 14 8 15 7 16 5 17 2 18 4 19 3 20 6 21 1 22
REMARK H PARENT 17 12 4 23
ROOT
ATOM      1  O   UNL     1       7.139   4.650   4.879  1.00  0.00    -0.490 OA
ENDROOT
BRANCH   1   2
ATOM      2  C   UNL     1       6.430   3.736   4.164  1.00  0.00     0.155 A 
ATOM      3  C   UNL     1       6.353   1.766   2.788  1.00  0.00     0.063 A 
ATOM      4  C   UNL     1       4.961   1.875   2.717  1.00  0.00     0.019 A 
ATOM      5  C   UNL     1       7.085   2.705   3.517  1.00  0.00     0.065 A 
ATOM      6  C   UNL     1       4.316   2.904   3.370  1.00  0.00     0.044 A 
ATOM      7  C   UNL     1       5.044   3.831   4.097  1.00  0.00     0.165 A 
ATOM      8  F   UNL     1       4.406   4.837   4.735  1.00  0.00    -0.203 F 
BRANCH   3   9
ATOM      9  C   UNL     1       7.046   0.666   2.090  1.00  0.00     0.335 C 
ATOM     10  O   UNL     1       6.677  -0.480   2.244  1.00  0.00    -0.246 OA
BRANCH   9  11
ATOM     11  O   UNL     1       8.086   0.935   1.275  1.00  0.00    -0.478 OA
ATOM     12  H   UNL     1       8.005   0.654   0.353  1.00  0.00     0.297 HD
ENDBRANCH   9  11
ENDBRANCH   3   9
ENDBRANCH   1   2
BRANCH   1  13
ATOM     13  C   UNL     1       7.992   4.146   5.910  1.00  0.00     0.230 C 
BRANCH  13  14
ATOM     14  C   UNL     1       9.076   5.178   6.224  1.00  0.00     0.046 C 
BRANCH  14  15
ATOM     15  C   UNL     1      10.452   4.513   6.146  1.00  0.00     0.043 C 
BRANCH  15  16
ATOM     16  C   UNL     1      11.492   5.545   5.796  1.00  0.00    -0.004 A 
ATOM     17  C   UNL     1      11.834   5.938   4.547  1.00  0.00     0.036 A 
ATOM     18  C   UNL     1      12.269   6.272   6.704  1.00  0.00     0.063 A 
ATOM     19  N   UNL     1      12.799   6.876   4.661  1.00  0.00    -0.282 N 
ATOM     20  N   UNL     1      13.057   7.065   6.025  1.00  0.00    -0.181 NA
ATOM     21  C   UNL     1      11.245   5.422   3.260  1.00  0.00     0.066 C 
ATOM     22  C   UNL     1      12.215   6.153   8.206  1.00  0.00     0.069 C 
ATOM     23  H   UNL     1      13.236   7.336   3.928  1.00  0.00     0.190 HD
ENDBRANCH  15  16
ENDBRANCH  14  15
ENDBRANCH  13  14
ENDBRANCH   1  13
TORSDOF 7
ENDMDL
MODEL 7
REMARK VINA RESULT:    -4.347      3.594      5.353
REMARK INTER + INTRA:          -6.637
REMARK INTER:                  -6.020
REMARK INTRA:                  -0.618
REMARK UNBOUND:                -0.638
REMARK SMILES Cc1n[nH]c(C)c1CCCOc1cc(C(=O)O)ccc1F
REMARK SMILES IDX 11 1 12 2 14 3 18 4 13 5 19 6 20 7 21 8 15 9 16 10 17 11
REMARK SMILES IDX 10 13 9 14 8 15 7 16 5 17 2 18 4 19 3 20 6 21 1 22
REMARK H PARENT 17 12 4 23
ROOT
ATOM      1  O   UNL     1       8.572   5.016   7.581  1.00  0.00    -0.490 OA
ENDROOT
BRANCH   1   2
ATOM      2  C   UNL     1       7.952   4.429   6.523  1.00  0.00     0.155 A 
ATOM      3  C   UNL     1       7.551   2.499   5.146  1.00  0.00     0.063 A 
ATOM      4  C   UNL     1       6.669   3.247   4.362  1.00  0.00     0.019 A 
ATOM      5  C   UNL     1       8.193   3.100   6.231  1.00  0.00     0.065 A 
ATOM      6  C   UNL     1       6.431   4.571   4.664  1.00  0.00     0.044 A 
ATOM      7  C   UNL     1       7.065   5.163   5.744  1.00  0.00     0.165 A 
ATOM      8  F   UNL     1       6.826   6.461   6.035  1.00  0.00    -0.203 F 
BRANCH   3   9
ATOM      9  C   UNL     1       7.809   1.082   4.825  1.00  0.00     0.335 C 
ATOM     10  O   UNL     1       7.248   0.560   3.883  1.00  0.00    -0.246 OA
BRANCH   9  11
ATOM     11  O   UNL     1       8.671   0.368   5.575  1.00  0.00    -0.478 OA
ATOM     12  H   UNL     1       9.320   0.865   6.093  1.00  0.00     0.297 HD
ENDBRANCH   9  11
ENDBRANCH   3   9
ENDBRANCH   1   2
BRANCH   1  13
ATOM     13  C   UNL     1       8.183   4.577   8.885  1.00  0.00     0.230 C 
BRANCH  13  14
ATOM     14  C   UNL     1       8.102   5.781   9.825  1.00  0.00     0.046 C 
BRANCH  14  15
ATOM     15  C   UNL     1       9.450   5.976  10.523  1.00  0.00     0.043 C 
BRANCH  15  16
ATOM     16  C   UNL     1       9.225   6.233  11.990  1.00  0.00    -0.004 A 
ATOM     17  C   UNL     1       9.224   7.444  12.595  1.00  0.00     0.036 A 
ATOM     18  C   UNL     1       8.974   5.264  12.967  1.00  0.00     0.063 A 
ATOM     19  N   UNL     1       8.987   7.247  13.909  1.00  0.00    -0.282 N 
ATOM     20  N   UNL     1       8.838   5.870  14.118  1.00  0.00    -0.181 NA
ATOM     21  C   UNL     1       9.446   8.773  11.921  1.00  0.00     0.066 C 
ATOM     22  C   UNL     1       8.887   3.777  12.735  1.00  0.00     0.069 C 
ATOM     23  H   UNL     1       8.931   7.937  14.588  1.00  0.00     0.190 HD
ENDBRANCH  15  16
ENDBRANCH  14  15
ENDBRANCH  13  14
ENDBRANCH   1  13
TORSDOF 7
ENDMDL
MODEL 8
REMARK VINA RESULT:    -4.319      9.553     10.960
REMARK INTER + INTRA:          -6.599
REMARK INTER:                  -5.243
REMARK INTRA:                  -1.356
REMARK UNBOUND:                -0.638
REMARK SMILES Cc1n[nH]c(C)c1CCCOc1cc(C(=O)O)ccc1F
REMARK SMILES IDX 11 1 12 2 14 3 18 4 13 5 19 6 20 7 21 8 15 9 16 10 17 11
REMARK SMILES IDX 10 13 9 14 8 15 7 16 5 17 2 18 4 19 3 20 6 21 1 22
REMARK H PARENT 17 12 4 23
ROOT
ATOM      1  O   UNL     1       9.530   8.134  12.668  1.00  0.00    -0.490 OA
ENDROOT
BRANCH   1   2
ATOM      2  C   UNL     1      10.809   8.425  12.310  1.00  0.00     0.155 A 
ATOM      3  C   UNL     1      12.735   8.016  10.930  1.00  0.00     0.063 A 
ATOM      4  C   UNL     1      13.418   9.044  11.586  1.00  0.00     0.019 A 
ATOM      5  C   UNL     1      11.424   7.710  11.299  1.00  0.00     0.065 A 
ATOM      6  C   UNL     1      12.794   9.756  12.589  1.00  0.00     0.044 A 
ATOM      7  C   UNL     1      11.492   9.454  12.949  1.00  0.00     0.165 A 
ATOM      8  F   UNL     1      10.886  10.155  13.933  1.00  0.00    -0.203 F 
BRANCH   3   9
ATOM      9  C   UNL     1      13.400   7.253   9.856  1.00  0.00     0.335 C 
ATOM     10  O   UNL     1      13.658   7.791   8.799  1.00  0.00    -0.246 OA
BRANCH   9  11
ATOM     11  O   UNL     1      13.726   5.960  10.052  1.00  0.00    -0.478 OA
ATOM     12  H   UNL     1      13.867   5.418   9.263  1.00  0.00     0.297 HD
ENDBRANCH   9  11
ENDBRANCH   3   9
ENDBRANCH   1   2
BRANCH   1  13
ATOM     13  C   UNL     1       9.329   7.606  13.982  1.00  0.00     0.230 C 
BRANCH  13  14
ATOM     14  C   UNL     1       9.314   6.077  13.919  1.00  0.00     0.046 C 
BRANCH  14  15
ATOM     15  C   UNL     1      10.157   5.511  15.064  1.00  0.00     0.043 C 
BRANCH  15  16
ATOM     16  C   UNL     1      11.307   4.719  14.498  1.00  0.00    -0.004 A 
ATOM     17  C   UNL     1      12.586   5.145  14.383  1.00  0.00     0.036 A 
ATOM     18  C   UNL     1      11.242   3.412  14.004  1.00  0.00     0.063 A 
ATOM     19  N   UNL     1      13.304   4.145  13.830  1.00  0.00    -0.282 N 
ATOM     20  N   UNL     1      12.437   3.069  13.597  1.00  0.00    -0.181 NA
ATOM     21  C   UNL     1      13.115   6.493  14.798  1.00  0.00     0.066 C 
ATOM     22  C   UNL     1      10.006   2.552  13.940  1.00  0.00     0.069 C 
ATOM     23  H   UNL     1      14.252   4.167  13.628  1.00  0.00     0.190 HD
ENDBRANCH  15  16
ENDBRANCH  14  15
ENDBRANCH  13  14
ENDBRANCH   1  13
TORSDOF 7
ENDMDL
MODEL 9
REMARK VINA RESULT:    -4.258      4.912      7.931
REMARK INTER + INTRA:          -6.515
REMARK INTER:                  -5.826
REMARK INTRA:                  -0.689
REMARK UNBOUND:                -0.638
REMARK SMILES Cc1n[nH]c(C)c1CCCOc1cc(C(=O)O)ccc1F
REMARK SMILES IDX 11 1 12 2 14 3 18 4 13 5 19 6 20 7 21 8 15 9 16 10 17 11
REMARK SMILES IDX 10 13 9 14 8 15 7 16 5 17 2 18 4 19 3 20 6 21 1 22
REMARK H PARENT 17 12 4 23
ROOT
ATOM      1  O   UNL     1       8.090   5.067   8.307  1.00  0.00    -0.490 OA
ENDROOT
BRANCH   1   2
ATOM      2  C   UNL     1       8.479   5.282   9.591  1.00  0.00     0.155 A 
ATOM      3  C   UNL     1       9.684   6.578  11.219  1.00  0.00     0.063 A 
ATOM      4  C   UNL     1       9.256   5.707  12.225  1.00  0.00     0.019 A 
ATOM      5  C   UNL     1       9.290   6.358   9.898  1.00  0.00     0.065 A 
ATOM      6  C   UNL     1       8.442   4.639  11.910  1.00  0.00     0.044 A 
ATOM      7  C   UNL     1       8.048   4.426  10.600  1.00  0.00     0.165 A 
ATOM      8  F   UNL     1       7.251   3.378  10.298  1.00  0.00    -0.203 F 
BRANCH   3   9
ATOM      9  C   UNL     1      10.555   7.722  11.552  1.00  0.00     0.335 C 
ATOM     10  O   UNL     1      10.813   7.973  12.711  1.00  0.00    -0.246 OA
BRANCH   9  11
ATOM     11  O   UNL     1      11.069   8.486  10.568  1.00  0.00    -0.478 OA
ATOM     12  H   UNL     1      10.673   9.359  10.437  1.00  0.00     0.297 HD
ENDBRANCH   9  11
ENDBRANCH   3   9
ENDBRANCH   1   2
BRANCH   1  13
ATOM     13  C   UNL     1       9.119   4.788   7.355  1.00  0.00     0.230 C 
BRANCH  13  14
ATOM     14  C   UNL     1       8.487   4.485   5.995  1.00  0.00     0.046 C 
BRANCH  14  15
ATOM     15  C   UNL     1       7.175   3.726   6.200  1.00  0.00     0.043 C 
BRANCH  15  16
ATOM     16  C   UNL     1       6.677   3.213   4.874  1.00  0.00    -0.004 A 
ATOM     17  C   UNL     1       5.913   3.897   3.991  1.00  0.00     0.036 A 
ATOM     18  C   UNL     1       6.930   1.947   4.333  1.00  0.00     0.063 A 
ATOM     19  N   UNL     1       5.684   3.091   2.934  1.00  0.00    -0.282 N 
ATOM     20  N   UNL     1       6.329   1.871   3.174  1.00  0.00    -0.181 NA
ATOM     21  C   UNL     1       5.407   5.306   4.160  1.00  0.00     0.066 C 
ATOM     22  C   UNL     1       7.743   0.856   4.981  1.00  0.00     0.069 C 
ATOM     23  H   UNL     1       5.164   3.316   2.147  1.00  0.00     0.190 HD
ENDBRANCH  15  16
ENDBRANCH  14  15
ENDBRANCH  13  14
ENDBRANCH   1  13
TORSDOF 7
ENDMDL
