MODEL 1
REMARK VINA RESULT:    -5.156      0.000      0.000
REMARK INTER + INTRA:          -6.205
REMARK INTER:                  -5.909
REMARK INTRA:                  -0.295
REMARK UNBOUND:                -0.295
REMARK SMILES O=C(O)c1ccc2nc(-c3cc(Cl)cc(Cl)c3)oc2c1
REMARK SMILES IDX 5 1 6 2 20 3 8 4 18 5 4 6 9 7 7 8 19 9 2 10 1 11 3 12 10 14
REMARK SMILES IDX 11 15 17 16 12 17 15 18 14 19 13 20 16 21
REMARK H PARENT 3 13
ROOT
ATOM      1  C   UNL     1      -5.643  -0.244  -0.746  1.00  0.00     0.018 A 
ATOM      2  C   UNL     1      -4.788  -0.036   0.295  1.00  0.00     0.033 A 
ATOM      3  C   UNL     1      -3.825   0.039  -2.326  1.00  0.00     0.065 A 
ATOM      4  N   UNL     1      -2.373   0.454   0.851  1.00  0.00    -0.209 NA
ATOM      5  O   UNL     1      -1.632   0.516  -1.193  1.00  0.00    -0.436 OA
ATOM      6  C   UNL     1      -5.174  -0.211  -2.067  1.00  0.00     0.063 A 
ATOM      7  C   UNL     1      -1.309   0.631   0.109  1.00  0.00     0.227 A 
ATOM      8  C   UNL     1      -3.433   0.216   0.049  1.00  0.00     0.110 A 
ATOM      9  C   UNL     1      -2.956   0.256  -1.273  1.00  0.00     0.156 A 
ENDROOT
BRANCH   6  10
ATOM     10  C   UNL     1      -6.107  -0.444  -3.184  1.00  0.00     0.335 C 
ATOM     11  O   UNL     1      -5.716  -0.986  -4.199  1.00  0.00    -0.246 OA
BRANCH  10  12
ATOM     12  O   UNL     1      -7.393  -0.054  -3.082  1.00  0.00    -0.478 OA
ATOM     13  H   UNL     1      -7.554   0.875  -2.868  1.00  0.00     0.297 HD
ENDBRANCH  10  12
ENDBRANCH   6  10
BRANCH   7  14
ATOM     14  C   UNL     1       0.046   0.914   0.625  1.00  0.00     0.040 A 
ATOM     15  C   UNL     1       1.120   1.043  -0.257  1.00  0.00     0.034 A 
ATOM     16  C   UNL     1       0.258   1.054   1.998  1.00  0.00     0.034 A 
ATOM     17  C   UNL     1       2.384   1.309   0.231  1.00  0.00     0.043 A 
ATOM     18  C   UNL     1       1.526   1.320   2.474  1.00  0.00     0.043 A 
ATOM     19  C   UNL     1       2.587   1.446   1.594  1.00  0.00     0.041 A 
ATOM     20  Cl  UNL     1       3.720   1.470  -0.864  1.00  0.00    -0.084 Cl
ATOM     21  Cl  UNL     1       1.791   1.495   4.182  1.00  0.00    -0.084 Cl
ENDBRANCH   7  14
TORSDOF 3
ENDMDL
MODEL 2
REMARK VINA RESULT:    -5.153      0.006      2.019
REMARK INTER + INTRA:          -6.201
REMARK INTER:                  -5.906
REMARK INTRA:                  -0.295
REMARK UNBOUND:                -0.295
REMARK SMILES O=C(O)c1ccc2nc(-c3cc(Cl)cc(Cl)c3)oc2c1
REMARK SMILES IDX 5 1 6 2 20 3 8 4 18 5 4 6 9 7 7 8 19 9 2 10 1 11 3 12 10 14
REMARK SMILES IDX 11 15 17 16 12 17 15 18 14 19 13 20 16 21
REMARK H PARENT 3 13
ROOT
ATOM      1  C   UNL     1      -5.644  -0.245  -0.746  1.00  0.00     0.018 A 
ATOM      2  C   UNL     1      -4.790  -0.036   0.295  1.00  0.00     0.033 A 
ATOM      3  C   UNL     1      -3.827   0.039  -2.326  1.00  0.00     0.065 A 
ATOM      4  N   UNL     1      -2.375   0.456   0.851  1.00  0.00    -0.209 NA
ATOM      5  O   UNL     1      -1.634   0.518  -1.193  1.00  0.00    -0.436 OA
ATOM      6  C   UNL     1      -5.175  -0.212  -2.066  1.00  0.00     0.063 A 
ATOM      7  C   UNL     1      -1.311   0.633   0.109  1.00  0.00     0.227 A 
ATOM      8  C   UNL     1      -3.435   0.217   0.049  1.00  0.00     0.110 A 
ATOM      9  C   UNL     1      -2.957   0.256  -1.273  1.00  0.00     0.156 A 
ENDROOT
BRANCH   6  10
ATOM     10  C   UNL     1      -6.108  -0.445  -3.184  1.00  0.00     0.335 C 
ATOM     11  O   UNL     1      -5.716  -0.987  -4.198  1.00  0.00    -0.246 OA
BRANCH  10  12
ATOM     12  O   UNL     1      -7.394  -0.057  -3.081  1.00  0.00    -0.478 OA
ATOM     13  H   UNL     1      -7.920  -0.058  -3.892  1.00  0.00     0.297 HD
ENDBRANCH  10  12
ENDBRANCH   6  10
BRANCH   7  14
ATOM     14  C   UNL     1       0.045   0.918   0.624  1.00  0.00     0.040 A 
ATOM     15  C   UNL     1       0.258   1.054   1.997  1.00  0.00     0.034 A 
ATOM     16  C   UNL     1       1.117   1.052  -0.260  1.00  0.00     0.034 A 
ATOM     17  C   UNL     1       1.527   1.319   2.472  1.00  0.00     0.043 A 
ATOM     18  C   UNL     1       2.381   1.317   0.228  1.00  0.00     0.043 A 
ATOM     19  C   UNL     1       2.586   1.451   1.590  1.00  0.00     0.041 A 
ATOM     20  Cl  UNL     1       1.795   1.488   4.179  1.00  0.00    -0.084 Cl
ATOM     21  Cl  UNL     1       3.715   1.485  -0.871  1.00  0.00    -0.084 Cl
ENDBRANCH   7  14
TORSDOF 3
ENDMDL
MODEL 3
REMARK VINA RESULT:    -4.383     14.355     14.938
REMARK INTER + INTRA:          -5.319
REMARK INTER:                  -5.037
REMARK INTRA:                  -0.282
REMARK UNBOUND:                -0.295
REMARK SMILES O=C(O)c1ccc2nc(-c3cc(Cl)cc(Cl)c3)oc2c1
REMARK SMILES IDX 5 1 6 2 20 3 8 4 18 5 4 6 9 7 7 8 19 9 2 10 1 11 3 12 10 14
REMARK SMILES IDX 11 15 17 16 12 17 15 18 14 19 13 20 16 21
REMARK H PARENT 3 13
ROOT
ATOM      1  C   UNL     1      -4.523  14.896 -11.003  1.00  0.00     0.018 A 
ATOM      2  C   UNL     1      -3.571  14.898 -10.028  1.00  0.00     0.033 A 
ATOM      3  C   UNL     1      -5.632  13.015  -9.949  1.00  0.00     0.065 A 
ATOM      4  N   UNL     1      -2.849  13.716  -7.915  1.00  0.00    -0.209 NA
ATOM      5  O   UNL     1      -4.455  12.250  -7.863  1.00  0.00    -0.436 OA
ATOM      6  C   UNL     1      -5.565  13.958 -10.976  1.00  0.00     0.063 A 
ATOM      7  C   UNL     1      -3.346  12.703  -7.250  1.00  0.00     0.227 A 
ATOM      8  C   UNL     1      -3.626  13.957  -8.993  1.00  0.00     0.110 A 
ATOM      9  C   UNL     1      -4.665  13.010  -8.961  1.00  0.00     0.156 A 
ENDROOT
BRANCH   6  10
ATOM     10  C   UNL     1      -6.592  13.970 -12.032  1.00  0.00     0.335 C 
ATOM     11  O   UNL     1      -7.647  14.543 -11.847  1.00  0.00    -0.246 OA
BRANCH  10  12
ATOM     12  O   UNL     1      -6.362  13.344 -13.203  1.00  0.00    -0.478 OA
ATOM     13  H   UNL     1      -5.745  12.600 -13.190  1.00  0.00     0.297 HD
ENDBRANCH  10  12
ENDBRANCH   6  10
BRANCH   7  14
ATOM     14  C   UNL     1      -2.772  12.142  -6.009  1.00  0.00     0.040 A 
ATOM     15  C   UNL     1      -2.263  12.990  -5.025  1.00  0.00     0.034 A 
ATOM     16  C   UNL     1      -2.737  10.759  -5.817  1.00  0.00     0.034 A 
ATOM     17  C   UNL     1      -1.729  12.459  -3.868  1.00  0.00     0.043 A 
ATOM     18  C   UNL     1      -2.201  10.240  -4.656  1.00  0.00     0.043 A 
ATOM     19  C   UNL     1      -1.698  11.087  -3.684  1.00  0.00     0.041 A 
ATOM     20  Cl  UNL     1      -1.095  13.512  -2.642  1.00  0.00    -0.084 Cl
ATOM     21  Cl  UNL     1      -2.157   8.521  -4.415  1.00  0.00    -0.084 Cl
ENDBRANCH   7  14
TORSDOF 3
ENDMDL
MODEL 4
REMARK VINA RESULT:    -4.381     14.355     14.905
REMARK INTER + INTRA:          -5.317
REMARK INTER:                  -5.035
REMARK INTRA:                  -0.282
REMARK UNBOUND:                -0.295
REMARK SMILES O=C(O)c1ccc2nc(-c3cc(Cl)cc(Cl)c3)oc2c1
REMARK SMILES IDX 5 1 6 2 20 3 8 4 18 5 4 6 9 7 7 8 19 9 2 10 1 11 3 12 10 14
REMARK SMILES IDX 11 15 17 16 12 17 15 18 14 19 13 20 16 21
REMARK H PARENT 3 13
ROOT
ATOM      1  C   UNL     1      -4.526  14.899 -11.002  1.00  0.00     0.018 A 
ATOM      2  C   UNL     1      -3.574  14.900 -10.027  1.00  0.00     0.033 A 
ATOM      3  C   UNL     1      -5.633  13.014  -9.952  1.00  0.00     0.065 A 
ATOM      4  N   UNL     1      -2.851  13.716  -7.916  1.00  0.00    -0.209 NA
ATOM      5  O   UNL     1      -4.455  12.247  -7.868  1.00  0.00    -0.436 OA
ATOM      6  C   UNL     1      -5.566  13.960 -10.977  1.00  0.00     0.063 A 
ATOM      7  C   UNL     1      -3.347  12.701  -7.253  1.00  0.00     0.227 A 
ATOM      8  C   UNL     1      -3.629  13.957  -8.993  1.00  0.00     0.110 A 
ATOM      9  C   UNL     1      -4.666  13.009  -8.964  1.00  0.00     0.156 A 
ENDROOT
BRANCH   6  10
ATOM     10  C   UNL     1      -6.594  13.972 -12.034  1.00  0.00     0.335 C 
ATOM     11  O   UNL     1      -7.648  14.546 -11.850  1.00  0.00    -0.246 OA
BRANCH  10  12
ATOM     12  O   UNL     1      -6.364  13.344 -13.205  1.00  0.00    -0.478 OA
ATOM     13  H   UNL     1      -7.057  12.755 -13.531  1.00  0.00     0.297 HD
ENDBRANCH  10  12
ENDBRANCH   6  10
BRANCH   7  14
ATOM     14  C   UNL     1      -2.773  12.137  -6.013  1.00  0.00     0.040 A 
ATOM     15  C   UNL     1      -2.737  10.756  -5.822  1.00  0.00     0.034 A 
ATOM     16  C   UNL     1      -2.266  12.986  -5.028  1.00  0.00     0.034 A 
ATOM     17  C   UNL     1      -2.199  10.235  -4.662  1.00  0.00     0.043 A 
ATOM     18  C   UNL     1      -1.730  12.454  -3.872  1.00  0.00     0.043 A 
ATOM     19  C   UNL     1      -1.697  11.083  -3.688  1.00  0.00     0.041 A 
ATOM     20  Cl  UNL     1      -2.152   8.517  -4.422  1.00  0.00    -0.084 Cl
ATOM     21  Cl  UNL     1      -1.098  13.508  -2.645  1.00  0.00    -0.084 Cl
ENDBRANCH   7  14
TORSDOF 3
ENDMDL
MODEL 5
REMARK VINA RESULT:    -4.378     14.732     16.127
REMARK INTER + INTRA:          -5.313
REMARK INTER:                  -5.031
REMARK INTRA:                  -0.281
REMARK UNBOUND:                -0.295
REMARK SMILES O=C(O)c1ccc2nc(-c3cc(Cl)cc(Cl)c3)oc2c1
REMARK SMILES IDX 5 1 6 2 20 3 8 4 18 5 4 6 9 7 7 8 19 9 2 10 1 11 3 12 10 14
REMARK SMILES IDX 11 15 17 16 12 17 15 18 14 19 13 20 16 21
REMARK H PARENT 3 13
ROOT
ATOM      1  C   UNL     1      -0.305  18.356  -2.603  1.00  0.00     0.018 A 
ATOM      2  C   UNL     1      -1.257  17.626  -3.248  1.00  0.00     0.033 A 
ATOM      3  C   UNL     1       0.983  16.345  -2.179  1.00  0.00     0.065 A 
ATOM      4  N   UNL     1      -1.868  15.275  -3.940  1.00  0.00    -0.209 NA
ATOM      5  O   UNL     1      -0.123  14.284  -3.100  1.00  0.00    -0.436 OA
ATOM      6  C   UNL     1       0.826  17.728  -2.063  1.00  0.00     0.063 A 
ATOM      7  C   UNL     1      -1.276  14.118  -3.776  1.00  0.00     0.227 A 
ATOM      8  C   UNL     1      -1.113  16.239  -3.372  1.00  0.00     0.110 A 
ATOM      9  C   UNL     1       0.016  15.600  -2.828  1.00  0.00     0.156 A 
ENDROOT
BRANCH   6  10
ATOM     10  C   UNL     1       1.853  18.528  -1.373  1.00  0.00     0.335 C 
ATOM     11  O   UNL     1       2.778  19.002  -2.002  1.00  0.00    -0.246 OA
BRANCH  10  12
ATOM     12  O   UNL     1       1.768  18.734  -0.043  1.00  0.00    -0.478 OA
ATOM     13  H   UNL     1       2.595  18.887   0.432  1.00  0.00     0.297 HD
ENDBRANCH  10  12
ENDBRANCH   6  10
BRANCH   7  14
ATOM     14  C   UNL     1      -1.797  12.823  -4.260  1.00  0.00     0.040 A 
ATOM     15  C   UNL     1      -1.799  11.709  -3.420  1.00  0.00     0.034 A 
ATOM     16  C   UNL     1      -2.288  12.709  -5.562  1.00  0.00     0.034 A 
ATOM     17  C   UNL     1      -2.288  10.502  -3.878  1.00  0.00     0.043 A 
ATOM     18  C   UNL     1      -2.774  11.497  -6.009  1.00  0.00     0.043 A 
ATOM     19  C   UNL     1      -2.774  10.396  -5.170  1.00  0.00     0.041 A 
ATOM     20  Cl  UNL     1      -2.292   9.116  -2.834  1.00  0.00    -0.084 Cl
ATOM     21  Cl  UNL     1      -3.386  11.352  -7.628  1.00  0.00    -0.084 Cl
ENDBRANCH   7  14
TORSDOF 3
ENDMDL
MODEL 6
REMARK VINA RESULT:    -4.369     14.733     16.031
REMARK INTER + INTRA:          -5.303
REMARK INTER:                  -5.022
REMARK INTRA:                  -0.281
REMARK UNBOUND:                -0.295
REMARK SMILES O=C(O)c1ccc2nc(-c3cc(Cl)cc(Cl)c3)oc2c1
REMARK SMILES IDX 5 1 6 2 20 3 8 4 18 5 4 6 9 7 7 8 19 9 2 10 1 11 3 12 10 14
REMARK SMILES IDX 11 15 17 16 12 17 15 18 14 19 13 20 16 21
REMARK H PARENT 3 13
ROOT
ATOM      1  C   UNL     1      -0.308  18.359  -2.608  1.00  0.00     0.018 A 
ATOM      2  C   UNL     1      -1.260  17.627  -3.253  1.00  0.00     0.033 A 
ATOM      3  C   UNL     1       0.980  16.349  -2.180  1.00  0.00     0.065 A 
ATOM      4  N   UNL     1      -1.868  15.274  -3.943  1.00  0.00    -0.209 NA
ATOM      5  O   UNL     1      -0.123  14.286  -3.100  1.00  0.00    -0.436 OA
ATOM      6  C   UNL     1       0.823  17.732  -2.066  1.00  0.00     0.063 A 
ATOM      7  C   UNL     1      -1.274  14.118  -3.777  1.00  0.00     0.227 A 
ATOM      8  C   UNL     1      -1.114  16.240  -3.375  1.00  0.00     0.110 A 
ATOM      9  C   UNL     1       0.014  15.603  -2.830  1.00  0.00     0.156 A 
ENDROOT
BRANCH   6  10
ATOM     10  C   UNL     1       1.848  18.534  -1.375  1.00  0.00     0.335 C 
ATOM     11  O   UNL     1       2.772  19.010  -2.004  1.00  0.00    -0.246 OA
BRANCH  10  12
ATOM     12  O   UNL     1       1.762  18.739  -0.046  1.00  0.00    -0.478 OA
ATOM     13  H   UNL     1       1.670  17.956   0.514  1.00  0.00     0.297 HD
ENDBRANCH  10  12
ENDBRANCH   6  10
BRANCH   7  14
ATOM     14  C   UNL     1      -1.794  12.822  -4.261  1.00  0.00     0.040 A 
ATOM     15  C   UNL     1      -2.286  12.706  -5.561  1.00  0.00     0.034 A 
ATOM     16  C   UNL     1      -1.794  11.709  -3.417  1.00  0.00     0.034 A 
ATOM     17  C   UNL     1      -2.769  11.492  -6.007  1.00  0.00     0.043 A 
ATOM     18  C   UNL     1      -2.280  10.501  -3.875  1.00  0.00     0.043 A 
ATOM     19  C   UNL     1      -2.767  10.392  -5.166  1.00  0.00     0.041 A 
ATOM     20  Cl  UNL     1      -3.382  11.344  -7.625  1.00  0.00    -0.084 Cl
ATOM     21  Cl  UNL     1      -2.281   9.115  -2.828  1.00  0.00    -0.084 Cl
ENDBRANCH   7  14
TORSDOF 3
ENDMDL
MODEL 7
REMARK VINA RESULT:    -3.980     10.925     11.575
REMARK INTER + INTRA:          -4.856
REMARK INTER:                  -4.560
REMARK INTRA:                  -0.296
REMARK UNBOUND:                -0.295
REMARK SMILES O=C(O)c1ccc2nc(-c3cc(Cl)cc(Cl)c3)oc2c1
REMARK SMILES IDX 5 1 6 2 20 3 8 4 18 5 4 6 9 7 7 8 19 9 2 10 1 11 3 12 10 14
REMARK SMILES IDX 11 15 17 16 12 17 15 18 14 19 13 20 16 21
REMARK H PARENT 3 13
ROOT
ATOM      1  C   UNL     1      -2.192  13.657  -5.368  1.00  0.00     0.018 A 
ATOM      2  C   UNL     1      -2.004  12.894  -4.255  1.00  0.00     0.033 A 
ATOM      3  C   UNL     1      -2.748  11.681  -6.658  1.00  0.00     0.065 A 
ATOM      4  N   UNL     1      -2.073  10.515  -3.408  1.00  0.00    -0.209 NA
ATOM      5  O   UNL     1      -2.648   9.577  -5.285  1.00  0.00    -0.436 OA
ATOM      6  C   UNL     1      -2.567  13.063  -6.581  1.00  0.00     0.063 A 
ATOM      7  C   UNL     1      -2.350   9.374  -3.988  1.00  0.00     0.227 A 
ATOM      8  C   UNL     1      -2.183  11.507  -4.318  1.00  0.00     0.110 A 
ATOM      9  C   UNL     1      -2.555  10.902  -5.532  1.00  0.00     0.156 A 
ENDROOT
BRANCH   6  10
ATOM     10  C   UNL     1      -2.773  13.899  -7.778  1.00  0.00     0.335 C 
ATOM     11  O   UNL     1      -3.173  13.396  -8.808  1.00  0.00    -0.246 OA
BRANCH  10  12
ATOM     12  O   UNL     1      -2.515  15.221  -7.729  1.00  0.00    -0.478 OA
ATOM     13  H   UNL     1      -1.715  15.496  -7.262  1.00  0.00     0.297 HD
ENDBRANCH  10  12
ENDBRANCH   6  10
BRANCH   7  14
ATOM     14  C   UNL     1      -2.338   8.057  -3.316  1.00  0.00     0.040 A 
ATOM     15  C   UNL     1      -2.541   7.971  -1.939  1.00  0.00     0.034 A 
ATOM     16  C   UNL     1      -2.121   6.895  -4.059  1.00  0.00     0.034 A 
ATOM     17  C   UNL     1      -2.529   6.738  -1.317  1.00  0.00     0.043 A 
ATOM     18  C   UNL     1      -2.111   5.668  -3.426  1.00  0.00     0.043 A 
ATOM     19  C   UNL     1      -2.314   5.589  -2.059  1.00  0.00     0.041 A 
ATOM     20  Cl  UNL     1      -2.783   6.629   0.396  1.00  0.00    -0.084 Cl
ATOM     21  Cl  UNL     1      -1.842   4.220  -4.347  1.00  0.00    -0.084 Cl
ENDBRANCH   7  14
TORSDOF 3
ENDMDL
MODEL 8
REMARK VINA RESULT:    -3.976     10.929     11.423
REMARK INTER + INTRA:          -4.852
REMARK INTER:                  -4.555
REMARK INTRA:                  -0.296
REMARK UNBOUND:                -0.295
REMARK SMILES O=C(O)c1ccc2nc(-c3cc(Cl)cc(Cl)c3)oc2c1
REMARK SMILES IDX 5 1 6 2 20 3 8 4 18 5 4 6 9 7 7 8 19 9 2 10 1 11 3 12 10 14
REMARK SMILES IDX 11 15 17 16 12 17 15 18 14 19 13 20 16 21
REMARK H PARENT 3 13
ROOT
ATOM      1  C   UNL     1      -2.187  13.665  -5.356  1.00  0.00     0.018 A 
ATOM      2  C   UNL     1      -1.999  12.899  -4.244  1.00  0.00     0.033 A 
ATOM      3  C   UNL     1      -2.749  11.691  -6.649  1.00  0.00     0.065 A 
ATOM      4  N   UNL     1      -2.069  10.518  -3.402  1.00  0.00    -0.209 NA
ATOM      5  O   UNL     1      -2.648   9.585  -5.280  1.00  0.00    -0.436 OA
ATOM      6  C   UNL     1      -2.566  13.073  -6.569  1.00  0.00     0.063 A 
ATOM      7  C   UNL     1      -2.349   9.379  -3.984  1.00  0.00     0.227 A 
ATOM      8  C   UNL     1      -2.179  11.512  -4.310  1.00  0.00     0.110 A 
ATOM      9  C   UNL     1      -2.554  10.911  -5.524  1.00  0.00     0.156 A 
ENDROOT
BRANCH   6  10
ATOM     10  C   UNL     1      -2.773  13.912  -7.764  1.00  0.00     0.335 C 
ATOM     11  O   UNL     1      -3.176  13.412  -8.794  1.00  0.00    -0.246 OA
BRANCH  10  12
ATOM     12  O   UNL     1      -2.513  15.233  -7.713  1.00  0.00    -0.478 OA
ATOM     13  H   UNL     1      -1.786  15.517  -7.142  1.00  0.00     0.297 HD
ENDBRANCH  10  12
ENDBRANCH   6  10
BRANCH   7  14
ATOM     14  C   UNL     1      -2.337   8.061  -3.315  1.00  0.00     0.040 A 
ATOM     15  C   UNL     1      -2.118   6.900  -4.057  1.00  0.00     0.034 A 
ATOM     16  C   UNL     1      -2.545   7.973  -1.937  1.00  0.00     0.034 A 
ATOM     17  C   UNL     1      -2.107   5.672  -3.426  1.00  0.00     0.043 A 
ATOM     18  C   UNL     1      -2.531   6.740  -1.317  1.00  0.00     0.043 A 
ATOM     19  C   UNL     1      -2.314   5.592  -2.059  1.00  0.00     0.041 A 
ATOM     20  Cl  UNL     1      -1.835   4.226  -4.347  1.00  0.00    -0.084 Cl
ATOM     21  Cl  UNL     1      -2.789   6.628   0.396  1.00  0.00    -0.084 Cl
ENDBRANCH   7  14
TORSDOF 3
ENDMDL
MODEL 9
REMARK VINA RESULT:    -3.811     10.165     11.094
REMARK INTER + INTRA:          -4.663
REMARK INTER:                  -4.365
REMARK INTRA:                  -0.298
REMARK UNBOUND:                -0.295
REMARK SMILES O=C(O)c1ccc2nc(-c3cc(Cl)cc(Cl)c3)oc2c1
REMARK SMILES IDX 5 1 6 2 20 3 8 4 18 5 4 6 9 7 7 8 19 9 2 10 1 11 3 12 10 14
REMARK SMILES IDX 11 15 17 16 12 17 15 18 14 19 13 20 16 21
REMARK H PARENT 3 13
ROOT
ATOM      1  C   UNL     1      -2.209   5.388  -3.376  1.00  0.00     0.018 A 
ATOM      2  C   UNL     1      -2.343   6.267  -4.408  1.00  0.00     0.033 A 
ATOM      3  C   UNL     1      -1.910   7.224  -1.820  1.00  0.00     0.065 A 
ATOM      4  N   UNL     1      -2.352   8.731  -4.968  1.00  0.00    -0.209 NA
ATOM      5  O   UNL     1      -2.010   9.467  -2.949  1.00  0.00    -0.436 OA
ATOM      6  C   UNL     1      -1.994   5.853  -2.071  1.00  0.00     0.063 A 
ATOM      7  C   UNL     1      -2.202   9.808  -4.238  1.00  0.00     0.227 A 
ATOM      8  C   UNL     1      -2.262   7.644  -4.170  1.00  0.00     0.110 A 
ATOM      9  C   UNL     1      -2.041   8.119  -2.865  1.00  0.00     0.156 A 
ENDROOT
BRANCH   6  10
ATOM     10  C   UNL     1      -1.856   4.893  -0.961  1.00  0.00     0.335 C 
ATOM     11  O   UNL     1      -1.811   3.701  -1.191  1.00  0.00    -0.246 OA
BRANCH  10  12
ATOM     12  O   UNL     1      -1.782   5.336   0.310  1.00  0.00    -0.478 OA
ATOM     13  H   UNL     1      -1.989   6.268   0.462  1.00  0.00     0.297 HD
ENDBRANCH  10  12
ENDBRANCH   6  10
BRANCH   7  14
ATOM     14  C   UNL     1      -2.239  11.192  -4.753  1.00  0.00     0.040 A 
ATOM     15  C   UNL     1      -1.875  12.257  -3.929  1.00  0.00     0.034 A 
ATOM     16  C   UNL     1      -2.639  11.439  -6.068  1.00  0.00     0.034 A 
ATOM     17  C   UNL     1      -1.910  13.548  -4.417  1.00  0.00     0.043 A 
ATOM     18  C   UNL     1      -2.670  12.735  -6.545  1.00  0.00     0.043 A 
ATOM     19  C   UNL     1      -2.308  13.787  -5.721  1.00  0.00     0.041 A 
ATOM     20  Cl  UNL     1      -1.456  14.875  -3.393  1.00  0.00    -0.084 Cl
ATOM     21  Cl  UNL     1      -3.167  13.045  -8.179  1.00  0.00    -0.084 Cl
ENDBRANCH   7  14
TORSDOF 3
ENDMDL
