MODEL 1
REMARK VINA RESULT:    -5.461      0.000      0.000
REMARK INTER + INTRA:          -8.171
REMARK INTER:                  -7.536
REMARK INTRA:                  -0.636
REMARK UNBOUND:                -0.636
REMARK SMILES Cc1n[nH]c(C)c1CCCOc1cc(C(=O)O)ccc1F
REMARK SMILES IDX 11 1 12 2 14 3 18 4 13 5 19 6 20 7 21 8 15 9 16 10 17 11
REMARK SMILES IDX 10 13 9 14 8 15 7 16 5 17 2 18 4 19 3 20 6 21 1 22
REMARK H PARENT 17 12 4 23
ROOT
ATOM      1  O   UNL     1      -1.625   8.053  -4.775  1.00  0.00    -0.490 OA
ENDROOT
BRANCH   1   2
ATOM      2  C   UNL     1      -1.845   7.153  -3.780  1.00  0.00     0.155 A 
ATOM      3  C   UNL     1      -2.507   6.658  -1.522  1.00  0.00     0.063 A 
ATOM      4  C   UNL     1      -2.301   5.297  -1.763  1.00  0.00     0.019 A 
ATOM      5  C   UNL     1      -2.276   7.586  -2.540  1.00  0.00     0.065 A 
ATOM      6  C   UNL     1      -1.876   4.875  -3.006  1.00  0.00     0.044 A 
ATOM      7  C   UNL     1      -1.653   5.796  -4.015  1.00  0.00     0.165 A 
ATOM      8  F   UNL     1      -1.237   5.375  -5.230  1.00  0.00    -0.203 F 
BRANCH   3   9
ATOM      9  C   UNL     1      -2.962   7.114  -0.194  1.00  0.00     0.335 C 
ATOM     10  O   UNL     1      -2.344   7.976   0.397  1.00  0.00    -0.246 OA
BRANCH   9  11
ATOM     11  O   UNL     1      -4.067   6.578   0.360  1.00  0.00    -0.478 OA
ATOM     12  H   UNL     1      -3.945   6.045   1.158  1.00  0.00     0.297 HD
ENDBRANCH   9  11
ENDBRANCH   3   9
ENDBRANCH   1   2
BRANCH   1  13
ATOM     13  C   UNL     1      -0.379   8.754  -4.751  1.00  0.00     0.230 C 
BRANCH  13  14
ATOM     14  C   UNL     1      -0.593  10.189  -5.234  1.00  0.00     0.046 C 
BRANCH  14  15
ATOM     15  C   UNL     1      -1.994  10.658  -4.835  1.00  0.00     0.043 C 
BRANCH  15  16
ATOM     16  C   UNL     1      -2.203  12.074  -5.305  1.00  0.00    -0.004 A 
ATOM     17  C   UNL     1      -1.945  13.196  -4.594  1.00  0.00     0.036 A 
ATOM     18  C   UNL     1      -2.693  12.462  -6.557  1.00  0.00     0.063 A 
ATOM     19  N   UNL     1      -2.267  14.256  -5.366  1.00  0.00    -0.282 N 
ATOM     20  N   UNL     1      -2.738  13.769  -6.592  1.00  0.00    -0.181 NA
ATOM     21  C   UNL     1      -1.397  13.252  -3.192  1.00  0.00     0.066 C 
ATOM     22  C   UNL     1      -3.110  11.533  -7.669  1.00  0.00     0.069 C 
ATOM     23  H   UNL     1      -2.186  15.189  -5.115  1.00  0.00     0.190 HD
ENDBRANCH  15  16
ENDBRANCH  14  15
ENDBRANCH  13  14
ENDBRANCH   1  13
TORSDOF 7
ENDMDL
MODEL 2
REMARK VINA RESULT:    -5.442      2.173      3.325
REMARK INTER + INTRA:          -8.145
REMARK INTER:                  -7.608
REMARK INTRA:                  -0.536
REMARK UNBOUND:                -0.636
REMARK SMILES Cc1n[nH]c(C)c1CCCOc1cc(C(=O)O)ccc1F
REMARK SMILES IDX 11 1 12 2 14 3 18 4 13 5 19 6 20 7 21 8 15 9 16 10 17 11
REMARK SMILES IDX 10 13 9 14 8 15 7 16 5 17 2 18 4 19 3 20 6 21 1 22
REMARK H PARENT 17 12 4 23
ROOT
ATOM      1  O   UNL     1      -4.391   8.538  -2.854  1.00  0.00    -0.490 OA
ENDROOT
BRANCH   1   2
ATOM      2  C   UNL     1      -3.504   7.514  -2.733  1.00  0.00     0.155 A 
ATOM      3  C   UNL     1      -2.022   5.907  -3.733  1.00  0.00     0.063 A 
ATOM      4  C   UNL     1      -1.688   5.430  -2.463  1.00  0.00     0.019 A 
ATOM      5  C   UNL     1      -2.936   6.954  -3.862  1.00  0.00     0.065 A 
ATOM      6  C   UNL     1      -2.255   5.999  -1.342  1.00  0.00     0.044 A 
ATOM      7  C   UNL     1      -3.158   7.041  -1.472  1.00  0.00     0.165 A 
ATOM      8  F   UNL     1      -3.710   7.594  -0.370  1.00  0.00    -0.203 F 
BRANCH   3   9
ATOM      9  C   UNL     1      -1.416   5.300  -4.935  1.00  0.00     0.335 C 
ATOM     10  O   UNL     1      -1.963   5.412  -6.013  1.00  0.00    -0.246 OA
BRANCH   9  11
ATOM     11  O   UNL     1      -0.253   4.628  -4.836  1.00  0.00    -0.478 OA
ATOM     12  H   UNL     1      -0.116   4.101  -4.036  1.00  0.00     0.297 HD
ENDBRANCH   9  11
ENDBRANCH   3   9
ENDBRANCH   1   2
BRANCH   1  13
ATOM     13  C   UNL     1      -3.924   9.845  -2.510  1.00  0.00     0.230 C 
BRANCH  13  14
ATOM     14  C   UNL     1      -3.793  10.690  -3.778  1.00  0.00     0.046 C 
BRANCH  14  15
ATOM     15  C   UNL     1      -2.321  11.035  -4.012  1.00  0.00     0.043 C 
BRANCH  15  16
ATOM     16  C   UNL     1      -2.214  12.435  -4.559  1.00  0.00    -0.004 A 
ATOM     17  C   UNL     1      -1.792  13.526  -3.877  1.00  0.00     0.036 A 
ATOM     18  C   UNL     1      -2.525  12.836  -5.862  1.00  0.00     0.063 A 
ATOM     19  N   UNL     1      -1.842  14.581  -4.718  1.00  0.00    -0.282 N 
ATOM     20  N   UNL     1      -2.309  14.123  -5.957  1.00  0.00    -0.181 NA
ATOM     21  C   UNL     1      -1.348  13.556  -2.438  1.00  0.00     0.066 C 
ATOM     22  C   UNL     1      -3.033  11.942  -6.964  1.00  0.00     0.069 C 
ATOM     23  H   UNL     1      -1.599  15.494  -4.502  1.00  0.00     0.190 HD
ENDBRANCH  15  16
ENDBRANCH  14  15
ENDBRANCH  13  14
ENDBRANCH   1  13
TORSDOF 7
ENDMDL
MODEL 3
REMARK VINA RESULT:    -5.409      1.987      3.726
REMARK INTER + INTRA:          -8.100
REMARK INTER:                  -7.471
REMARK INTRA:                  -0.629
REMARK UNBOUND:                -0.636
REMARK SMILES Cc1n[nH]c(C)c1CCCOc1cc(C(=O)O)ccc1F
REMARK SMILES IDX 11 1 12 2 14 3 18 4 13 5 19 6 20 7 21 8 15 9 16 10 17 11
REMARK SMILES IDX 10 13 9 14 8 15 7 16 5 17 2 18 4 19 3 20 6 21 1 22
REMARK H PARENT 17 12 4 23
ROOT
ATOM      1  O   UNL     1      -2.925   8.985  -2.170  1.00  0.00    -0.490 OA
ENDROOT
BRANCH   1   2
ATOM      2  C   UNL     1      -2.597   7.671  -2.292  1.00  0.00     0.155 A 
ATOM      3  C   UNL     1      -1.814   5.830  -3.626  1.00  0.00     0.063 A 
ATOM      4  C   UNL     1      -1.922   4.986  -2.517  1.00  0.00     0.019 A 
ATOM      5  C   UNL     1      -2.155   7.179  -3.506  1.00  0.00     0.065 A 
ATOM      6  C   UNL     1      -2.358   5.488  -1.309  1.00  0.00     0.044 A 
ATOM      7  C   UNL     1      -2.691   6.827  -1.191  1.00  0.00     0.165 A 
ATOM      8  F   UNL     1      -3.118   7.312  -0.004  1.00  0.00    -0.203 F 
BRANCH   3   9
ATOM      9  C   UNL     1      -1.347   5.297  -4.920  1.00  0.00     0.335 C 
ATOM     10  O   UNL     1      -1.989   5.504  -5.930  1.00  0.00    -0.246 OA
BRANCH   9  11
ATOM     11  O   UNL     1      -0.204   4.585  -4.983  1.00  0.00    -0.478 OA
ATOM     12  H   UNL     1      -0.187   3.834  -5.592  1.00  0.00     0.297 HD
ENDBRANCH   9  11
ENDBRANCH   3   9
ENDBRANCH   1   2
BRANCH   1  13
ATOM     13  C   UNL     1      -4.110   9.422  -2.840  1.00  0.00     0.230 C 
BRANCH  13  14
ATOM     14  C   UNL     1      -3.894  10.834  -3.387  1.00  0.00     0.046 C 
BRANCH  14  15
ATOM     15  C   UNL     1      -2.489  10.941  -3.984  1.00  0.00     0.043 C 
BRANCH  15  16
ATOM     16  C   UNL     1      -2.346  12.257  -4.703  1.00  0.00    -0.004 A 
ATOM     17  C   UNL     1      -2.631  12.488  -6.006  1.00  0.00     0.036 A 
ATOM     18  C   UNL     1      -1.901  13.458  -4.140  1.00  0.00     0.063 A 
ATOM     19  N   UNL     1      -2.369  13.787  -6.260  1.00  0.00    -0.282 N 
ATOM     20  N   UNL     1      -1.908  14.374  -5.074  1.00  0.00    -0.181 NA
ATOM     21  C   UNL     1      -3.148  11.476  -6.994  1.00  0.00     0.066 C 
ATOM     22  C   UNL     1      -1.476  13.659  -2.708  1.00  0.00     0.069 C 
ATOM     23  H   UNL     1      -2.480  14.235  -7.113  1.00  0.00     0.190 HD
ENDBRANCH  15  16
ENDBRANCH  14  15
ENDBRANCH  13  14
ENDBRANCH   1  13
TORSDOF 7
ENDMDL
MODEL 4
REMARK VINA RESULT:    -5.083      8.550     10.759
REMARK INTER + INTRA:          -7.651
REMARK INTER:                  -5.528
REMARK INTRA:                  -2.122
REMARK UNBOUND:                -0.636
REMARK SMILES Cc1n[nH]c(C)c1CCCOc1cc(C(=O)O)ccc1F
REMARK SMILES IDX 11 1 12 2 14 3 18 4 13 5 19 6 20 7 21 8 15 9 16 10 17 11
REMARK SMILES IDX 10 13 9 14 8 15 7 16 5 17 2 18 4 19 3 20 6 21 1 22
REMARK H PARENT 17 12 4 23
ROOT
ATOM      1  O   UNL     1      -5.141  15.565 -12.894  1.00  0.00    -0.490 OA
ENDROOT
BRANCH   1   2
ATOM      2  C   UNL     1      -4.873  14.986 -11.693  1.00  0.00     0.155 A 
ATOM      3  C   UNL     1      -3.554  14.853  -9.687  1.00  0.00     0.063 A 
ATOM      4  C   UNL     1      -4.349  13.795  -9.239  1.00  0.00     0.019 A 
ATOM      5  C   UNL     1      -3.823  15.448 -10.922  1.00  0.00     0.065 A 
ATOM      6  C   UNL     1      -5.397  13.344 -10.013  1.00  0.00     0.044 A 
ATOM      7  C   UNL     1      -5.665  13.939 -11.235  1.00  0.00     0.165 A 
ATOM      8  F   UNL     1      -6.694  13.493 -11.989  1.00  0.00    -0.203 F 
BRANCH   3   9
ATOM      9  C   UNL     1      -2.432  15.338  -8.860  1.00  0.00     0.335 C 
ATOM     10  O   UNL     1      -2.500  15.281  -7.650  1.00  0.00    -0.246 OA
BRANCH   9  11
ATOM     11  O   UNL     1      -1.328  15.837  -9.451  1.00  0.00    -0.478 OA
ATOM     12  H   UNL     1      -1.130  16.771  -9.294  1.00  0.00     0.297 HD
ENDBRANCH   9  11
ENDBRANCH   3   9
ENDBRANCH   1   2
BRANCH   1  13
ATOM     13  C   UNL     1      -5.425  16.966 -12.889  1.00  0.00     0.230 C 
BRANCH  13  14
ATOM     14  C   UNL     1      -6.940  17.178 -12.869  1.00  0.00     0.046 C 
BRANCH  14  15
ATOM     15  C   UNL     1      -7.310  18.106 -11.710  1.00  0.00     0.043 C 
BRANCH  15  16
ATOM     16  C   UNL     1      -7.304  17.328 -10.420  1.00  0.00    -0.004 A 
ATOM     17  C   UNL     1      -8.124  16.297 -10.108  1.00  0.00     0.036 A 
ATOM     18  C   UNL     1      -6.447  17.540  -9.335  1.00  0.00     0.063 A 
ATOM     19  N   UNL     1      -7.801  15.876  -8.867  1.00  0.00    -0.282 N 
ATOM     20  N   UNL     1      -6.748  16.674  -8.401  1.00  0.00    -0.181 NA
ATOM     21  C   UNL     1      -9.202  15.723 -10.989  1.00  0.00     0.066 C 
ATOM     22  C   UNL     1      -5.371  18.592  -9.251  1.00  0.00     0.069 C 
ATOM     23  H   UNL     1      -8.223  15.149  -8.384  1.00  0.00     0.190 HD
ENDBRANCH  15  16
ENDBRANCH  14  15
ENDBRANCH  13  14
ENDBRANCH   1  13
TORSDOF 7
ENDMDL
MODEL 5
REMARK VINA RESULT:    -4.980      9.140     11.336
REMARK INTER + INTRA:          -7.508
REMARK INTER:                  -5.348
REMARK INTRA:                  -2.160
REMARK UNBOUND:                -0.636
REMARK SMILES Cc1n[nH]c(C)c1CCCOc1cc(C(=O)O)ccc1F
REMARK SMILES IDX 11 1 12 2 14 3 18 4 13 5 19 6 20 7 21 8 15 9 16 10 17 11
REMARK SMILES IDX 10 13 9 14 8 15 7 16 5 17 2 18 4 19 3 20 6 21 1 22
REMARK H PARENT 17 12 4 23
ROOT
ATOM      1  O   UNL     1      -5.404  14.543 -13.025  1.00  0.00    -0.490 OA
ENDROOT
BRANCH   1   2
ATOM      2  C   UNL     1      -4.770  15.442 -12.225  1.00  0.00     0.155 A 
ATOM      3  C   UNL     1      -3.439  15.935 -10.285  1.00  0.00     0.063 A 
ATOM      4  C   UNL     1      -3.473  17.293 -10.611  1.00  0.00     0.019 A 
ATOM      5  C   UNL     1      -4.094  15.009 -11.100  1.00  0.00     0.065 A 
ATOM      6  C   UNL     1      -4.146  17.714 -11.739  1.00  0.00     0.044 A 
ATOM      7  C   UNL     1      -4.790  16.794 -12.549  1.00  0.00     0.165 A 
ATOM      8  F   UNL     1      -5.447  17.213 -13.653  1.00  0.00    -0.203 F 
BRANCH   3   9
ATOM      9  C   UNL     1      -2.720  15.481  -9.078  1.00  0.00     0.335 C 
ATOM     10  O   UNL     1      -3.240  14.685  -8.324  1.00  0.00    -0.246 OA
BRANCH   9  11
ATOM     11  O   UNL     1      -1.482  15.946  -8.818  1.00  0.00    -0.478 OA
ATOM     12  H   UNL     1      -1.019  15.562  -8.060  1.00  0.00     0.297 HD
ENDBRANCH   9  11
ENDBRANCH   3   9
ENDBRANCH   1   2
BRANCH   1  13
ATOM     13  C   UNL     1      -6.567  13.906 -12.489  1.00  0.00     0.230 C 
BRANCH  13  14
ATOM     14  C   UNL     1      -7.784  14.809 -12.695  1.00  0.00     0.046 C 
BRANCH  14  15
ATOM     15  C   UNL     1      -8.629  14.825 -11.420  1.00  0.00     0.043 C 
BRANCH  15  16
ATOM     16  C   UNL     1      -7.924  15.628 -10.358  1.00  0.00    -0.004 A 
ATOM     17  C   UNL     1      -7.783  16.974 -10.339  1.00  0.00     0.036 A 
ATOM     18  C   UNL     1      -7.305  15.115  -9.213  1.00  0.00     0.063 A 
ATOM     19  N   UNL     1      -7.093  17.300  -9.226  1.00  0.00    -0.282 N 
ATOM     20  N   UNL     1      -6.801  16.115  -8.538  1.00  0.00    -0.181 NA
ATOM     21  C   UNL     1      -8.303  17.935 -11.376  1.00  0.00     0.066 C 
ATOM     22  C   UNL     1      -7.222  13.659  -8.830  1.00  0.00     0.069 C 
ATOM     23  H   UNL     1      -6.844  18.196  -8.952  1.00  0.00     0.190 HD
ENDBRANCH  15  16
ENDBRANCH  14  15
ENDBRANCH  13  14
ENDBRANCH   1  13
TORSDOF 7
ENDMDL
MODEL 6
REMARK VINA RESULT:    -4.837      9.702     10.732
REMARK INTER + INTRA:          -7.310
REMARK INTER:                  -6.933
REMARK INTRA:                  -0.377
REMARK UNBOUND:                -0.636
REMARK SMILES Cc1n[nH]c(C)c1CCCOc1cc(C(=O)O)ccc1F
REMARK SMILES IDX 11 1 12 2 14 3 18 4 13 5 19 6 20 7 21 8 15 9 16 10 17 11
REMARK SMILES IDX 10 13 9 14 8 15 7 16 5 17 2 18 4 19 3 20 6 21 1 22
REMARK H PARENT 17 12 4 23
ROOT
ATOM      1  O   UNL     1      -2.743   1.400  -0.892  1.00  0.00    -0.490 OA
ENDROOT
BRANCH   1   2
ATOM      2  C   UNL     1      -3.828   0.789  -1.437  1.00  0.00     0.155 A 
ATOM      3  C   UNL     1      -6.183   0.303  -1.410  1.00  0.00     0.063 A 
ATOM      4  C   UNL     1      -6.035  -0.459  -2.572  1.00  0.00     0.019 A 
ATOM      5  C   UNL     1      -5.070   0.928  -0.845  1.00  0.00     0.065 A 
ATOM      6  C   UNL     1      -4.794  -0.587  -3.159  1.00  0.00     0.044 A 
ATOM      7  C   UNL     1      -3.692   0.038  -2.599  1.00  0.00     0.165 A 
ATOM      8  F   UNL     1      -2.478  -0.092  -3.179  1.00  0.00    -0.203 F 
BRANCH   3   9
ATOM      9  C   UNL     1      -7.510   0.443  -0.779  1.00  0.00     0.335 C 
ATOM     10  O   UNL     1      -8.218  -0.533  -0.631  1.00  0.00    -0.246 OA
BRANCH   9  11
ATOM     11  O   UNL     1      -7.934   1.652  -0.362  1.00  0.00    -0.478 OA
ATOM     12  H   UNL     1      -7.792   1.870   0.570  1.00  0.00     0.297 HD
ENDBRANCH   9  11
ENDBRANCH   3   9
ENDBRANCH   1   2
BRANCH   1  13
ATOM     13  C   UNL     1      -1.825   0.573  -0.174  1.00  0.00     0.230 C 
BRANCH  13  14
ATOM     14  C   UNL     1      -0.567   1.377   0.159  1.00  0.00     0.046 C 
BRANCH  14  15
ATOM     15  C   UNL     1       0.612   0.421   0.357  1.00  0.00     0.043 C 
BRANCH  15  16
ATOM     16  C   UNL     1       1.689   1.110   1.154  1.00  0.00    -0.004 A 
ATOM     17  C   UNL     1       2.853   1.599   0.664  1.00  0.00     0.036 A 
ATOM     18  C   UNL     1       1.662   1.364   2.529  1.00  0.00     0.063 A 
ATOM     19  N   UNL     1       3.540   2.136   1.694  1.00  0.00    -0.282 N 
ATOM     20  N   UNL     1       2.773   1.972   2.855  1.00  0.00    -0.181 NA
ATOM     21  C   UNL     1       3.301   1.551  -0.774  1.00  0.00     0.066 C 
ATOM     22  C   UNL     1       0.549   0.989   3.474  1.00  0.00     0.069 C 
ATOM     23  H   UNL     1       4.410   2.559   1.640  1.00  0.00     0.190 HD
ENDBRANCH  15  16
ENDBRANCH  14  15
ENDBRANCH  13  14
ENDBRANCH   1  13
TORSDOF 7
ENDMDL
MODEL 7
REMARK VINA RESULT:    -4.461      9.400     11.438
REMARK INTER + INTRA:          -6.792
REMARK INTER:                  -4.406
REMARK INTRA:                  -2.386
REMARK UNBOUND:                -0.636
REMARK SMILES Cc1n[nH]c(C)c1CCCOc1cc(C(=O)O)ccc1F
REMARK SMILES IDX 11 1 12 2 14 3 18 4 13 5 19 6 20 7 21 8 15 9 16 10 17 11
REMARK SMILES IDX 10 13 9 14 8 15 7 16 5 17 2 18 4 19 3 20 6 21 1 22
REMARK H PARENT 17 12 4 23
ROOT
ATOM      1  O   UNL     1      -6.544  18.671  -9.763  1.00  0.00    -0.490 OA
ENDROOT
BRANCH   1   2
ATOM      2  C   UNL     1      -7.245  17.545 -10.061  1.00  0.00     0.155 A 
ATOM      3  C   UNL     1      -7.790  15.246  -9.616  1.00  0.00     0.063 A 
ATOM      4  C   UNL     1      -8.695  15.258 -10.681  1.00  0.00     0.019 A 
ATOM      5  C   UNL     1      -7.065  16.399  -9.310  1.00  0.00     0.065 A 
ATOM      6  C   UNL     1      -8.872  16.408 -11.421  1.00  0.00     0.044 A 
ATOM      7  C   UNL     1      -8.155  17.552 -11.113  1.00  0.00     0.165 A 
ATOM      8  F   UNL     1      -8.334  18.675 -11.842  1.00  0.00    -0.203 F 
BRANCH   3   9
ATOM      9  C   UNL     1      -7.598  14.017  -8.821  1.00  0.00     0.335 C 
ATOM     10  O   UNL     1      -6.805  13.174  -9.187  1.00  0.00    -0.246 OA
BRANCH   9  11
ATOM     11  O   UNL     1      -8.300  13.833  -7.685  1.00  0.00    -0.478 OA
ATOM     12  H   UNL     1      -8.734  12.977  -7.571  1.00  0.00     0.297 HD
ENDBRANCH   9  11
ENDBRANCH   3   9
ENDBRANCH   1   2
BRANCH   1  13
ATOM     13  C   UNL     1      -5.118  18.578  -9.807  1.00  0.00     0.230 C 
BRANCH  13  14
ATOM     14  C   UNL     1      -4.660  18.473 -11.263  1.00  0.00     0.046 C 
BRANCH  14  15
ATOM     15  C   UNL     1      -3.562  17.413 -11.377  1.00  0.00     0.043 C 
BRANCH  15  16
ATOM     16  C   UNL     1      -4.190  16.051 -11.522  1.00  0.00    -0.004 A 
ATOM     17  C   UNL     1      -4.040  15.010 -10.671  1.00  0.00     0.036 A 
ATOM     18  C   UNL     1      -5.036  15.642 -12.558  1.00  0.00     0.063 A 
ATOM     19  N   UNL     1      -4.760  13.976 -11.155  1.00  0.00    -0.282 N 
ATOM     20  N   UNL     1      -5.373  14.396 -12.343  1.00  0.00    -0.181 NA
ATOM     21  C   UNL     1      -3.217  15.006  -9.409  1.00  0.00     0.066 C 
ATOM     22  C   UNL     1      -5.474  16.486 -13.728  1.00  0.00     0.069 C 
ATOM     23  H   UNL     1      -4.839  13.098 -10.752  1.00  0.00     0.190 HD
ENDBRANCH  15  16
ENDBRANCH  14  15
ENDBRANCH  13  14
ENDBRANCH   1  13
TORSDOF 7
ENDMDL
MODEL 8
REMARK VINA RESULT:    -4.405      4.970      8.087
REMARK INTER + INTRA:          -6.715
REMARK INTER:                  -6.036
REMARK INTRA:                  -0.679
REMARK UNBOUND:                -0.636
REMARK SMILES Cc1n[nH]c(C)c1CCCOc1cc(C(=O)O)ccc1F
REMARK SMILES IDX 11 1 12 2 14 3 18 4 13 5 19 6 20 7 21 8 15 9 16 10 17 11
REMARK SMILES IDX 10 13 9 14 8 15 7 16 5 17 2 18 4 19 3 20 6 21 1 22
REMARK H PARENT 17 12 4 23
ROOT
ATOM      1  O   UNL     1      -1.987  13.089  -3.417  1.00  0.00    -0.490 OA
ENDROOT
BRANCH   1   2
ATOM      2  C   UNL     1      -1.467  14.342  -3.325  1.00  0.00     0.155 A 
ATOM      3  C   UNL     1      -1.601  16.698  -3.790  1.00  0.00     0.063 A 
ATOM      4  C   UNL     1      -0.393  16.896  -3.117  1.00  0.00     0.019 A 
ATOM      5  C   UNL     1      -2.136  15.412  -3.891  1.00  0.00     0.065 A 
ATOM      6  C   UNL     1       0.264  15.824  -2.550  1.00  0.00     0.044 A 
ATOM      7  C   UNL     1      -0.271  14.550  -2.647  1.00  0.00     0.165 A 
ATOM      8  F   UNL     1       0.377  13.504  -2.089  1.00  0.00    -0.203 F 
BRANCH   3   9
ATOM      9  C   UNL     1      -2.307  17.843  -4.398  1.00  0.00     0.335 C 
ATOM     10  O   UNL     1      -2.016  18.976  -4.075  1.00  0.00    -0.246 OA
BRANCH   9  11
ATOM     11  O   UNL     1      -3.269  17.630  -5.317  1.00  0.00    -0.478 OA
ATOM     12  H   UNL     1      -3.489  18.369  -5.902  1.00  0.00     0.297 HD
ENDBRANCH   9  11
ENDBRANCH   3   9
ENDBRANCH   1   2
BRANCH   1  13
ATOM     13  C   UNL     1      -1.857  12.424  -4.676  1.00  0.00     0.230 C 
BRANCH  13  14
ATOM     14  C   UNL     1      -2.503  11.040  -4.590  1.00  0.00     0.046 C 
BRANCH  14  15
ATOM     15  C   UNL     1      -1.946  10.291  -3.377  1.00  0.00     0.043 C 
BRANCH  15  16
ATOM     16  C   UNL     1      -2.193   8.814  -3.541  1.00  0.00    -0.004 A 
ATOM     17  C   UNL     1      -3.308   8.147  -3.164  1.00  0.00     0.036 A 
ATOM     18  C   UNL     1      -1.312   7.891  -4.115  1.00  0.00     0.063 A 
ATOM     19  N   UNL     1      -3.137   6.846  -3.483  1.00  0.00    -0.282 N 
ATOM     20  N   UNL     1      -1.874   6.710  -4.075  1.00  0.00    -0.181 NA
ATOM     21  C   UNL     1      -4.523   8.747  -2.507  1.00  0.00     0.066 C 
ATOM     22  C   UNL     1       0.053   8.202  -4.673  1.00  0.00     0.069 C 
ATOM     23  H   UNL     1      -3.774   6.132  -3.328  1.00  0.00     0.190 HD
ENDBRANCH  15  16
ENDBRANCH  14  15
ENDBRANCH  13  14
ENDBRANCH   1  13
TORSDOF 7
ENDMDL
MODEL 9
REMARK VINA RESULT:    -4.403      8.873     11.242
REMARK INTER + INTRA:          -6.712
REMARK INTER:                  -4.346
REMARK INTRA:                  -2.366
REMARK UNBOUND:                -0.636
REMARK SMILES Cc1n[nH]c(C)c1CCCOc1cc(C(=O)O)ccc1F
REMARK SMILES IDX 11 1 12 2 14 3 18 4 13 5 19 6 20 7 21 8 15 9 16 10 17 11
REMARK SMILES IDX 10 13 9 14 8 15 7 16 5 17 2 18 4 19 3 20 6 21 1 22
REMARK H PARENT 17 12 4 23
ROOT
ATOM      1  O   UNL     1      -8.242  15.703  -9.537  1.00  0.00    -0.490 OA
ENDROOT
BRANCH   1   2
ATOM      2  C   UNL     1      -7.100  14.966  -9.495  1.00  0.00     0.155 A 
ATOM      3  C   UNL     1      -4.736  14.755  -9.880  1.00  0.00     0.063 A 
ATOM      4  C   UNL     1      -4.777  13.446  -9.391  1.00  0.00     0.019 A 
ATOM      5  C   UNL     1      -5.907  15.513  -9.929  1.00  0.00     0.065 A 
ATOM      6  C   UNL     1      -5.971  12.911  -8.955  1.00  0.00     0.044 A 
ATOM      7  C   UNL     1      -7.130  13.667  -9.000  1.00  0.00     0.165 A 
ATOM      8  F   UNL     1      -8.297  13.136  -8.571  1.00  0.00    -0.203 F 
BRANCH   3   9
ATOM      9  C   UNL     1      -3.460  15.331 -10.347  1.00  0.00     0.335 C 
ATOM     10  O   UNL     1      -2.429  15.084  -9.756  1.00  0.00    -0.246 OA
BRANCH   9  11
ATOM     11  O   UNL     1      -3.439  16.126 -11.435  1.00  0.00    -0.478 OA
ATOM     12  H   UNL     1      -3.132  15.729 -12.263  1.00  0.00     0.297 HD
ENDBRANCH   9  11
ENDBRANCH   3   9
ENDBRANCH   1   2
BRANCH   1  13
ATOM     13  C   UNL     1      -9.081  15.534 -10.682  1.00  0.00     0.230 C 
BRANCH  13  14
ATOM     14  C   UNL     1      -8.809  16.658 -11.683  1.00  0.00     0.046 C 
BRANCH  14  15
ATOM     15  C   UNL     1      -8.586  16.059 -13.074  1.00  0.00     0.043 C 
BRANCH  15  16
ATOM     16  C   UNL     1      -7.109  15.891 -13.319  1.00  0.00    -0.004 A 
ATOM     17  C   UNL     1      -6.439  14.716 -13.373  1.00  0.00     0.036 A 
ATOM     18  C   UNL     1      -6.189  16.922 -13.537  1.00  0.00     0.063 A 
ATOM     19  N   UNL     1      -5.140  14.995 -13.611  1.00  0.00    -0.282 N 
ATOM     20  N   UNL     1      -5.007  16.386 -13.705  1.00  0.00    -0.181 NA
ATOM     21  C   UNL     1      -7.037  13.345 -13.200  1.00  0.00     0.066 C 
ATOM     22  C   UNL     1      -6.502  18.396 -13.561  1.00  0.00     0.069 C 
ATOM     23  H   UNL     1      -4.425  14.346 -13.699  1.00  0.00     0.190 HD
ENDBRANCH  15  16
ENDBRANCH  14  15
ENDBRANCH  13  14
ENDBRANCH   1  13
TORSDOF 7
ENDMDL
