MODEL 1
REMARK VINA RESULT:    -2.968      0.000      0.000
REMARK INTER + INTRA:          -5.340
REMARK INTER:                  -4.096
REMARK INTRA:                  -1.244
REMARK UNBOUND:                -1.244
REMARK SMILES Cc1n[nH]c(C)c1CCCOc1cc(C(=O)O)ccc1F
REMARK SMILES IDX 11 1 12 2 14 3 18 4 13 5 19 6 20 7 21 8 15 9 16 10 17 11
REMARK SMILES IDX 10 13 9 14 8 15 7 16 5 17 2 18 4 19 3 20 6 21 1 22
REMARK H PARENT 17 12 4 23
ROOT
ATOM      1  O   UNL     1      -6.844   0.230  -5.951  1.00  0.00    -0.490 OA
ENDROOT
BRANCH   1   2
ATOM      2  C   UNL     1      -6.406   0.923  -4.867  1.00  0.00     0.155 A 
ATOM      3  C   UNL     1      -5.577   2.954  -3.882  1.00  0.00     0.063 A 
ATOM      4  C   UNL     1      -5.525   2.325  -2.636  1.00  0.00     0.019 A 
ATOM      5  C   UNL     1      -6.021   2.244  -5.000  1.00  0.00     0.065 A 
ATOM      6  C   UNL     1      -5.917   1.008  -2.512  1.00  0.00     0.044 A 
ATOM      7  C   UNL     1      -6.362   0.307  -3.621  1.00  0.00     0.165 A 
ATOM      8  F   UNL     1      -6.744  -0.982  -3.492  1.00  0.00    -0.203 F 
BRANCH   3   9
ATOM      9  C   UNL     1      -5.159   4.363  -4.019  1.00  0.00     0.335 C 
ATOM     10  O   UNL     1      -4.965   4.836  -5.120  1.00  0.00    -0.246 OA
BRANCH   9  11
ATOM     11  O   UNL     1      -4.998   5.127  -2.920  1.00  0.00    -0.478 OA
ATOM     12  H   UNL     1      -5.342   4.776  -2.087  1.00  0.00     0.297 HD
ENDBRANCH   9  11
ENDBRANCH   3   9
ENDBRANCH   1   2
BRANCH   1  13
ATOM     13  C   UNL     1      -8.202  -0.215  -5.932  1.00  0.00     0.230 C 
BRANCH  13  14
ATOM     14  C   UNL     1      -9.042   0.672  -6.854  1.00  0.00     0.046 C 
BRANCH  14  15
ATOM     15  C   UNL     1     -10.217   1.257  -6.067  1.00  0.00     0.043 C 
BRANCH  15  16
ATOM     16  C   UNL     1      -9.891   2.667  -5.649  1.00  0.00    -0.004 A 
ATOM     17  C   UNL     1      -9.528   3.065  -4.407  1.00  0.00     0.036 A 
ATOM     18  C   UNL     1      -9.904   3.795  -6.476  1.00  0.00     0.063 A 
ATOM     19  N   UNL     1      -9.325   4.399  -4.446  1.00  0.00    -0.282 N 
ATOM     20  N   UNL     1      -9.572   4.834  -5.755  1.00  0.00    -0.181 NA
ATOM     21  C   UNL     1      -9.377   2.179  -3.199  1.00  0.00     0.066 C 
ATOM     22  C   UNL     1     -10.253   3.811  -7.942  1.00  0.00     0.069 C 
ATOM     23  H   UNL     1      -9.057   4.957  -3.700  1.00  0.00     0.190 HD
ENDBRANCH  15  16
ENDBRANCH  14  15
ENDBRANCH  13  14
ENDBRANCH   1  13
TORSDOF 7
ENDMDL
MODEL 2
REMARK VINA RESULT:    -2.960      2.626      4.149
REMARK INTER + INTRA:          -5.328
REMARK INTER:                  -4.105
REMARK INTRA:                  -1.224
REMARK UNBOUND:                -1.244
REMARK SMILES Cc1n[nH]c(C)c1CCCOc1cc(C(=O)O)ccc1F
REMARK SMILES IDX 11 1 12 2 14 3 18 4 13 5 19 6 20 7 21 8 15 9 16 10 17 11
REMARK SMILES IDX 10 13 9 14 8 15 7 16 5 17 2 18 4 19 3 20 6 21 1 22
REMARK H PARENT 17 12 4 23
ROOT
ATOM      1  O   UNL     1      -8.310   4.347  -2.893  1.00  0.00    -0.490 OA
ENDROOT
BRANCH   1   2
ATOM      2  C   UNL     1      -7.320   3.419  -2.979  1.00  0.00     0.155 A 
ATOM      3  C   UNL     1      -6.588   1.131  -2.874  1.00  0.00     0.063 A 
ATOM      4  C   UNL     1      -5.284   1.539  -3.168  1.00  0.00     0.019 A 
ATOM      5  C   UNL     1      -7.607   2.082  -2.781  1.00  0.00     0.065 A 
ATOM      6  C   UNL     1      -5.009   2.875  -3.370  1.00  0.00     0.044 A 
ATOM      7  C   UNL     1      -6.021   3.815  -3.281  1.00  0.00     0.165 A 
ATOM      8  F   UNL     1      -5.745   5.123  -3.480  1.00  0.00    -0.203 F 
BRANCH   3   9
ATOM      9  C   UNL     1      -6.887  -0.298  -2.658  1.00  0.00     0.335 C 
ATOM     10  O   UNL     1      -7.941  -0.629  -2.155  1.00  0.00    -0.246 OA
BRANCH   9  11
ATOM     11  O   UNL     1      -5.992  -1.236  -3.025  1.00  0.00    -0.478 OA
ATOM     12  H   UNL     1      -5.200  -0.929  -3.489  1.00  0.00     0.297 HD
ENDBRANCH   9  11
ENDBRANCH   3   9
ENDBRANCH   1   2
BRANCH   1  13
ATOM     13  C   UNL     1      -8.596   5.102  -4.074  1.00  0.00     0.230 C 
BRANCH  13  14
ATOM     14  C   UNL     1      -9.916   4.621  -4.678  1.00  0.00     0.046 C 
BRANCH  14  15
ATOM     15  C   UNL     1      -9.686   4.188  -6.127  1.00  0.00     0.043 C 
BRANCH  15  16
ATOM     16  C   UNL     1      -9.520   2.692  -6.185  1.00  0.00    -0.004 A 
ATOM     17  C   UNL     1      -8.354   2.026  -6.354  1.00  0.00     0.036 A 
ATOM     18  C   UNL     1     -10.543   1.745  -6.068  1.00  0.00     0.063 A 
ATOM     19  N   UNL     1      -8.631   0.705  -6.350  1.00  0.00    -0.282 N 
ATOM     20  N   UNL     1     -10.013   0.554  -6.173  1.00  0.00    -0.181 NA
ATOM     21  C   UNL     1      -6.992   2.648  -6.516  1.00  0.00     0.066 C 
ATOM     22  C   UNL     1     -12.007   2.046  -5.867  1.00  0.00     0.069 C 
ATOM     23  H   UNL     1      -7.987  -0.013  -6.452  1.00  0.00     0.190 HD
ENDBRANCH  15  16
ENDBRANCH  14  15
ENDBRANCH  13  14
ENDBRANCH   1  13
TORSDOF 7
ENDMDL
MODEL 3
REMARK VINA RESULT:    -2.861      2.709      5.274
REMARK INTER + INTRA:          -5.192
REMARK INTER:                  -3.614
REMARK INTRA:                  -1.578
REMARK UNBOUND:                -1.244
REMARK SMILES Cc1n[nH]c(C)c1CCCOc1cc(C(=O)O)ccc1F
REMARK SMILES IDX 11 1 12 2 14 3 18 4 13 5 19 6 20 7 21 8 15 9 16 10 17 11
REMARK SMILES IDX 10 13 9 14 8 15 7 16 5 17 2 18 4 19 3 20 6 21 1 22
REMARK H PARENT 17 12 4 23
ROOT
ATOM      1  O   UNL     1      -8.051   0.576  -6.197  1.00  0.00    -0.490 OA
ENDROOT
BRANCH   1   2
ATOM      2  C   UNL     1      -9.055   1.491  -6.151  1.00  0.00     0.155 A 
ATOM      3  C   UNL     1     -11.370   2.035  -5.789  1.00  0.00     0.063 A 
ATOM      4  C   UNL     1     -11.091   3.379  -6.051  1.00  0.00     0.019 A 
ATOM      5  C   UNL     1     -10.342   1.091  -5.841  1.00  0.00     0.065 A 
ATOM      6  C   UNL     1      -9.804   3.770  -6.354  1.00  0.00     0.044 A 
ATOM      7  C   UNL     1      -8.785   2.832  -6.399  1.00  0.00     0.165 A 
ATOM      8  F   UNL     1      -7.525   3.222  -6.696  1.00  0.00    -0.203 F 
BRANCH   3   9
ATOM      9  C   UNL     1     -12.747   1.613  -5.465  1.00  0.00     0.335 C 
ATOM     10  O   UNL     1     -13.009   1.195  -4.356  1.00  0.00    -0.246 OA
BRANCH   9  11
ATOM     11  O   UNL     1     -13.714   1.699  -6.399  1.00  0.00    -0.478 OA
ATOM     12  H   UNL     1     -14.132   0.871  -6.676  1.00  0.00     0.297 HD
ENDBRANCH   9  11
ENDBRANCH   3   9
ENDBRANCH   1   2
BRANCH   1  13
ATOM     13  C   UNL     1      -7.391   0.275  -4.965  1.00  0.00     0.230 C 
BRANCH  13  14
ATOM     14  C   UNL     1      -6.135   1.138  -4.837  1.00  0.00     0.046 C 
BRANCH  14  15
ATOM     15  C   UNL     1      -6.029   1.675  -3.407  1.00  0.00     0.043 C 
BRANCH  15  16
ATOM     16  C   UNL     1      -6.770   2.983  -3.305  1.00  0.00    -0.004 A 
ATOM     17  C   UNL     1      -8.037   3.147  -2.857  1.00  0.00     0.036 A 
ATOM     18  C   UNL     1      -6.269   4.242  -3.649  1.00  0.00     0.063 A 
ATOM     19  N   UNL     1      -8.329   4.463  -2.923  1.00  0.00    -0.282 N 
ATOM     20  N   UNL     1      -7.204   5.130  -3.427  1.00  0.00    -0.181 NA
ATOM     21  C   UNL     1      -8.956   2.057  -2.373  1.00  0.00     0.066 C 
ATOM     22  C   UNL     1      -4.892   4.527  -4.194  1.00  0.00     0.069 C 
ATOM     23  H   UNL     1      -9.168   4.875  -2.666  1.00  0.00     0.190 HD
ENDBRANCH  15  16
ENDBRANCH  14  15
ENDBRANCH  13  14
ENDBRANCH   1  13
TORSDOF 7
ENDMDL
MODEL 4
REMARK VINA RESULT:    -2.775      3.046      5.549
REMARK INTER + INTRA:          -5.073
REMARK INTER:                  -3.504
REMARK INTRA:                  -1.570
REMARK UNBOUND:                -1.244
REMARK SMILES Cc1n[nH]c(C)c1CCCOc1cc(C(=O)O)ccc1F
REMARK SMILES IDX 11 1 12 2 14 3 18 4 13 5 19 6 20 7 21 8 15 9 16 10 17 11
REMARK SMILES IDX 10 13 9 14 8 15 7 16 5 17 2 18 4 19 3 20 6 21 1 22
REMARK H PARENT 17 12 4 23
ROOT
ATOM      1  O   UNL     1      -8.927   4.348  -3.944  1.00  0.00    -0.490 OA
ENDROOT
BRANCH   1   2
ATOM      2  C   UNL     1      -9.421   3.690  -5.026  1.00  0.00     0.155 A 
ATOM      3  C   UNL     1      -9.965   3.637  -7.368  1.00  0.00     0.063 A 
ATOM      4  C   UNL     1     -10.423   2.324  -7.228  1.00  0.00     0.019 A 
ATOM      5  C   UNL     1      -9.462   4.317  -6.257  1.00  0.00     0.065 A 
ATOM      6  C   UNL     1     -10.372   1.704  -5.997  1.00  0.00     0.044 A 
ATOM      7  C   UNL     1      -9.869   2.379  -4.898  1.00  0.00     0.165 A 
ATOM      8  F   UNL     1      -9.821   1.766  -3.695  1.00  0.00    -0.203 F 
BRANCH   3   9
ATOM      9  C   UNL     1     -10.018   4.303  -8.684  1.00  0.00     0.335 C 
ATOM     10  O   UNL     1      -8.989   4.599  -9.257  1.00  0.00    -0.246 OA
BRANCH   9  11
ATOM     11  O   UNL     1     -11.208   4.577  -9.252  1.00  0.00    -0.478 OA
ATOM     12  H   UNL     1     -11.268   4.485 -10.214  1.00  0.00     0.297 HD
ENDBRANCH   9  11
ENDBRANCH   3   9
ENDBRANCH   1   2
BRANCH   1  13
ATOM     13  C   UNL     1      -7.513   4.292  -3.740  1.00  0.00     0.230 C 
BRANCH  13  14
ATOM     14  C   UNL     1      -7.184   3.165  -2.759  1.00  0.00     0.046 C 
BRANCH  14  15
ATOM     15  C   UNL     1      -5.965   2.390  -3.264  1.00  0.00     0.043 C 
BRANCH  15  16
ATOM     16  C   UNL     1      -6.417   1.281  -4.179  1.00  0.00    -0.004 A 
ATOM     17  C   UNL     1      -6.459   1.332  -5.531  1.00  0.00     0.036 A 
ATOM     18  C   UNL     1      -6.862   0.016  -3.782  1.00  0.00     0.063 A 
ATOM     19  N   UNL     1      -6.920   0.143  -5.973  1.00  0.00    -0.282 N 
ATOM     20  N   UNL     1      -7.171  -0.665  -4.856  1.00  0.00    -0.181 NA
ATOM     21  C   UNL     1      -6.061   2.505  -6.388  1.00  0.00     0.066 C 
ATOM     22  C   UNL     1      -6.979  -0.474  -2.362  1.00  0.00     0.069 C 
ATOM     23  H   UNL     1      -7.056  -0.107  -6.900  1.00  0.00     0.190 HD
ENDBRANCH  15  16
ENDBRANCH  14  15
ENDBRANCH  13  14
ENDBRANCH   1  13
TORSDOF 7
ENDMDL
MODEL 5
REMARK VINA RESULT:    -2.626      2.691      5.325
REMARK INTER + INTRA:          -4.868
REMARK INTER:                  -3.298
REMARK INTRA:                  -1.569
REMARK UNBOUND:                -1.244
REMARK SMILES Cc1n[nH]c(C)c1CCCOc1cc(C(=O)O)ccc1F
REMARK SMILES IDX 11 1 12 2 14 3 18 4 13 5 19 6 20 7 21 8 15 9 16 10 17 11
REMARK SMILES IDX 10 13 9 14 8 15 7 16 5 17 2 18 4 19 3 20 6 21 1 22
REMARK H PARENT 17 12 4 23
ROOT
ATOM      1  O   UNL     1      -8.049   0.547  -6.159  1.00  0.00    -0.490 OA
ENDROOT
BRANCH   1   2
ATOM      2  C   UNL     1      -9.050   1.466  -6.141  1.00  0.00     0.155 A 
ATOM      3  C   UNL     1     -11.364   2.026  -5.807  1.00  0.00     0.063 A 
ATOM      4  C   UNL     1     -11.080   3.362  -6.101  1.00  0.00     0.019 A 
ATOM      5  C   UNL     1     -10.339   1.078  -5.829  1.00  0.00     0.065 A 
ATOM      6  C   UNL     1      -9.789   3.741  -6.406  1.00  0.00     0.044 A 
ATOM      7  C   UNL     1      -8.774   2.800  -6.422  1.00  0.00     0.165 A 
ATOM      8  F   UNL     1      -7.511   3.177  -6.722  1.00  0.00    -0.203 F 
BRANCH   3   9
ATOM      9  C   UNL     1     -12.744   1.617  -5.479  1.00  0.00     0.335 C 
ATOM     10  O   UNL     1     -13.620   1.712  -6.315  1.00  0.00    -0.246 OA
BRANCH   9  11
ATOM     11  O   UNL     1     -13.031   1.133  -4.255  1.00  0.00    -0.478 OA
ATOM     12  H   UNL     1     -12.382   0.538  -3.855  1.00  0.00     0.297 HD
ENDBRANCH   9  11
ENDBRANCH   3   9
ENDBRANCH   1   2
BRANCH   1  13
ATOM     13  C   UNL     1      -7.403   0.266  -4.914  1.00  0.00     0.230 C 
BRANCH  13  14
ATOM     14  C   UNL     1      -6.124   1.097  -4.806  1.00  0.00     0.046 C 
BRANCH  14  15
ATOM     15  C   UNL     1      -6.012   1.680  -3.396  1.00  0.00     0.043 C 
BRANCH  15  16
ATOM     16  C   UNL     1      -6.769   2.981  -3.327  1.00  0.00    -0.004 A 
ATOM     17  C   UNL     1      -6.300   4.196  -3.696  1.00  0.00     0.036 A 
ATOM     18  C   UNL     1      -8.083   3.146  -2.878  1.00  0.00     0.063 A 
ATOM     19  N   UNL     1      -7.280   5.098  -3.481  1.00  0.00    -0.282 N 
ATOM     20  N   UNL     1      -8.389   4.415  -2.963  1.00  0.00    -0.181 NA
ATOM     21  C   UNL     1      -4.928   4.488  -4.247  1.00  0.00     0.066 C 
ATOM     22  C   UNL     1      -8.988   2.051  -2.372  1.00  0.00     0.069 C 
ATOM     23  H   UNL     1      -7.226   6.051  -3.653  1.00  0.00     0.190 HD
ENDBRANCH  15  16
ENDBRANCH  14  15
ENDBRANCH  13  14
ENDBRANCH   1  13
TORSDOF 7
ENDMDL
MODEL 6
REMARK VINA RESULT:    -2.341      2.629      4.177
REMARK INTER + INTRA:          -4.475
REMARK INTER:                  -5.331
REMARK INTRA:                   0.855
REMARK UNBOUND:                -1.244
REMARK SMILES Cc1n[nH]c(C)c1CCCOc1cc(C(=O)O)ccc1F
REMARK SMILES IDX 11 1 12 2 14 3 18 4 13 5 19 6 20 7 21 8 15 9 16 10 17 11
REMARK SMILES IDX 10 13 9 14 8 15 7 16 5 17 2 18 4 19 3 20 6 21 1 22
REMARK H PARENT 17 12 4 23
ROOT
ATOM      1  O   UNL     1      -8.095   4.443  -3.307  1.00  0.00    -0.490 OA
ENDROOT
BRANCH   1   2
ATOM      2  C   UNL     1      -7.086   3.535  -3.229  1.00  0.00     0.155 A 
ATOM      3  C   UNL     1      -6.312   1.310  -2.748  1.00  0.00     0.063 A 
ATOM      4  C   UNL     1      -5.012   1.693  -3.086  1.00  0.00     0.019 A 
ATOM      5  C   UNL     1      -7.350   2.241  -2.822  1.00  0.00     0.065 A 
ATOM      6  C   UNL     1      -4.758   2.985  -3.496  1.00  0.00     0.044 A 
ATOM      7  C   UNL     1      -5.790   3.905  -3.574  1.00  0.00     0.165 A 
ATOM      8  F   UNL     1      -5.536   5.170  -3.977  1.00  0.00    -0.203 F 
BRANCH   3   9
ATOM      9  C   UNL     1      -6.587  -0.072  -2.309  1.00  0.00     0.335 C 
ATOM     10  O   UNL     1      -6.200  -0.453  -1.223  1.00  0.00    -0.246 OA
BRANCH   9  11
ATOM     11  O   UNL     1      -7.273  -0.909  -3.111  1.00  0.00    -0.478 OA
ATOM     12  H   UNL     1      -7.885  -1.525  -2.683  1.00  0.00     0.297 HD
ENDBRANCH   9  11
ENDBRANCH   3   9
ENDBRANCH   1   2
BRANCH   1  13
ATOM     13  C   UNL     1      -8.869   4.451  -4.510  1.00  0.00     0.230 C 
BRANCH  13  14
ATOM     14  C   UNL     1      -9.066   3.015  -4.997  1.00  0.00     0.046 C 
BRANCH  14  15
ATOM     15  C   UNL     1      -8.797   2.946  -6.502  1.00  0.00     0.043 C 
BRANCH  15  16
ATOM     16  C   UNL     1     -10.051   3.307  -7.255  1.00  0.00    -0.004 A 
ATOM     17  C   UNL     1     -10.121   4.092  -8.355  1.00  0.00     0.036 A 
ATOM     18  C   UNL     1     -11.348   2.886  -6.944  1.00  0.00     0.063 A 
ATOM     19  N   UNL     1     -11.417   4.170  -8.723  1.00  0.00    -0.282 N 
ATOM     20  N   UNL     1     -12.169   3.408  -7.819  1.00  0.00    -0.181 NA
ATOM     21  C   UNL     1      -8.960   4.758  -9.046  1.00  0.00     0.066 C 
ATOM     22  C   UNL     1     -11.736   1.995  -5.791  1.00  0.00     0.069 C 
ATOM     23  H   UNL     1     -11.767   4.667  -9.479  1.00  0.00     0.190 HD
ENDBRANCH  15  16
ENDBRANCH  14  15
ENDBRANCH  13  14
ENDBRANCH   1  13
TORSDOF 7
ENDMDL
MODEL 7
REMARK VINA RESULT:    -2.316      3.010      4.501
REMARK INTER + INTRA:          -4.440
REMARK INTER:                  -3.733
REMARK INTRA:                  -0.707
REMARK UNBOUND:                -1.244
REMARK SMILES Cc1n[nH]c(C)c1CCCOc1cc(C(=O)O)ccc1F
REMARK SMILES IDX 11 1 12 2 14 3 18 4 13 5 19 6 20 7 21 8 15 9 16 10 17 11
REMARK SMILES IDX 10 13 9 14 8 15 7 16 5 17 2 18 4 19 3 20 6 21 1 22
REMARK H PARENT 17 12 4 23
ROOT
ATOM      1  O   UNL     1      -7.976   2.879  -6.139  1.00  0.00    -0.490 OA
ENDROOT
BRANCH   1   2
ATOM      2  C   UNL     1      -7.207   2.477  -5.093  1.00  0.00     0.155 A 
ATOM      3  C   UNL     1      -6.630   0.833  -3.436  1.00  0.00     0.063 A 
ATOM      4  C   UNL     1      -5.616   1.671  -2.963  1.00  0.00     0.019 A 
ATOM      5  C   UNL     1      -7.426   1.245  -4.507  1.00  0.00     0.065 A 
ATOM      6  C   UNL     1      -5.401   2.896  -3.558  1.00  0.00     0.044 A 
ATOM      7  C   UNL     1      -6.188   3.300  -4.623  1.00  0.00     0.165 A 
ATOM      8  F   UNL     1      -5.972   4.502  -5.202  1.00  0.00    -0.203 F 
BRANCH   3   9
ATOM      9  C   UNL     1      -6.863  -0.479  -2.801  1.00  0.00     0.335 C 
ATOM     10  O   UNL     1      -7.845  -0.654  -2.109  1.00  0.00    -0.246 OA
BRANCH   9  11
ATOM     11  O   UNL     1      -5.988  -1.485  -2.996  1.00  0.00    -0.478 OA
ATOM     12  H   UNL     1      -5.675  -1.627  -3.900  1.00  0.00     0.297 HD
ENDBRANCH   9  11
ENDBRANCH   3   9
ENDBRANCH   1   2
BRANCH   1  13
ATOM     13  C   UNL     1      -9.363   3.105  -5.875  1.00  0.00     0.230 C 
BRANCH  13  14
ATOM     14  C   UNL     1     -10.128   3.181  -7.197  1.00  0.00     0.046 C 
BRANCH  14  15
ATOM     15  C   UNL     1     -10.181   4.635  -7.673  1.00  0.00     0.043 C 
BRANCH  15  16
ATOM     16  C   UNL     1     -10.168   4.672  -9.179  1.00  0.00    -0.004 A 
ATOM     17  C   UNL     1      -9.067   4.654  -9.967  1.00  0.00     0.036 A 
ATOM     18  C   UNL     1     -11.291   4.724 -10.011  1.00  0.00     0.063 A 
ATOM     19  N   UNL     1      -9.480   4.700 -11.251  1.00  0.00    -0.282 N 
ATOM     20  N   UNL     1     -10.880   4.749 -11.253  1.00  0.00    -0.181 NA
ATOM     21  C   UNL     1      -7.638   4.592  -9.494  1.00  0.00     0.066 C 
ATOM     22  C   UNL     1     -12.728   4.760  -9.555  1.00  0.00     0.069 C 
ATOM     23  H   UNL     1      -8.908   4.701 -12.034  1.00  0.00     0.190 HD
ENDBRANCH  15  16
ENDBRANCH  14  15
ENDBRANCH  13  14
ENDBRANCH   1  13
TORSDOF 7
ENDMDL
MODEL 8
REMARK VINA RESULT:    -2.225      2.978      3.224
REMARK INTER + INTRA:          -4.314
REMARK INTER:                  -3.691
REMARK INTRA:                  -0.623
REMARK UNBOUND:                -1.244
REMARK SMILES Cc1n[nH]c(C)c1CCCOc1cc(C(=O)O)ccc1F
REMARK SMILES IDX 11 1 12 2 14 3 18 4 13 5 19 6 20 7 21 8 15 9 16 10 17 11
REMARK SMILES IDX 10 13 9 14 8 15 7 16 5 17 2 18 4 19 3 20 6 21 1 22
REMARK H PARENT 17 12 4 23
ROOT
ATOM      1  O   UNL     1      -9.290   1.773  -4.264  1.00  0.00    -0.490 OA
ENDROOT
BRANCH   1   2
ATOM      2  C   UNL     1      -8.007   1.924  -3.839  1.00  0.00     0.155 A 
ATOM      3  C   UNL     1      -6.018   3.260  -3.640  1.00  0.00     0.063 A 
ATOM      4  C   UNL     1      -5.391   2.217  -2.953  1.00  0.00     0.019 A 
ATOM      5  C   UNL     1      -7.333   3.106  -4.083  1.00  0.00     0.065 A 
ATOM      6  C   UNL     1      -6.073   1.044  -2.709  1.00  0.00     0.044 A 
ATOM      7  C   UNL     1      -7.380   0.896  -3.145  1.00  0.00     0.165 A 
ATOM      8  F   UNL     1      -8.043  -0.256  -2.902  1.00  0.00    -0.203 F 
BRANCH   3   9
ATOM      9  C   UNL     1      -5.290   4.517  -3.903  1.00  0.00     0.335 C 
ATOM     10  O   UNL     1      -4.998   4.824  -5.040  1.00  0.00    -0.246 OA
BRANCH   9  11
ATOM     11  O   UNL     1      -4.956   5.328  -2.879  1.00  0.00    -0.478 OA
ATOM     12  H   UNL     1      -5.048   4.968  -1.986  1.00  0.00     0.297 HD
ENDBRANCH   9  11
ENDBRANCH   3   9
ENDBRANCH   1   2
BRANCH   1  13
ATOM     13  C   UNL     1      -9.570   2.128  -5.621  1.00  0.00     0.230 C 
BRANCH  13  14
ATOM     14  C   UNL     1     -11.049   2.492  -5.757  1.00  0.00     0.046 C 
BRANCH  14  15
ATOM     15  C   UNL     1     -11.860   1.229  -6.052  1.00  0.00     0.043 C 
BRANCH  15  16
ATOM     16  C   UNL     1     -13.252   1.383  -5.496  1.00  0.00    -0.004 A 
ATOM     17  C   UNL     1     -13.612   1.245  -4.199  1.00  0.00     0.036 A 
ATOM     18  C   UNL     1     -14.400   1.702  -6.229  1.00  0.00     0.063 A 
ATOM     19  N   UNL     1     -14.941   1.461  -4.115  1.00  0.00    -0.282 N 
ATOM     20  N   UNL     1     -15.414   1.742  -5.403  1.00  0.00    -0.181 NA
ATOM     21  C   UNL     1     -12.692   0.909  -3.054  1.00  0.00     0.066 C 
ATOM     22  C   UNL     1     -14.461   1.944  -7.715  1.00  0.00     0.069 C 
ATOM     23  H   UNL     1     -15.475   1.427  -3.306  1.00  0.00     0.190 HD
ENDBRANCH  15  16
ENDBRANCH  14  15
ENDBRANCH  13  14
ENDBRANCH   1  13
TORSDOF 7
ENDMDL
MODEL 9
REMARK VINA RESULT:    -2.172      2.408      3.501
REMARK INTER + INTRA:          -4.242
REMARK INTER:                  -3.567
REMARK INTRA:                  -0.675
REMARK UNBOUND:                -1.244
REMARK SMILES Cc1n[nH]c(C)c1CCCOc1cc(C(=O)O)ccc1F
REMARK SMILES IDX 11 1 12 2 14 3 18 4 13 5 19 6 20 7 21 8 15 9 16 10 17 11
REMARK SMILES IDX 10 13 9 14 8 15 7 16 5 17 2 18 4 19 3 20 6 21 1 22
REMARK H PARENT 17 12 4 23
ROOT
ATOM      1  O   UNL     1      -8.412   2.069  -6.035  1.00  0.00    -0.490 OA
ENDROOT
BRANCH   1   2
ATOM      2  C   UNL     1      -7.420   2.063  -5.104  1.00  0.00     0.155 A 
ATOM      3  C   UNL     1      -5.617   3.177  -3.968  1.00  0.00     0.063 A 
ATOM      4  C   UNL     1      -5.407   2.034  -3.190  1.00  0.00     0.019 A 
ATOM      5  C   UNL     1      -6.631   3.185  -4.928  1.00  0.00     0.065 A 
ATOM      6  C   UNL     1      -6.203   0.923  -3.369  1.00  0.00     0.044 A 
ATOM      7  C   UNL     1      -7.211   0.935  -4.319  1.00  0.00     0.165 A 
ATOM      8  F   UNL     1      -7.988  -0.158  -4.490  1.00  0.00    -0.203 F 
BRANCH   3   9
ATOM      9  C   UNL     1      -4.767   4.368  -3.778  1.00  0.00     0.335 C 
ATOM     10  O   UNL     1      -3.562   4.280  -3.898  1.00  0.00    -0.246 OA
BRANCH   9  11
ATOM     11  O   UNL     1      -5.329   5.556  -3.479  1.00  0.00    -0.478 OA
ATOM     12  H   UNL     1      -5.209   6.272  -4.118  1.00  0.00     0.297 HD
ENDBRANCH   9  11
ENDBRANCH   3   9
ENDBRANCH   1   2
BRANCH   1  13
ATOM     13  C   UNL     1      -9.424   3.069  -5.898  1.00  0.00     0.230 C 
BRANCH  13  14
ATOM     14  C   UNL     1     -10.205   3.187  -7.208  1.00  0.00     0.046 C 
BRANCH  14  15
ATOM     15  C   UNL     1     -10.190   4.642  -7.682  1.00  0.00     0.043 C 
BRANCH  15  16
ATOM     16  C   UNL     1     -10.189   4.680  -9.188  1.00  0.00    -0.004 A 
ATOM     17  C   UNL     1      -9.095   4.656  -9.984  1.00  0.00     0.036 A 
ATOM     18  C   UNL     1     -11.319   4.741 -10.011  1.00  0.00     0.063 A 
ATOM     19  N   UNL     1      -9.517   4.706 -11.265  1.00  0.00    -0.282 N 
ATOM     20  N   UNL     1     -10.917   4.764 -11.256  1.00  0.00    -0.181 NA
ATOM     21  C   UNL     1      -7.663   4.585  -9.523  1.00  0.00     0.066 C 
ATOM     22  C   UNL     1     -12.751   4.786  -9.544  1.00  0.00     0.069 C 
ATOM     23  H   UNL     1      -8.952   4.704 -12.053  1.00  0.00     0.190 HD
ENDBRANCH  15  16
ENDBRANCH  14  15
ENDBRANCH  13  14
ENDBRANCH   1  13
TORSDOF 7
ENDMDL
