MODEL 1
REMARK VINA RESULT:     0.135      0.000      0.000
REMARK INTER + INTRA:          -0.132
REMARK INTER:                   0.154
REMARK INTRA:                  -0.287
REMARK UNBOUND:                -0.287
REMARK SMILES O=C(O)c1ccc2nc(-c3cc(Cl)cc(Cl)c3)oc2c1
REMARK SMILES IDX 5 1 6 2 20 3 8 4 18 5 4 6 9 7 7 8 19 9 2 10 1 11 3 12 10 14
REMARK SMILES IDX 11 15 17 16 12 17 15 18 14 19 13 20 16 21
REMARK H PARENT 3 13
ROOT
ATOM      1  C   UNL     1      -7.541   1.740  -2.346  1.00  0.00     0.018 A 
ATOM      2  C   UNL     1      -8.091   2.819  -2.971  1.00  0.00     0.033 A 
ATOM      3  C   UNL     1      -7.547   0.500  -4.430  1.00  0.00     0.065 A 
ATOM      4  N   UNL     1      -8.916   3.645  -5.211  1.00  0.00    -0.209 NA
ATOM      5  O   UNL     1      -8.494   1.834  -6.340  1.00  0.00    -0.436 OA
ATOM      6  C   UNL     1      -7.260   0.570  -3.066  1.00  0.00     0.063 A 
ATOM      7  C   UNL     1      -8.978   3.089  -6.395  1.00  0.00     0.227 A 
ATOM      8  C   UNL     1      -8.383   2.763  -4.339  1.00  0.00     0.110 A 
ATOM      9  C   UNL     1      -8.110   1.591  -5.067  1.00  0.00     0.156 A 
ENDROOT
BRANCH   6  10
ATOM     10  C   UNL     1      -6.660  -0.589  -2.381  1.00  0.00     0.335 C 
ATOM     11  O   UNL     1      -6.215  -0.466  -1.257  1.00  0.00    -0.246 OA
BRANCH  10  12
ATOM     12  O   UNL     1      -6.603  -1.784  -3.001  1.00  0.00    -0.478 OA
ATOM     13  H   UNL     1      -6.209  -1.803  -3.883  1.00  0.00     0.297 HD
ENDBRANCH  10  12
ENDBRANCH   6  10
BRANCH   7  14
ATOM     14  C   UNL     1      -9.504   3.743  -7.612  1.00  0.00     0.040 A 
ATOM     15  C   UNL     1     -10.878   3.772  -7.854  1.00  0.00     0.034 A 
ATOM     16  C   UNL     1      -8.627   4.333  -8.524  1.00  0.00     0.034 A 
ATOM     17  C   UNL     1     -11.363   4.385  -8.992  1.00  0.00     0.043 A 
ATOM     18  C   UNL     1      -9.124   4.943  -9.658  1.00  0.00     0.043 A 
ATOM     19  C   UNL     1     -10.488   4.969  -9.893  1.00  0.00     0.041 A 
ATOM     20  Cl  UNL     1     -13.071   4.424  -9.295  1.00  0.00    -0.084 Cl
ATOM     21  Cl  UNL     1      -8.035   5.677 -10.794  1.00  0.00    -0.084 Cl
ENDBRANCH   7  14
TORSDOF 3
ENDMDL
MODEL 2
REMARK VINA RESULT:     0.154      0.019      2.020
REMARK INTER + INTRA:          -0.111
REMARK INTER:                   0.176
REMARK INTRA:                  -0.287
REMARK UNBOUND:                -0.287
REMARK SMILES O=C(O)c1ccc2nc(-c3cc(Cl)cc(Cl)c3)oc2c1
REMARK SMILES IDX 5 1 6 2 20 3 8 4 18 5 4 6 9 7 7 8 19 9 2 10 1 11 3 12 10 14
REMARK SMILES IDX 11 15 17 16 12 17 15 18 14 19 13 20 16 21
REMARK H PARENT 3 13
ROOT
ATOM      1  C   UNL     1      -7.548   1.749  -2.351  1.00  0.00     0.018 A 
ATOM      2  C   UNL     1      -8.093   2.828  -2.979  1.00  0.00     0.033 A 
ATOM      3  C   UNL     1      -7.568   0.499  -4.429  1.00  0.00     0.065 A 
ATOM      4  N   UNL     1      -8.920   3.649  -5.221  1.00  0.00    -0.209 NA
ATOM      5  O   UNL     1      -8.512   1.829  -6.342  1.00  0.00    -0.436 OA
ATOM      6  C   UNL     1      -7.277   0.574  -3.065  1.00  0.00     0.063 A 
ATOM      7  C   UNL     1      -8.989   3.087  -6.402  1.00  0.00     0.227 A 
ATOM      8  C   UNL     1      -8.390   2.767  -4.346  1.00  0.00     0.110 A 
ATOM      9  C   UNL     1      -8.126   1.590  -5.069  1.00  0.00     0.156 A 
ENDROOT
BRANCH   6  10
ATOM     10  C   UNL     1      -6.682  -0.585  -2.376  1.00  0.00     0.335 C 
ATOM     11  O   UNL     1      -6.235  -0.461  -1.253  1.00  0.00    -0.246 OA
BRANCH  10  12
ATOM     12  O   UNL     1      -6.631  -1.783  -2.992  1.00  0.00    -0.478 OA
ATOM     13  H   UNL     1      -5.873  -2.348  -2.793  1.00  0.00     0.297 HD
ENDBRANCH  10  12
ENDBRANCH   6  10
BRANCH   7  14
ATOM     14  C   UNL     1      -9.514   3.738  -7.620  1.00  0.00     0.040 A 
ATOM     15  C   UNL     1      -8.638   4.322  -8.536  1.00  0.00     0.034 A 
ATOM     16  C   UNL     1     -10.889   3.772  -7.859  1.00  0.00     0.034 A 
ATOM     17  C   UNL     1      -9.135   4.928  -9.673  1.00  0.00     0.043 A 
ATOM     18  C   UNL     1     -11.374   4.380  -8.999  1.00  0.00     0.043 A 
ATOM     19  C   UNL     1     -10.500   4.958  -9.904  1.00  0.00     0.041 A 
ATOM     20  Cl  UNL     1      -8.047   5.655 -10.814  1.00  0.00    -0.084 Cl
ATOM     21  Cl  UNL     1     -13.084   4.423  -9.298  1.00  0.00    -0.084 Cl
ENDBRANCH   7  14
TORSDOF 3
ENDMDL
MODEL 3
REMARK VINA RESULT:     0.179      3.719      4.892
REMARK INTER + INTRA:          -0.082
REMARK INTER:                   0.205
REMARK INTRA:                  -0.286
REMARK UNBOUND:                -0.287
REMARK SMILES O=C(O)c1ccc2nc(-c3cc(Cl)cc(Cl)c3)oc2c1
REMARK SMILES IDX 5 1 6 2 20 3 8 4 18 5 4 6 9 7 7 8 19 9 2 10 1 11 3 12 10 14
REMARK SMILES IDX 11 15 17 16 12 17 15 18 14 19 13 20 16 21
REMARK H PARENT 3 13
ROOT
ATOM      1  C   UNL     1      -5.546   2.463  -5.014  1.00  0.00     0.018 A 
ATOM      2  C   UNL     1      -6.544   1.652  -5.462  1.00  0.00     0.033 A 
ATOM      3  C   UNL     1      -7.178   4.033  -4.148  1.00  0.00     0.065 A 
ATOM      4  N   UNL     1      -9.058   1.431  -5.587  1.00  0.00    -0.209 NA
ATOM      5  O   UNL     1      -9.543   3.290  -4.567  1.00  0.00    -0.436 OA
ATOM      6  C   UNL     1      -5.848   3.661  -4.351  1.00  0.00     0.063 A 
ATOM      7  C   UNL     1     -10.038   2.193  -5.170  1.00  0.00     0.227 A 
ATOM      8  C   UNL     1      -7.882   2.013  -5.265  1.00  0.00     0.110 A 
ATOM      9  C   UNL     1      -8.194   3.215  -4.606  1.00  0.00     0.156 A 
ENDROOT
BRANCH   6  10
ATOM     10  C   UNL     1      -4.760   4.528  -3.866  1.00  0.00     0.335 C 
ATOM     11  O   UNL     1      -3.614   4.124  -3.870  1.00  0.00    -0.246 OA
BRANCH  10  12
ATOM     12  O   UNL     1      -5.035   5.769  -3.416  1.00  0.00    -0.478 OA
ATOM     13  H   UNL     1      -4.723   6.510  -3.953  1.00  0.00     0.297 HD
ENDBRANCH  10  12
ENDBRANCH   6  10
BRANCH   7  14
ATOM     14  C   UNL     1     -11.475   1.892  -5.338  1.00  0.00     0.040 A 
ATOM     15  C   UNL     1     -12.189   1.285  -4.304  1.00  0.00     0.034 A 
ATOM     16  C   UNL     1     -12.123   2.213  -6.532  1.00  0.00     0.034 A 
ATOM     17  C   UNL     1     -13.532   1.007  -4.467  1.00  0.00     0.043 A 
ATOM     18  C   UNL     1     -13.466   1.931  -6.683  1.00  0.00     0.043 A 
ATOM     19  C   UNL     1     -14.169   1.328  -5.654  1.00  0.00     0.041 A 
ATOM     20  Cl  UNL     1     -14.423   0.253  -3.182  1.00  0.00    -0.084 Cl
ATOM     21  Cl  UNL     1     -14.274   2.330  -8.167  1.00  0.00    -0.084 Cl
ENDBRANCH   7  14
TORSDOF 3
ENDMDL
MODEL 4
REMARK VINA RESULT:     0.183      3.721      5.047
REMARK INTER + INTRA:          -0.076
REMARK INTER:                   0.210
REMARK INTRA:                  -0.287
REMARK UNBOUND:                -0.287
REMARK SMILES O=C(O)c1ccc2nc(-c3cc(Cl)cc(Cl)c3)oc2c1
REMARK SMILES IDX 5 1 6 2 20 3 8 4 18 5 4 6 9 7 7 8 19 9 2 10 1 11 3 12 10 14
REMARK SMILES IDX 11 15 17 16 12 17 15 18 14 19 13 20 16 21
REMARK H PARENT 3 13
ROOT
ATOM      1  C   UNL     1      -5.545   2.469  -5.026  1.00  0.00     0.018 A 
ATOM      2  C   UNL     1      -6.543   1.658  -5.477  1.00  0.00     0.033 A 
ATOM      3  C   UNL     1      -7.178   4.030  -4.145  1.00  0.00     0.065 A 
ATOM      4  N   UNL     1      -9.057   1.435  -5.596  1.00  0.00    -0.209 NA
ATOM      5  O   UNL     1      -9.542   3.286  -4.562  1.00  0.00    -0.436 OA
ATOM      6  C   UNL     1      -5.848   3.662  -4.354  1.00  0.00     0.063 A 
ATOM      7  C   UNL     1     -10.037   2.192  -5.171  1.00  0.00     0.227 A 
ATOM      8  C   UNL     1      -7.882   2.016  -5.274  1.00  0.00     0.110 A 
ATOM      9  C   UNL     1      -8.194   3.213  -4.605  1.00  0.00     0.156 A 
ENDROOT
BRANCH   6  10
ATOM     10  C   UNL     1      -4.759   4.527  -3.865  1.00  0.00     0.335 C 
ATOM     11  O   UNL     1      -3.613   4.123  -3.870  1.00  0.00    -0.246 OA
BRANCH  10  12
ATOM     12  O   UNL     1      -5.034   5.767  -3.413  1.00  0.00    -0.478 OA
ATOM     13  H   UNL     1      -4.521   6.082  -2.657  1.00  0.00     0.297 HD
ENDBRANCH  10  12
ENDBRANCH   6  10
BRANCH   7  14
ATOM     14  C   UNL     1     -11.474   1.890  -5.337  1.00  0.00     0.040 A 
ATOM     15  C   UNL     1     -12.125   2.211  -6.529  1.00  0.00     0.034 A 
ATOM     16  C   UNL     1     -12.186   1.282  -4.301  1.00  0.00     0.034 A 
ATOM     17  C   UNL     1     -13.468   1.925  -6.678  1.00  0.00     0.043 A 
ATOM     18  C   UNL     1     -13.528   1.001  -4.462  1.00  0.00     0.043 A 
ATOM     19  C   UNL     1     -14.168   1.323  -5.647  1.00  0.00     0.041 A 
ATOM     20  Cl  UNL     1     -14.279   2.323  -8.159  1.00  0.00    -0.084 Cl
ATOM     21  Cl  UNL     1     -14.415   0.246  -3.175  1.00  0.00    -0.084 Cl
ENDBRANCH   7  14
TORSDOF 3
ENDMDL
MODEL 5
REMARK VINA RESULT:     0.220      4.201      8.156
REMARK INTER + INTRA:          -0.035
REMARK INTER:                   0.248
REMARK INTRA:                  -0.283
REMARK UNBOUND:                -0.287
REMARK SMILES O=C(O)c1ccc2nc(-c3cc(Cl)cc(Cl)c3)oc2c1
REMARK SMILES IDX 5 1 6 2 20 3 8 4 18 5 4 6 9 7 7 8 19 9 2 10 1 11 3 12 10 14
REMARK SMILES IDX 11 15 17 16 12 17 15 18 14 19 13 20 16 21
REMARK H PARENT 3 13
ROOT
ATOM      1  C   UNL     1     -10.258   4.755 -12.102  1.00  0.00     0.018 A 
ATOM      2  C   UNL     1      -9.298   4.242 -11.282  1.00  0.00     0.033 A 
ATOM      3  C   UNL     1     -11.765   5.008 -10.219  1.00  0.00     0.065 A 
ATOM      4  N   UNL     1      -8.816   3.635  -8.878  1.00  0.00    -0.209 NA
ATOM      5  O   UNL     1     -10.742   4.228  -8.058  1.00  0.00    -0.436 OA
ATOM      6  C   UNL     1     -11.500   5.146 -11.583  1.00  0.00     0.063 A 
ATOM      7  C   UNL     1      -9.529   3.715  -7.782  1.00  0.00     0.227 A 
ATOM      8  C   UNL     1      -9.550   4.098  -9.913  1.00  0.00     0.110 A 
ATOM      9  C   UNL     1     -10.795   4.483  -9.385  1.00  0.00     0.156 A 
ENDROOT
BRANCH   6  10
ATOM     10  C   UNL     1     -12.529   5.705 -12.478  1.00  0.00     0.335 C 
ATOM     11  O   UNL     1     -12.271   6.669 -13.171  1.00  0.00    -0.246 OA
BRANCH  10  12
ATOM     12  O   UNL     1     -13.755   5.148 -12.527  1.00  0.00    -0.478 OA
ATOM     13  H   UNL     1     -14.065   4.843 -13.390  1.00  0.00     0.297 HD
ENDBRANCH  10  12
ENDBRANCH   6  10
BRANCH   7  14
ATOM     14  C   UNL     1      -9.068   3.302  -6.440  1.00  0.00     0.040 A 
ATOM     15  C   UNL     1      -8.644   1.991  -6.217  1.00  0.00     0.034 A 
ATOM     16  C   UNL     1      -9.056   4.222  -5.389  1.00  0.00     0.034 A 
ATOM     17  C   UNL     1      -8.213   1.612  -4.961  1.00  0.00     0.043 A 
ATOM     18  C   UNL     1      -8.624   3.830  -4.138  1.00  0.00     0.043 A 
ATOM     19  C   UNL     1      -8.204   2.529  -3.924  1.00  0.00     0.041 A 
ATOM     20  Cl  UNL     1      -7.685  -0.018  -4.681  1.00  0.00    -0.084 Cl
ATOM     21  Cl  UNL     1      -8.608   4.973  -2.831  1.00  0.00    -0.084 Cl
ENDBRANCH   7  14
TORSDOF 3
ENDMDL
MODEL 6
REMARK VINA RESULT:     0.220      4.201      8.146
REMARK INTER + INTRA:          -0.035
REMARK INTER:                   0.248
REMARK INTRA:                  -0.283
REMARK UNBOUND:                -0.287
REMARK SMILES O=C(O)c1ccc2nc(-c3cc(Cl)cc(Cl)c3)oc2c1
REMARK SMILES IDX 5 1 6 2 20 3 8 4 18 5 4 6 9 7 7 8 19 9 2 10 1 11 3 12 10 14
REMARK SMILES IDX 11 15 17 16 12 17 15 18 14 19 13 20 16 21
REMARK H PARENT 3 13
ROOT
ATOM      1  C   UNL     1     -10.257   4.758 -12.101  1.00  0.00     0.018 A 
ATOM      2  C   UNL     1      -9.296   4.246 -11.281  1.00  0.00     0.033 A 
ATOM      3  C   UNL     1     -11.765   5.007 -10.219  1.00  0.00     0.065 A 
ATOM      4  N   UNL     1      -8.815   3.638  -8.877  1.00  0.00    -0.209 NA
ATOM      5  O   UNL     1     -10.743   4.228  -8.058  1.00  0.00    -0.436 OA
ATOM      6  C   UNL     1     -11.500   5.146 -11.582  1.00  0.00     0.063 A 
ATOM      7  C   UNL     1      -9.529   3.716  -7.781  1.00  0.00     0.227 A 
ATOM      8  C   UNL     1      -9.549   4.101  -9.911  1.00  0.00     0.110 A 
ATOM      9  C   UNL     1     -10.795   4.483  -9.384  1.00  0.00     0.156 A 
ENDROOT
BRANCH   6  10
ATOM     10  C   UNL     1     -12.529   5.704 -12.478  1.00  0.00     0.335 C 
ATOM     11  O   UNL     1     -12.272   6.667 -13.173  1.00  0.00    -0.246 OA
BRANCH  10  12
ATOM     12  O   UNL     1     -13.755   5.147 -12.526  1.00  0.00    -0.478 OA
ATOM     13  H   UNL     1     -14.507   5.748 -12.616  1.00  0.00     0.297 HD
ENDBRANCH  10  12
ENDBRANCH   6  10
BRANCH   7  14
ATOM     14  C   UNL     1      -9.068   3.303  -6.439  1.00  0.00     0.040 A 
ATOM     15  C   UNL     1      -9.055   4.222  -5.388  1.00  0.00     0.034 A 
ATOM     16  C   UNL     1      -8.643   1.992  -6.217  1.00  0.00     0.034 A 
ATOM     17  C   UNL     1      -8.624   3.829  -4.137  1.00  0.00     0.043 A 
ATOM     18  C   UNL     1      -8.215   1.611  -4.961  1.00  0.00     0.043 A 
ATOM     19  C   UNL     1      -8.204   2.527  -3.924  1.00  0.00     0.041 A 
ATOM     20  Cl  UNL     1      -8.608   4.970  -2.828  1.00  0.00    -0.084 Cl
ATOM     21  Cl  UNL     1      -7.686  -0.020  -4.684  1.00  0.00    -0.084 Cl
ENDBRANCH   7  14
TORSDOF 3
ENDMDL
MODEL 7
REMARK VINA RESULT:     0.390      2.419      3.634
REMARK INTER + INTRA:           0.160
REMARK INTER:                   0.449
REMARK INTRA:                  -0.289
REMARK UNBOUND:                -0.287
REMARK SMILES O=C(O)c1ccc2nc(-c3cc(Cl)cc(Cl)c3)oc2c1
REMARK SMILES IDX 5 1 6 2 20 3 8 4 18 5 4 6 9 7 7 8 19 9 2 10 1 11 3 12 10 14
REMARK SMILES IDX 11 15 17 16 12 17 15 18 14 19 13 20 16 21
REMARK H PARENT 3 13
ROOT
ATOM      1  C   UNL     1      -5.641   0.185  -1.939  1.00  0.00     0.018 A 
ATOM      2  C   UNL     1      -6.855  -0.043  -2.514  1.00  0.00     0.033 A 
ATOM      3  C   UNL     1      -5.426   2.269  -3.159  1.00  0.00     0.065 A 
ATOM      4  N   UNL     1      -8.526   0.928  -4.141  1.00  0.00    -0.209 NA
ATOM      5  O   UNL     1      -7.404   2.724  -4.642  1.00  0.00    -0.436 OA
ATOM      6  C   UNL     1      -4.912   1.341  -2.251  1.00  0.00     0.063 A 
ATOM      7  C   UNL     1      -8.534   2.024  -4.858  1.00  0.00     0.227 A 
ATOM      8  C   UNL     1      -7.381   0.880  -3.427  1.00  0.00     0.110 A 
ATOM      9  C   UNL     1      -6.655   2.040  -3.749  1.00  0.00     0.156 A 
ENDROOT
BRANCH   6  10
ATOM     10  C   UNL     1      -3.603   1.579  -1.618  1.00  0.00     0.335 C 
ATOM     11  O   UNL     1      -2.614   1.731  -2.306  1.00  0.00    -0.246 OA
BRANCH  10  12
ATOM     12  O   UNL     1      -3.502   1.628  -0.274  1.00  0.00    -0.478 OA
ATOM     13  H   UNL     1      -4.317   1.785   0.222  1.00  0.00     0.297 HD
ENDBRANCH  10  12
ENDBRANCH   6  10
BRANCH   7  14
ATOM     14  C   UNL     1      -9.622   2.431  -5.771  1.00  0.00     0.040 A 
ATOM     15  C   UNL     1      -9.369   3.332  -6.806  1.00  0.00     0.034 A 
ATOM     16  C   UNL     1     -10.909   1.916  -5.601  1.00  0.00     0.034 A 
ATOM     17  C   UNL     1     -10.391   3.708  -7.656  1.00  0.00     0.043 A 
ATOM     18  C   UNL     1     -11.922   2.298  -6.457  1.00  0.00     0.043 A 
ATOM     19  C   UNL     1     -11.664   3.193  -7.482  1.00  0.00     0.041 A 
ATOM     20  Cl  UNL     1     -10.078   4.828  -8.945  1.00  0.00    -0.084 Cl
ATOM     21  Cl  UNL     1     -13.522   1.658  -6.247  1.00  0.00    -0.084 Cl
ENDBRANCH   7  14
TORSDOF 3
ENDMDL
MODEL 8
REMARK VINA RESULT:     0.420      3.970      7.780
REMARK INTER + INTRA:           0.194
REMARK INTER:                   0.482
REMARK INTRA:                  -0.287
REMARK UNBOUND:                -0.287
REMARK SMILES O=C(O)c1ccc2nc(-c3cc(Cl)cc(Cl)c3)oc2c1
REMARK SMILES IDX 5 1 6 2 20 3 8 4 18 5 4 6 9 7 7 8 19 9 2 10 1 11 3 12 10 14
REMARK SMILES IDX 11 15 17 16 12 17 15 18 14 19 13 20 16 21
REMARK H PARENT 3 13
ROOT
ATOM      1  C   UNL     1     -11.676   4.792  -9.661  1.00  0.00     0.018 A 
ATOM      2  C   UNL     1     -11.485   4.462  -8.352  1.00  0.00     0.033 A 
ATOM      3  C   UNL     1      -9.365   4.254 -10.159  1.00  0.00     0.065 A 
ATOM      4  N   UNL     1      -9.745   3.636  -6.717  1.00  0.00    -0.209 NA
ATOM      5  O   UNL     1      -8.098   3.481  -8.130  1.00  0.00    -0.436 OA
ATOM      6  C   UNL     1     -10.622   4.690 -10.580  1.00  0.00     0.063 A 
ATOM      7  C   UNL     1      -8.482   3.315  -6.850  1.00  0.00     0.227 A 
ATOM      8  C   UNL     1     -10.228   4.023  -7.917  1.00  0.00     0.110 A 
ATOM      9  C   UNL     1      -9.165   3.923  -8.832  1.00  0.00     0.156 A 
ENDROOT
BRANCH   6  10
ATOM     10  C   UNL     1     -10.843   5.044 -11.994  1.00  0.00     0.335 C 
ATOM     11  O   UNL     1     -11.858   5.625 -12.323  1.00  0.00    -0.246 OA
BRANCH  10  12
ATOM     12  O   UNL     1      -9.920   4.721 -12.922  1.00  0.00    -0.478 OA
ATOM     13  H   UNL     1      -9.943   5.213 -13.753  1.00  0.00     0.297 HD
ENDBRANCH  10  12
ENDBRANCH   6  10
BRANCH   7  14
ATOM     14  C   UNL     1      -7.609   2.843  -5.756  1.00  0.00     0.040 A 
ATOM     15  C   UNL     1      -6.618   3.678  -5.239  1.00  0.00     0.034 A 
ATOM     16  C   UNL     1      -7.771   1.557  -5.237  1.00  0.00     0.034 A 
ATOM     17  C   UNL     1      -5.806   3.231  -4.216  1.00  0.00     0.043 A 
ATOM     18  C   UNL     1      -6.952   1.121  -4.214  1.00  0.00     0.043 A 
ATOM     19  C   UNL     1      -5.971   1.955  -3.705  1.00  0.00     0.041 A 
ATOM     20  Cl  UNL     1      -4.574   4.269  -3.571  1.00  0.00    -0.084 Cl
ATOM     21  Cl  UNL     1      -7.152  -0.478  -3.566  1.00  0.00    -0.084 Cl
ENDBRANCH   7  14
TORSDOF 3
ENDMDL
MODEL 9
REMARK VINA RESULT:     0.420      3.970      7.608
REMARK INTER + INTRA:           0.195
REMARK INTER:                   0.482
REMARK INTRA:                  -0.287
REMARK UNBOUND:                -0.287
REMARK SMILES O=C(O)c1ccc2nc(-c3cc(Cl)cc(Cl)c3)oc2c1
REMARK SMILES IDX 5 1 6 2 20 3 8 4 18 5 4 6 9 7 7 8 19 9 2 10 1 11 3 12 10 14
REMARK SMILES IDX 11 15 17 16 12 17 15 18 14 19 13 20 16 21
REMARK H PARENT 3 13
ROOT
ATOM      1  C   UNL     1     -11.676   4.792  -9.661  1.00  0.00     0.018 A 
ATOM      2  C   UNL     1     -11.485   4.463  -8.353  1.00  0.00     0.033 A 
ATOM      3  C   UNL     1      -9.365   4.252 -10.159  1.00  0.00     0.065 A 
ATOM      4  N   UNL     1      -9.747   3.636  -6.717  1.00  0.00    -0.209 NA
ATOM      5  O   UNL     1      -8.099   3.479  -8.129  1.00  0.00    -0.436 OA
ATOM      6  C   UNL     1     -10.622   4.690 -10.580  1.00  0.00     0.063 A 
ATOM      7  C   UNL     1      -8.484   3.314  -6.850  1.00  0.00     0.227 A 
ATOM      8  C   UNL     1     -10.229   4.023  -7.917  1.00  0.00     0.110 A 
ATOM      9  C   UNL     1      -9.166   3.922  -8.831  1.00  0.00     0.156 A 
ENDROOT
BRANCH   6  10
ATOM     10  C   UNL     1     -10.843   5.043 -11.994  1.00  0.00     0.335 C 
ATOM     11  O   UNL     1     -11.857   5.625 -12.324  1.00  0.00    -0.246 OA
BRANCH  10  12
ATOM     12  O   UNL     1      -9.920   4.719 -12.922  1.00  0.00    -0.478 OA
ATOM     13  H   UNL     1     -10.098   4.990 -13.832  1.00  0.00     0.297 HD
ENDBRANCH  10  12
ENDBRANCH   6  10
BRANCH   7  14
ATOM     14  C   UNL     1      -7.611   2.841  -5.755  1.00  0.00     0.040 A 
ATOM     15  C   UNL     1      -7.773   1.558  -5.234  1.00  0.00     0.034 A 
ATOM     16  C   UNL     1      -6.620   3.679  -5.239  1.00  0.00     0.034 A 
ATOM     17  C   UNL     1      -6.953   1.121  -4.212  1.00  0.00     0.043 A 
ATOM     18  C   UNL     1      -5.806   3.231  -4.217  1.00  0.00     0.043 A 
ATOM     19  C   UNL     1      -5.973   1.956  -3.704  1.00  0.00     0.041 A 
ATOM     20  Cl  UNL     1      -7.153  -0.476  -3.562  1.00  0.00    -0.084 Cl
ATOM     21  Cl  UNL     1      -4.573   4.270  -3.573  1.00  0.00    -0.084 Cl
ENDBRANCH   7  14
TORSDOF 3
ENDMDL
