MODEL 1
REMARK VINA RESULT:    -2.825      0.000      0.000
REMARK INTER + INTRA:          -5.117
REMARK INTER:                  -3.899
REMARK INTRA:                  -1.218
REMARK UNBOUND:                -1.218
REMARK SMILES Cc1n[nH]c(C)c1CCCOc1cc(C(=O)O)ccc1F
REMARK SMILES IDX 11 1 12 2 14 3 18 4 13 5 19 6 20 7 21 8 15 9 16 10 17 11
REMARK SMILES IDX 10 13 9 14 8 15 7 16 5 17 2 18 4 19 3 20 6 21 1 22
REMARK H PARENT 17 12 4 23
ROOT
ATOM      1  O   UNL     1       0.748   4.302   8.230  1.00  0.00    -0.490 OA
ENDROOT
BRANCH   1   2
ATOM      2  C   UNL     1       0.178   4.318   6.996  1.00  0.00     0.155 A 
ATOM      3  C   UNL     1      -1.779   4.379   5.600  1.00  0.00     0.063 A 
ATOM      4  C   UNL     1      -0.965   4.360   4.465  1.00  0.00     0.019 A 
ATOM      5  C   UNL     1      -1.198   4.358   6.870  1.00  0.00     0.065 A 
ATOM      6  C   UNL     1       0.407   4.326   4.600  1.00  0.00     0.044 A 
ATOM      7  C   UNL     1       0.981   4.310   5.860  1.00  0.00     0.165 A 
ATOM      8  F   UNL     1       2.326   4.276   5.986  1.00  0.00    -0.203 F 
BRANCH   3   9
ATOM      9  C   UNL     1      -3.248   4.416   5.459  1.00  0.00     0.335 C 
ATOM     10  O   UNL     1      -3.956   4.134   6.403  1.00  0.00    -0.246 OA
BRANCH   9  11
ATOM     11  O   UNL     1      -3.802   4.770   4.283  1.00  0.00    -0.478 OA
ATOM     12  H   UNL     1      -3.198   4.943   3.547  1.00  0.00     0.297 HD
ENDBRANCH   9  11
ENDBRANCH   3   9
ENDBRANCH   1   2
BRANCH   1  13
ATOM     13  C   UNL     1       1.571   5.417   8.579  1.00  0.00     0.230 C 
BRANCH  13  14
ATOM     14  C   UNL     1       0.828   6.306   9.578  1.00  0.00     0.046 C 
BRANCH  14  15
ATOM     15  C   UNL     1       0.700   7.720   9.007  1.00  0.00     0.043 C 
BRANCH  15  16
ATOM     16  C   UNL     1      -0.616   7.854   8.287  1.00  0.00    -0.004 A 
ATOM     17  C   UNL     1      -1.833   7.973   8.868  1.00  0.00     0.036 A 
ATOM     18  C   UNL     1      -0.797   7.885   6.900  1.00  0.00     0.063 A 
ATOM     19  N   UNL     1      -2.751   8.069   7.883  1.00  0.00    -0.282 N 
ATOM     20  N   UNL     1      -2.076   8.007   6.657  1.00  0.00    -0.181 NA
ATOM     21  C   UNL     1      -2.112   7.995  10.348  1.00  0.00     0.066 C 
ATOM     22  C   UNL     1       0.294   7.783   5.864  1.00  0.00     0.069 C 
ATOM     23  H   UNL     1      -3.709   8.163   8.003  1.00  0.00     0.190 HD
ENDBRANCH  15  16
ENDBRANCH  14  15
ENDBRANCH  13  14
ENDBRANCH   1  13
TORSDOF 7
ENDMDL
MODEL 2
REMARK VINA RESULT:    -2.787      2.618      4.166
REMARK INTER + INTRA:          -5.065
REMARK INTER:                  -3.630
REMARK INTRA:                  -1.435
REMARK UNBOUND:                -1.218
REMARK SMILES Cc1n[nH]c(C)c1CCCOc1cc(C(=O)O)ccc1F
REMARK SMILES IDX 11 1 12 2 14 3 18 4 13 5 19 6 20 7 21 8 15 9 16 10 17 11
REMARK SMILES IDX 10 13 9 14 8 15 7 16 5 17 2 18 4 19 3 20 6 21 1 22
REMARK H PARENT 17 12 4 23
ROOT
ATOM      1  O   UNL     1      -2.242   7.520   5.262  1.00  0.00    -0.490 OA
ENDROOT
BRANCH   1   2
ATOM      2  C   UNL     1      -1.650   6.301   5.153  1.00  0.00     0.155 A 
ATOM      3  C   UNL     1       0.332   4.943   5.069  1.00  0.00     0.063 A 
ATOM      4  C   UNL     1      -0.461   3.800   4.937  1.00  0.00     0.019 A 
ATOM      5  C   UNL     1      -0.272   6.197   5.177  1.00  0.00     0.065 A 
ATOM      6  C   UNL     1      -1.835   3.913   4.920  1.00  0.00     0.044 A 
ATOM      7  C   UNL     1      -2.432   5.158   5.032  1.00  0.00     0.165 A 
ATOM      8  F   UNL     1      -3.779   5.262   5.015  1.00  0.00    -0.203 F 
BRANCH   3   9
ATOM      9  C   UNL     1       1.803   4.825   5.088  1.00  0.00     0.335 C 
ATOM     10  O   UNL     1       2.407   4.590   4.061  1.00  0.00    -0.246 OA
BRANCH   9  11
ATOM     11  O   UNL     1       2.477   4.986   6.244  1.00  0.00    -0.478 OA
ATOM     12  H   UNL     1       3.072   4.271   6.508  1.00  0.00     0.297 HD
ENDBRANCH   9  11
ENDBRANCH   3   9
ENDBRANCH   1   2
BRANCH   1  13
ATOM     13  C   UNL     1      -3.053   7.746   6.418  1.00  0.00     0.230 C 
BRANCH  13  14
ATOM     14  C   UNL     1      -2.287   8.618   7.415  1.00  0.00     0.046 C 
BRANCH  14  15
ATOM     15  C   UNL     1      -2.146   7.872   8.743  1.00  0.00     0.043 C 
BRANCH  15  16
ATOM     16  C   UNL     1      -0.790   7.219   8.811  1.00  0.00    -0.004 A 
ATOM     17  C   UNL     1       0.391   7.852   9.000  1.00  0.00     0.036 A 
ATOM     18  C   UNL     1      -0.530   5.849   8.696  1.00  0.00     0.063 A 
ATOM     19  N   UNL     1       1.364   6.918   8.998  1.00  0.00    -0.282 N 
ATOM     20  N   UNL     1       0.762   5.668   8.802  1.00  0.00    -0.181 NA
ATOM     21  C   UNL     1       0.583   9.335   9.181  1.00  0.00     0.066 C 
ATOM     22  C   UNL     1      -1.558   4.769   8.477  1.00  0.00     0.069 C 
ATOM     23  H   UNL     1       2.313   7.082   9.112  1.00  0.00     0.190 HD
ENDBRANCH  15  16
ENDBRANCH  14  15
ENDBRANCH  13  14
ENDBRANCH   1  13
TORSDOF 7
ENDMDL
MODEL 3
REMARK VINA RESULT:    -2.619      2.920      5.396
REMARK INTER + INTRA:          -4.832
REMARK INTER:                  -4.035
REMARK INTRA:                  -0.798
REMARK UNBOUND:                -1.218
REMARK SMILES Cc1n[nH]c(C)c1CCCOc1cc(C(=O)O)ccc1F
REMARK SMILES IDX 11 1 12 2 14 3 18 4 13 5 19 6 20 7 21 8 15 9 16 10 17 11
REMARK SMILES IDX 10 13 9 14 8 15 7 16 5 17 2 18 4 19 3 20 6 21 1 22
REMARK H PARENT 17 12 4 23
ROOT
ATOM      1  O   UNL     1       0.488   5.358   7.866  1.00  0.00    -0.490 OA
ENDROOT
BRANCH   1   2
ATOM      2  C   UNL     1      -0.007   6.488   8.439  1.00  0.00     0.155 A 
ATOM      3  C   UNL     1       0.251   8.793   9.070  1.00  0.00     0.063 A 
ATOM      4  C   UNL     1      -1.041   8.788   9.603  1.00  0.00     0.019 A 
ATOM      5  C   UNL     1       0.765   7.634   8.486  1.00  0.00     0.065 A 
ATOM      6  C   UNL     1      -1.805   7.642   9.546  1.00  0.00     0.044 A 
ATOM      7  C   UNL     1      -1.296   6.494   8.962  1.00  0.00     0.165 A 
ATOM      8  F   UNL     1      -2.050   5.374   8.909  1.00  0.00    -0.203 F 
BRANCH   3   9
ATOM      9  C   UNL     1       1.072  10.019   9.129  1.00  0.00     0.335 C 
ATOM     10  O   UNL     1       1.634  10.422   8.132  1.00  0.00    -0.246 OA
BRANCH   9  11
ATOM     11  O   UNL     1       1.192  10.693  10.290  1.00  0.00    -0.478 OA
ATOM     12  H   UNL     1       1.256  10.167  11.099  1.00  0.00     0.297 HD
ENDBRANCH   9  11
ENDBRANCH   3   9
ENDBRANCH   1   2
BRANCH   1  13
ATOM     13  C   UNL     1       1.404   5.528   6.782  1.00  0.00     0.230 C 
BRANCH  13  14
ATOM     14  C   UNL     1       0.811   4.913   5.513  1.00  0.00     0.046 C 
BRANCH  14  15
ATOM     15  C   UNL     1      -0.236   5.862   4.928  1.00  0.00     0.043 C 
BRANCH  15  16
ATOM     16  C   UNL     1      -1.611   5.280   5.130  1.00  0.00    -0.004 A 
ATOM     17  C   UNL     1      -2.710   5.958   5.536  1.00  0.00     0.036 A 
ATOM     18  C   UNL     1      -1.979   3.947   4.925  1.00  0.00     0.063 A 
ATOM     19  N   UNL     1      -3.736   5.082   5.593  1.00  0.00    -0.282 N 
ATOM     20  N   UNL     1      -3.251   3.825   5.209  1.00  0.00    -0.181 NA
ATOM     21  C   UNL     1      -2.777   7.426   5.866  1.00  0.00     0.066 C 
ATOM     22  C   UNL     1      -1.066   2.838   4.469  1.00  0.00     0.069 C 
ATOM     23  H   UNL     1      -4.647   5.286   5.854  1.00  0.00     0.190 HD
ENDBRANCH  15  16
ENDBRANCH  14  15
ENDBRANCH  13  14
ENDBRANCH   1  13
TORSDOF 7
ENDMDL
MODEL 4
REMARK VINA RESULT:    -2.548      2.976      5.340
REMARK INTER + INTRA:          -4.734
REMARK INTER:                  -3.901
REMARK INTRA:                  -0.833
REMARK UNBOUND:                -1.218
REMARK SMILES Cc1n[nH]c(C)c1CCCOc1cc(C(=O)O)ccc1F
REMARK SMILES IDX 11 1 12 2 14 3 18 4 13 5 19 6 20 7 21 8 15 9 16 10 17 11
REMARK SMILES IDX 10 13 9 14 8 15 7 16 5 17 2 18 4 19 3 20 6 21 1 22
REMARK H PARENT 17 12 4 23
ROOT
ATOM      1  O   UNL     1      -1.959   7.079   6.249  1.00  0.00    -0.490 OA
ENDROOT
BRANCH   1   2
ATOM      2  C   UNL     1      -1.498   7.526   7.448  1.00  0.00     0.155 A 
ATOM      3  C   UNL     1      -1.824   7.904   9.800  1.00  0.00     0.063 A 
ATOM      4  C   UNL     1      -0.535   8.437   9.889  1.00  0.00     0.019 A 
ATOM      5  C   UNL     1      -2.302   7.448   8.570  1.00  0.00     0.065 A 
ATOM      6  C   UNL     1       0.262   8.505   8.765  1.00  0.00     0.044 A 
ATOM      7  C   UNL     1      -0.213   8.048   7.547  1.00  0.00     0.165 A 
ATOM      8  F   UNL     1       0.572   8.118   6.450  1.00  0.00    -0.203 F 
BRANCH   3   9
ATOM      9  C   UNL     1      -2.679   7.829  11.001  1.00  0.00     0.335 C 
ATOM     10  O   UNL     1      -3.207   6.779  11.306  1.00  0.00    -0.246 OA
BRANCH   9  11
ATOM     11  O   UNL     1      -2.867   8.924  11.762  1.00  0.00    -0.478 OA
ATOM     12  H   UNL     1      -2.183   9.129  12.415  1.00  0.00     0.297 HD
ENDBRANCH   9  11
ENDBRANCH   3   9
ENDBRANCH   1   2
BRANCH   1  13
ATOM     13  C   UNL     1      -2.779   5.908   6.265  1.00  0.00     0.230 C 
BRANCH  13  14
ATOM     14  C   UNL     1      -2.070   4.779   5.515  1.00  0.00     0.046 C 
BRANCH  14  15
ATOM     15  C   UNL     1      -1.058   4.106   6.445  1.00  0.00     0.043 C 
BRANCH  15  16
ATOM     16  C   UNL     1       0.340   4.404   5.968  1.00  0.00    -0.004 A 
ATOM     17  C   UNL     1       1.387   4.764   6.747  1.00  0.00     0.036 A 
ATOM     18  C   UNL     1       0.786   4.351   4.644  1.00  0.00     0.063 A 
ATOM     19  N   UNL     1       2.456   4.939   5.942  1.00  0.00    -0.282 N 
ATOM     20  N   UNL     1       2.053   4.678   4.626  1.00  0.00    -0.181 NA
ATOM     21  C   UNL     1       1.363   4.937   8.243  1.00  0.00     0.066 C 
ATOM     22  C   UNL     1      -0.050   3.991   3.442  1.00  0.00     0.069 C 
ATOM     23  H   UNL     1       3.346   5.200   6.225  1.00  0.00     0.190 HD
ENDBRANCH  15  16
ENDBRANCH  14  15
ENDBRANCH  13  14
ENDBRANCH   1  13
TORSDOF 7
ENDMDL
MODEL 5
REMARK VINA RESULT:    -2.497      2.896      5.466
REMARK INTER + INTRA:          -4.664
REMARK INTER:                  -3.854
REMARK INTRA:                  -0.810
REMARK UNBOUND:                -1.218
REMARK SMILES Cc1n[nH]c(C)c1CCCOc1cc(C(=O)O)ccc1F
REMARK SMILES IDX 11 1 12 2 14 3 18 4 13 5 19 6 20 7 21 8 15 9 16 10 17 11
REMARK SMILES IDX 10 13 9 14 8 15 7 16 5 17 2 18 4 19 3 20 6 21 1 22
REMARK H PARENT 17 12 4 23
ROOT
ATOM      1  O   UNL     1       0.577   5.342   7.895  1.00  0.00    -0.490 OA
ENDROOT
BRANCH   1   2
ATOM      2  C   UNL     1       0.043   6.465   8.445  1.00  0.00     0.155 A 
ATOM      3  C   UNL     1       0.242   8.776   9.079  1.00  0.00     0.063 A 
ATOM      4  C   UNL     1      -1.069   8.752   9.563  1.00  0.00     0.019 A 
ATOM      5  C   UNL     1       0.795   7.623   8.519  1.00  0.00     0.065 A 
ATOM      6  C   UNL     1      -1.813   7.594   9.479  1.00  0.00     0.044 A 
ATOM      7  C   UNL     1      -1.264   6.453   8.918  1.00  0.00     0.165 A 
ATOM      8  F   UNL     1      -1.999   5.322   8.839  1.00  0.00    -0.203 F 
BRANCH   3   9
ATOM      9  C   UNL     1       1.041  10.014   9.167  1.00  0.00     0.335 C 
ATOM     10  O   UNL     1       1.139  10.600  10.225  1.00  0.00    -0.246 OA
BRANCH   9  11
ATOM     11  O   UNL     1       1.666  10.490   8.072  1.00  0.00    -0.478 OA
ATOM     12  H   UNL     1       1.603   9.961   7.265  1.00  0.00     0.297 HD
ENDBRANCH   9  11
ENDBRANCH   3   9
ENDBRANCH   1   2
BRANCH   1  13
ATOM     13  C   UNL     1       1.469   5.521   6.792  1.00  0.00     0.230 C 
BRANCH  13  14
ATOM     14  C   UNL     1       0.888   4.841   5.551  1.00  0.00     0.046 C 
BRANCH  14  15
ATOM     15  C   UNL     1      -0.132   5.771   4.891  1.00  0.00     0.043 C 
BRANCH  15  16
ATOM     16  C   UNL     1      -1.519   5.215   5.084  1.00  0.00    -0.004 A 
ATOM     17  C   UNL     1      -1.896   3.930   4.890  1.00  0.00     0.036 A 
ATOM     18  C   UNL     1      -2.644   5.935   5.500  1.00  0.00     0.063 A 
ATOM     19  N   UNL     1      -3.213   3.841   5.168  1.00  0.00    -0.282 N 
ATOM     20  N   UNL     1      -3.661   5.114   5.545  1.00  0.00    -0.181 NA
ATOM     21  C   UNL     1      -1.004   2.801   4.444  1.00  0.00     0.066 C 
ATOM     22  C   UNL     1      -2.680   7.405   5.830  1.00  0.00     0.069 C 
ATOM     23  H   UNL     1      -3.755   3.038   5.115  1.00  0.00     0.190 HD
ENDBRANCH  15  16
ENDBRANCH  14  15
ENDBRANCH  13  14
ENDBRANCH   1  13
TORSDOF 7
ENDMDL
MODEL 6
REMARK VINA RESULT:    -2.450      8.356      9.414
REMARK INTER + INTRA:          -4.599
REMARK INTER:                  -4.407
REMARK INTRA:                  -0.193
REMARK UNBOUND:                -1.218
REMARK SMILES Cc1n[nH]c(C)c1CCCOc1cc(C(=O)O)ccc1F
REMARK SMILES IDX 11 1 12 2 14 3 18 4 13 5 19 6 20 7 21 8 15 9 16 10 17 11
REMARK SMILES IDX 10 13 9 14 8 15 7 16 5 17 2 18 4 19 3 20 6 21 1 22
REMARK H PARENT 17 12 4 23
ROOT
ATOM      1  O   UNL     1      -0.582   1.706   1.069  1.00  0.00    -0.490 OA
ENDROOT
BRANCH   1   2
ATOM      2  C   UNL     1      -0.355   2.504  -0.008  1.00  0.00     0.155 A 
ATOM      3  C   UNL     1      -1.159   4.041  -1.674  1.00  0.00     0.063 A 
ATOM      4  C   UNL     1       0.132   4.138  -2.201  1.00  0.00     0.019 A 
ATOM      5  C   UNL     1      -1.397   3.217  -0.571  1.00  0.00     0.065 A 
ATOM      6  C   UNL     1       1.165   3.427  -1.629  1.00  0.00     0.044 A 
ATOM      7  C   UNL     1       0.928   2.616  -0.532  1.00  0.00     0.165 A 
ATOM      8  F   UNL     1       1.946   1.922   0.024  1.00  0.00    -0.203 F 
BRANCH   3   9
ATOM      9  C   UNL     1      -2.268   4.800  -2.283  1.00  0.00     0.335 C 
ATOM     10  O   UNL     1      -2.123   5.974  -2.555  1.00  0.00    -0.246 OA
BRANCH   9  11
ATOM     11  O   UNL     1      -3.439   4.188  -2.545  1.00  0.00    -0.478 OA
ATOM     12  H   UNL     1      -3.718   4.150  -3.471  1.00  0.00     0.297 HD
ENDBRANCH   9  11
ENDBRANCH   3   9
ENDBRANCH   1   2
BRANCH   1  13
ATOM     13  C   UNL     1      -0.256   0.321   0.929  1.00  0.00     0.230 C 
BRANCH  13  14
ATOM     14  C   UNL     1      -0.864  -0.465   2.092  1.00  0.00     0.046 C 
BRANCH  14  15
ATOM     15  C   UNL     1      -0.266  -1.874   2.124  1.00  0.00     0.043 C 
BRANCH  15  16
ATOM     16  C   UNL     1      -0.453  -2.469   3.495  1.00  0.00    -0.004 A 
ATOM     17  C   UNL     1      -1.569  -3.086   3.950  1.00  0.00     0.036 A 
ATOM     18  C   UNL     1       0.497  -2.487   4.522  1.00  0.00     0.063 A 
ATOM     19  N   UNL     1      -1.334  -3.475   5.221  1.00  0.00    -0.282 N 
ATOM     20  N   UNL     1      -0.032  -3.084   5.559  1.00  0.00    -0.181 NA
ATOM     21  C   UNL     1      -2.843  -3.301   3.177  1.00  0.00     0.066 C 
ATOM     22  C   UNL     1       1.887  -1.908   4.449  1.00  0.00     0.069 C 
ATOM     23  H   UNL     1      -1.957  -3.942   5.799  1.00  0.00     0.190 HD
ENDBRANCH  15  16
ENDBRANCH  14  15
ENDBRANCH  13  14
ENDBRANCH   1  13
TORSDOF 7
ENDMDL
MODEL 7
REMARK VINA RESULT:    -2.321      1.785      2.488
REMARK INTER + INTRA:          -4.422
REMARK INTER:                  -4.114
REMARK INTRA:                  -0.308
REMARK UNBOUND:                -1.218
REMARK SMILES Cc1n[nH]c(C)c1CCCOc1cc(C(=O)O)ccc1F
REMARK SMILES IDX 11 1 12 2 14 3 18 4 13 5 19 6 20 7 21 8 15 9 16 10 17 11
REMARK SMILES IDX 10 13 9 14 8 15 7 16 5 17 2 18 4 19 3 20 6 21 1 22
REMARK H PARENT 17 12 4 23
ROOT
ATOM      1  O   UNL     1       1.397   5.201   5.160  1.00  0.00    -0.490 OA
ENDROOT
BRANCH   1   2
ATOM      2  C   UNL     1       0.089   5.574   5.178  1.00  0.00     0.155 A 
ATOM      3  C   UNL     1      -2.245   5.000   5.162  1.00  0.00     0.063 A 
ATOM      4  C   UNL     1      -2.576   6.356   5.228  1.00  0.00     0.019 A 
ATOM      5  C   UNL     1      -0.904   4.613   5.138  1.00  0.00     0.065 A 
ATOM      6  C   UNL     1      -1.578   7.307   5.273  1.00  0.00     0.044 A 
ATOM      7  C   UNL     1      -0.248   6.921   5.254  1.00  0.00     0.165 A 
ATOM      8  F   UNL     1       0.725   7.857   5.299  1.00  0.00    -0.203 F 
BRANCH   3   9
ATOM      9  C   UNL     1      -3.311   3.979   5.114  1.00  0.00     0.335 C 
ATOM     10  O   UNL     1      -3.029   2.815   4.915  1.00  0.00    -0.246 OA
BRANCH   9  11
ATOM     11  O   UNL     1      -4.597   4.339   5.295  1.00  0.00    -0.478 OA
ATOM     12  H   UNL     1      -5.251   3.949   4.699  1.00  0.00     0.297 HD
ENDBRANCH   9  11
ENDBRANCH   3   9
ENDBRANCH   1   2
BRANCH   1  13
ATOM     13  C   UNL     1       2.068   5.127   6.420  1.00  0.00     0.230 C 
BRANCH  13  14
ATOM     14  C   UNL     1       1.042   4.894   7.530  1.00  0.00     0.046 C 
BRANCH  14  15
ATOM     15  C   UNL     1       1.251   5.924   8.642  1.00  0.00     0.043 C 
BRANCH  15  16
ATOM     16  C   UNL     1       0.001   6.750   8.804  1.00  0.00    -0.004 A 
ATOM     17  C   UNL     1      -1.267   6.278   8.834  1.00  0.00     0.036 A 
ATOM     18  C   UNL     1      -0.054   8.139   8.956  1.00  0.00     0.063 A 
ATOM     19  N   UNL     1      -2.095   7.332   8.993  1.00  0.00    -0.282 N 
ATOM     20  N   UNL     1      -1.310   8.490   9.063  1.00  0.00    -0.181 NA
ATOM     21  C   UNL     1      -1.680   4.834   8.713  1.00  0.00     0.066 C 
ATOM     22  C   UNL     1       1.129   9.073   8.981  1.00  0.00     0.069 C 
ATOM     23  H   UNL     1      -3.062   7.294   9.048  1.00  0.00     0.190 HD
ENDBRANCH  15  16
ENDBRANCH  14  15
ENDBRANCH  13  14
ENDBRANCH   1  13
TORSDOF 7
ENDMDL
MODEL 8
REMARK VINA RESULT:    -2.236      2.246      3.831
REMARK INTER + INTRA:          -4.304
REMARK INTER:                  -4.022
REMARK INTRA:                  -0.282
REMARK UNBOUND:                -1.218
REMARK SMILES Cc1n[nH]c(C)c1CCCOc1cc(C(=O)O)ccc1F
REMARK SMILES IDX 11 1 12 2 14 3 18 4 13 5 19 6 20 7 21 8 15 9 16 10 17 11
REMARK SMILES IDX 10 13 9 14 8 15 7 16 5 17 2 18 4 19 3 20 6 21 1 22
REMARK H PARENT 17 12 4 23
ROOT
ATOM      1  O   UNL     1      -2.666   4.391   5.693  1.00  0.00    -0.490 OA
ENDROOT
BRANCH   1   2
ATOM      2  C   UNL     1      -1.385   4.384   6.149  1.00  0.00     0.155 A 
ATOM      3  C   UNL     1       0.981   4.470   5.730  1.00  0.00     0.063 A 
ATOM      4  C   UNL     1       1.224   4.378   7.103  1.00  0.00     0.019 A 
ATOM      5  C   UNL     1      -0.333   4.472   5.257  1.00  0.00     0.065 A 
ATOM      6  C   UNL     1       0.168   4.296   7.986  1.00  0.00     0.044 A 
ATOM      7  C   UNL     1      -1.135   4.303   7.515  1.00  0.00     0.165 A 
ATOM      8  F   UNL     1      -2.165   4.223   8.385  1.00  0.00    -0.203 F 
BRANCH   3   9
ATOM      9  C   UNL     1       2.110   4.558   4.783  1.00  0.00     0.335 C 
ATOM     10  O   UNL     1       1.912   4.449   3.590  1.00  0.00    -0.246 OA
BRANCH   9  11
ATOM     11  O   UNL     1       3.359   4.767   5.242  1.00  0.00    -0.478 OA
ATOM     12  H   UNL     1       4.024   5.043   4.596  1.00  0.00     0.297 HD
ENDBRANCH   9  11
ENDBRANCH   3   9
ENDBRANCH   1   2
BRANCH   1  13
ATOM     13  C   UNL     1      -3.379   5.626   5.783  1.00  0.00     0.230 C 
BRANCH  13  14
ATOM     14  C   UNL     1      -2.388   6.791   5.746  1.00  0.00     0.046 C 
BRANCH  14  15
ATOM     15  C   UNL     1      -2.678   7.744   6.908  1.00  0.00     0.043 C 
BRANCH  15  16
ATOM     16  C   UNL     1      -1.460   7.847   7.789  1.00  0.00    -0.004 A 
ATOM     17  C   UNL     1      -1.454   7.855   9.143  1.00  0.00     0.036 A 
ATOM     18  C   UNL     1      -0.134   7.946   7.353  1.00  0.00     0.063 A 
ATOM     19  N   UNL     1      -0.171   7.961   9.548  1.00  0.00    -0.282 N 
ATOM     20  N   UNL     1       0.638   8.021   8.406  1.00  0.00    -0.181 NA
ATOM     21  C   UNL     1      -2.663   7.761  10.036  1.00  0.00     0.066 C 
ATOM     22  C   UNL     1       0.324   7.973   5.917  1.00  0.00     0.069 C 
ATOM     23  H   UNL     1       0.136   7.992  10.468  1.00  0.00     0.190 HD
ENDBRANCH  15  16
ENDBRANCH  14  15
ENDBRANCH  13  14
ENDBRANCH   1  13
TORSDOF 7
ENDMDL
MODEL 9
REMARK VINA RESULT:    -1.970      4.860      7.377
REMARK INTER + INTRA:          -3.938
REMARK INTER:                  -4.046
REMARK INTRA:                   0.108
REMARK UNBOUND:                -1.218
REMARK SMILES Cc1n[nH]c(C)c1CCCOc1cc(C(=O)O)ccc1F
REMARK SMILES IDX 11 1 12 2 14 3 18 4 13 5 19 6 20 7 21 8 15 9 16 10 17 11
REMARK SMILES IDX 10 13 9 14 8 15 7 16 5 17 2 18 4 19 3 20 6 21 1 22
REMARK H PARENT 17 12 4 23
ROOT
ATOM      1  O   UNL     1       1.058   4.023   2.825  1.00  0.00    -0.490 OA
ENDROOT
BRANCH   1   2
ATOM      2  C   UNL     1       0.465   4.325   4.011  1.00  0.00     0.155 A 
ATOM      3  C   UNL     1      -1.517   4.592   5.346  1.00  0.00     0.063 A 
ATOM      4  C   UNL     1      -0.726   4.934   6.446  1.00  0.00     0.019 A 
ATOM      5  C   UNL     1      -0.912   4.287   4.125  1.00  0.00     0.065 A 
ATOM      6  C   UNL     1       0.647   4.963   6.324  1.00  0.00     0.044 A 
ATOM      7  C   UNL     1       1.245   4.656   5.113  1.00  0.00     0.165 A 
ATOM      8  F   UNL     1       2.592   4.686   5.001  1.00  0.00    -0.203 F 
BRANCH   3   9
ATOM      9  C   UNL     1      -2.987   4.559   5.473  1.00  0.00     0.335 C 
ATOM     10  O   UNL     1      -3.500   4.380   6.559  1.00  0.00    -0.246 OA
BRANCH   9  11
ATOM     11  O   UNL     1      -3.761   4.733   4.383  1.00  0.00    -0.478 OA
ATOM     12  H   UNL     1      -4.580   5.235   4.502  1.00  0.00     0.297 HD
ENDBRANCH   9  11
ENDBRANCH   3   9
ENDBRANCH   1   2
BRANCH   1  13
ATOM     13  C   UNL     1       0.194   3.742   1.721  1.00  0.00     0.230 C 
BRANCH  13  14
ATOM     14  C   UNL     1       0.866   2.728   0.794  1.00  0.00     0.046 C 
BRANCH  14  15
ATOM     15  C   UNL     1       0.805   3.236  -0.648  1.00  0.00     0.043 C 
BRANCH  15  16
ATOM     16  C   UNL     1      -0.555   2.948  -1.226  1.00  0.00    -0.004 A 
ATOM     17  C   UNL     1      -1.219   1.770  -1.153  1.00  0.00     0.036 A 
ATOM     18  C   UNL     1      -1.360   3.851  -1.929  1.00  0.00     0.063 A 
ATOM     19  N   UNL     1      -2.398   1.922  -1.792  1.00  0.00    -0.282 N 
ATOM     20  N   UNL     1      -2.461   3.236  -2.274  1.00  0.00    -0.181 NA
ATOM     21  C   UNL     1      -0.729   0.515  -0.479  1.00  0.00     0.066 C 
ATOM     22  C   UNL     1      -1.012   5.284  -2.244  1.00  0.00     0.069 C 
ATOM     23  H   UNL     1      -3.080   1.241  -1.900  1.00  0.00     0.190 HD
ENDBRANCH  15  16
ENDBRANCH  14  15
ENDBRANCH  13  14
ENDBRANCH   1  13
TORSDOF 7
ENDMDL
