MODEL 1
REMARK VINA RESULT:    -3.607      0.000      0.000
REMARK INTER + INTRA:          -4.425
REMARK INTER:                  -4.134
REMARK INTRA:                  -0.291
REMARK UNBOUND:                -0.291
REMARK SMILES O=C(O)c1ccc2nc(-c3cc(Cl)cc(Cl)c3)oc2c1
REMARK SMILES IDX 5 1 6 2 20 3 8 4 18 5 4 6 9 7 7 8 19 9 2 10 1 11 3 12 10 14
REMARK SMILES IDX 11 15 17 16 12 17 15 18 14 19 13 20 16 21
REMARK H PARENT 3 13
ROOT
ATOM      1  C   UNL     1      -1.049   2.990  -2.248  1.00  0.00     0.018 A 
ATOM      2  C   UNL     1      -1.633   1.889  -1.698  1.00  0.00     0.033 A 
ATOM      3  C   UNL     1       0.677   2.956  -0.544  1.00  0.00     0.065 A 
ATOM      4  N   UNL     1      -1.418   0.228   0.194  1.00  0.00    -0.209 NA
ATOM      5  O   UNL     1       0.377   1.069   1.090  1.00  0.00    -0.436 OA
ATOM      6  C   UNL     1       0.112   3.536  -1.681  1.00  0.00     0.063 A 
ATOM      7  C   UNL     1      -0.552   0.098   1.168  1.00  0.00     0.227 A 
ATOM      8  C   UNL     1      -1.076   1.297  -0.557  1.00  0.00     0.110 A 
ATOM      9  C   UNL     1       0.084   1.841   0.020  1.00  0.00     0.156 A 
ENDROOT
BRANCH   6  10
ATOM     10  C   UNL     1       0.738   4.725  -2.289  1.00  0.00     0.335 C 
ATOM     11  O   UNL     1       0.062   5.700  -2.551  1.00  0.00    -0.246 OA
BRANCH  10  12
ATOM     12  O   UNL     1       2.059   4.729  -2.554  1.00  0.00    -0.478 OA
ATOM     13  H   UNL     1       2.334   4.402  -3.421  1.00  0.00     0.297 HD
ENDBRANCH  10  12
ENDBRANCH   6  10
BRANCH   7  14
ATOM     14  C   UNL     1      -0.592  -0.957   2.201  1.00  0.00     0.040 A 
ATOM     15  C   UNL     1      -1.781  -1.639   2.463  1.00  0.00     0.034 A 
ATOM     16  C   UNL     1       0.562  -1.276   2.921  1.00  0.00     0.034 A 
ATOM     17  C   UNL     1      -1.811  -2.625   3.428  1.00  0.00     0.043 A 
ATOM     18  C   UNL     1       0.520  -2.264   3.884  1.00  0.00     0.043 A 
ATOM     19  C   UNL     1      -0.663  -2.937   4.138  1.00  0.00     0.041 A 
ATOM     20  Cl  UNL     1      -3.289  -3.475   3.755  1.00  0.00    -0.084 Cl
ATOM     21  Cl  UNL     1       1.953  -2.663   4.780  1.00  0.00    -0.084 Cl
ENDBRANCH   7  14
TORSDOF 3
ENDMDL
MODEL 2
REMARK VINA RESULT:    -1.494      0.023      2.019
REMARK INTER + INTRA:          -2.003
REMARK INTER:                  -1.713
REMARK INTRA:                  -0.291
REMARK UNBOUND:                -0.291
REMARK SMILES O=C(O)c1ccc2nc(-c3cc(Cl)cc(Cl)c3)oc2c1
REMARK SMILES IDX 5 1 6 2 20 3 8 4 18 5 4 6 9 7 7 8 19 9 2 10 1 11 3 12 10 14
REMARK SMILES IDX 11 15 17 16 12 17 15 18 14 19 13 20 16 21
REMARK H PARENT 3 13
ROOT
ATOM      1  C   UNL     1      -1.043   3.001  -2.251  1.00  0.00     0.018 A 
ATOM      2  C   UNL     1      -1.623   1.898  -1.701  1.00  0.00     0.033 A 
ATOM      3  C   UNL     1       0.677   2.977  -0.542  1.00  0.00     0.065 A 
ATOM      4  N   UNL     1      -1.408   0.240   0.193  1.00  0.00    -0.209 NA
ATOM      5  O   UNL     1       0.382   1.090   1.093  1.00  0.00    -0.436 OA
ATOM      6  C   UNL     1       0.113   3.553  -1.681  1.00  0.00     0.063 A 
ATOM      7  C   UNL     1      -0.544   0.116   1.170  1.00  0.00     0.227 A 
ATOM      8  C   UNL     1      -1.068   1.310  -0.558  1.00  0.00     0.110 A 
ATOM      9  C   UNL     1       0.088   1.860   0.022  1.00  0.00     0.156 A 
ENDROOT
BRANCH   6  10
ATOM     10  C   UNL     1       0.736   4.744  -2.288  1.00  0.00     0.335 C 
ATOM     11  O   UNL     1       0.056   5.715  -2.555  1.00  0.00    -0.246 OA
BRANCH  10  12
ATOM     12  O   UNL     1       2.058   4.755  -2.548  1.00  0.00    -0.478 OA
ATOM     13  H   UNL     1       2.347   4.346  -3.374  1.00  0.00     0.297 HD
ENDBRANCH  10  12
ENDBRANCH   6  10
BRANCH   7  14
ATOM     14  C   UNL     1      -0.582  -0.939   2.204  1.00  0.00     0.040 A 
ATOM     15  C   UNL     1       0.568  -1.249   2.932  1.00  0.00     0.034 A 
ATOM     16  C   UNL     1      -1.769  -1.631   2.457  1.00  0.00     0.034 A 
ATOM     17  C   UNL     1       0.526  -2.235   3.898  1.00  0.00     0.043 A 
ATOM     18  C   UNL     1      -1.798  -2.614   3.425  1.00  0.00     0.043 A 
ATOM     19  C   UNL     1      -0.654  -2.917   4.143  1.00  0.00     0.041 A 
ATOM     20  Cl  UNL     1       1.955  -2.622   4.804  1.00  0.00    -0.084 Cl
ATOM     21  Cl  UNL     1      -3.273  -3.475   3.740  1.00  0.00    -0.084 Cl
ENDBRANCH   7  14
TORSDOF 3
ENDMDL
