MODEL 1
REMARK VINA RESULT:    -4.405      0.000      0.000
REMARK INTER + INTRA:          -5.346
REMARK INTER:                  -5.049
REMARK INTRA:                  -0.298
REMARK UNBOUND:                -0.298
REMARK SMILES O=C(O)c1ccc2nc(-c3cc(Cl)cc(Cl)c3)oc2c1
REMARK SMILES IDX 5 1 6 2 20 3 8 4 18 5 4 6 9 7 7 8 19 9 2 10 1 11 3 12 10 14
REMARK SMILES IDX 11 15 17 16 12 17 15 18 14 19 13 20 16 21
REMARK H PARENT 3 13
ROOT
ATOM      1  C   UNL     1      -5.889   1.861   1.632  1.00  0.00     0.018 A 
ATOM      2  C   UNL     1      -6.862   2.432   2.396  1.00  0.00     0.033 A 
ATOM      3  C   UNL     1      -7.554   0.565   0.437  1.00  0.00     0.065 A 
ATOM      4  N   UNL     1      -9.358   2.466   2.783  1.00  0.00    -0.209 NA
ATOM      5  O   UNL     1      -9.888   1.007   1.258  1.00  0.00    -0.436 OA
ATOM      6  C   UNL     1      -6.220   0.924   0.643  1.00  0.00     0.063 A 
ATOM      7  C   UNL     1     -10.353   1.826   2.221  1.00  0.00     0.227 A 
ATOM      8  C   UNL     1      -8.203   2.081   2.199  1.00  0.00     0.110 A 
ATOM      9  C   UNL     1      -8.544   1.139   1.213  1.00  0.00     0.156 A 
ENDROOT
BRANCH   6  10
ATOM     10  C   UNL     1      -5.159   0.317  -0.181  1.00  0.00     0.335 C 
ATOM     11  O   UNL     1      -3.995   0.587   0.035  1.00  0.00    -0.246 OA
BRANCH  10  12
ATOM     12  O   UNL     1      -5.481  -0.535  -1.174  1.00  0.00    -0.478 OA
ATOM     13  H   UNL     1      -5.645  -1.455  -0.927  1.00  0.00     0.297 HD
ENDBRANCH  10  12
ENDBRANCH   6  10
BRANCH   7  14
ATOM     14  C   UNL     1     -11.776   1.980   2.589  1.00  0.00     0.040 A 
ATOM     15  C   UNL     1     -12.177   3.032   3.414  1.00  0.00     0.034 A 
ATOM     16  C   UNL     1     -12.724   1.071   2.114  1.00  0.00     0.034 A 
ATOM     17  C   UNL     1     -13.508   3.170   3.754  1.00  0.00     0.043 A 
ATOM     18  C   UNL     1     -14.052   1.221   2.461  1.00  0.00     0.043 A 
ATOM     19  C   UNL     1     -14.444   2.266   3.280  1.00  0.00     0.041 A 
ATOM     20  Cl  UNL     1     -14.009   4.479   4.778  1.00  0.00    -0.084 Cl
ATOM     21  Cl  UNL     1     -15.234   0.093   1.872  1.00  0.00    -0.084 Cl
ENDBRANCH   7  14
TORSDOF 3
ENDMDL
MODEL 2
REMARK VINA RESULT:    -4.400      0.013      2.019
REMARK INTER + INTRA:          -5.340
REMARK INTER:                  -5.042
REMARK INTRA:                  -0.298
REMARK UNBOUND:                -0.298
REMARK SMILES O=C(O)c1ccc2nc(-c3cc(Cl)cc(Cl)c3)oc2c1
REMARK SMILES IDX 5 1 6 2 20 3 8 4 18 5 4 6 9 7 7 8 19 9 2 10 1 11 3 12 10 14
REMARK SMILES IDX 11 15 17 16 12 17 15 18 14 19 13 20 16 21
REMARK H PARENT 3 13
ROOT
ATOM      1  C   UNL     1      -5.891   1.865   1.628  1.00  0.00     0.018 A 
ATOM      2  C   UNL     1      -6.862   2.438   2.393  1.00  0.00     0.033 A 
ATOM      3  C   UNL     1      -7.559   0.570   0.436  1.00  0.00     0.065 A 
ATOM      4  N   UNL     1      -9.358   2.474   2.784  1.00  0.00    -0.209 NA
ATOM      5  O   UNL     1      -9.892   1.015   1.261  1.00  0.00    -0.436 OA
ATOM      6  C   UNL     1      -6.225   0.927   0.641  1.00  0.00     0.063 A 
ATOM      7  C   UNL     1     -10.354   1.834   2.223  1.00  0.00     0.227 A 
ATOM      8  C   UNL     1      -8.204   2.088   2.198  1.00  0.00     0.110 A 
ATOM      9  C   UNL     1      -8.547   1.145   1.213  1.00  0.00     0.156 A 
ENDROOT
BRANCH   6  10
ATOM     10  C   UNL     1      -5.165   0.319  -0.184  1.00  0.00     0.335 C 
ATOM     11  O   UNL     1      -4.000   0.586   0.030  1.00  0.00    -0.246 OA
BRANCH  10  12
ATOM     12  O   UNL     1      -5.490  -0.532  -1.178  1.00  0.00    -0.478 OA
ATOM     13  H   UNL     1      -5.397  -1.477  -0.994  1.00  0.00     0.297 HD
ENDBRANCH  10  12
ENDBRANCH   6  10
BRANCH   7  14
ATOM     14  C   UNL     1     -11.776   1.990   2.594  1.00  0.00     0.040 A 
ATOM     15  C   UNL     1     -12.727   1.086   2.120  1.00  0.00     0.034 A 
ATOM     16  C   UNL     1     -12.174   3.044   3.420  1.00  0.00     0.034 A 
ATOM     17  C   UNL     1     -14.054   1.236   2.471  1.00  0.00     0.043 A 
ATOM     18  C   UNL     1     -13.503   3.183   3.763  1.00  0.00     0.043 A 
ATOM     19  C   UNL     1     -14.442   2.283   3.290  1.00  0.00     0.041 A 
ATOM     20  Cl  UNL     1     -15.239   0.112   1.883  1.00  0.00    -0.084 Cl
ATOM     21  Cl  UNL     1     -13.999   4.492   4.790  1.00  0.00    -0.084 Cl
ENDBRANCH   7  14
TORSDOF 3
ENDMDL
MODEL 3
REMARK VINA RESULT:    -4.399      3.750      7.658
REMARK INTER + INTRA:          -5.340
REMARK INTER:                  -5.046
REMARK INTRA:                  -0.294
REMARK UNBOUND:                -0.298
REMARK SMILES O=C(O)c1ccc2nc(-c3cc(Cl)cc(Cl)c3)oc2c1
REMARK SMILES IDX 5 1 6 2 20 3 8 4 18 5 4 6 9 7 7 8 19 9 2 10 1 11 3 12 10 14
REMARK SMILES IDX 11 15 17 16 12 17 15 18 14 19 13 20 16 21
REMARK H PARENT 3 13
ROOT
ATOM      1  C   UNL     1     -14.227   2.439   3.313  1.00  0.00     0.018 A 
ATOM      2  C   UNL     1     -12.946   2.883   3.448  1.00  0.00     0.033 A 
ATOM      3  C   UNL     1     -13.476   0.633   1.879  1.00  0.00     0.065 A 
ATOM      4  N   UNL     1     -10.566   2.410   2.745  1.00  0.00    -0.209 NA
ATOM      5  O   UNL     1     -10.988   0.662   1.520  1.00  0.00    -0.436 OA
ATOM      6  C   UNL     1     -14.509   1.310   2.530  1.00  0.00     0.063 A 
ATOM      7  C   UNL     1     -10.031   1.486   1.985  1.00  0.00     0.227 A 
ATOM      8  C   UNL     1     -11.901   2.213   2.800  1.00  0.00     0.110 A 
ATOM      9  C   UNL     1     -12.175   1.083   2.009  1.00  0.00     0.156 A 
ENDROOT
BRANCH   6  10
ATOM     10  C   UNL     1     -15.898   0.836   2.397  1.00  0.00     0.335 C 
ATOM     11  O   UNL     1     -16.203   0.101   1.478  1.00  0.00    -0.246 OA
BRANCH  10  12
ATOM     12  O   UNL     1     -16.830   1.217   3.292  1.00  0.00    -0.478 OA
ATOM     13  H   UNL     1     -17.567   1.747   2.961  1.00  0.00     0.297 HD
ENDBRANCH  10  12
ENDBRANCH   6  10
BRANCH   7  14
ATOM     14  C   UNL     1      -8.589   1.369   1.683  1.00  0.00     0.040 A 
ATOM     15  C   UNL     1      -8.169   0.858   0.455  1.00  0.00     0.034 A 
ATOM     16  C   UNL     1      -7.641   1.768   2.628  1.00  0.00     0.034 A 
ATOM     17  C   UNL     1      -6.821   0.751   0.178  1.00  0.00     0.043 A 
ATOM     18  C   UNL     1      -6.295   1.657   2.340  1.00  0.00     0.043 A 
ATOM     19  C   UNL     1      -5.885   1.149   1.119  1.00  0.00     0.041 A 
ATOM     20  Cl  UNL     1      -6.296   0.116  -1.350  1.00  0.00    -0.084 Cl
ATOM     21  Cl  UNL     1      -5.114   2.154   3.512  1.00  0.00    -0.084 Cl
ENDBRANCH   7  14
TORSDOF 3
ENDMDL
MODEL 4
REMARK VINA RESULT:    -4.387      3.938      7.603
REMARK INTER + INTRA:          -5.325
REMARK INTER:                  -5.030
REMARK INTRA:                  -0.295
REMARK UNBOUND:                -0.298
REMARK SMILES O=C(O)c1ccc2nc(-c3cc(Cl)cc(Cl)c3)oc2c1
REMARK SMILES IDX 5 1 6 2 20 3 8 4 18 5 4 6 9 7 7 8 19 9 2 10 1 11 3 12 10 14
REMARK SMILES IDX 11 15 17 16 12 17 15 18 14 19 13 20 16 21
REMARK H PARENT 3 13
ROOT
ATOM      1  C   UNL     1     -14.200   2.331   3.348  1.00  0.00     0.018 A 
ATOM      2  C   UNL     1     -13.395   1.582   2.544  1.00  0.00     0.033 A 
ATOM      3  C   UNL     1     -12.325   3.748   3.945  1.00  0.00     0.065 A 
ATOM      4  N   UNL     1     -11.017   1.355   1.723  1.00  0.00    -0.209 NA
ATOM      5  O   UNL     1     -10.190   3.041   2.821  1.00  0.00    -0.436 OA
ATOM      6  C   UNL     1     -13.678   3.423   4.056  1.00  0.00     0.063 A 
ATOM      7  C   UNL     1      -9.925   2.038   1.963  1.00  0.00     0.227 A 
ATOM      8  C   UNL     1     -12.036   1.897   2.423  1.00  0.00     0.110 A 
ATOM      9  C   UNL     1     -11.504   2.987   3.133  1.00  0.00     0.156 A 
ENDROOT
BRANCH   6  10
ATOM     10  C   UNL     1     -14.559   4.230   4.919  1.00  0.00     0.335 C 
ATOM     11  O   UNL     1     -14.082   5.048   5.679  1.00  0.00    -0.246 OA
BRANCH  10  12
ATOM     12  O   UNL     1     -15.895   4.059   4.866  1.00  0.00    -0.478 OA
ATOM     13  H   UNL     1     -16.404   4.724   4.383  1.00  0.00     0.297 HD
ENDBRANCH  10  12
ENDBRANCH   6  10
BRANCH   7  14
ATOM     14  C   UNL     1      -8.599   1.749   1.378  1.00  0.00     0.040 A 
ATOM     15  C   UNL     1      -7.438   2.064   2.084  1.00  0.00     0.034 A 
ATOM     16  C   UNL     1      -8.504   1.161   0.115  1.00  0.00     0.034 A 
ATOM     17  C   UNL     1      -6.202   1.791   1.533  1.00  0.00     0.043 A 
ATOM     18  C   UNL     1      -7.263   0.893  -0.426  1.00  0.00     0.043 A 
ATOM     19  C   UNL     1      -6.114   1.207   0.280  1.00  0.00     0.041 A 
ATOM     20  Cl  UNL     1      -4.756   2.180   2.410  1.00  0.00    -0.084 Cl
ATOM     21  Cl  UNL     1      -7.142   0.161  -1.996  1.00  0.00    -0.084 Cl
ENDBRANCH   7  14
TORSDOF 3
ENDMDL
MODEL 5
REMARK VINA RESULT:    -4.379      3.938      7.825
REMARK INTER + INTRA:          -5.317
REMARK INTER:                  -5.022
REMARK INTRA:                  -0.295
REMARK UNBOUND:                -0.298
REMARK SMILES O=C(O)c1ccc2nc(-c3cc(Cl)cc(Cl)c3)oc2c1
REMARK SMILES IDX 5 1 6 2 20 3 8 4 18 5 4 6 9 7 7 8 19 9 2 10 1 11 3 12 10 14
REMARK SMILES IDX 11 15 17 16 12 17 15 18 14 19 13 20 16 21
REMARK H PARENT 3 13
ROOT
ATOM      1  C   UNL     1     -14.196   2.325   3.352  1.00  0.00     0.018 A 
ATOM      2  C   UNL     1     -13.393   1.577   2.544  1.00  0.00     0.033 A 
ATOM      3  C   UNL     1     -12.319   3.740   3.949  1.00  0.00     0.065 A 
ATOM      4  N   UNL     1     -11.015   1.351   1.720  1.00  0.00    -0.209 NA
ATOM      5  O   UNL     1     -10.186   3.034   2.822  1.00  0.00    -0.436 OA
ATOM      6  C   UNL     1     -13.672   3.415   4.061  1.00  0.00     0.063 A 
ATOM      7  C   UNL     1      -9.923   2.033   1.961  1.00  0.00     0.227 A 
ATOM      8  C   UNL     1     -12.034   1.892   2.423  1.00  0.00     0.110 A 
ATOM      9  C   UNL     1     -11.500   2.980   3.135  1.00  0.00     0.156 A 
ENDROOT
BRANCH   6  10
ATOM     10  C   UNL     1     -14.553   4.221   4.927  1.00  0.00     0.335 C 
ATOM     11  O   UNL     1     -14.073   5.032   5.693  1.00  0.00    -0.246 OA
BRANCH  10  12
ATOM     12  O   UNL     1     -15.889   4.056   4.869  1.00  0.00    -0.478 OA
ATOM     13  H   UNL     1     -16.307   4.160   4.004  1.00  0.00     0.297 HD
ENDBRANCH  10  12
ENDBRANCH   6  10
BRANCH   7  14
ATOM     14  C   UNL     1      -8.598   1.745   1.374  1.00  0.00     0.040 A 
ATOM     15  C   UNL     1      -8.503   1.158   0.112  1.00  0.00     0.034 A 
ATOM     16  C   UNL     1      -7.435   2.058   2.082  1.00  0.00     0.034 A 
ATOM     17  C   UNL     1      -7.261   0.892  -0.432  1.00  0.00     0.043 A 
ATOM     18  C   UNL     1      -6.200   1.787   1.528  1.00  0.00     0.043 A 
ATOM     19  C   UNL     1      -6.113   1.205   0.275  1.00  0.00     0.041 A 
ATOM     20  Cl  UNL     1      -7.141   0.163  -2.002  1.00  0.00    -0.084 Cl
ATOM     21  Cl  UNL     1      -4.753   2.176   2.406  1.00  0.00    -0.084 Cl
ENDBRANCH   7  14
TORSDOF 3
ENDMDL
MODEL 6
REMARK VINA RESULT:    -4.374      3.752      7.430
REMARK INTER + INTRA:          -5.311
REMARK INTER:                  -5.017
REMARK INTRA:                  -0.294
REMARK UNBOUND:                -0.298
REMARK SMILES O=C(O)c1ccc2nc(-c3cc(Cl)cc(Cl)c3)oc2c1
REMARK SMILES IDX 5 1 6 2 20 3 8 4 18 5 4 6 9 7 7 8 19 9 2 10 1 11 3 12 10 14
REMARK SMILES IDX 11 15 17 16 12 17 15 18 14 19 13 20 16 21
REMARK H PARENT 3 13
ROOT
ATOM      1  C   UNL     1     -14.200   2.453   3.312  1.00  0.00     0.018 A 
ATOM      2  C   UNL     1     -12.920   2.904   3.430  1.00  0.00     0.033 A 
ATOM      3  C   UNL     1     -13.450   0.616   1.919  1.00  0.00     0.065 A 
ATOM      4  N   UNL     1     -10.542   2.422   2.726  1.00  0.00    -0.209 NA
ATOM      5  O   UNL     1     -10.964   0.643   1.547  1.00  0.00    -0.436 OA
ATOM      6  C   UNL     1     -14.482   1.305   2.559  1.00  0.00     0.063 A 
ATOM      7  C   UNL     1     -10.007   1.482   1.987  1.00  0.00     0.227 A 
ATOM      8  C   UNL     1     -11.875   2.223   2.793  1.00  0.00     0.110 A 
ATOM      9  C   UNL     1     -12.150   1.073   2.031  1.00  0.00     0.156 A 
ENDROOT
BRANCH   6  10
ATOM     10  C   UNL     1     -15.870   0.823   2.444  1.00  0.00     0.335 C 
ATOM     11  O   UNL     1     -16.150  -0.033   1.629  1.00  0.00    -0.246 OA
BRANCH  10  12
ATOM     12  O   UNL     1     -16.829   1.332   3.242  1.00  0.00    -0.478 OA
ATOM     13  H   UNL     1     -16.927   2.294   3.253  1.00  0.00     0.297 HD
ENDBRANCH  10  12
ENDBRANCH   6  10
BRANCH   7  14
ATOM     14  C   UNL     1      -8.567   1.362   1.680  1.00  0.00     0.040 A 
ATOM     15  C   UNL     1      -7.614   1.752   2.623  1.00  0.00     0.034 A 
ATOM     16  C   UNL     1      -8.153   0.859   0.445  1.00  0.00     0.034 A 
ATOM     17  C   UNL     1      -6.270   1.636   2.331  1.00  0.00     0.043 A 
ATOM     18  C   UNL     1      -6.806   0.748   0.165  1.00  0.00     0.043 A 
ATOM     19  C   UNL     1      -5.866   1.136   1.104  1.00  0.00     0.041 A 
ATOM     20  Cl  UNL     1      -5.083   2.119   3.502  1.00  0.00    -0.084 Cl
ATOM     21  Cl  UNL     1      -6.290   0.122  -1.370  1.00  0.00    -0.084 Cl
ENDBRANCH   7  14
TORSDOF 3
ENDMDL
MODEL 7
REMARK VINA RESULT:    -4.350      1.069      2.672
REMARK INTER + INTRA:          -5.283
REMARK INTER:                  -4.985
REMARK INTRA:                  -0.298
REMARK UNBOUND:                -0.298
REMARK SMILES O=C(O)c1ccc2nc(-c3cc(Cl)cc(Cl)c3)oc2c1
REMARK SMILES IDX 5 1 6 2 20 3 8 4 18 5 4 6 9 7 7 8 19 9 2 10 1 11 3 12 10 14
REMARK SMILES IDX 11 15 17 16 12 17 15 18 14 19 13 20 16 21
REMARK H PARENT 3 13
ROOT
ATOM      1  C   UNL     1      -6.512   0.545   0.088  1.00  0.00     0.018 A 
ATOM      2  C   UNL     1      -7.849   0.284   0.067  1.00  0.00     0.033 A 
ATOM      3  C   UNL     1      -6.839   2.213   1.817  1.00  0.00     0.065 A 
ATOM      4  N   UNL     1     -10.047   0.947   1.121  1.00  0.00    -0.209 NA
ATOM      5  O   UNL     1      -9.253   2.451   2.478  1.00  0.00    -0.436 OA
ATOM      6  C   UNL     1      -5.990   1.508   0.962  1.00  0.00     0.063 A 
ATOM      7  C   UNL     1     -10.361   1.819   2.047  1.00  0.00     0.227 A 
ATOM      8  C   UNL     1      -8.713   0.983   0.919  1.00  0.00     0.110 A 
ATOM      9  C   UNL     1      -8.198   1.955   1.795  1.00  0.00     0.156 A 
ENDROOT
BRANCH   6  10
ATOM     10  C   UNL     1      -4.541   1.777   0.980  1.00  0.00     0.335 C 
ATOM     11  O   UNL     1      -3.816   1.256   0.155  1.00  0.00    -0.246 OA
BRANCH  10  12
ATOM     12  O   UNL     1      -4.019   2.600   1.911  1.00  0.00    -0.478 OA
ATOM     13  H   UNL     1      -3.658   3.441   1.602  1.00  0.00     0.297 HD
ENDBRANCH  10  12
ENDBRANCH   6  10
BRANCH   7  14
ATOM     14  C   UNL     1     -11.730   2.072   2.543  1.00  0.00     0.040 A 
ATOM     15  C   UNL     1     -12.777   1.227   2.173  1.00  0.00     0.034 A 
ATOM     16  C   UNL     1     -11.980   3.158   3.384  1.00  0.00     0.034 A 
ATOM     17  C   UNL     1     -14.053   1.468   2.642  1.00  0.00     0.043 A 
ATOM     18  C   UNL     1     -13.261   3.389   3.846  1.00  0.00     0.043 A 
ATOM     19  C   UNL     1     -14.295   2.547   3.475  1.00  0.00     0.041 A 
ATOM     20  Cl  UNL     1     -15.357   0.418   2.183  1.00  0.00    -0.084 Cl
ATOM     21  Cl  UNL     1     -13.574   4.739   4.892  1.00  0.00    -0.084 Cl
ENDBRANCH   7  14
TORSDOF 3
ENDMDL
MODEL 8
REMARK VINA RESULT:    -4.221      1.979      2.332
REMARK INTER + INTRA:          -5.136
REMARK INTER:                  -4.850
REMARK INTRA:                  -0.286
REMARK UNBOUND:                -0.298
REMARK SMILES O=C(O)c1ccc2nc(-c3cc(Cl)cc(Cl)c3)oc2c1
REMARK SMILES IDX 5 1 6 2 20 3 8 4 18 5 4 6 9 7 7 8 19 9 2 10 1 11 3 12 10 14
REMARK SMILES IDX 11 15 17 16 12 17 15 18 14 19 13 20 16 21
REMARK H PARENT 3 13
ROOT
ATOM      1  C   UNL     1      -6.769   2.481   1.117  1.00  0.00     0.018 A 
ATOM      2  C   UNL     1      -8.029   2.480   0.597  1.00  0.00     0.033 A 
ATOM      3  C   UNL     1      -7.613   1.625   3.223  1.00  0.00     0.065 A 
ATOM      4  N   UNL     1     -10.435   1.944   1.148  1.00  0.00    -0.209 NA
ATOM      5  O   UNL     1     -10.104   1.284   3.194  1.00  0.00    -0.436 OA
ATOM      6  C   UNL     1      -6.545   2.053   2.433  1.00  0.00     0.063 A 
ATOM      7  C   UNL     1     -11.019   1.487   2.227  1.00  0.00     0.227 A 
ATOM      8  C   UNL     1      -9.109   2.054   1.378  1.00  0.00     0.110 A 
ATOM      9  C   UNL     1      -8.893   1.628   2.701  1.00  0.00     0.156 A 
ENDROOT
BRANCH   6  10
ATOM     10  C   UNL     1      -5.177   2.052   2.982  1.00  0.00     0.335 C 
ATOM     11  O   UNL     1      -4.308   2.712   2.449  1.00  0.00    -0.246 OA
BRANCH  10  12
ATOM     12  O   UNL     1      -4.890   1.319   4.076  1.00  0.00    -0.478 OA
ATOM     13  H   UNL     1      -4.355   1.742   4.761  1.00  0.00     0.297 HD
ENDBRANCH  10  12
ENDBRANCH   6  10
BRANCH   7  14
ATOM     14  C   UNL     1     -12.468   1.231   2.364  1.00  0.00     0.040 A 
ATOM     15  C   UNL     1     -13.284   2.157   3.015  1.00  0.00     0.034 A 
ATOM     16  C   UNL     1     -13.025   0.062   1.843  1.00  0.00     0.034 A 
ATOM     17  C   UNL     1     -14.638   1.913   3.138  1.00  0.00     0.043 A 
ATOM     18  C   UNL     1     -14.380  -0.171   1.972  1.00  0.00     0.043 A 
ATOM     19  C   UNL     1     -15.184   0.752   2.619  1.00  0.00     0.041 A 
ATOM     20  Cl  UNL     1     -15.656   3.063   3.946  1.00  0.00    -0.084 Cl
ATOM     21  Cl  UNL     1     -15.075  -1.624   1.325  1.00  0.00    -0.084 Cl
ENDBRANCH   7  14
TORSDOF 3
ENDMDL
MODEL 9
REMARK VINA RESULT:    -3.746      2.538      3.778
REMARK INTER + INTRA:          -4.591
REMARK INTER:                  -4.304
REMARK INTRA:                  -0.287
REMARK UNBOUND:                -0.298
REMARK SMILES O=C(O)c1ccc2nc(-c3cc(Cl)cc(Cl)c3)oc2c1
REMARK SMILES IDX 5 1 6 2 20 3 8 4 18 5 4 6 9 7 7 8 19 9 2 10 1 11 3 12 10 14
REMARK SMILES IDX 11 15 17 16 12 17 15 18 14 19 13 20 16 21
REMARK H PARENT 3 13
ROOT
ATOM      1  C   UNL     1      -8.660   0.678   2.331  1.00  0.00     0.018 A 
ATOM      2  C   UNL     1      -9.340   1.097   3.435  1.00  0.00     0.033 A 
ATOM      3  C   UNL     1     -10.068   2.053   0.914  1.00  0.00     0.065 A 
ATOM      4  N   UNL     1     -11.240   2.582   4.189  1.00  0.00    -0.209 NA
ATOM      5  O   UNL     1     -11.804   3.318   2.221  1.00  0.00    -0.436 OA
ATOM      6  C   UNL     1      -9.013   1.151   1.059  1.00  0.00     0.063 A 
ATOM      7  C   UNL     1     -12.068   3.362   3.540  1.00  0.00     0.227 A 
ATOM      8  C   UNL     1     -10.401   2.001   3.304  1.00  0.00     0.110 A 
ATOM      9  C   UNL     1     -10.764   2.476   2.031  1.00  0.00     0.156 A 
ENDROOT
BRANCH   6  10
ATOM     10  C   UNL     1      -8.266   0.696  -0.128  1.00  0.00     0.335 C 
ATOM     11  O   UNL     1      -8.343   1.318  -1.169  1.00  0.00    -0.246 OA
BRANCH  10  12
ATOM     12  O   UNL     1      -7.499  -0.410  -0.059  1.00  0.00    -0.478 OA
ATOM     13  H   UNL     1      -7.355  -0.897  -0.882  1.00  0.00     0.297 HD
ENDBRANCH  10  12
ENDBRANCH   6  10
BRANCH   7  14
ATOM     14  C   UNL     1     -13.136   4.169   4.165  1.00  0.00     0.040 A 
ATOM     15  C   UNL     1     -14.269   3.547   4.690  1.00  0.00     0.034 A 
ATOM     16  C   UNL     1     -13.016   5.559   4.231  1.00  0.00     0.034 A 
ATOM     17  C   UNL     1     -15.263   4.307   5.274  1.00  0.00     0.043 A 
ATOM     18  C   UNL     1     -14.016   6.308   4.817  1.00  0.00     0.043 A 
ATOM     19  C   UNL     1     -15.138   5.685   5.337  1.00  0.00     0.041 A 
ATOM     20  Cl  UNL     1     -16.674   3.535   5.929  1.00  0.00    -0.084 Cl
ATOM     21  Cl  UNL     1     -13.868   8.036   4.901  1.00  0.00    -0.084 Cl
ENDBRANCH   7  14
TORSDOF 3
ENDMDL
