MODEL 1
REMARK VINA RESULT:    -5.661      0.000      0.000
REMARK INTER + INTRA:          -8.466
REMARK INTER:                  -7.813
REMARK INTRA:                  -0.654
REMARK UNBOUND:                -0.654
REMARK SMILES Cc1n[nH]c(C)c1CCCOc1cc(C(=O)O)ccc1F
REMARK SMILES IDX 11 1 12 2 14 3 18 4 13 5 19 6 20 7 21 8 15 9 16 10 17 11
REMARK SMILES IDX 10 13 9 14 8 15 7 16 5 17 2 18 4 19 3 20 6 21 1 22
REMARK H PARENT 17 12 4 23
ROOT
ATOM      1  O   UNL     1      -8.459   1.999   2.966  1.00  0.00    -0.490 OA
ENDROOT
BRANCH   1   2
ATOM      2  C   UNL     1      -7.523   1.666   2.037  1.00  0.00     0.155 A 
ATOM      3  C   UNL     1      -6.950   0.911  -0.173  1.00  0.00     0.063 A 
ATOM      4  C   UNL     1      -5.594   1.000   0.153  1.00  0.00     0.019 A 
ATOM      5  C   UNL     1      -7.915   1.247   0.780  1.00  0.00     0.065 A 
ATOM      6  C   UNL     1      -5.213   1.424   1.408  1.00  0.00     0.044 A 
ATOM      7  C   UNL     1      -6.171   1.762   2.349  1.00  0.00     0.165 A 
ATOM      8  F   UNL     1      -5.791   2.177   3.578  1.00  0.00    -0.203 F 
BRANCH   3   9
ATOM      9  C   UNL     1      -7.362   0.458  -1.516  1.00  0.00     0.335 C 
ATOM     10  O   UNL     1      -8.132  -0.473  -1.633  1.00  0.00    -0.246 OA
BRANCH   9  11
ATOM     11  O   UNL     1      -6.888   1.083  -2.612  1.00  0.00    -0.478 OA
ATOM     12  H   UNL     1      -7.539   1.406  -3.250  1.00  0.00     0.297 HD
ENDBRANCH   9  11
ENDBRANCH   3   9
ENDBRANCH   1   2
BRANCH   1  13
ATOM     13  C   UNL     1      -9.076   0.924   3.680  1.00  0.00     0.230 C 
BRANCH  13  14
ATOM     14  C   UNL     1     -10.523   1.295   4.009  1.00  0.00     0.046 C 
BRANCH  14  15
ATOM     15  C   UNL     1     -11.139   2.043   2.825  1.00  0.00     0.043 C 
BRANCH  15  16
ATOM     16  C   UNL     1     -12.597   2.306   3.101  1.00  0.00    -0.004 A 
ATOM     17  C   UNL     1     -13.634   1.528   2.712  1.00  0.00     0.036 A 
ATOM     18  C   UNL     1     -13.118   3.394   3.809  1.00  0.00     0.063 A 
ATOM     19  N   UNL     1     -14.771   2.106   3.152  1.00  0.00    -0.282 N 
ATOM     20  N   UNL     1     -14.421   3.279   3.835  1.00  0.00    -0.181 NA
ATOM     21  C   UNL     1     -13.536   0.245   1.927  1.00  0.00     0.066 C 
ATOM     22  C   UNL     1     -12.318   4.512   4.426  1.00  0.00     0.069 C 
ATOM     23  H   UNL     1     -15.671   1.770   3.019  1.00  0.00     0.190 HD
ENDBRANCH  15  16
ENDBRANCH  14  15
ENDBRANCH  13  14
ENDBRANCH   1  13
TORSDOF 7
ENDMDL
MODEL 2
REMARK VINA RESULT:    -5.636      1.981      3.714
REMARK INTER + INTRA:          -8.431
REMARK INTER:                  -7.771
REMARK INTRA:                  -0.660
REMARK UNBOUND:                -0.654
REMARK SMILES Cc1n[nH]c(C)c1CCCOc1cc(C(=O)O)ccc1F
REMARK SMILES IDX 11 1 12 2 14 3 18 4 13 5 19 6 20 7 21 8 15 9 16 10 17 11
REMARK SMILES IDX 10 13 9 14 8 15 7 16 5 17 2 18 4 19 3 20 6 21 1 22
REMARK H PARENT 17 12 4 23
ROOT
ATOM      1  O   UNL     1      -9.359   1.294   0.370  1.00  0.00    -0.490 OA
ENDROOT
BRANCH   1   2
ATOM      2  C   UNL     1      -8.017   1.279   0.586  1.00  0.00     0.155 A 
ATOM      3  C   UNL     1      -6.130   1.657   2.029  1.00  0.00     0.063 A 
ATOM      4  C   UNL     1      -5.272   1.230   1.011  1.00  0.00     0.019 A 
ATOM      5  C   UNL     1      -7.509   1.679   1.808  1.00  0.00     0.065 A 
ATOM      6  C   UNL     1      -5.788   0.828  -0.202  1.00  0.00     0.044 A 
ATOM      7  C   UNL     1      -7.156   0.846  -0.417  1.00  0.00     0.165 A 
ATOM      8  F   UNL     1      -7.656   0.450  -1.608  1.00  0.00    -0.203 F 
BRANCH   3   9
ATOM      9  C   UNL     1      -5.581   2.088   3.329  1.00  0.00     0.335 C 
ATOM     10  O   UNL     1      -5.870   3.178   3.779  1.00  0.00    -0.246 OA
BRANCH   9  11
ATOM     11  O   UNL     1      -4.764   1.269   4.020  1.00  0.00    -0.478 OA
ATOM     12  H   UNL     1      -4.277   0.604   3.512  1.00  0.00     0.297 HD
ENDBRANCH   9  11
ENDBRANCH   3   9
ENDBRANCH   1   2
BRANCH   1  13
ATOM     13  C   UNL     1      -9.954   2.561   0.079  1.00  0.00     0.230 C 
BRANCH  13  14
ATOM     14  C   UNL     1     -11.377   2.596   0.640  1.00  0.00     0.046 C 
BRANCH  14  15
ATOM     15  C   UNL     1     -11.419   1.843   1.972  1.00  0.00     0.043 C 
BRANCH  15  16
ATOM     16  C   UNL     1     -12.786   1.986   2.588  1.00  0.00    -0.004 A 
ATOM     17  C   UNL     1     -13.180   2.965   3.435  1.00  0.00     0.036 A 
ATOM     18  C   UNL     1     -13.876   1.133   2.380  1.00  0.00     0.063 A 
ATOM     19  N   UNL     1     -14.470   2.736   3.757  1.00  0.00    -0.282 N 
ATOM     20  N   UNL     1     -14.883   1.578   3.086  1.00  0.00    -0.181 NA
ATOM     21  C   UNL     1     -12.329   4.106   3.929  1.00  0.00     0.066 C 
ATOM     22  C   UNL     1     -13.884  -0.094   1.504  1.00  0.00     0.069 C 
ATOM     23  H   UNL     1     -15.015   3.277   4.350  1.00  0.00     0.190 HD
ENDBRANCH  15  16
ENDBRANCH  14  15
ENDBRANCH  13  14
ENDBRANCH   1  13
TORSDOF 7
ENDMDL
MODEL 3
REMARK VINA RESULT:    -5.552      2.007      3.265
REMARK INTER + INTRA:          -8.315
REMARK INTER:                  -7.654
REMARK INTRA:                  -0.661
REMARK UNBOUND:                -0.654
REMARK SMILES Cc1n[nH]c(C)c1CCCOc1cc(C(=O)O)ccc1F
REMARK SMILES IDX 11 1 12 2 14 3 18 4 13 5 19 6 20 7 21 8 15 9 16 10 17 11
REMARK SMILES IDX 10 13 9 14 8 15 7 16 5 17 2 18 4 19 3 20 6 21 1 22
REMARK H PARENT 17 12 4 23
ROOT
ATOM      1  O   UNL     1      -9.491   1.300   0.567  1.00  0.00    -0.490 OA
ENDROOT
BRANCH   1   2
ATOM      2  C   UNL     1      -8.140   1.282   0.723  1.00  0.00     0.155 A 
ATOM      3  C   UNL     1      -6.190   1.661   2.078  1.00  0.00     0.063 A 
ATOM      4  C   UNL     1      -5.379   1.229   1.025  1.00  0.00     0.019 A 
ATOM      5  C   UNL     1      -7.577   1.685   1.920  1.00  0.00     0.065 A 
ATOM      6  C   UNL     1      -5.950   0.824  -0.163  1.00  0.00     0.044 A 
ATOM      7  C   UNL     1      -7.326   0.844  -0.316  1.00  0.00     0.165 A 
ATOM      8  F   UNL     1      -7.879   0.444  -1.482  1.00  0.00    -0.203 F 
BRANCH   3   9
ATOM      9  C   UNL     1      -5.582   2.096   3.351  1.00  0.00     0.335 C 
ATOM     10  O   UNL     1      -5.839   3.193   3.803  1.00  0.00    -0.246 OA
BRANCH   9  11
ATOM     11  O   UNL     1      -4.747   1.272   4.014  1.00  0.00    -0.478 OA
ATOM     12  H   UNL     1      -4.664   0.369   3.679  1.00  0.00     0.297 HD
ENDBRANCH   9  11
ENDBRANCH   3   9
ENDBRANCH   1   2
BRANCH   1  13
ATOM     13  C   UNL     1     -10.079   2.532   0.143  1.00  0.00     0.230 C 
BRANCH  13  14
ATOM     14  C   UNL     1     -11.492   2.646   0.718  1.00  0.00     0.046 C 
BRANCH  14  15
ATOM     15  C   UNL     1     -11.559   1.907   2.056  1.00  0.00     0.043 C 
BRANCH  15  16
ATOM     16  C   UNL     1     -12.964   1.974   2.597  1.00  0.00    -0.004 A 
ATOM     17  C   UNL     1     -13.969   1.113   2.313  1.00  0.00     0.036 A 
ATOM     18  C   UNL     1     -13.458   2.932   3.488  1.00  0.00     0.063 A 
ATOM     19  N   UNL     1     -15.062   1.517   2.994  1.00  0.00    -0.282 N 
ATOM     20  N   UNL     1     -14.717   2.664   3.721  1.00  0.00    -0.181 NA
ATOM     21  C   UNL     1     -13.883  -0.082   1.400  1.00  0.00     0.066 C 
ATOM     22  C   UNL     1     -12.678   4.084   4.069  1.00  0.00     0.069 C 
ATOM     23  H   UNL     1     -15.932   1.090   2.982  1.00  0.00     0.190 HD
ENDBRANCH  15  16
ENDBRANCH  14  15
ENDBRANCH  13  14
ENDBRANCH   1  13
TORSDOF 7
ENDMDL
MODEL 4
REMARK VINA RESULT:    -5.523      0.178      1.775
REMARK INTER + INTRA:          -8.275
REMARK INTER:                  -7.605
REMARK INTRA:                  -0.670
REMARK UNBOUND:                -0.654
REMARK SMILES Cc1n[nH]c(C)c1CCCOc1cc(C(=O)O)ccc1F
REMARK SMILES IDX 11 1 12 2 14 3 18 4 13 5 19 6 20 7 21 8 15 9 16 10 17 11
REMARK SMILES IDX 10 13 9 14 8 15 7 16 5 17 2 18 4 19 3 20 6 21 1 22
REMARK H PARENT 17 12 4 23
ROOT
ATOM      1  O   UNL     1      -8.612   1.974   2.924  1.00  0.00    -0.490 OA
ENDROOT
BRANCH   1   2
ATOM      2  C   UNL     1      -7.647   1.664   2.019  1.00  0.00     0.155 A 
ATOM      3  C   UNL     1      -7.004   0.920  -0.175  1.00  0.00     0.063 A 
ATOM      4  C   UNL     1      -5.658   1.044   0.181  1.00  0.00     0.019 A 
ATOM      5  C   UNL     1      -7.998   1.233   0.753  1.00  0.00     0.065 A 
ATOM      6  C   UNL     1      -5.317   1.481   1.444  1.00  0.00     0.044 A 
ATOM      7  C   UNL     1      -6.305   1.795   2.362  1.00  0.00     0.165 A 
ATOM      8  F   UNL     1      -5.965   2.222   3.597  1.00  0.00    -0.203 F 
BRANCH   3   9
ATOM      9  C   UNL     1      -7.372   0.454  -1.527  1.00  0.00     0.335 C 
ATOM     10  O   UNL     1      -8.107  -0.503  -1.660  1.00  0.00    -0.246 OA
BRANCH   9  11
ATOM     11  O   UNL     1      -6.898   1.095  -2.613  1.00  0.00    -0.478 OA
ATOM     12  H   UNL     1      -6.883   2.062  -2.580  1.00  0.00     0.297 HD
ENDBRANCH   9  11
ENDBRANCH   3   9
ENDBRANCH   1   2
BRANCH   1  13
ATOM     13  C   UNL     1      -9.186   0.889   3.658  1.00  0.00     0.230 C 
BRANCH  13  14
ATOM     14  C   UNL     1     -10.642   1.217   3.996  1.00  0.00     0.046 C 
BRANCH  14  15
ATOM     15  C   UNL     1     -11.232   2.108   2.901  1.00  0.00     0.043 C 
BRANCH  15  16
ATOM     16  C   UNL     1     -12.661   2.444   3.240  1.00  0.00    -0.004 A 
ATOM     17  C   UNL     1     -13.078   3.505   3.970  1.00  0.00     0.036 A 
ATOM     18  C   UNL     1     -13.791   1.718   2.852  1.00  0.00     0.063 A 
ATOM     19  N   UNL     1     -14.424   3.448   4.046  1.00  0.00    -0.282 N 
ATOM     20  N   UNL     1     -14.848   2.315   3.340  1.00  0.00    -0.181 NA
ATOM     21  C   UNL     1     -12.197   4.560   4.587  1.00  0.00     0.066 C 
ATOM     22  C   UNL     1     -13.792   0.458   2.024  1.00  0.00     0.069 C 
ATOM     23  H   UNL     1     -14.996   4.079   4.509  1.00  0.00     0.190 HD
ENDBRANCH  15  16
ENDBRANCH  14  15
ENDBRANCH  13  14
ENDBRANCH   1  13
TORSDOF 7
ENDMDL
MODEL 5
REMARK VINA RESULT:    -4.724      3.759      6.622
REMARK INTER + INTRA:          -7.172
REMARK INTER:                  -6.319
REMARK INTRA:                  -0.853
REMARK UNBOUND:                -0.654
REMARK SMILES Cc1n[nH]c(C)c1CCCOc1cc(C(=O)O)ccc1F
REMARK SMILES IDX 11 1 12 2 14 3 18 4 13 5 19 6 20 7 21 8 15 9 16 10 17 11
REMARK SMILES IDX 10 13 9 14 8 15 7 16 5 17 2 18 4 19 3 20 6 21 1 22
REMARK H PARENT 17 12 4 23
ROOT
ATOM      1  O   UNL     1      -9.783   2.600   2.807  1.00  0.00    -0.490 OA
ENDROOT
BRANCH   1   2
ATOM      2  C   UNL     1     -11.132   2.460   2.895  1.00  0.00     0.155 A 
ATOM      3  C   UNL     1     -13.140   1.232   2.403  1.00  0.00     0.063 A 
ATOM      4  C   UNL     1     -13.889   2.187   3.096  1.00  0.00     0.019 A 
ATOM      5  C   UNL     1     -11.754   1.375   2.306  1.00  0.00     0.065 A 
ATOM      6  C   UNL     1     -13.259   3.262   3.685  1.00  0.00     0.044 A 
ATOM      7  C   UNL     1     -11.884   3.400   3.592  1.00  0.00     0.165 A 
ATOM      8  F   UNL     1     -11.273   4.456   4.171  1.00  0.00    -0.203 F 
BRANCH   3   9
ATOM      9  C   UNL     1     -13.811   0.079   1.772  1.00  0.00     0.335 C 
ATOM     10  O   UNL     1     -14.186   0.151   0.619  1.00  0.00    -0.246 OA
BRANCH   9  11
ATOM     11  O   UNL     1     -14.002  -1.056   2.473  1.00  0.00    -0.478 OA
ATOM     12  H   UNL     1     -14.915  -1.358   2.579  1.00  0.00     0.297 HD
ENDBRANCH   9  11
ENDBRANCH   3   9
ENDBRANCH   1   2
BRANCH   1  13
ATOM     13  C   UNL     1      -8.994   1.425   3.010  1.00  0.00     0.230 C 
BRANCH  13  14
ATOM     14  C   UNL     1      -7.528   1.737   2.704  1.00  0.00     0.046 C 
BRANCH  14  15
ATOM     15  C   UNL     1      -7.448   2.701   1.518  1.00  0.00     0.043 C 
BRANCH  15  16
ATOM     16  C   UNL     1      -7.413   1.916   0.233  1.00  0.00    -0.004 A 
ATOM     17  C   UNL     1      -8.380   1.895  -0.714  1.00  0.00     0.036 A 
ATOM     18  C   UNL     1      -6.373   1.085  -0.196  1.00  0.00     0.063 A 
ATOM     19  N   UNL     1      -7.969   1.075  -1.704  1.00  0.00    -0.282 N 
ATOM     20  N   UNL     1      -6.708   0.574  -1.353  1.00  0.00    -0.181 NA
ATOM     21  C   UNL     1      -9.681   2.653  -0.671  1.00  0.00     0.066 C 
ATOM     22  C   UNL     1      -5.093   0.813   0.552  1.00  0.00     0.069 C 
ATOM     23  H   UNL     1      -8.460   0.867  -2.513  1.00  0.00     0.190 HD
ENDBRANCH  15  16
ENDBRANCH  14  15
ENDBRANCH  13  14
ENDBRANCH   1  13
TORSDOF 7
ENDMDL
MODEL 6
REMARK VINA RESULT:    -4.700      3.779      7.133
REMARK INTER + INTRA:          -7.140
REMARK INTER:                  -6.293
REMARK INTRA:                  -0.848
REMARK UNBOUND:                -0.654
REMARK SMILES Cc1n[nH]c(C)c1CCCOc1cc(C(=O)O)ccc1F
REMARK SMILES IDX 11 1 12 2 14 3 18 4 13 5 19 6 20 7 21 8 15 9 16 10 17 11
REMARK SMILES IDX 10 13 9 14 8 15 7 16 5 17 2 18 4 19 3 20 6 21 1 22
REMARK H PARENT 17 12 4 23
ROOT
ATOM      1  O   UNL     1     -10.466   1.090   1.236  1.00  0.00    -0.490 OA
ENDROOT
BRANCH   1   2
ATOM      2  C   UNL     1     -11.532   1.558   1.937  1.00  0.00     0.155 A 
ATOM      3  C   UNL     1     -12.515   3.199   3.394  1.00  0.00     0.063 A 
ATOM      4  C   UNL     1     -13.727   2.504   3.354  1.00  0.00     0.019 A 
ATOM      5  C   UNL     1     -11.416   2.719   2.680  1.00  0.00     0.065 A 
ATOM      6  C   UNL     1     -13.835   1.350   2.606  1.00  0.00     0.044 A 
ATOM      7  C   UNL     1     -12.744   0.878   1.894  1.00  0.00     0.165 A 
ATOM      8  F   UNL     1     -12.857  -0.252   1.163  1.00  0.00    -0.203 F 
BRANCH   3   9
ATOM      9  C   UNL     1     -12.396   4.434   4.194  1.00  0.00     0.335 C 
ATOM     10  O   UNL     1     -12.614   5.513   3.681  1.00  0.00    -0.246 OA
BRANCH   9  11
ATOM     11  O   UNL     1     -12.052   4.364   5.495  1.00  0.00    -0.478 OA
ATOM     12  H   UNL     1     -12.746   4.109   6.119  1.00  0.00     0.297 HD
ENDBRANCH   9  11
ENDBRANCH   3   9
ENDBRANCH   1   2
BRANCH   1  13
ATOM     13  C   UNL     1      -9.653   2.058   0.568  1.00  0.00     0.230 C 
BRANCH  13  14
ATOM     14  C   UNL     1      -8.393   1.379   0.029  1.00  0.00     0.046 C 
BRANCH  14  15
ATOM     15  C   UNL     1      -7.960   0.270   0.989  1.00  0.00     0.043 C 
BRANCH  15  16
ATOM     16  C   UNL     1      -6.986   0.826   1.995  1.00  0.00    -0.004 A 
ATOM     17  C   UNL     1      -5.731   1.260   1.734  1.00  0.00     0.036 A 
ATOM     18  C   UNL     1      -7.222   0.993   3.364  1.00  0.00     0.063 A 
ATOM     19  N   UNL     1      -5.190   1.679   2.897  1.00  0.00    -0.282 N 
ATOM     20  N   UNL     1      -6.144   1.497   3.906  1.00  0.00    -0.181 NA
ATOM     21  C   UNL     1      -5.059   1.272   0.386  1.00  0.00     0.066 C 
ATOM     22  C   UNL     1      -8.495   0.640   4.091  1.00  0.00     0.069 C 
ATOM     23  H   UNL     1      -4.298   2.042   3.013  1.00  0.00     0.190 HD
ENDBRANCH  15  16
ENDBRANCH  14  15
ENDBRANCH  13  14
ENDBRANCH   1  13
TORSDOF 7
ENDMDL
MODEL 7
REMARK VINA RESULT:    -4.687      3.773      7.145
REMARK INTER + INTRA:          -7.122
REMARK INTER:                  -6.258
REMARK INTRA:                  -0.864
REMARK UNBOUND:                -0.654
REMARK SMILES Cc1n[nH]c(C)c1CCCOc1cc(C(=O)O)ccc1F
REMARK SMILES IDX 11 1 12 2 14 3 18 4 13 5 19 6 20 7 21 8 15 9 16 10 17 11
REMARK SMILES IDX 10 13 9 14 8 15 7 16 5 17 2 18 4 19 3 20 6 21 1 22
REMARK H PARENT 17 12 4 23
ROOT
ATOM      1  O   UNL     1     -10.492   1.042   1.216  1.00  0.00    -0.490 OA
ENDROOT
BRANCH   1   2
ATOM      2  C   UNL     1     -11.549   1.527   1.920  1.00  0.00     0.155 A 
ATOM      3  C   UNL     1     -12.504   3.188   3.373  1.00  0.00     0.063 A 
ATOM      4  C   UNL     1     -13.724   2.506   3.344  1.00  0.00     0.019 A 
ATOM      5  C   UNL     1     -11.415   2.690   2.655  1.00  0.00     0.065 A 
ATOM      6  C   UNL     1     -13.849   1.350   2.604  1.00  0.00     0.044 A 
ATOM      7  C   UNL     1     -12.769   0.861   1.889  1.00  0.00     0.165 A 
ATOM      8  F   UNL     1     -12.898  -0.273   1.165  1.00  0.00    -0.203 F 
BRANCH   3   9
ATOM      9  C   UNL     1     -12.367   4.426   4.164  1.00  0.00     0.335 C 
ATOM     10  O   UNL     1     -12.594   5.503   3.652  1.00  0.00    -0.246 OA
BRANCH   9  11
ATOM     11  O   UNL     1     -11.995   4.361   5.458  1.00  0.00    -0.478 OA
ATOM     12  H   UNL     1     -12.379   5.014   6.059  1.00  0.00     0.297 HD
ENDBRANCH   9  11
ENDBRANCH   3   9
ENDBRANCH   1   2
BRANCH   1  13
ATOM     13  C   UNL     1      -9.638   2.001   0.586  1.00  0.00     0.230 C 
BRANCH  13  14
ATOM     14  C   UNL     1      -8.401   1.293   0.030  1.00  0.00     0.046 C 
BRANCH  14  15
ATOM     15  C   UNL     1      -7.928   0.234   1.028  1.00  0.00     0.043 C 
BRANCH  15  16
ATOM     16  C   UNL     1      -6.985   0.863   2.020  1.00  0.00    -0.004 A 
ATOM     17  C   UNL     1      -7.227   1.054   3.338  1.00  0.00     0.036 A 
ATOM     18  C   UNL     1      -5.702   1.348   1.744  1.00  0.00     0.063 A 
ATOM     19  N   UNL     1      -6.139   1.645   3.875  1.00  0.00    -0.282 N 
ATOM     20  N   UNL     1      -5.197   1.823   2.853  1.00  0.00    -0.181 NA
ATOM     21  C   UNL     1      -8.485   0.675   4.074  1.00  0.00     0.066 C 
ATOM     22  C   UNL     1      -5.024   1.337   0.398  1.00  0.00     0.069 C 
ATOM     23  H   UNL     1      -6.028   1.901   4.803  1.00  0.00     0.190 HD
ENDBRANCH  15  16
ENDBRANCH  14  15
ENDBRANCH  13  14
ENDBRANCH   1  13
TORSDOF 7
ENDMDL
MODEL 8
REMARK VINA RESULT:    -4.655      3.768      6.646
REMARK INTER + INTRA:          -7.078
REMARK INTER:                  -6.220
REMARK INTRA:                  -0.858
REMARK UNBOUND:                -0.654
REMARK SMILES Cc1n[nH]c(C)c1CCCOc1cc(C(=O)O)ccc1F
REMARK SMILES IDX 11 1 12 2 14 3 18 4 13 5 19 6 20 7 21 8 15 9 16 10 17 11
REMARK SMILES IDX 10 13 9 14 8 15 7 16 5 17 2 18 4 19 3 20 6 21 1 22
REMARK H PARENT 17 12 4 23
ROOT
ATOM      1  O   UNL     1      -9.819   2.491   2.884  1.00  0.00    -0.490 OA
ENDROOT
BRANCH   1   2
ATOM      2  C   UNL     1     -11.174   2.397   2.958  1.00  0.00     0.155 A 
ATOM      3  C   UNL     1     -13.212   1.204   2.504  1.00  0.00     0.063 A 
ATOM      4  C   UNL     1     -13.941   2.220   3.129  1.00  0.00     0.019 A 
ATOM      5  C   UNL     1     -11.821   1.300   2.421  1.00  0.00     0.065 A 
ATOM      6  C   UNL     1     -13.286   3.307   3.666  1.00  0.00     0.044 A 
ATOM      7  C   UNL     1     -11.906   3.397   3.588  1.00  0.00     0.165 A 
ATOM      8  F   UNL     1     -11.270   4.466   4.117  1.00  0.00    -0.203 F 
BRANCH   3   9
ATOM      9  C   UNL     1     -13.910   0.038   1.927  1.00  0.00     0.335 C 
ATOM     10  O   UNL     1     -15.085  -0.146   2.168  1.00  0.00    -0.246 OA
BRANCH   9  11
ATOM     11  O   UNL     1     -13.243  -0.818   1.128  1.00  0.00    -0.478 OA
ATOM     12  H   UNL     1     -12.428  -0.493   0.720  1.00  0.00     0.297 HD
ENDBRANCH   9  11
ENDBRANCH   3   9
ENDBRANCH   1   2
BRANCH   1  13
ATOM     13  C   UNL     1      -9.081   1.267   2.923  1.00  0.00     0.230 C 
BRANCH  13  14
ATOM     14  C   UNL     1      -7.594   1.562   2.720  1.00  0.00     0.046 C 
BRANCH  14  15
ATOM     15  C   UNL     1      -7.428   2.601   1.609  1.00  0.00     0.043 C 
BRANCH  15  16
ATOM     16  C   UNL     1      -7.369   1.906   0.274  1.00  0.00    -0.004 A 
ATOM     17  C   UNL     1      -6.346   1.149  -0.185  1.00  0.00     0.036 A 
ATOM     18  C   UNL     1      -8.366   1.923  -0.707  1.00  0.00     0.063 A 
ATOM     19  N   UNL     1      -6.681   0.709  -1.417  1.00  0.00    -0.282 N 
ATOM     20  N   UNL     1      -7.952   1.212  -1.723  1.00  0.00    -0.181 NA
ATOM     21  C   UNL     1      -5.063   0.851   0.546  1.00  0.00     0.066 C 
ATOM     22  C   UNL     1      -9.685   2.647  -0.614  1.00  0.00     0.069 C 
ATOM     23  H   UNL     1      -6.137   0.144  -1.988  1.00  0.00     0.190 HD
ENDBRANCH  15  16
ENDBRANCH  14  15
ENDBRANCH  13  14
ENDBRANCH   1  13
TORSDOF 7
ENDMDL
MODEL 9
REMARK VINA RESULT:    -4.364      3.777      7.123
REMARK INTER + INTRA:          -6.675
REMARK INTER:                  -5.916
REMARK INTRA:                  -0.760
REMARK UNBOUND:                -0.654
REMARK SMILES Cc1n[nH]c(C)c1CCCOc1cc(C(=O)O)ccc1F
REMARK SMILES IDX 11 1 12 2 14 3 18 4 13 5 19 6 20 7 21 8 15 9 16 10 17 11
REMARK SMILES IDX 10 13 9 14 8 15 7 16 5 17 2 18 4 19 3 20 6 21 1 22
REMARK H PARENT 17 12 4 23
ROOT
ATOM      1  O   UNL     1      -9.992   1.202   2.391  1.00  0.00    -0.490 OA
ENDROOT
BRANCH   1   2
ATOM      2  C   UNL     1     -11.198   1.737   2.718  1.00  0.00     0.155 A 
ATOM      3  C   UNL     1     -12.500   3.464   3.770  1.00  0.00     0.063 A 
ATOM      4  C   UNL     1     -13.673   2.820   3.367  1.00  0.00     0.019 A 
ATOM      5  C   UNL     1     -11.259   2.914   3.440  1.00  0.00     0.065 A 
ATOM      6  C   UNL     1     -13.602   1.649   2.642  1.00  0.00     0.044 A 
ATOM      7  C   UNL     1     -12.370   1.108   2.312  1.00  0.00     0.165 A 
ATOM      8  F   UNL     1     -12.308  -0.039   1.601  1.00  0.00    -0.203 F 
BRANCH   3   9
ATOM      9  C   UNL     1     -12.572   4.718   4.546  1.00  0.00     0.335 C 
ATOM     10  O   UNL     1     -11.638   5.492   4.536  1.00  0.00    -0.246 OA
BRANCH   9  11
ATOM     11  O   UNL     1     -13.678   5.005   5.259  1.00  0.00    -0.478 OA
ATOM     12  H   UNL     1     -13.864   5.940   5.425  1.00  0.00     0.297 HD
ENDBRANCH   9  11
ENDBRANCH   3   9
ENDBRANCH   1   2
BRANCH   1  13
ATOM     13  C   UNL     1      -8.966   1.259   3.385  1.00  0.00     0.230 C 
BRANCH  13  14
ATOM     14  C   UNL     1      -7.596   1.261   2.703  1.00  0.00     0.046 C 
BRANCH  14  15
ATOM     15  C   UNL     1      -7.551   2.370   1.651  1.00  0.00     0.043 C 
BRANCH  15  16
ATOM     16  C   UNL     1      -7.445   1.758   0.278  1.00  0.00    -0.004 A 
ATOM     17  C   UNL     1      -8.379   1.827  -0.699  1.00  0.00     0.036 A 
ATOM     18  C   UNL     1      -6.362   1.022  -0.214  1.00  0.00     0.063 A 
ATOM     19  N   UNL     1      -7.906   1.154  -1.769  1.00  0.00    -0.282 N 
ATOM     20  N   UNL     1      -6.639   0.654  -1.438  1.00  0.00    -0.181 NA
ATOM     21  C   UNL     1      -9.708   2.531  -0.609  1.00  0.00     0.066 C 
ATOM     22  C   UNL     1      -5.098   0.699   0.541  1.00  0.00     0.069 C 
ATOM     23  H   UNL     1      -8.362   1.036  -2.616  1.00  0.00     0.190 HD
ENDBRANCH  15  16
ENDBRANCH  14  15
ENDBRANCH  13  14
ENDBRANCH   1  13
TORSDOF 7
ENDMDL
