MODEL 1
REMARK VINA RESULT:    -5.083      0.000      0.000
REMARK INTER + INTRA:          -6.119
REMARK INTER:                  -5.826
REMARK INTRA:                  -0.293
REMARK UNBOUND:                -0.293
REMARK SMILES O=C(O)c1ccc2nc(-c3cc(Cl)cc(Cl)c3)oc2c1
REMARK SMILES IDX 5 1 6 2 20 3 8 4 18 5 4 6 9 7 7 8 19 9 2 10 1 11 3 12 10 14
REMARK SMILES IDX 11 15 17 16 12 17 15 18 14 19 13 20 16 21
REMARK H PARENT 3 13
ROOT
ATOM      1  C   UNL     1      -4.941  -1.431   0.257  1.00  0.00     0.018 A 
ATOM      2  C   UNL     1      -3.676  -1.938   0.240  1.00  0.00     0.033 A 
ATOM      3  C   UNL     1      -4.082   0.789  -0.211  1.00  0.00     0.065 A 
ATOM      4  N   UNL     1      -1.253  -1.298  -0.076  1.00  0.00    -0.209 NA
ATOM      5  O   UNL     1      -1.577   0.826  -0.422  1.00  0.00    -0.436 OA
ATOM      6  C   UNL     1      -5.161  -0.065   0.030  1.00  0.00     0.063 A 
ATOM      7  C   UNL     1      -0.661  -0.156  -0.327  1.00  0.00     0.227 A 
ATOM      8  C   UNL     1      -2.586  -1.093  -0.000  1.00  0.00     0.110 A 
ATOM      9  C   UNL     1      -2.797   0.278  -0.224  1.00  0.00     0.156 A 
ENDROOT
BRANCH   6  10
ATOM     10  C   UNL     1      -6.533   0.472   0.045  1.00  0.00     0.335 C 
ATOM     11  O   UNL     1      -6.879   1.279  -0.795  1.00  0.00    -0.246 OA
BRANCH  10  12
ATOM     12  O   UNL     1      -7.406   0.067   0.989  1.00  0.00    -0.478 OA
ATOM     13  H   UNL     1      -7.593   0.686   1.708  1.00  0.00     0.297 HD
ENDBRANCH  10  12
ENDBRANCH   6  10
BRANCH   7  14
ATOM     14  C   UNL     1       0.797   0.026  -0.481  1.00  0.00     0.040 A 
ATOM     15  C   UNL     1       1.664  -1.048  -0.271  1.00  0.00     0.034 A 
ATOM     16  C   UNL     1       1.313   1.274  -0.837  1.00  0.00     0.034 A 
ATOM     17  C   UNL     1       3.025  -0.871  -0.418  1.00  0.00     0.043 A 
ATOM     18  C   UNL     1       2.676   1.437  -0.980  1.00  0.00     0.043 A 
ATOM     19  C   UNL     1       3.531   0.369  -0.771  1.00  0.00     0.041 A 
ATOM     20  Cl  UNL     1       4.105  -2.205  -0.159  1.00  0.00    -0.084 Cl
ATOM     21  Cl  UNL     1       3.321   2.988  -1.423  1.00  0.00    -0.084 Cl
ENDBRANCH   7  14
TORSDOF 3
ENDMDL
MODEL 2
REMARK VINA RESULT:    -5.065      0.005      2.019
REMARK INTER + INTRA:          -6.099
REMARK INTER:                  -5.806
REMARK INTRA:                  -0.293
REMARK UNBOUND:                -0.293
REMARK SMILES O=C(O)c1ccc2nc(-c3cc(Cl)cc(Cl)c3)oc2c1
REMARK SMILES IDX 5 1 6 2 20 3 8 4 18 5 4 6 9 7 7 8 19 9 2 10 1 11 3 12 10 14
REMARK SMILES IDX 11 15 17 16 12 17 15 18 14 19 13 20 16 21
REMARK H PARENT 3 13
ROOT
ATOM      1  C   UNL     1      -4.941  -1.431   0.255  1.00  0.00     0.018 A 
ATOM      2  C   UNL     1      -3.676  -1.938   0.235  1.00  0.00     0.033 A 
ATOM      3  C   UNL     1      -4.083   0.790  -0.206  1.00  0.00     0.065 A 
ATOM      4  N   UNL     1      -1.253  -1.296  -0.081  1.00  0.00    -0.209 NA
ATOM      5  O   UNL     1      -1.578   0.829  -0.419  1.00  0.00    -0.436 OA
ATOM      6  C   UNL     1      -5.161  -0.064   0.033  1.00  0.00     0.063 A 
ATOM      7  C   UNL     1      -0.662  -0.153  -0.328  1.00  0.00     0.227 A 
ATOM      8  C   UNL     1      -2.586  -1.092  -0.004  1.00  0.00     0.110 A 
ATOM      9  C   UNL     1      -2.798   0.281  -0.222  1.00  0.00     0.156 A 
ENDROOT
BRANCH   6  10
ATOM     10  C   UNL     1      -6.534   0.472   0.051  1.00  0.00     0.335 C 
ATOM     11  O   UNL     1      -6.880   1.283  -0.785  1.00  0.00    -0.246 OA
BRANCH  10  12
ATOM     12  O   UNL     1      -7.406   0.063   0.994  1.00  0.00    -0.478 OA
ATOM     13  H   UNL     1      -8.246  -0.301   0.687  1.00  0.00     0.297 HD
ENDBRANCH  10  12
ENDBRANCH   6  10
BRANCH   7  14
ATOM     14  C   UNL     1       0.796   0.030  -0.483  1.00  0.00     0.040 A 
ATOM     15  C   UNL     1       1.312   1.276  -0.842  1.00  0.00     0.034 A 
ATOM     16  C   UNL     1       1.663  -1.044  -0.272  1.00  0.00     0.034 A 
ATOM     17  C   UNL     1       2.676   1.440  -0.985  1.00  0.00     0.043 A 
ATOM     18  C   UNL     1       3.024  -0.867  -0.417  1.00  0.00     0.043 A 
ATOM     19  C   UNL     1       3.530   0.371  -0.774  1.00  0.00     0.041 A 
ATOM     20  Cl  UNL     1       3.320   2.989  -1.430  1.00  0.00    -0.084 Cl
ATOM     21  Cl  UNL     1       4.104  -2.201  -0.155  1.00  0.00    -0.084 Cl
ENDBRANCH   7  14
TORSDOF 3
ENDMDL
MODEL 3
REMARK VINA RESULT:    -5.045      3.998      7.555
REMARK INTER + INTRA:          -6.075
REMARK INTER:                  -5.784
REMARK INTRA:                  -0.291
REMARK UNBOUND:                -0.293
REMARK SMILES O=C(O)c1ccc2nc(-c3cc(Cl)cc(Cl)c3)oc2c1
REMARK SMILES IDX 5 1 6 2 20 3 8 4 18 5 4 6 9 7 7 8 19 9 2 10 1 11 3 12 10 14
REMARK SMILES IDX 11 15 17 16 12 17 15 18 14 19 13 20 16 21
REMARK H PARENT 3 13
ROOT
ATOM      1  C   UNL     1       2.152   0.720  -1.508  1.00  0.00     0.018 A 
ATOM      2  C   UNL     1       0.862   1.009  -1.837  1.00  0.00     0.033 A 
ATOM      3  C   UNL     1       1.396  -0.708   0.301  1.00  0.00     0.065 A 
ATOM      4  N   UNL     1      -1.535   0.542  -1.189  1.00  0.00    -0.209 NA
ATOM      5  O   UNL     1      -1.110  -0.790   0.478  1.00  0.00    -0.436 OA
ATOM      6  C   UNL     1       2.436  -0.141  -0.439  1.00  0.00     0.063 A 
ATOM      7  C   UNL     1      -2.074  -0.193  -0.249  1.00  0.00     0.227 A 
ATOM      8  C   UNL     1      -0.191   0.447  -1.104  1.00  0.00     0.110 A 
ATOM      9  C   UNL     1       0.086  -0.414  -0.027  1.00  0.00     0.156 A 
ENDROOT
BRANCH   6  10
ATOM     10  C   UNL     1       3.836  -0.451  -0.095  1.00  0.00     0.335 C 
ATOM     11  O   UNL     1       4.630   0.451   0.088  1.00  0.00    -0.246 OA
BRANCH  10  12
ATOM     12  O   UNL     1       4.236  -1.733   0.013  1.00  0.00    -0.478 OA
ATOM     13  H   UNL     1       5.145  -1.933  -0.247  1.00  0.00     0.297 HD
ENDBRANCH  10  12
ENDBRANCH   6  10
BRANCH   7  14
ATOM     14  C   UNL     1      -3.526  -0.346  -0.020  1.00  0.00     0.040 A 
ATOM     15  C   UNL     1      -3.991  -1.121   1.043  1.00  0.00     0.034 A 
ATOM     16  C   UNL     1      -4.438   0.286  -0.868  1.00  0.00     0.034 A 
ATOM     17  C   UNL     1      -5.349  -1.258   1.252  1.00  0.00     0.043 A 
ATOM     18  C   UNL     1      -5.794   0.141  -0.648  1.00  0.00     0.043 A 
ATOM     19  C   UNL     1      -6.248  -0.629   0.408  1.00  0.00     0.041 A 
ATOM     20  Cl  UNL     1      -5.929  -2.222   2.574  1.00  0.00    -0.084 Cl
ATOM     21  Cl  UNL     1      -6.930   0.926  -1.701  1.00  0.00    -0.084 Cl
ENDBRANCH   7  14
TORSDOF 3
ENDMDL
MODEL 4
REMARK VINA RESULT:    -5.041      4.000      7.758
REMARK INTER + INTRA:          -6.071
REMARK INTER:                  -5.780
REMARK INTRA:                  -0.291
REMARK UNBOUND:                -0.293
REMARK SMILES O=C(O)c1ccc2nc(-c3cc(Cl)cc(Cl)c3)oc2c1
REMARK SMILES IDX 5 1 6 2 20 3 8 4 18 5 4 6 9 7 7 8 19 9 2 10 1 11 3 12 10 14
REMARK SMILES IDX 11 15 17 16 12 17 15 18 14 19 13 20 16 21
REMARK H PARENT 3 13
ROOT
ATOM      1  C   UNL     1       2.136   0.699  -1.539  1.00  0.00     0.018 A 
ATOM      2  C   UNL     1       0.843   0.970  -1.875  1.00  0.00     0.033 A 
ATOM      3  C   UNL     1       1.391  -0.675   0.315  1.00  0.00     0.065 A 
ATOM      4  N   UNL     1      -1.550   0.510  -1.209  1.00  0.00    -0.209 NA
ATOM      5  O   UNL     1      -1.114  -0.767   0.498  1.00  0.00    -0.436 OA
ATOM      6  C   UNL     1       2.427  -0.126  -0.444  1.00  0.00     0.063 A 
ATOM      7  C   UNL     1      -2.083  -0.199  -0.245  1.00  0.00     0.227 A 
ATOM      8  C   UNL     1      -0.205   0.425  -1.123  1.00  0.00     0.110 A 
ATOM      9  C   UNL     1       0.078  -0.400  -0.020  1.00  0.00     0.156 A 
ENDROOT
BRANCH   6  10
ATOM     10  C   UNL     1       3.829  -0.416  -0.093  1.00  0.00     0.335 C 
ATOM     11  O   UNL     1       4.620   0.494   0.049  1.00  0.00    -0.246 OA
BRANCH  10  12
ATOM     12  O   UNL     1       4.233  -1.692   0.069  1.00  0.00    -0.478 OA
ATOM     13  H   UNL     1       4.537  -2.160  -0.720  1.00  0.00     0.297 HD
ENDBRANCH  10  12
ENDBRANCH   6  10
BRANCH   7  14
ATOM     14  C   UNL     1      -3.533  -0.353  -0.010  1.00  0.00     0.040 A 
ATOM     15  C   UNL     1      -4.451   0.271  -0.856  1.00  0.00     0.034 A 
ATOM     16  C   UNL     1      -3.991  -1.122   1.062  1.00  0.00     0.034 A 
ATOM     17  C   UNL     1      -5.805   0.123  -0.630  1.00  0.00     0.043 A 
ATOM     18  C   UNL     1      -5.348  -1.263   1.277  1.00  0.00     0.043 A 
ATOM     19  C   UNL     1      -6.253  -0.641   0.434  1.00  0.00     0.041 A 
ATOM     20  Cl  UNL     1      -6.949   0.897  -1.682  1.00  0.00    -0.084 Cl
ATOM     21  Cl  UNL     1      -5.919  -2.219   2.609  1.00  0.00    -0.084 Cl
ENDBRANCH   7  14
TORSDOF 3
ENDMDL
MODEL 5
REMARK VINA RESULT:    -4.284     14.257     14.888
REMARK INTER + INTRA:          -5.203
REMARK INTER:                  -4.921
REMARK INTRA:                  -0.282
REMARK UNBOUND:                -0.293
REMARK SMILES O=C(O)c1ccc2nc(-c3cc(Cl)cc(Cl)c3)oc2c1
REMARK SMILES IDX 5 1 6 2 20 3 8 4 18 5 4 6 9 7 7 8 19 9 2 10 1 11 3 12 10 14
REMARK SMILES IDX 11 15 17 16 12 17 15 18 14 19 13 20 16 21
REMARK H PARENT 3 13
ROOT
ATOM      1  C   UNL     1      -4.822  11.903  12.838  1.00  0.00     0.018 A 
ATOM      2  C   UNL     1      -3.565  11.433  12.599  1.00  0.00     0.033 A 
ATOM      3  C   UNL     1      -5.775  10.063  11.578  1.00  0.00     0.065 A 
ATOM      4  N   UNL     1      -2.293   9.579  11.449  1.00  0.00    -0.209 NA
ATOM      5  O   UNL     1      -4.019   8.520  10.653  1.00  0.00    -0.436 OA
ATOM      6  C   UNL     1      -5.941  11.225  12.334  1.00  0.00     0.063 A 
ATOM      7  C   UNL     1      -2.676   8.543  10.745  1.00  0.00     0.227 A 
ATOM      8  C   UNL     1      -3.384  10.269  11.843  1.00  0.00     0.110 A 
ATOM      9  C   UNL     1      -4.501   9.586  11.329  1.00  0.00     0.156 A 
ENDROOT
BRANCH   6  10
ATOM     10  C   UNL     1      -7.296  11.740  12.604  1.00  0.00     0.335 C 
ATOM     11  O   UNL     1      -7.951  11.275  13.515  1.00  0.00    -0.246 OA
BRANCH  10  12
ATOM     12  O   UNL     1      -7.808  12.724  11.839  1.00  0.00    -0.478 OA
ATOM     13  H   UNL     1      -8.466  13.302  12.249  1.00  0.00     0.297 HD
ENDBRANCH  10  12
ENDBRANCH   6  10
BRANCH   7  14
ATOM     14  C   UNL     1      -1.767   7.547  10.140  1.00  0.00     0.040 A 
ATOM     15  C   UNL     1      -2.008   7.070   8.851  1.00  0.00     0.034 A 
ATOM     16  C   UNL     1      -0.664   7.079  10.856  1.00  0.00     0.034 A 
ATOM     17  C   UNL     1      -1.155   6.140   8.291  1.00  0.00     0.043 A 
ATOM     18  C   UNL     1       0.182   6.150  10.286  1.00  0.00     0.043 A 
ATOM     19  C   UNL     1      -0.062   5.680   9.007  1.00  0.00     0.041 A 
ATOM     20  Cl  UNL     1      -1.452   5.545   6.687  1.00  0.00    -0.084 Cl
ATOM     21  Cl  UNL     1       1.555   5.567  11.175  1.00  0.00    -0.084 Cl
ENDBRANCH   7  14
TORSDOF 3
ENDMDL
MODEL 6
REMARK VINA RESULT:    -4.282     14.253     14.846
REMARK INTER + INTRA:          -5.201
REMARK INTER:                  -4.919
REMARK INTRA:                  -0.282
REMARK UNBOUND:                -0.293
REMARK SMILES O=C(O)c1ccc2nc(-c3cc(Cl)cc(Cl)c3)oc2c1
REMARK SMILES IDX 5 1 6 2 20 3 8 4 18 5 4 6 9 7 7 8 19 9 2 10 1 11 3 12 10 14
REMARK SMILES IDX 11 15 17 16 12 17 15 18 14 19 13 20 16 21
REMARK H PARENT 3 13
ROOT
ATOM      1  C   UNL     1      -4.816  11.902  12.833  1.00  0.00     0.018 A 
ATOM      2  C   UNL     1      -3.560  11.432  12.593  1.00  0.00     0.033 A 
ATOM      3  C   UNL     1      -5.770  10.060  11.576  1.00  0.00     0.065 A 
ATOM      4  N   UNL     1      -2.288   9.576  11.445  1.00  0.00    -0.209 NA
ATOM      5  O   UNL     1      -4.015   8.516  10.652  1.00  0.00    -0.436 OA
ATOM      6  C   UNL     1      -5.936  11.223  12.331  1.00  0.00     0.063 A 
ATOM      7  C   UNL     1      -2.672   8.539  10.742  1.00  0.00     0.227 A 
ATOM      8  C   UNL     1      -3.380  10.267  11.838  1.00  0.00     0.110 A 
ATOM      9  C   UNL     1      -4.497   9.583  11.327  1.00  0.00     0.156 A 
ENDROOT
BRANCH   6  10
ATOM     10  C   UNL     1      -7.290  11.738  12.601  1.00  0.00     0.335 C 
ATOM     11  O   UNL     1      -7.946  11.272  13.512  1.00  0.00    -0.246 OA
BRANCH  10  12
ATOM     12  O   UNL     1      -7.802  12.724  11.838  1.00  0.00    -0.478 OA
ATOM     13  H   UNL     1      -7.175  13.343  11.442  1.00  0.00     0.297 HD
ENDBRANCH  10  12
ENDBRANCH   6  10
BRANCH   7  14
ATOM     14  C   UNL     1      -1.764   7.542  10.138  1.00  0.00     0.040 A 
ATOM     15  C   UNL     1      -0.661   7.074  10.853  1.00  0.00     0.034 A 
ATOM     16  C   UNL     1      -2.005   7.066   8.847  1.00  0.00     0.034 A 
ATOM     17  C   UNL     1       0.183   6.142  10.283  1.00  0.00     0.043 A 
ATOM     18  C   UNL     1      -1.154   6.135   8.288  1.00  0.00     0.043 A 
ATOM     19  C   UNL     1      -0.062   5.674   9.003  1.00  0.00     0.041 A 
ATOM     20  Cl  UNL     1       1.555   5.557  11.171  1.00  0.00    -0.084 Cl
ATOM     21  Cl  UNL     1      -1.453   5.541   6.683  1.00  0.00    -0.084 Cl
ENDBRANCH   7  14
TORSDOF 3
ENDMDL
MODEL 7
REMARK VINA RESULT:    -4.203     14.754     16.037
REMARK INTER + INTRA:          -5.110
REMARK INTER:                  -4.828
REMARK INTRA:                  -0.282
REMARK UNBOUND:                -0.293
REMARK SMILES O=C(O)c1ccc2nc(-c3cc(Cl)cc(Cl)c3)oc2c1
REMARK SMILES IDX 5 1 6 2 20 3 8 4 18 5 4 6 9 7 7 8 19 9 2 10 1 11 3 12 10 14
REMARK SMILES IDX 11 15 17 16 12 17 15 18 14 19 13 20 16 21
REMARK H PARENT 3 13
ROOT
ATOM      1  C   UNL     1       3.420   7.254  15.595  1.00  0.00     0.018 A 
ATOM      2  C   UNL     1       2.138   7.239  15.135  1.00  0.00     0.033 A 
ATOM      3  C   UNL     1       4.254   6.834  13.357  1.00  0.00     0.065 A 
ATOM      4  N   UNL     1       0.752   6.949  13.043  1.00  0.00    -0.209 NA
ATOM      5  O   UNL     1       2.405   6.629  11.665  1.00  0.00    -0.436 OA
ATOM      6  C   UNL     1       4.493   7.055  14.714  1.00  0.00     0.063 A 
ATOM      7  C   UNL     1       1.068   6.719  11.792  1.00  0.00     0.227 A 
ATOM      8  C   UNL     1       1.884   7.019  13.775  1.00  0.00     0.110 A 
ATOM      9  C   UNL     1       2.953   6.813  12.887  1.00  0.00     0.156 A 
ENDROOT
BRANCH   6  10
ATOM     10  C   UNL     1       5.876   7.080  15.222  1.00  0.00     0.335 C 
ATOM     11  O   UNL     1       6.472   6.038  15.412  1.00  0.00    -0.246 OA
BRANCH  10  12
ATOM     12  O   UNL     1       6.480   8.257  15.478  1.00  0.00    -0.478 OA
ATOM     13  H   UNL     1       6.524   8.537  16.402  1.00  0.00     0.297 HD
ENDBRANCH  10  12
ENDBRANCH   6  10
BRANCH   7  14
ATOM     14  C   UNL     1       0.099   6.577  10.686  1.00  0.00     0.040 A 
ATOM     15  C   UNL     1       0.267   5.574   9.731  1.00  0.00     0.034 A 
ATOM     16  C   UNL     1      -0.989   7.447  10.592  1.00  0.00     0.034 A 
ATOM     17  C   UNL     1      -0.643   5.446   8.700  1.00  0.00     0.043 A 
ATOM     18  C   UNL     1      -1.892   7.309   9.557  1.00  0.00     0.043 A 
ATOM     19  C   UNL     1      -1.720   6.312   8.612  1.00  0.00     0.041 A 
ATOM     20  Cl  UNL     1      -0.436   4.198   7.511  1.00  0.00    -0.084 Cl
ATOM     21  Cl  UNL     1      -3.246   8.390   9.438  1.00  0.00    -0.084 Cl
ENDBRANCH   7  14
TORSDOF 3
ENDMDL
MODEL 8
REMARK VINA RESULT:    -3.942     14.076     15.254
REMARK INTER + INTRA:          -4.811
REMARK INTER:                  -4.530
REMARK INTRA:                  -0.281
REMARK UNBOUND:                -0.293
REMARK SMILES O=C(O)c1ccc2nc(-c3cc(Cl)cc(Cl)c3)oc2c1
REMARK SMILES IDX 5 1 6 2 20 3 8 4 18 5 4 6 9 7 7 8 19 9 2 10 1 11 3 12 10 14
REMARK SMILES IDX 11 15 17 16 12 17 15 18 14 19 13 20 16 21
REMARK H PARENT 3 13
ROOT
ATOM      1  C   UNL     1      -0.023   5.646   9.569  1.00  0.00     0.018 A 
ATOM      2  C   UNL     1      -0.211   6.468  10.639  1.00  0.00     0.033 A 
ATOM      3  C   UNL     1      -1.752   6.818   8.336  1.00  0.00     0.065 A 
ATOM      4  N   UNL     1      -1.579   8.427  11.460  1.00  0.00    -0.209 NA
ATOM      5  O   UNL     1      -2.779   8.689   9.664  1.00  0.00    -0.436 OA
ATOM      6  C   UNL     1      -0.788   5.811   8.405  1.00  0.00     0.063 A 
ATOM      7  C   UNL     1      -2.530   9.139  10.908  1.00  0.00     0.227 A 
ATOM      8  C   UNL     1      -1.174   7.482  10.584  1.00  0.00     0.110 A 
ATOM      9  C   UNL     1      -1.949   7.650   9.422  1.00  0.00     0.156 A 
ENDROOT
BRANCH   6  10
ATOM     10  C   UNL     1      -0.572   4.919   7.251  1.00  0.00     0.335 C 
ATOM     11  O   UNL     1      -0.766   3.725   7.361  1.00  0.00    -0.246 OA
BRANCH  10  12
ATOM     12  O   UNL     1      -0.158   5.429   6.074  1.00  0.00    -0.478 OA
ATOM     13  H   UNL     1       0.750   5.759   6.033  1.00  0.00     0.297 HD
ENDBRANCH  10  12
ENDBRANCH   6  10
BRANCH   7  14
ATOM     14  C   UNL     1      -3.226  10.269  11.557  1.00  0.00     0.040 A 
ATOM     15  C   UNL     1      -4.599  10.202  11.798  1.00  0.00     0.034 A 
ATOM     16  C   UNL     1      -2.512  11.409  11.932  1.00  0.00     0.034 A 
ATOM     17  C   UNL     1      -5.243  11.261  12.405  1.00  0.00     0.043 A 
ATOM     18  C   UNL     1      -3.168  12.462  12.539  1.00  0.00     0.043 A 
ATOM     19  C   UNL     1      -4.530  12.389  12.775  1.00  0.00     0.041 A 
ATOM     20  Cl  UNL     1      -6.951  11.180  12.706  1.00  0.00    -0.084 Cl
ATOM     21  Cl  UNL     1      -2.282  13.881  13.006  1.00  0.00    -0.084 Cl
ENDBRANCH   7  14
TORSDOF 3
ENDMDL
MODEL 9
REMARK VINA RESULT:    -3.330     14.761     16.130
REMARK INTER + INTRA:          -4.110
REMARK INTER:                  -3.829
REMARK INTRA:                  -0.282
REMARK UNBOUND:                -0.293
REMARK SMILES O=C(O)c1ccc2nc(-c3cc(Cl)cc(Cl)c3)oc2c1
REMARK SMILES IDX 5 1 6 2 20 3 8 4 18 5 4 6 9 7 7 8 19 9 2 10 1 11 3 12 10 14
REMARK SMILES IDX 11 15 17 16 12 17 15 18 14 19 13 20 16 21
REMARK H PARENT 3 13
ROOT
ATOM      1  C   UNL     1       3.418   7.268  15.597  1.00  0.00     0.018 A 
ATOM      2  C   UNL     1       2.133   7.230  15.144  1.00  0.00     0.033 A 
ATOM      3  C   UNL     1       4.247   6.896  13.348  1.00  0.00     0.065 A 
ATOM      4  N   UNL     1       0.742   6.937  13.056  1.00  0.00    -0.209 NA
ATOM      5  O   UNL     1       2.393   6.673  11.665  1.00  0.00    -0.436 OA
ATOM      6  C   UNL     1       4.489   7.104  14.707  1.00  0.00     0.063 A 
ATOM      7  C   UNL     1       1.055   6.731  11.801  1.00  0.00     0.227 A 
ATOM      8  C   UNL     1       1.876   7.022  13.783  1.00  0.00     0.110 A 
ATOM      9  C   UNL     1       2.945   6.852  12.885  1.00  0.00     0.156 A 
ENDROOT
BRANCH   6  10
ATOM     10  C   UNL     1       5.875   7.153  15.208  1.00  0.00     0.335 C 
ATOM     11  O   UNL     1       6.480   8.206  15.218  1.00  0.00    -0.246 OA
BRANCH  10  12
ATOM     12  O   UNL     1       6.471   6.029  15.654  1.00  0.00    -0.478 OA
ATOM     13  H   UNL     1       6.467   5.880  16.609  1.00  0.00     0.297 HD
ENDBRANCH  10  12
ENDBRANCH   6  10
BRANCH   7  14
ATOM     14  C   UNL     1       0.083   6.582  10.698  1.00  0.00     0.040 A 
ATOM     15  C   UNL     1      -1.002   7.453  10.598  1.00  0.00     0.034 A 
ATOM     16  C   UNL     1       0.247   5.568   9.752  1.00  0.00     0.034 A 
ATOM     17  C   UNL     1      -1.907   7.310   9.565  1.00  0.00     0.043 A 
ATOM     18  C   UNL     1      -0.664   5.435   8.723  1.00  0.00     0.043 A 
ATOM     19  C   UNL     1      -1.739   6.302   8.630  1.00  0.00     0.041 A 
ATOM     20  Cl  UNL     1      -3.257   8.393   9.438  1.00  0.00    -0.084 Cl
ATOM     21  Cl  UNL     1      -0.462   4.175   7.545  1.00  0.00    -0.084 Cl
ENDBRANCH   7  14
TORSDOF 3
ENDMDL
