MODEL 1
REMARK VINA RESULT:    -5.494      0.000      0.000
REMARK INTER + INTRA:          -8.085
REMARK INTER:                  -7.582
REMARK INTRA:                  -0.503
REMARK UNBOUND:                -0.503
REMARK SMILES Cc1n[nH]c(C)c1CCCOc1cc(C(=O)O)ccc1F
REMARK SMILES IDX 11 1 12 2 14 3 18 4 13 5 19 6 20 7 21 8 15 9 16 10 17 11
REMARK SMILES IDX 10 13 9 14 8 15 7 16 5 17 2 18 4 19 3 20 6 21 1 22
REMARK H PARENT 17 12 4 23
ROOT
ATOM      1  O   UNL     1      -2.664   3.131   7.722  1.00  0.00    -0.490 OA
ENDROOT
BRANCH   1   2
ATOM      2  C   UNL     1      -2.094   3.151   6.488  1.00  0.00     0.155 A 
ATOM      3  C   UNL     1      -1.697   4.254   4.388  1.00  0.00     0.063 A 
ATOM      4  C   UNL     1      -0.911   3.175   3.975  1.00  0.00     0.019 A 
ATOM      5  C   UNL     1      -2.289   4.235   5.653  1.00  0.00     0.065 A 
ATOM      6  C   UNL     1      -0.717   2.100   4.817  1.00  0.00     0.044 A 
ATOM      7  C   UNL     1      -1.301   2.086   6.072  1.00  0.00     0.165 A 
ATOM      8  F   UNL     1      -1.107   1.030   6.893  1.00  0.00    -0.203 F 
BRANCH   3   9
ATOM      9  C   UNL     1      -1.906   5.406   3.490  1.00  0.00     0.335 C 
ATOM     10  O   UNL     1      -2.843   6.156   3.672  1.00  0.00    -0.246 OA
BRANCH   9  11
ATOM     11  O   UNL     1      -1.053   5.628   2.470  1.00  0.00    -0.478 OA
ATOM     12  H   UNL     1      -0.328   6.247   2.632  1.00  0.00     0.297 HD
ENDBRANCH   9  11
ENDBRANCH   3   9
ENDBRANCH   1   2
BRANCH   1  13
ATOM     13  C   UNL     1      -1.780   3.152   8.846  1.00  0.00     0.230 C 
BRANCH  13  14
ATOM     14  C   UNL     1      -1.980   4.452   9.627  1.00  0.00     0.046 C 
BRANCH  14  15
ATOM     15  C   UNL     1      -0.935   5.479   9.183  1.00  0.00     0.043 C 
BRANCH  15  16
ATOM     16  C   UNL     1      -0.752   6.510  10.267  1.00  0.00    -0.004 A 
ATOM     17  C   UNL     1      -1.516   7.610  10.456  1.00  0.00     0.036 A 
ATOM     18  C   UNL     1       0.234   6.495  11.259  1.00  0.00     0.063 A 
ATOM     19  N   UNL     1      -1.027   8.272  11.526  1.00  0.00    -0.282 N 
ATOM     20  N   UNL     1       0.075   7.554  12.010  1.00  0.00    -0.181 NA
ATOM     21  C   UNL     1      -2.701   8.023   9.622  1.00  0.00     0.066 C 
ATOM     22  C   UNL     1       1.304   5.446  11.426  1.00  0.00     0.069 C 
ATOM     23  H   UNL     1      -1.376   9.099  11.894  1.00  0.00     0.190 HD
ENDBRANCH  15  16
ENDBRANCH  14  15
ENDBRANCH  13  14
ENDBRANCH   1  13
TORSDOF 7
ENDMDL
MODEL 2
REMARK VINA RESULT:    -5.480      2.306      3.913
REMARK INTER + INTRA:          -8.066
REMARK INTER:                  -7.579
REMARK INTRA:                  -0.486
REMARK UNBOUND:                -0.503
REMARK SMILES Cc1n[nH]c(C)c1CCCOc1cc(C(=O)O)ccc1F
REMARK SMILES IDX 11 1 12 2 14 3 18 4 13 5 19 6 20 7 21 8 15 9 16 10 17 11
REMARK SMILES IDX 10 13 9 14 8 15 7 16 5 17 2 18 4 19 3 20 6 21 1 22
REMARK H PARENT 17 12 4 23
ROOT
ATOM      1  O   UNL     1       0.515   5.888   5.815  1.00  0.00    -0.490 OA
ENDROOT
BRANCH   1   2
ATOM      2  C   UNL     1      -0.118   4.771   5.366  1.00  0.00     0.155 A 
ATOM      3  C   UNL     1      -0.596   2.422   5.561  1.00  0.00     0.063 A 
ATOM      4  C   UNL     1      -1.427   2.503   4.440  1.00  0.00     0.019 A 
ATOM      5  C   UNL     1       0.059   3.566   6.021  1.00  0.00     0.065 A 
ATOM      6  C   UNL     1      -1.601   3.710   3.796  1.00  0.00     0.044 A 
ATOM      7  C   UNL     1      -0.954   4.844   4.258  1.00  0.00     0.165 A 
ATOM      8  F   UNL     1      -1.130   6.024   3.623  1.00  0.00    -0.203 F 
BRANCH   3   9
ATOM      9  C   UNL     1      -0.408   1.132   6.252  1.00  0.00     0.335 C 
ATOM     10  O   UNL     1       0.582   0.945   6.930  1.00  0.00    -0.246 OA
BRANCH   9  11
ATOM     11  O   UNL     1      -1.338   0.164   6.136  1.00  0.00    -0.478 OA
ATOM     12  H   UNL     1      -1.804  -0.096   6.942  1.00  0.00     0.297 HD
ENDBRANCH   9  11
ENDBRANCH   3   9
ENDBRANCH   1   2
BRANCH   1  13
ATOM     13  C   UNL     1      -0.311   6.954   6.289  1.00  0.00     0.230 C 
BRANCH  13  14
ATOM     14  C   UNL     1       0.064   7.284   7.735  1.00  0.00     0.046 C 
BRANCH  14  15
ATOM     15  C   UNL     1      -0.766   6.421   8.687  1.00  0.00     0.043 C 
BRANCH  15  16
ATOM     16  C   UNL     1      -0.804   7.067  10.048  1.00  0.00    -0.004 A 
ATOM     17  C   UNL     1       0.027   6.796  11.081  1.00  0.00     0.036 A 
ATOM     18  C   UNL     1      -1.700   8.057  10.465  1.00  0.00     0.063 A 
ATOM     19  N   UNL     1      -0.335   7.582  12.117  1.00  0.00    -0.282 N 
ATOM     20  N   UNL     1      -1.425   8.361  11.707  1.00  0.00    -0.181 NA
ATOM     21  C   UNL     1       1.154   5.797  11.075  1.00  0.00     0.066 C 
ATOM     22  C   UNL     1      -2.802   8.660   9.631  1.00  0.00     0.069 C 
ATOM     23  H   UNL     1       0.084   7.602  12.991  1.00  0.00     0.190 HD
ENDBRANCH  15  16
ENDBRANCH  14  15
ENDBRANCH  13  14
ENDBRANCH   1  13
TORSDOF 7
ENDMDL
MODEL 3
REMARK VINA RESULT:    -5.283      0.719      1.906
REMARK INTER + INTRA:          -7.793
REMARK INTER:                  -7.184
REMARK INTRA:                  -0.609
REMARK UNBOUND:                -0.503
REMARK SMILES Cc1n[nH]c(C)c1CCCOc1cc(C(=O)O)ccc1F
REMARK SMILES IDX 11 1 12 2 14 3 18 4 13 5 19 6 20 7 21 8 15 9 16 10 17 11
REMARK SMILES IDX 10 13 9 14 8 15 7 16 5 17 2 18 4 19 3 20 6 21 1 22
REMARK H PARENT 17 12 4 23
ROOT
ATOM      1  O   UNL     1      -0.609   3.810   7.792  1.00  0.00    -0.490 OA
ENDROOT
BRANCH   1   2
ATOM      2  C   UNL     1      -0.833   3.569   6.473  1.00  0.00     0.155 A 
ATOM      3  C   UNL     1      -1.437   4.351   4.281  1.00  0.00     0.063 A 
ATOM      4  C   UNL     1      -1.278   3.057   3.779  1.00  0.00     0.019 A 
ATOM      5  C   UNL     1      -1.212   4.602   5.636  1.00  0.00     0.065 A 
ATOM      6  C   UNL     1      -0.893   2.034   4.620  1.00  0.00     0.044 A 
ATOM      7  C   UNL     1      -0.666   2.286   5.963  1.00  0.00     0.165 A 
ATOM      8  F   UNL     1      -0.290   1.279   6.782  1.00  0.00    -0.203 F 
BRANCH   3   9
ATOM      9  C   UNL     1      -1.848   5.449   3.383  1.00  0.00     0.335 C 
ATOM     10  O   UNL     1      -2.848   6.092   3.628  1.00  0.00    -0.246 OA
BRANCH   9  11
ATOM     11  O   UNL     1      -1.109   5.740   2.294  1.00  0.00    -0.478 OA
ATOM     12  H   UNL     1      -0.148   5.699   2.392  1.00  0.00     0.297 HD
ENDBRANCH   9  11
ENDBRANCH   3   9
ENDBRANCH   1   2
BRANCH   1  13
ATOM     13  C   UNL     1      -1.689   3.551   8.692  1.00  0.00     0.230 C 
BRANCH  13  14
ATOM     14  C   UNL     1      -1.856   4.737   9.642  1.00  0.00     0.046 C 
BRANCH  14  15
ATOM     15  C   UNL     1      -0.798   5.797   9.326  1.00  0.00     0.043 C 
BRANCH  15  16
ATOM     16  C   UNL     1      -0.606   6.690  10.524  1.00  0.00    -0.004 A 
ATOM     17  C   UNL     1       0.346   6.552  11.477  1.00  0.00     0.036 A 
ATOM     18  C   UNL     1      -1.377   7.812  10.846  1.00  0.00     0.063 A 
ATOM     19  N   UNL     1       0.179   7.548  12.372  1.00  0.00    -0.282 N 
ATOM     20  N   UNL     1      -0.912   8.323  11.957  1.00  0.00    -0.181 NA
ATOM     21  C   UNL     1       1.402   5.479  11.527  1.00  0.00     0.066 C 
ATOM     22  C   UNL     1      -2.549   8.335  10.056  1.00  0.00     0.069 C 
ATOM     23  H   UNL     1       0.718   7.699  13.164  1.00  0.00     0.190 HD
ENDBRANCH  15  16
ENDBRANCH  14  15
ENDBRANCH  13  14
ENDBRANCH   1  13
TORSDOF 7
ENDMDL
MODEL 4
REMARK VINA RESULT:    -4.753      8.694     10.774
REMARK INTER + INTRA:          -7.062
REMARK INTER:                  -4.912
REMARK INTRA:                  -2.150
REMARK UNBOUND:                -0.503
REMARK SMILES Cc1n[nH]c(C)c1CCCOc1cc(C(=O)O)ccc1F
REMARK SMILES IDX 11 1 12 2 14 3 18 4 13 5 19 6 20 7 21 8 15 9 16 10 17 11
REMARK SMILES IDX 10 13 9 14 8 15 7 16 5 17 2 18 4 19 3 20 6 21 1 22
REMARK H PARENT 17 12 4 23
ROOT
ATOM      1  O   UNL     1      -5.870  13.561  13.906  1.00  0.00    -0.490 OA
ENDROOT
BRANCH   1   2
ATOM      2  C   UNL     1      -5.262  12.500  13.311  1.00  0.00     0.155 A 
ATOM      3  C   UNL     1      -3.282  11.212  12.861  1.00  0.00     0.063 A 
ATOM      4  C   UNL     1      -4.040  10.321  12.097  1.00  0.00     0.019 A 
ATOM      5  C   UNL     1      -3.903  12.305  13.469  1.00  0.00     0.065 A 
ATOM      6  C   UNL     1      -5.397  10.521  11.950  1.00  0.00     0.044 A 
ATOM      7  C   UNL     1      -6.011  11.603  12.558  1.00  0.00     0.165 A 
ATOM      8  F   UNL     1      -7.340  11.793  12.410  1.00  0.00    -0.203 F 
BRANCH   3   9
ATOM      9  C   UNL     1      -1.830  11.001  13.021  1.00  0.00     0.335 C 
ATOM     10  O   UNL     1      -1.359   9.890  12.889  1.00  0.00    -0.246 OA
BRANCH   9  11
ATOM     11  O   UNL     1      -1.026  12.044  13.308  1.00  0.00    -0.478 OA
ATOM     12  H   UNL     1      -0.997  12.766  12.665  1.00  0.00     0.297 HD
ENDBRANCH   9  11
ENDBRANCH   3   9
ENDBRANCH   1   2
BRANCH   1  13
ATOM     13  C   UNL     1      -5.840  13.609  15.335  1.00  0.00     0.230 C 
BRANCH  13  14
ATOM     14  C   UNL     1      -7.117  12.980  15.893  1.00  0.00     0.046 C 
BRANCH  14  15
ATOM     15  C   UNL     1      -6.752  11.945  16.959  1.00  0.00     0.043 C 
BRANCH  15  16
ATOM     16  C   UNL     1      -6.302  10.671  16.291  1.00  0.00    -0.004 A 
ATOM     17  C   UNL     1      -7.068   9.862  15.523  1.00  0.00     0.036 A 
ATOM     18  C   UNL     1      -5.018  10.120  16.350  1.00  0.00     0.063 A 
ATOM     19  N   UNL     1      -6.297   8.831  15.115  1.00  0.00    -0.282 N 
ATOM     20  N   UNL     1      -5.015   9.014  15.651  1.00  0.00    -0.181 NA
ATOM     21  C   UNL     1      -8.520  10.073  15.183  1.00  0.00     0.066 C 
ATOM     22  C   UNL     1      -3.843  10.695  17.099  1.00  0.00     0.069 C 
ATOM     23  H   UNL     1      -6.580   8.094  14.552  1.00  0.00     0.190 HD
ENDBRANCH  15  16
ENDBRANCH  14  15
ENDBRANCH  13  14
ENDBRANCH   1  13
TORSDOF 7
ENDMDL
MODEL 5
REMARK VINA RESULT:    -4.643      3.336      4.698
REMARK INTER + INTRA:          -6.910
REMARK INTER:                  -6.313
REMARK INTRA:                  -0.597
REMARK UNBOUND:                -0.503
REMARK SMILES Cc1n[nH]c(C)c1CCCOc1cc(C(=O)O)ccc1F
REMARK SMILES IDX 11 1 12 2 14 3 18 4 13 5 19 6 20 7 21 8 15 9 16 10 17 11
REMARK SMILES IDX 10 13 9 14 8 15 7 16 5 17 2 18 4 19 3 20 6 21 1 22
REMARK H PARENT 17 12 4 23
ROOT
ATOM      1  O   UNL     1      -0.368   6.377  10.479  1.00  0.00    -0.490 OA
ENDROOT
BRANCH   1   2
ATOM      2  C   UNL     1      -0.703   5.789   9.299  1.00  0.00     0.155 A 
ATOM      3  C   UNL     1      -0.617   5.731   6.897  1.00  0.00     0.063 A 
ATOM      4  C   UNL     1      -1.390   4.567   6.901  1.00  0.00     0.019 A 
ATOM      5  C   UNL     1      -0.275   6.341   8.106  1.00  0.00     0.065 A 
ATOM      6  C   UNL     1      -1.808   4.021   8.096  1.00  0.00     0.044 A 
ATOM      7  C   UNL     1      -1.463   4.625   9.295  1.00  0.00     0.165 A 
ATOM      8  F   UNL     1      -1.875   4.084  10.463  1.00  0.00    -0.203 F 
BRANCH   3   9
ATOM      9  C   UNL     1      -0.168   6.318   5.619  1.00  0.00     0.335 C 
ATOM     10  O   UNL     1      -0.621   5.908   4.570  1.00  0.00    -0.246 OA
BRANCH   9  11
ATOM     11  O   UNL     1       0.739   7.314   5.618  1.00  0.00    -0.478 OA
ATOM     12  H   UNL     1       1.632   7.096   5.922  1.00  0.00     0.297 HD
ENDBRANCH   9  11
ENDBRANCH   3   9
ENDBRANCH   1   2
BRANCH   1  13
ATOM     13  C   UNL     1       0.987   6.236  10.912  1.00  0.00     0.230 C 
BRANCH  13  14
ATOM     14  C   UNL     1       1.011   5.826  12.385  1.00  0.00     0.046 C 
BRANCH  14  15
ATOM     15  C   UNL     1       1.110   7.077  13.261  1.00  0.00     0.043 C 
BRANCH  15  16
ATOM     16  C   UNL     1       2.196   6.889  14.287  1.00  0.00    -0.004 A 
ATOM     17  C   UNL     1       3.525   7.035  14.076  1.00  0.00     0.036 A 
ATOM     18  C   UNL     1       2.010   6.537  15.628  1.00  0.00     0.063 A 
ATOM     19  N   UNL     1       4.158   6.779  15.241  1.00  0.00    -0.282 N 
ATOM     20  N   UNL     1       3.185   6.465  16.199  1.00  0.00    -0.181 NA
ATOM     21  C   UNL     1       4.181   7.416  12.775  1.00  0.00     0.066 C 
ATOM     22  C   UNL     1       0.685   6.275  16.298  1.00  0.00     0.069 C 
ATOM     23  H   UNL     1       5.116   6.807  15.388  1.00  0.00     0.190 HD
ENDBRANCH  15  16
ENDBRANCH  14  15
ENDBRANCH  13  14
ENDBRANCH   1  13
TORSDOF 7
ENDMDL
MODEL 6
REMARK VINA RESULT:    -4.637      3.592      5.278
REMARK INTER + INTRA:          -6.902
REMARK INTER:                  -6.417
REMARK INTRA:                  -0.485
REMARK UNBOUND:                -0.503
REMARK SMILES Cc1n[nH]c(C)c1CCCOc1cc(C(=O)O)ccc1F
REMARK SMILES IDX 11 1 12 2 14 3 18 4 13 5 19 6 20 7 21 8 15 9 16 10 17 11
REMARK SMILES IDX 10 13 9 14 8 15 7 16 5 17 2 18 4 19 3 20 6 21 1 22
REMARK H PARENT 17 12 4 23
ROOT
ATOM      1  O   UNL     1      -1.030   7.481   9.323  1.00  0.00    -0.490 OA
ENDROOT
BRANCH   1   2
ATOM      2  C   UNL     1      -0.908   6.514   8.375  1.00  0.00     0.155 A 
ATOM      3  C   UNL     1      -1.311   4.266   7.623  1.00  0.00     0.063 A 
ATOM      4  C   UNL     1      -0.656   4.554   6.423  1.00  0.00     0.019 A 
ATOM      5  C   UNL     1      -1.435   5.256   8.600  1.00  0.00     0.065 A 
ATOM      6  C   UNL     1      -0.139   5.814   6.205  1.00  0.00     0.044 A 
ATOM      7  C   UNL     1      -0.267   6.795   7.174  1.00  0.00     0.165 A 
ATOM      8  F   UNL     1       0.242   8.028   6.955  1.00  0.00    -0.203 F 
BRANCH   3   9
ATOM      9  C   UNL     1      -1.866   2.919   7.859  1.00  0.00     0.335 C 
ATOM     10  O   UNL     1      -1.531   1.991   7.151  1.00  0.00    -0.246 OA
BRANCH   9  11
ATOM     11  O   UNL     1      -2.741   2.718   8.864  1.00  0.00    -0.478 OA
ATOM     12  H   UNL     1      -2.581   3.198   9.688  1.00  0.00     0.297 HD
ENDBRANCH   9  11
ENDBRANCH   3   9
ENDBRANCH   1   2
BRANCH   1  13
ATOM     13  C   UNL     1      -2.335   7.694   9.868  1.00  0.00     0.230 C 
BRANCH  13  14
ATOM     14  C   UNL     1      -2.589   9.196  10.010  1.00  0.00     0.046 C 
BRANCH  14  15
ATOM     15  C   UNL     1      -2.497   9.592  11.485  1.00  0.00     0.043 C 
BRANCH  15  16
ATOM     16  C   UNL     1      -3.522  10.655  11.785  1.00  0.00    -0.004 A 
ATOM     17  C   UNL     1      -4.854  10.460  11.924  1.00  0.00     0.036 A 
ATOM     18  C   UNL     1      -3.264  12.016  11.977  1.00  0.00     0.063 A 
ATOM     19  N   UNL     1      -5.419  11.657  12.187  1.00  0.00    -0.282 N 
ATOM     20  N   UNL     1      -4.401  12.619  12.210  1.00  0.00    -0.181 NA
ATOM     21  C   UNL     1      -5.576   9.143  11.806  1.00  0.00     0.066 C 
ATOM     22  C   UNL     1      -1.910  12.677  11.912  1.00  0.00     0.069 C 
ATOM     23  H   UNL     1      -6.363  11.822  12.333  1.00  0.00     0.190 HD
ENDBRANCH  15  16
ENDBRANCH  14  15
ENDBRANCH  13  14
ENDBRANCH   1  13
TORSDOF 7
ENDMDL
MODEL 7
REMARK VINA RESULT:    -4.603      9.118     11.168
REMARK INTER + INTRA:          -6.855
REMARK INTER:                  -4.968
REMARK INTRA:                  -1.886
REMARK UNBOUND:                -0.503
REMARK SMILES Cc1n[nH]c(C)c1CCCOc1cc(C(=O)O)ccc1F
REMARK SMILES IDX 11 1 12 2 14 3 18 4 13 5 19 6 20 7 21 8 15 9 16 10 17 11
REMARK SMILES IDX 10 13 9 14 8 15 7 16 5 17 2 18 4 19 3 20 6 21 1 22
REMARK H PARENT 17 12 4 23
ROOT
ATOM      1  O   UNL     1      -6.357  12.906  12.614  1.00  0.00    -0.490 OA
ENDROOT
BRANCH   1   2
ATOM      2  C   UNL     1      -5.194  12.752  13.302  1.00  0.00     0.155 A 
ATOM      3  C   UNL     1      -3.009  11.771  13.516  1.00  0.00     0.063 A 
ATOM      4  C   UNL     1      -2.822  12.459  14.718  1.00  0.00     0.019 A 
ATOM      5  C   UNL     1      -4.204  11.923  12.809  1.00  0.00     0.065 A 
ATOM      6  C   UNL     1      -3.813  13.289  15.199  1.00  0.00     0.044 A 
ATOM      7  C   UNL     1      -4.995  13.442  14.493  1.00  0.00     0.165 A 
ATOM      8  F   UNL     1      -5.962  14.256  14.970  1.00  0.00    -0.203 F 
BRANCH   3   9
ATOM      9  C   UNL     1      -1.950  10.883  12.998  1.00  0.00     0.335 C 
ATOM     10  O   UNL     1      -2.246   9.871  12.397  1.00  0.00    -0.246 OA
BRANCH   9  11
ATOM     11  O   UNL     1      -0.654  11.199  13.188  1.00  0.00    -0.478 OA
ATOM     12  H   UNL     1      -0.006  10.756  12.622  1.00  0.00     0.297 HD
ENDBRANCH   9  11
ENDBRANCH   3   9
ENDBRANCH   1   2
BRANCH   1  13
ATOM     13  C   UNL     1      -7.280  11.816  12.649  1.00  0.00     0.230 C 
BRANCH  13  14
ATOM     14  C   UNL     1      -8.205  11.970  13.858  1.00  0.00     0.046 C 
BRANCH  14  15
ATOM     15  C   UNL     1      -8.409  10.606  14.522  1.00  0.00     0.043 C 
BRANCH  15  16
ATOM     16  C   UNL     1      -7.109  10.142  15.126  1.00  0.00    -0.004 A 
ATOM     17  C   UNL     1      -6.558  10.596  16.276  1.00  0.00     0.036 A 
ATOM     18  C   UNL     1      -6.262   9.160  14.602  1.00  0.00     0.063 A 
ATOM     19  N   UNL     1      -5.400   9.931  16.469  1.00  0.00    -0.282 N 
ATOM     20  N   UNL     1      -5.234   9.037  15.402  1.00  0.00    -0.181 NA
ATOM     21  C   UNL     1      -7.135  11.656  17.178  1.00  0.00     0.066 C 
ATOM     22  C   UNL     1      -6.488   8.385  13.329  1.00  0.00     0.069 C 
ATOM     23  H   UNL     1      -4.790  10.050  17.213  1.00  0.00     0.190 HD
ENDBRANCH  15  16
ENDBRANCH  14  15
ENDBRANCH  13  14
ENDBRANCH   1  13
TORSDOF 7
ENDMDL
MODEL 8
REMARK VINA RESULT:    -4.569      9.254     11.597
REMARK INTER + INTRA:          -6.809
REMARK INTER:                  -4.562
REMARK INTRA:                  -2.246
REMARK UNBOUND:                -0.503
REMARK SMILES Cc1n[nH]c(C)c1CCCOc1cc(C(=O)O)ccc1F
REMARK SMILES IDX 11 1 12 2 14 3 18 4 13 5 19 6 20 7 21 8 15 9 16 10 17 11
REMARK SMILES IDX 10 13 9 14 8 15 7 16 5 17 2 18 4 19 3 20 6 21 1 22
REMARK H PARENT 17 12 4 23
ROOT
ATOM      1  O   UNL     1      -5.160  11.455  16.832  1.00  0.00    -0.490 OA
ENDROOT
BRANCH   1   2
ATOM      2  C   UNL     1      -4.447  12.021  15.823  1.00  0.00     0.155 A 
ATOM      3  C   UNL     1      -2.845  11.837  14.039  1.00  0.00     0.063 A 
ATOM      4  C   UNL     1      -3.006  13.196  13.759  1.00  0.00     0.019 A 
ATOM      5  C   UNL     1      -3.572  11.252  15.078  1.00  0.00     0.065 A 
ATOM      6  C   UNL     1      -3.885  13.954  14.504  1.00  0.00     0.044 A 
ATOM      7  C   UNL     1      -4.609  13.371  15.531  1.00  0.00     0.165 A 
ATOM      8  F   UNL     1      -5.468  14.119  16.257  1.00  0.00    -0.203 F 
BRANCH   3   9
ATOM      9  C   UNL     1      -1.906  11.022  13.243  1.00  0.00     0.335 C 
ATOM     10  O   UNL     1      -2.316  10.084  12.592  1.00  0.00    -0.246 OA
BRANCH   9  11
ATOM     11  O   UNL     1      -0.593  11.326  13.234  1.00  0.00    -0.478 OA
ATOM     12  H   UNL     1      -0.357  12.260  13.327  1.00  0.00     0.297 HD
ENDBRANCH   9  11
ENDBRANCH   3   9
ENDBRANCH   1   2
BRANCH   1  13
ATOM     13  C   UNL     1      -6.043  10.386  16.482  1.00  0.00     0.230 C 
BRANCH  13  14
ATOM     14  C   UNL     1      -7.452  10.940  16.263  1.00  0.00     0.046 C 
BRANCH  14  15
ATOM     15  C   UNL     1      -8.018  10.393  14.951  1.00  0.00     0.043 C 
BRANCH  15  16
ATOM     16  C   UNL     1      -7.422  11.148  13.792  1.00  0.00    -0.004 A 
ATOM     17  C   UNL     1      -6.600  10.637  12.845  1.00  0.00     0.036 A 
ATOM     18  C   UNL     1      -7.624  12.501  13.499  1.00  0.00     0.063 A 
ATOM     19  N   UNL     1      -6.289  11.632  11.989  1.00  0.00    -0.282 N 
ATOM     20  N   UNL     1      -6.941  12.794  12.423  1.00  0.00    -0.181 NA
ATOM     21  C   UNL     1      -6.120   9.211  12.763  1.00  0.00     0.066 C 
ATOM     22  C   UNL     1      -8.474  13.459  14.294  1.00  0.00     0.069 C 
ATOM     23  H   UNL     1      -5.715  11.557  11.211  1.00  0.00     0.190 HD
ENDBRANCH  15  16
ENDBRANCH  14  15
ENDBRANCH  13  14
ENDBRANCH   1  13
TORSDOF 7
ENDMDL
MODEL 9
REMARK VINA RESULT:    -4.461      8.370     10.672
REMARK INTER + INTRA:          -6.660
REMARK INTER:                  -4.434
REMARK INTRA:                  -2.226
REMARK UNBOUND:                -0.503
REMARK SMILES Cc1n[nH]c(C)c1CCCOc1cc(C(=O)O)ccc1F
REMARK SMILES IDX 11 1 12 2 14 3 18 4 13 5 19 6 20 7 21 8 15 9 16 10 17 11
REMARK SMILES IDX 10 13 9 14 8 15 7 16 5 17 2 18 4 19 3 20 6 21 1 22
REMARK H PARENT 17 12 4 23
ROOT
ATOM      1  O   UNL     1      -4.502  14.032  14.109  1.00  0.00    -0.490 OA
ENDROOT
BRANCH   1   2
ATOM      2  C   UNL     1      -3.903  12.992  13.470  1.00  0.00     0.155 A 
ATOM      3  C   UNL     1      -4.054  10.910  12.277  1.00  0.00     0.063 A 
ATOM      4  C   UNL     1      -2.662  10.880  12.160  1.00  0.00     0.019 A 
ATOM      5  C   UNL     1      -4.672  11.974  12.936  1.00  0.00     0.065 A 
ATOM      6  C   UNL     1      -1.904  11.903  12.690  1.00  0.00     0.044 A 
ATOM      7  C   UNL     1      -2.519  12.960  13.340  1.00  0.00     0.165 A 
ATOM      8  F   UNL     1      -1.771  13.959  13.858  1.00  0.00    -0.203 F 
BRANCH   3   9
ATOM      9  C   UNL     1      -4.868   9.817  11.709  1.00  0.00     0.335 C 
ATOM     10  O   UNL     1      -4.939   9.673  10.506  1.00  0.00    -0.246 OA
BRANCH   9  11
ATOM     11  O   UNL     1      -5.528   8.974  12.528  1.00  0.00    -0.478 OA
ATOM     12  H   UNL     1      -5.484   8.031  12.316  1.00  0.00     0.297 HD
ENDBRANCH   9  11
ENDBRANCH   3   9
ENDBRANCH   1   2
BRANCH   1  13
ATOM     13  C   UNL     1      -4.805  13.854  15.495  1.00  0.00     0.230 C 
BRANCH  13  14
ATOM     14  C   UNL     1      -6.243  13.355  15.642  1.00  0.00     0.046 C 
BRANCH  14  15
ATOM     15  C   UNL     1      -6.304  12.289  16.738  1.00  0.00     0.043 C 
BRANCH  15  16
ATOM     16  C   UNL     1      -6.124  10.925  16.123  1.00  0.00    -0.004 A 
ATOM     17  C   UNL     1      -7.083  10.199  15.503  1.00  0.00     0.036 A 
ATOM     18  C   UNL     1      -4.936  10.189  16.086  1.00  0.00     0.063 A 
ATOM     19  N   UNL     1      -6.523   9.041  15.094  1.00  0.00    -0.282 N 
ATOM     20  N   UNL     1      -5.175   9.056  15.476  1.00  0.00    -0.181 NA
ATOM     21  C   UNL     1      -8.519  10.609  15.305  1.00  0.00     0.066 C 
ATOM     22  C   UNL     1      -3.610  10.620  16.660  1.00  0.00     0.069 C 
ATOM     23  H   UNL     1      -6.974   8.324  14.621  1.00  0.00     0.190 HD
ENDBRANCH  15  16
ENDBRANCH  14  15
ENDBRANCH  13  14
ENDBRANCH   1  13
TORSDOF 7
ENDMDL
