MODEL 1
REMARK VINA RESULT:    -5.709      0.000      0.000
REMARK INTER + INTRA:          -8.334
REMARK INTER:                  -7.878
REMARK INTRA:                  -0.456
REMARK UNBOUND:                -0.456
REMARK SMILES Cc1n[nH]c(C)c1CCCOc1cc(C(=O)O)ccc1F
REMARK SMILES IDX 11 1 12 2 14 3 18 4 13 5 19 6 20 7 21 8 15 9 16 10 17 11
REMARK SMILES IDX 10 13 9 14 8 15 7 16 5 17 2 18 4 19 3 20 6 21 1 22
REMARK H PARENT 17 12 4 23
ROOT
ATOM      1  O   UNL     1      -8.685   3.668  -1.691  1.00  0.00    -0.490 OA
ENDROOT
BRANCH   1   2
ATOM      2  C   UNL     1      -7.370   3.675  -1.346  1.00  0.00     0.155 A 
ATOM      3  C   UNL     1      -5.079   4.194  -1.862  1.00  0.00     0.063 A 
ATOM      4  C   UNL     1      -4.689   3.689  -0.619  1.00  0.00     0.019 A 
ATOM      5  C   UNL     1      -6.429   4.184  -2.221  1.00  0.00     0.065 A 
ATOM      6  C   UNL     1      -5.636   3.189   0.250  1.00  0.00     0.044 A 
ATOM      7  C   UNL     1      -6.974   3.184  -0.107  1.00  0.00     0.165 A 
ATOM      8  F   UNL     1      -7.897   2.693   0.749  1.00  0.00    -0.203 F 
BRANCH   3   9
ATOM      9  C   UNL     1      -4.069   4.731  -2.794  1.00  0.00     0.335 C 
ATOM     10  O   UNL     1      -4.329   4.842  -3.974  1.00  0.00    -0.246 OA
BRANCH   9  11
ATOM     11  O   UNL     1      -2.858   5.103  -2.333  1.00  0.00    -0.478 OA
ATOM     12  H   UNL     1      -2.123   4.495  -2.488  1.00  0.00     0.297 HD
ENDBRANCH   9  11
ENDBRANCH   3   9
ENDBRANCH   1   2
BRANCH   1  13
ATOM     13  C   UNL     1      -9.575   4.429  -0.870  1.00  0.00     0.230 C 
BRANCH  13  14
ATOM     14  C   UNL     1     -10.185   5.563  -1.696  1.00  0.00     0.046 C 
BRANCH  14  15
ATOM     15  C   UNL     1      -9.311   6.812  -1.572  1.00  0.00     0.043 C 
BRANCH  15  16
ATOM     16  C   UNL     1     -10.126   8.033  -1.914  1.00  0.00    -0.004 A 
ATOM     17  C   UNL     1     -10.315   8.542  -3.153  1.00  0.00     0.036 A 
ATOM     18  C   UNL     1     -10.825   8.836  -1.007  1.00  0.00     0.063 A 
ATOM     19  N   UNL     1     -11.102   9.633  -3.034  1.00  0.00    -0.282 N 
ATOM     20  N   UNL     1     -11.405   9.799  -1.676  1.00  0.00    -0.181 NA
ATOM     21  C   UNL     1      -9.751   7.991  -4.436  1.00  0.00     0.066 C 
ATOM     22  C   UNL     1     -10.890   8.633   0.485  1.00  0.00     0.069 C 
ATOM     23  H   UNL     1     -11.403  10.201  -3.760  1.00  0.00     0.190 HD
ENDBRANCH  15  16
ENDBRANCH  14  15
ENDBRANCH  13  14
ENDBRANCH   1  13
TORSDOF 7
ENDMDL
MODEL 2
REMARK VINA RESULT:    -5.645      2.314      3.924
REMARK INTER + INTRA:          -8.245
REMARK INTER:                  -7.691
REMARK INTRA:                  -0.554
REMARK UNBOUND:                -0.456
REMARK SMILES Cc1n[nH]c(C)c1CCCOc1cc(C(=O)O)ccc1F
REMARK SMILES IDX 11 1 12 2 14 3 18 4 13 5 19 6 20 7 21 8 15 9 16 10 17 11
REMARK SMILES IDX 10 13 9 14 8 15 7 16 5 17 2 18 4 19 3 20 6 21 1 22
REMARK H PARENT 17 12 4 23
ROOT
ATOM      1  O   UNL     1      -5.480   7.095  -0.997  1.00  0.00    -0.490 OA
ENDROOT
BRANCH   1   2
ATOM      2  C   UNL     1      -5.444   5.739  -0.898  1.00  0.00     0.155 A 
ATOM      3  C   UNL     1      -6.184   3.702   0.143  1.00  0.00     0.063 A 
ATOM      4  C   UNL     1      -5.364   2.968  -0.719  1.00  0.00     0.019 A 
ATOM      5  C   UNL     1      -6.219   5.094   0.048  1.00  0.00     0.065 A 
ATOM      6  C   UNL     1      -4.599   3.620  -1.663  1.00  0.00     0.044 A 
ATOM      7  C   UNL     1      -4.640   5.001  -1.759  1.00  0.00     0.165 A 
ATOM      8  F   UNL     1      -3.888   5.633  -2.687  1.00  0.00    -0.203 F 
BRANCH   3   9
ATOM      9  C   UNL     1      -7.004   3.007   1.154  1.00  0.00     0.335 C 
ATOM     10  O   UNL     1      -7.459   3.624   2.096  1.00  0.00    -0.246 OA
BRANCH   9  11
ATOM     11  O   UNL     1      -7.254   1.689   1.029  1.00  0.00    -0.478 OA
ATOM     12  H   UNL     1      -6.492   1.107   0.905  1.00  0.00     0.297 HD
ENDBRANCH   9  11
ENDBRANCH   3   9
ENDBRANCH   1   2
BRANCH   1  13
ATOM     13  C   UNL     1      -6.088   7.644  -2.168  1.00  0.00     0.230 C 
BRANCH  13  14
ATOM     14  C   UNL     1      -7.387   8.353  -1.783  1.00  0.00     0.046 C 
BRANCH  14  15
ATOM     15  C   UNL     1      -8.580   7.463  -2.141  1.00  0.00     0.043 C 
BRANCH  15  16
ATOM     16  C   UNL     1      -9.772   8.326  -2.464  1.00  0.00    -0.004 A 
ATOM     17  C   UNL     1     -10.623   8.877  -1.567  1.00  0.00     0.036 A 
ATOM     18  C   UNL     1     -10.191   8.705  -3.744  1.00  0.00     0.063 A 
ATOM     19  N   UNL     1     -11.551   9.574  -2.255  1.00  0.00    -0.282 N 
ATOM     20  N   UNL     1     -11.262   9.447  -3.620  1.00  0.00    -0.181 NA
ATOM     21  C   UNL     1     -10.546   8.737  -0.069  1.00  0.00     0.066 C 
ATOM     22  C   UNL     1      -9.531   8.315  -5.042  1.00  0.00     0.069 C 
ATOM     23  H   UNL     1     -12.289  10.073  -1.873  1.00  0.00     0.190 HD
ENDBRANCH  15  16
ENDBRANCH  14  15
ENDBRANCH  13  14
ENDBRANCH   1  13
TORSDOF 7
ENDMDL
MODEL 3
REMARK VINA RESULT:    -5.577      0.182      1.777
REMARK INTER + INTRA:          -8.152
REMARK INTER:                  -7.718
REMARK INTRA:                  -0.433
REMARK UNBOUND:                -0.456
REMARK SMILES Cc1n[nH]c(C)c1CCCOc1cc(C(=O)O)ccc1F
REMARK SMILES IDX 11 1 12 2 14 3 18 4 13 5 19 6 20 7 21 8 15 9 16 10 17 11
REMARK SMILES IDX 10 13 9 14 8 15 7 16 5 17 2 18 4 19 3 20 6 21 1 22
REMARK H PARENT 17 12 4 23
ROOT
ATOM      1  O   UNL     1      -8.692   3.743  -1.715  1.00  0.00    -0.490 OA
ENDROOT
BRANCH   1   2
ATOM      2  C   UNL     1      -7.379   3.731  -1.360  1.00  0.00     0.155 A 
ATOM      3  C   UNL     1      -5.078   4.215  -1.859  1.00  0.00     0.063 A 
ATOM      4  C   UNL     1      -4.704   3.705  -0.613  1.00  0.00     0.019 A 
ATOM      5  C   UNL     1      -6.424   4.225  -2.229  1.00  0.00     0.065 A 
ATOM      6  C   UNL     1      -5.664   3.220   0.249  1.00  0.00     0.044 A 
ATOM      7  C   UNL     1      -7.000   3.235  -0.118  1.00  0.00     0.165 A 
ATOM      8  F   UNL     1      -7.936   2.758   0.732  1.00  0.00    -0.203 F 
BRANCH   3   9
ATOM      9  C   UNL     1      -4.052   4.736  -2.784  1.00  0.00     0.335 C 
ATOM     10  O   UNL     1      -4.297   4.837  -3.969  1.00  0.00    -0.246 OA
BRANCH   9  11
ATOM     11  O   UNL     1      -2.845   5.107  -2.312  1.00  0.00    -0.478 OA
ATOM     12  H   UNL     1      -2.830   5.810  -1.648  1.00  0.00     0.297 HD
ENDBRANCH   9  11
ENDBRANCH   3   9
ENDBRANCH   1   2
BRANCH   1  13
ATOM     13  C   UNL     1      -9.577   4.513  -0.897  1.00  0.00     0.230 C 
BRANCH  13  14
ATOM     14  C   UNL     1     -10.149   5.671  -1.716  1.00  0.00     0.046 C 
BRANCH  14  15
ATOM     15  C   UNL     1      -9.381   6.954  -1.393  1.00  0.00     0.043 C 
BRANCH  15  16
ATOM     16  C   UNL     1     -10.249   8.149  -1.688  1.00  0.00    -0.004 A 
ATOM     17  C   UNL     1     -10.934   8.880  -0.779  1.00  0.00     0.036 A 
ATOM     18  C   UNL     1     -10.484   8.703  -2.951  1.00  0.00     0.063 A 
ATOM     19  N   UNL     1     -11.585   9.858  -1.443  1.00  0.00    -0.282 N 
ATOM     20  N   UNL     1     -11.291   9.723  -2.806  1.00  0.00    -0.181 NA
ATOM     21  C   UNL     1     -10.963   8.645   0.709  1.00  0.00     0.066 C 
ATOM     22  C   UNL     1      -9.918   8.203  -4.255  1.00  0.00     0.069 C 
ATOM     23  H   UNL     1     -12.156  10.534  -1.047  1.00  0.00     0.190 HD
ENDBRANCH  15  16
ENDBRANCH  14  15
ENDBRANCH  13  14
ENDBRANCH   1  13
TORSDOF 7
ENDMDL
MODEL 4
REMARK VINA RESULT:    -5.547      2.332      3.509
REMARK INTER + INTRA:          -8.110
REMARK INTER:                  -7.533
REMARK INTRA:                  -0.577
REMARK UNBOUND:                -0.456
REMARK SMILES Cc1n[nH]c(C)c1CCCOc1cc(C(=O)O)ccc1F
REMARK SMILES IDX 11 1 12 2 14 3 18 4 13 5 19 6 20 7 21 8 15 9 16 10 17 11
REMARK SMILES IDX 10 13 9 14 8 15 7 16 5 17 2 18 4 19 3 20 6 21 1 22
REMARK H PARENT 17 12 4 23
ROOT
ATOM      1  O   UNL     1      -5.498   7.112  -1.007  1.00  0.00    -0.490 OA
ENDROOT
BRANCH   1   2
ATOM      2  C   UNL     1      -5.454   5.757  -0.911  1.00  0.00     0.155 A 
ATOM      3  C   UNL     1      -6.180   3.713   0.128  1.00  0.00     0.063 A 
ATOM      4  C   UNL     1      -5.359   2.986  -0.737  1.00  0.00     0.019 A 
ATOM      5  C   UNL     1      -6.224   5.106   0.036  1.00  0.00     0.065 A 
ATOM      6  C   UNL     1      -4.599   3.644  -1.682  1.00  0.00     0.044 A 
ATOM      7  C   UNL     1      -4.648   5.025  -1.775  1.00  0.00     0.165 A 
ATOM      8  F   UNL     1      -3.902   5.663  -2.703  1.00  0.00    -0.203 F 
BRANCH   3   9
ATOM      9  C   UNL     1      -6.995   3.013   1.140  1.00  0.00     0.335 C 
ATOM     10  O   UNL     1      -7.470   3.630   2.071  1.00  0.00    -0.246 OA
BRANCH   9  11
ATOM     11  O   UNL     1      -7.216   1.688   1.027  1.00  0.00    -0.478 OA
ATOM     12  H   UNL     1      -6.547   1.169   0.559  1.00  0.00     0.297 HD
ENDBRANCH   9  11
ENDBRANCH   3   9
ENDBRANCH   1   2
BRANCH   1  13
ATOM     13  C   UNL     1      -6.089   7.660  -2.188  1.00  0.00     0.230 C 
BRANCH  13  14
ATOM     14  C   UNL     1      -7.381   8.392  -1.818  1.00  0.00     0.046 C 
BRANCH  14  15
ATOM     15  C   UNL     1      -8.583   7.506  -2.150  1.00  0.00     0.043 C 
BRANCH  15  16
ATOM     16  C   UNL     1      -9.751   8.370  -2.548  1.00  0.00    -0.004 A 
ATOM     17  C   UNL     1     -10.096   8.710  -3.812  1.00  0.00     0.036 A 
ATOM     18  C   UNL     1     -10.674   8.959  -1.677  1.00  0.00     0.063 A 
ATOM     19  N   UNL     1     -11.195   9.491  -3.742  1.00  0.00    -0.282 N 
ATOM     20  N   UNL     1     -11.535   9.636  -2.391  1.00  0.00    -0.181 NA
ATOM     21  C   UNL     1      -9.382   8.291  -5.070  1.00  0.00     0.066 C 
ATOM     22  C   UNL     1     -10.669   8.842  -0.174  1.00  0.00     0.069 C 
ATOM     23  H   UNL     1     -11.664   9.884  -4.494  1.00  0.00     0.190 HD
ENDBRANCH  15  16
ENDBRANCH  14  15
ENDBRANCH  13  14
ENDBRANCH   1  13
TORSDOF 7
ENDMDL
MODEL 5
REMARK VINA RESULT:    -4.812      2.050      2.927
REMARK INTER + INTRA:          -7.096
REMARK INTER:                  -6.465
REMARK INTRA:                  -0.631
REMARK UNBOUND:                -0.456
REMARK SMILES Cc1n[nH]c(C)c1CCCOc1cc(C(=O)O)ccc1F
REMARK SMILES IDX 11 1 12 2 14 3 18 4 13 5 19 6 20 7 21 8 15 9 16 10 17 11
REMARK SMILES IDX 10 13 9 14 8 15 7 16 5 17 2 18 4 19 3 20 6 21 1 22
REMARK H PARENT 17 12 4 23
ROOT
ATOM      1  O   UNL     1      -8.659   4.468  -2.174  1.00  0.00    -0.490 OA
ENDROOT
BRANCH   1   2
ATOM      2  C   UNL     1      -7.514   4.073  -1.555  1.00  0.00     0.155 A 
ATOM      3  C   UNL     1      -6.389   3.117   0.342  1.00  0.00     0.063 A 
ATOM      4  C   UNL     1      -5.164   3.265  -0.314  1.00  0.00     0.019 A 
ATOM      5  C   UNL     1      -7.567   3.525  -0.288  1.00  0.00     0.065 A 
ATOM      6  C   UNL     1      -5.123   3.808  -1.581  1.00  0.00     0.044 A 
ATOM      7  C   UNL     1      -6.292   4.208  -2.205  1.00  0.00     0.165 A 
ATOM      8  F   UNL     1      -6.245   4.738  -3.447  1.00  0.00    -0.203 F 
BRANCH   3   9
ATOM      9  C   UNL     1      -6.438   2.536   1.698  1.00  0.00     0.335 C 
ATOM     10  O   UNL     1      -5.407   2.274   2.284  1.00  0.00    -0.246 OA
BRANCH   9  11
ATOM     11  O   UNL     1      -7.626   2.302   2.289  1.00  0.00    -0.478 OA
ATOM     12  H   UNL     1      -8.119   3.073   2.605  1.00  0.00     0.297 HD
ENDBRANCH   9  11
ENDBRANCH   3   9
ENDBRANCH   1   2
BRANCH   1  13
ATOM     13  C   UNL     1      -9.879   4.307  -1.444  1.00  0.00     0.230 C 
BRANCH  13  14
ATOM     14  C   UNL     1     -10.641   5.633  -1.429  1.00  0.00     0.046 C 
BRANCH  14  15
ATOM     15  C   UNL     1      -9.645   6.794  -1.385  1.00  0.00     0.043 C 
BRANCH  15  16
ATOM     16  C   UNL     1     -10.334   8.065  -1.807  1.00  0.00    -0.004 A 
ATOM     17  C   UNL     1     -10.396   8.558  -3.066  1.00  0.00     0.036 A 
ATOM     18  C   UNL     1     -11.030   8.942  -0.967  1.00  0.00     0.063 A 
ATOM     19  N   UNL     1     -11.100   9.708  -3.023  1.00  0.00    -0.282 N 
ATOM     20  N   UNL     1     -11.483   9.931  -1.694  1.00  0.00    -0.181 NA
ATOM     21  C   UNL     1      -9.789   7.933  -4.294  1.00  0.00     0.066 C 
ATOM     22  C   UNL     1     -11.214   8.781   0.520  1.00  0.00     0.069 C 
ATOM     23  H   UNL     1     -11.304  10.281  -3.779  1.00  0.00     0.190 HD
ENDBRANCH  15  16
ENDBRANCH  14  15
ENDBRANCH  13  14
ENDBRANCH   1  13
TORSDOF 7
ENDMDL
MODEL 6
REMARK VINA RESULT:    -4.709      3.518      5.200
REMARK INTER + INTRA:          -6.955
REMARK INTER:                  -6.585
REMARK INTRA:                  -0.370
REMARK UNBOUND:                -0.456
REMARK SMILES Cc1n[nH]c(C)c1CCCOc1cc(C(=O)O)ccc1F
REMARK SMILES IDX 11 1 12 2 14 3 18 4 13 5 19 6 20 7 21 8 15 9 16 10 17 11
REMARK SMILES IDX 10 13 9 14 8 15 7 16 5 17 2 18 4 19 3 20 6 21 1 22
REMARK H PARENT 17 12 4 23
ROOT
ATOM      1  O   UNL     1      -8.747   8.424  -2.752  1.00  0.00    -0.490 OA
ENDROOT
BRANCH   1   2
ATOM      2  C   UNL     1      -8.044   7.437  -2.135  1.00  0.00     0.155 A 
ATOM      3  C   UNL     1      -7.932   5.225  -1.200  1.00  0.00     0.063 A 
ATOM      4  C   UNL     1      -6.586   5.431  -0.884  1.00  0.00     0.019 A 
ATOM      5  C   UNL     1      -8.659   6.238  -1.828  1.00  0.00     0.065 A 
ATOM      6  C   UNL     1      -5.979   6.628  -1.200  1.00  0.00     0.044 A 
ATOM      7  C   UNL     1      -6.701   7.630  -1.828  1.00  0.00     0.165 A 
ATOM      8  F   UNL     1      -6.101   8.801  -2.134  1.00  0.00    -0.203 F 
BRANCH   3   9
ATOM      9  C   UNL     1      -8.584   3.944  -0.864  1.00  0.00     0.335 C 
ATOM     10  O   UNL     1      -8.023   3.149  -0.138  1.00  0.00    -0.246 OA
BRANCH   9  11
ATOM     11  O   UNL     1      -9.805   3.661  -1.358  1.00  0.00    -0.478 OA
ATOM     12  H   UNL     1     -10.290   2.934  -0.942  1.00  0.00     0.297 HD
ENDBRANCH   9  11
ENDBRANCH   3   9
ENDBRANCH   1   2
BRANCH   1  13
ATOM     13  C   UNL     1      -9.851   8.022  -3.566  1.00  0.00     0.230 C 
BRANCH  13  14
ATOM     14  C   UNL     1      -9.874   8.861  -4.844  1.00  0.00     0.046 C 
BRANCH  14  15
ATOM     15  C   UNL     1     -11.124   9.744  -4.853  1.00  0.00     0.043 C 
BRANCH  15  16
ATOM     16  C   UNL     1     -11.487  10.089  -6.274  1.00  0.00    -0.004 A 
ATOM     17  C   UNL     1     -11.406  11.315  -6.841  1.00  0.00     0.036 A 
ATOM     18  C   UNL     1     -11.962   9.197  -7.241  1.00  0.00     0.063 A 
ATOM     19  N   UNL     1     -11.822  11.204  -8.121  1.00  0.00    -0.282 N 
ATOM     20  N   UNL     1     -12.169   9.865  -8.347  1.00  0.00    -0.181 NA
ATOM     21  C   UNL     1     -10.937  12.577  -6.166  1.00  0.00     0.066 C 
ATOM     22  C   UNL     1     -12.205   7.723  -7.041  1.00  0.00     0.069 C 
ATOM     23  H   UNL     1     -11.871  11.923  -8.769  1.00  0.00     0.190 HD
ENDBRANCH  15  16
ENDBRANCH  14  15
ENDBRANCH  13  14
ENDBRANCH   1  13
TORSDOF 7
ENDMDL
MODEL 7
REMARK VINA RESULT:    -4.593      3.920      6.998
REMARK INTER + INTRA:          -6.794
REMARK INTER:                  -5.972
REMARK INTRA:                  -0.822
REMARK UNBOUND:                -0.456
REMARK SMILES Cc1n[nH]c(C)c1CCCOc1cc(C(=O)O)ccc1F
REMARK SMILES IDX 11 1 12 2 14 3 18 4 13 5 19 6 20 7 21 8 15 9 16 10 17 11
REMARK SMILES IDX 10 13 9 14 8 15 7 16 5 17 2 18 4 19 3 20 6 21 1 22
REMARK H PARENT 17 12 4 23
ROOT
ATOM      1  O   UNL     1      -7.746   6.602  -2.616  1.00  0.00    -0.490 OA
ENDROOT
BRANCH   1   2
ATOM      2  C   UNL     1      -8.805   7.441  -2.464  1.00  0.00     0.155 A 
ATOM      3  C   UNL     1     -10.331   8.640  -1.044  1.00  0.00     0.063 A 
ATOM      4  C   UNL     1     -10.962   9.167  -2.174  1.00  0.00     0.019 A 
ATOM      5  C   UNL     1      -9.247   7.773  -1.197  1.00  0.00     0.065 A 
ATOM      6  C   UNL     1     -10.510   8.835  -3.434  1.00  0.00     0.044 A 
ATOM      7  C   UNL     1      -9.431   7.979  -3.583  1.00  0.00     0.165 A 
ATOM      8  F   UNL     1      -8.993   7.658  -4.820  1.00  0.00    -0.203 F 
BRANCH   3   9
ATOM      9  C   UNL     1     -10.812   8.993   0.306  1.00  0.00     0.335 C 
ATOM     10  O   UNL     1     -10.336   9.944   0.891  1.00  0.00    -0.246 OA
BRANCH   9  11
ATOM     11  O   UNL     1     -11.786   8.263   0.886  1.00  0.00    -0.478 OA
ATOM     12  H   UNL     1     -11.613   7.929   1.777  1.00  0.00     0.297 HD
ENDBRANCH   9  11
ENDBRANCH   3   9
ENDBRANCH   1   2
BRANCH   1  13
ATOM     13  C   UNL     1      -6.650   6.769  -1.714  1.00  0.00     0.230 C 
BRANCH  13  14
ATOM     14  C   UNL     1      -5.639   5.641  -1.926  1.00  0.00     0.046 C 
BRANCH  14  15
ATOM     15  C   UNL     1      -6.382   4.349  -2.271  1.00  0.00     0.043 C 
BRANCH  15  16
ATOM     16  C   UNL     1      -6.722   3.610  -1.003  1.00  0.00    -0.004 A 
ATOM     17  C   UNL     1      -5.841   3.007  -0.171  1.00  0.00     0.036 A 
ATOM     18  C   UNL     1      -8.004   3.431  -0.473  1.00  0.00     0.063 A 
ATOM     19  N   UNL     1      -6.541   2.461   0.845  1.00  0.00    -0.282 N 
ATOM     20  N   UNL     1      -7.898   2.737   0.630  1.00  0.00    -0.181 NA
ATOM     21  C   UNL     1      -4.346   2.956  -0.348  1.00  0.00     0.066 C 
ATOM     22  C   UNL     1      -9.289   3.940  -1.077  1.00  0.00     0.069 C 
ATOM     23  H   UNL     1      -6.171   1.965   1.591  1.00  0.00     0.190 HD
ENDBRANCH  15  16
ENDBRANCH  14  15
ENDBRANCH  13  14
ENDBRANCH   1  13
TORSDOF 7
ENDMDL
MODEL 8
REMARK VINA RESULT:    -4.564      3.551      4.937
REMARK INTER + INTRA:          -6.754
REMARK INTER:                  -6.185
REMARK INTRA:                  -0.569
REMARK UNBOUND:                -0.456
REMARK SMILES Cc1n[nH]c(C)c1CCCOc1cc(C(=O)O)ccc1F
REMARK SMILES IDX 11 1 12 2 14 3 18 4 13 5 19 6 20 7 21 8 15 9 16 10 17 11
REMARK SMILES IDX 10 13 9 14 8 15 7 16 5 17 2 18 4 19 3 20 6 21 1 22
REMARK H PARENT 17 12 4 23
ROOT
ATOM      1  O   UNL     1      -9.837   8.175  -2.941  1.00  0.00    -0.490 OA
ENDROOT
BRANCH   1   2
ATOM      2  C   UNL     1      -9.019   7.293  -2.308  1.00  0.00     0.155 A 
ATOM      3  C   UNL     1      -6.823   6.630  -1.587  1.00  0.00     0.063 A 
ATOM      4  C   UNL     1      -7.365   5.483  -1.002  1.00  0.00     0.019 A 
ATOM      5  C   UNL     1      -7.660   7.536  -2.242  1.00  0.00     0.065 A 
ATOM      6  C   UNL     1      -8.723   5.252  -1.068  1.00  0.00     0.044 A 
ATOM      7  C   UNL     1      -9.552   6.154  -1.714  1.00  0.00     0.165 A 
ATOM      8  F   UNL     1     -10.881   5.922  -1.775  1.00  0.00    -0.203 F 
BRANCH   3   9
ATOM      9  C   UNL     1      -5.370   6.880  -1.518  1.00  0.00     0.335 C 
ATOM     10  O   UNL     1      -4.587   6.003  -1.820  1.00  0.00    -0.246 OA
BRANCH   9  11
ATOM     11  O   UNL     1      -4.912   8.086  -1.125  1.00  0.00    -0.478 OA
ATOM     12  H   UNL     1      -5.107   8.355  -0.217  1.00  0.00     0.297 HD
ENDBRANCH   9  11
ENDBRANCH   3   9
ENDBRANCH   1   2
BRANCH   1  13
ATOM     13  C   UNL     1     -10.050   7.974  -4.341  1.00  0.00     0.230 C 
BRANCH  13  14
ATOM     14  C   UNL     1      -9.962   9.317  -5.067  1.00  0.00     0.046 C 
BRANCH  14  15
ATOM     15  C   UNL     1     -11.349   9.962  -5.116  1.00  0.00     0.043 C 
BRANCH  15  16
ATOM     16  C   UNL     1     -11.677  10.343  -6.536  1.00  0.00    -0.004 A 
ATOM     17  C   UNL     1     -11.541  11.575  -7.082  1.00  0.00     0.036 A 
ATOM     18  C   UNL     1     -12.170   9.487  -7.526  1.00  0.00     0.063 A 
ATOM     19  N   UNL     1     -11.940  11.501  -8.369  1.00  0.00    -0.282 N 
ATOM     20  N   UNL     1     -12.335  10.180  -8.622  1.00  0.00    -0.181 NA
ATOM     21  C   UNL     1     -11.034  12.806  -6.378  1.00  0.00     0.066 C 
ATOM     22  C   UNL     1     -12.472   8.020  -7.354  1.00  0.00     0.069 C 
ATOM     23  H   UNL     1     -11.952  12.232  -9.005  1.00  0.00     0.190 HD
ENDBRANCH  15  16
ENDBRANCH  14  15
ENDBRANCH  13  14
ENDBRANCH   1  13
TORSDOF 7
ENDMDL
MODEL 9
REMARK VINA RESULT:    -4.528      3.542      5.494
REMARK INTER + INTRA:          -6.705
REMARK INTER:                  -6.078
REMARK INTRA:                  -0.627
REMARK UNBOUND:                -0.456
REMARK SMILES Cc1n[nH]c(C)c1CCCOc1cc(C(=O)O)ccc1F
REMARK SMILES IDX 11 1 12 2 14 3 18 4 13 5 19 6 20 7 21 8 15 9 16 10 17 11
REMARK SMILES IDX 10 13 9 14 8 15 7 16 5 17 2 18 4 19 3 20 6 21 1 22
REMARK H PARENT 17 12 4 23
ROOT
ATOM      1  O   UNL     1     -10.513   8.739  -1.316  1.00  0.00    -0.490 OA
ENDROOT
BRANCH   1   2
ATOM      2  C   UNL     1      -9.640   7.703  -1.437  1.00  0.00     0.155 A 
ATOM      3  C   UNL     1      -9.185   5.342  -1.404  1.00  0.00     0.063 A 
ATOM      4  C   UNL     1      -7.843   5.601  -1.697  1.00  0.00     0.019 A 
ATOM      5  C   UNL     1     -10.083   6.404  -1.274  1.00  0.00     0.065 A 
ATOM      6  C   UNL     1      -7.412   6.901  -1.863  1.00  0.00     0.044 A 
ATOM      7  C   UNL     1      -8.306   7.951  -1.739  1.00  0.00     0.165 A 
ATOM      8  F   UNL     1      -7.877   9.222  -1.903  1.00  0.00    -0.203 F 
BRANCH   3   9
ATOM      9  C   UNL     1      -9.649   3.953  -1.226  1.00  0.00     0.335 C 
ATOM     10  O   UNL     1      -8.860   3.034  -1.302  1.00  0.00    -0.246 OA
BRANCH   9  11
ATOM     11  O   UNL     1     -10.950   3.705  -0.974  1.00  0.00    -0.478 OA
ATOM     12  H   UNL     1     -11.292   3.989  -0.115  1.00  0.00     0.297 HD
ENDBRANCH   9  11
ENDBRANCH   3   9
ENDBRANCH   1   2
BRANCH   1  13
ATOM     13  C   UNL     1     -11.215   8.855  -0.075  1.00  0.00     0.230 C 
BRANCH  13  14
ATOM     14  C   UNL     1     -10.594   9.977   0.758  1.00  0.00     0.046 C 
BRANCH  14  15
ATOM     15  C   UNL     1     -11.617  10.481   1.778  1.00  0.00     0.043 C 
BRANCH  15  16
ATOM     16  C   UNL     1     -12.232  11.764   1.282  1.00  0.00    -0.004 A 
ATOM     17  C   UNL     1     -13.424  11.885   0.652  1.00  0.00     0.036 A 
ATOM     18  C   UNL     1     -11.676  13.042   1.397  1.00  0.00     0.063 A 
ATOM     19  N   UNL     1     -13.611  13.192   0.372  1.00  0.00    -0.282 N 
ATOM     20  N   UNL     1     -12.498  13.898   0.846  1.00  0.00    -0.181 NA
ATOM     21  C   UNL     1     -14.372  10.761   0.322  1.00  0.00     0.066 C 
ATOM     22  C   UNL     1     -10.351  13.375   2.035  1.00  0.00     0.069 C 
ATOM     23  H   UNL     1     -14.380  13.574  -0.078  1.00  0.00     0.190 HD
ENDBRANCH  15  16
ENDBRANCH  14  15
ENDBRANCH  13  14
ENDBRANCH   1  13
TORSDOF 7
ENDMDL
