MODEL 1
REMARK VINA RESULT:    -4.373      0.000      0.000
REMARK INTER + INTRA:          -5.294
REMARK INTER:                  -5.012
REMARK INTRA:                  -0.283
REMARK UNBOUND:                -0.283
REMARK SMILES O=C(O)c1ccc2nc(-c3cc(Cl)cc(Cl)c3)oc2c1
REMARK SMILES IDX 5 1 6 2 20 3 8 4 18 5 4 6 9 7 7 8 19 9 2 10 1 11 3 12 10 14
REMARK SMILES IDX 11 15 17 16 12 17 15 18 14 19 13 20 16 21
REMARK H PARENT 3 13
ROOT
ATOM      1  C   UNL     1     -12.685  10.767  -8.118  1.00  0.00     0.018 A 
ATOM      2  C   UNL     1     -12.252  11.029  -6.853  1.00  0.00     0.033 A 
ATOM      3  C   UNL     1     -11.971   8.459  -7.912  1.00  0.00     0.065 A 
ATOM      4  N   UNL     1     -11.155   9.967  -4.840  1.00  0.00    -0.209 NA
ATOM      5  O   UNL     1     -10.936   7.969  -5.674  1.00  0.00    -0.436 OA
ATOM      6  C   UNL     1     -12.553   9.482  -8.663  1.00  0.00     0.063 A 
ATOM      7  C   UNL     1     -10.725   8.753  -4.600  1.00  0.00     0.227 A 
ATOM      8  C   UNL     1     -11.666  10.012  -6.089  1.00  0.00     0.110 A 
ATOM      9  C   UNL     1     -11.526   8.721  -6.629  1.00  0.00     0.156 A 
ENDROOT
BRANCH   6  10
ATOM     10  C   UNL     1     -13.030   9.210 -10.031  1.00  0.00     0.335 C 
ATOM     11  O   UNL     1     -14.208   8.990 -10.230  1.00  0.00    -0.246 OA
BRANCH  10  12
ATOM     12  O   UNL     1     -12.161   9.205 -11.060  1.00  0.00    -0.478 OA
ATOM     13  H   UNL     1     -11.922   8.344 -11.429  1.00  0.00     0.297 HD
ENDBRANCH  10  12
ENDBRANCH   6  10
BRANCH   7  14
ATOM     14  C   UNL     1     -10.098   8.311  -3.337  1.00  0.00     0.040 A 
ATOM     15  C   UNL     1      -9.011   7.437  -3.361  1.00  0.00     0.034 A 
ATOM     16  C   UNL     1     -10.594   8.766  -2.113  1.00  0.00     0.034 A 
ATOM     17  C   UNL     1      -8.429   7.029  -2.177  1.00  0.00     0.043 A 
ATOM     18  C   UNL     1     -10.004   8.350  -0.936  1.00  0.00     0.043 A 
ATOM     19  C   UNL     1      -8.925   7.483  -0.967  1.00  0.00     0.041 A 
ATOM     20  Cl  UNL     1      -7.076   5.942  -2.206  1.00  0.00    -0.084 Cl
ATOM     21  Cl  UNL     1     -10.618   8.915   0.587  1.00  0.00    -0.084 Cl
ENDBRANCH   7  14
TORSDOF 3
ENDMDL
MODEL 2
REMARK VINA RESULT:    -4.372      0.018      2.020
REMARK INTER + INTRA:          -5.294
REMARK INTER:                  -5.011
REMARK INTRA:                  -0.283
REMARK UNBOUND:                -0.283
REMARK SMILES O=C(O)c1ccc2nc(-c3cc(Cl)cc(Cl)c3)oc2c1
REMARK SMILES IDX 5 1 6 2 20 3 8 4 18 5 4 6 9 7 7 8 19 9 2 10 1 11 3 12 10 14
REMARK SMILES IDX 11 15 17 16 12 17 15 18 14 19 13 20 16 21
REMARK H PARENT 3 13
ROOT
ATOM      1  C   UNL     1     -12.687  10.757  -8.111  1.00  0.00     0.018 A 
ATOM      2  C   UNL     1     -12.259  11.022  -6.844  1.00  0.00     0.033 A 
ATOM      3  C   UNL     1     -11.958   8.454  -7.902  1.00  0.00     0.065 A 
ATOM      4  N   UNL     1     -11.161   9.967  -4.828  1.00  0.00    -0.209 NA
ATOM      5  O   UNL     1     -10.926   7.971  -5.661  1.00  0.00    -0.436 OA
ATOM      6  C   UNL     1     -12.545   9.473  -8.654  1.00  0.00     0.063 A 
ATOM      7  C   UNL     1     -10.722   8.757  -4.587  1.00  0.00     0.227 A 
ATOM      8  C   UNL     1     -11.669  10.009  -6.079  1.00  0.00     0.110 A 
ATOM      9  C   UNL     1     -11.518   8.719  -6.618  1.00  0.00     0.156 A 
ENDROOT
BRANCH   6  10
ATOM     10  C   UNL     1     -13.017   9.197 -10.023  1.00  0.00     0.335 C 
ATOM     11  O   UNL     1     -14.195   8.981 -10.227  1.00  0.00    -0.246 OA
BRANCH  10  12
ATOM     12  O   UNL     1     -12.142   9.182 -11.049  1.00  0.00    -0.478 OA
ATOM     13  H   UNL     1     -11.496   9.900 -11.085  1.00  0.00     0.297 HD
ENDBRANCH  10  12
ENDBRANCH   6  10
BRANCH   7  14
ATOM     14  C   UNL     1     -10.097   8.319  -3.322  1.00  0.00     0.040 A 
ATOM     15  C   UNL     1     -10.591   8.778  -2.100  1.00  0.00     0.034 A 
ATOM     16  C   UNL     1      -9.007   7.446  -3.345  1.00  0.00     0.034 A 
ATOM     17  C   UNL     1     -10.002   8.364  -0.921  1.00  0.00     0.043 A 
ATOM     18  C   UNL     1      -8.427   7.040  -2.160  1.00  0.00     0.043 A 
ATOM     19  C   UNL     1      -8.922   7.498  -0.951  1.00  0.00     0.041 A 
ATOM     20  Cl  UNL     1     -10.615   8.932   0.600  1.00  0.00    -0.084 Cl
ATOM     21  Cl  UNL     1      -7.072   5.954  -2.186  1.00  0.00    -0.084 Cl
ENDBRANCH   7  14
TORSDOF 3
ENDMDL
MODEL 3
REMARK VINA RESULT:    -4.364      5.477      8.312
REMARK INTER + INTRA:          -5.284
REMARK INTER:                  -5.002
REMARK INTRA:                  -0.282
REMARK UNBOUND:                -0.283
REMARK SMILES O=C(O)c1ccc2nc(-c3cc(Cl)cc(Cl)c3)oc2c1
REMARK SMILES IDX 5 1 6 2 20 3 8 4 18 5 4 6 9 7 7 8 19 9 2 10 1 11 3 12 10 14
REMARK SMILES IDX 11 15 17 16 12 17 15 18 14 19 13 20 16 21
REMARK H PARENT 3 13
ROOT
ATOM      1  C   UNL     1     -13.981  12.375   1.733  1.00  0.00     0.018 A 
ATOM      2  C   UNL     1     -13.880  11.565   0.642  1.00  0.00     0.033 A 
ATOM      3  C   UNL     1     -11.720  11.802   2.397  1.00  0.00     0.065 A 
ATOM      4  N   UNL     1     -12.309   9.997  -0.565  1.00  0.00    -0.209 NA
ATOM      5  O   UNL     1     -10.633  10.183   0.809  1.00  0.00    -0.436 OA
ATOM      6  C   UNL     1     -12.904  12.505   2.622  1.00  0.00     0.063 A 
ATOM      7  C   UNL     1     -11.085   9.604  -0.319  1.00  0.00     0.227 A 
ATOM      8  C   UNL     1     -12.698  10.854   0.404  1.00  0.00     0.110 A 
ATOM      9  C   UNL     1     -11.615  10.975   1.293  1.00  0.00     0.156 A 
ENDROOT
BRANCH   6  10
ATOM     10  C   UNL     1     -13.022  13.389   3.796  1.00  0.00     0.335 C 
ATOM     11  O   UNL     1     -12.521  14.495   3.777  1.00  0.00    -0.246 OA
BRANCH  10  12
ATOM     12  O   UNL     1     -13.686  12.969   4.891  1.00  0.00    -0.478 OA
ATOM     13  H   UNL     1     -14.393  13.540   5.222  1.00  0.00     0.297 HD
ENDBRANCH  10  12
ENDBRANCH   6  10
BRANCH   7  14
ATOM     14  C   UNL     1     -10.313   8.662  -1.157  1.00  0.00     0.040 A 
ATOM     15  C   UNL     1      -9.535   7.669  -0.561  1.00  0.00     0.034 A 
ATOM     16  C   UNL     1     -10.360   8.764  -2.549  1.00  0.00     0.034 A 
ATOM     17  C   UNL     1      -8.817   6.792  -1.349  1.00  0.00     0.043 A 
ATOM     18  C   UNL     1      -9.638   7.880  -3.327  1.00  0.00     0.043 A 
ATOM     19  C   UNL     1      -8.867   6.898  -2.729  1.00  0.00     0.041 A 
ATOM     20  Cl  UNL     1      -7.849   5.556  -0.610  1.00  0.00    -0.084 Cl
ATOM     21  Cl  UNL     1      -9.694   8.004  -5.058  1.00  0.00    -0.084 Cl
ENDBRANCH   7  14
TORSDOF 3
ENDMDL
MODEL 4
REMARK VINA RESULT:    -4.358      5.476      8.325
REMARK INTER + INTRA:          -5.277
REMARK INTER:                  -4.995
REMARK INTRA:                  -0.282
REMARK UNBOUND:                -0.283
REMARK SMILES O=C(O)c1ccc2nc(-c3cc(Cl)cc(Cl)c3)oc2c1
REMARK SMILES IDX 5 1 6 2 20 3 8 4 18 5 4 6 9 7 7 8 19 9 2 10 1 11 3 12 10 14
REMARK SMILES IDX 11 15 17 16 12 17 15 18 14 19 13 20 16 21
REMARK H PARENT 3 13
ROOT
ATOM      1  C   UNL     1     -13.984  12.375   1.739  1.00  0.00     0.018 A 
ATOM      2  C   UNL     1     -13.886  11.563   0.649  1.00  0.00     0.033 A 
ATOM      3  C   UNL     1     -11.720  11.806   2.396  1.00  0.00     0.065 A 
ATOM      4  N   UNL     1     -12.317   9.994  -0.560  1.00  0.00    -0.209 NA
ATOM      5  O   UNL     1     -10.637  10.185   0.809  1.00  0.00    -0.436 OA
ATOM      6  C   UNL     1     -12.905  12.509   2.624  1.00  0.00     0.063 A 
ATOM      7  C   UNL     1     -11.091   9.603  -0.317  1.00  0.00     0.227 A 
ATOM      8  C   UNL     1     -12.703  10.853   0.408  1.00  0.00     0.110 A 
ATOM      9  C   UNL     1     -11.618  10.977   1.294  1.00  0.00     0.156 A 
ENDROOT
BRANCH   6  10
ATOM     10  C   UNL     1     -13.020  13.394   3.796  1.00  0.00     0.335 C 
ATOM     11  O   UNL     1     -12.522  14.502   3.772  1.00  0.00    -0.246 OA
BRANCH  10  12
ATOM     12  O   UNL     1     -13.678  12.975   4.896  1.00  0.00    -0.478 OA
ATOM     13  H   UNL     1     -14.621  12.791   4.800  1.00  0.00     0.297 HD
ENDBRANCH  10  12
ENDBRANCH   6  10
BRANCH   7  14
ATOM     14  C   UNL     1     -10.321   8.661  -1.155  1.00  0.00     0.040 A 
ATOM     15  C   UNL     1     -10.372   8.757  -2.546  1.00  0.00     0.034 A 
ATOM     16  C   UNL     1      -9.540   7.669  -0.558  1.00  0.00     0.034 A 
ATOM     17  C   UNL     1      -9.649   7.874  -3.324  1.00  0.00     0.043 A 
ATOM     18  C   UNL     1      -8.822   6.792  -1.346  1.00  0.00     0.043 A 
ATOM     19  C   UNL     1      -8.877   6.893  -2.725  1.00  0.00     0.041 A 
ATOM     20  Cl  UNL     1      -9.711   7.992  -5.055  1.00  0.00    -0.084 Cl
ATOM     21  Cl  UNL     1      -7.850   5.559  -0.605  1.00  0.00    -0.084 Cl
ENDBRANCH   7  14
TORSDOF 3
ENDMDL
MODEL 5
REMARK VINA RESULT:    -3.907      3.828      7.457
REMARK INTER + INTRA:          -4.761
REMARK INTER:                  -4.481
REMARK INTRA:                  -0.280
REMARK UNBOUND:                -0.283
REMARK SMILES O=C(O)c1ccc2nc(-c3cc(Cl)cc(Cl)c3)oc2c1
REMARK SMILES IDX 5 1 6 2 20 3 8 4 18 5 4 6 9 7 7 8 19 9 2 10 1 11 3 12 10 14
REMARK SMILES IDX 11 15 17 16 12 17 15 18 14 19 13 20 16 21
REMARK H PARENT 3 13
ROOT
ATOM      1  C   UNL     1      -9.335   7.530  -0.752  1.00  0.00     0.018 A 
ATOM      2  C   UNL     1     -10.285   8.348  -1.286  1.00  0.00     0.033 A 
ATOM      3  C   UNL     1      -8.369   7.178  -2.949  1.00  0.00     0.065 A 
ATOM      4  N   UNL     1     -11.094   9.343  -3.463  1.00  0.00    -0.209 NA
ATOM      5  O   UNL     1      -9.601   8.424  -4.752  1.00  0.00    -0.436 OA
ATOM      6  C   UNL     1      -8.366   6.937  -1.574  1.00  0.00     0.063 A 
ATOM      7  C   UNL     1     -10.674   9.236  -4.699  1.00  0.00     0.227 A 
ATOM      8  C   UNL     1     -10.300   8.598  -2.664  1.00  0.00     0.110 A 
ATOM      9  C   UNL     1      -9.335   8.004  -3.495  1.00  0.00     0.156 A 
ENDROOT
BRANCH   6  10
ATOM     10  C   UNL     1      -7.339   6.059  -0.984  1.00  0.00     0.335 C 
ATOM     11  O   UNL     1      -7.662   5.001  -0.481  1.00  0.00    -0.246 OA
BRANCH  10  12
ATOM     12  O   UNL     1      -6.044   6.429  -1.001  1.00  0.00    -0.478 OA
ATOM     13  H   UNL     1      -5.595   6.416  -1.857  1.00  0.00     0.297 HD
ENDBRANCH  10  12
ENDBRANCH   6  10
BRANCH   7  14
ATOM     14  C   UNL     1     -11.288   9.906  -5.864  1.00  0.00     0.040 A 
ATOM     15  C   UNL     1     -11.845   9.150  -6.896  1.00  0.00     0.034 A 
ATOM     16  C   UNL     1     -11.314  11.301  -5.936  1.00  0.00     0.034 A 
ATOM     17  C   UNL     1     -12.418   9.783  -7.981  1.00  0.00     0.043 A 
ATOM     18  C   UNL     1     -11.890  11.922  -7.026  1.00  0.00     0.043 A 
ATOM     19  C   UNL     1     -12.440  11.166  -8.046  1.00  0.00     0.041 A 
ATOM     20  Cl  UNL     1     -13.112   8.843  -9.265  1.00  0.00    -0.084 Cl
ATOM     21  Cl  UNL     1     -11.922  13.656  -7.118  1.00  0.00    -0.084 Cl
ENDBRANCH   7  14
TORSDOF 3
ENDMDL
MODEL 6
REMARK VINA RESULT:    -3.903      3.826      7.604
REMARK INTER + INTRA:          -4.756
REMARK INTER:                  -4.477
REMARK INTRA:                  -0.279
REMARK UNBOUND:                -0.283
REMARK SMILES O=C(O)c1ccc2nc(-c3cc(Cl)cc(Cl)c3)oc2c1
REMARK SMILES IDX 5 1 6 2 20 3 8 4 18 5 4 6 9 7 7 8 19 9 2 10 1 11 3 12 10 14
REMARK SMILES IDX 11 15 17 16 12 17 15 18 14 19 13 20 16 21
REMARK H PARENT 3 13
ROOT
ATOM      1  C   UNL     1      -9.327   7.523  -0.760  1.00  0.00     0.018 A 
ATOM      2  C   UNL     1     -10.272   8.350  -1.290  1.00  0.00     0.033 A 
ATOM      3  C   UNL     1      -8.380   7.153  -2.961  1.00  0.00     0.065 A 
ATOM      4  N   UNL     1     -11.084   9.346  -3.465  1.00  0.00    -0.209 NA
ATOM      5  O   UNL     1      -9.610   8.407  -4.760  1.00  0.00    -0.436 OA
ATOM      6  C   UNL     1      -8.370   6.917  -1.585  1.00  0.00     0.063 A 
ATOM      7  C   UNL     1     -10.673   9.230  -4.703  1.00  0.00     0.227 A 
ATOM      8  C   UNL     1     -10.293   8.596  -2.669  1.00  0.00     0.110 A 
ATOM      9  C   UNL     1      -9.339   7.988  -3.504  1.00  0.00     0.156 A 
ENDROOT
BRANCH   6  10
ATOM     10  C   UNL     1      -7.350   6.029  -0.999  1.00  0.00     0.335 C 
ATOM     11  O   UNL     1      -7.658   4.918  -0.617  1.00  0.00    -0.246 OA
BRANCH  10  12
ATOM     12  O   UNL     1      -6.074   6.450  -0.886  1.00  0.00    -0.478 OA
ATOM     13  H   UNL     1      -5.430   6.069  -1.497  1.00  0.00     0.297 HD
ENDBRANCH  10  12
ENDBRANCH   6  10
BRANCH   7  14
ATOM     14  C   UNL     1     -11.288   9.904  -5.866  1.00  0.00     0.040 A 
ATOM     15  C   UNL     1     -11.313  11.297  -5.936  1.00  0.00     0.034 A 
ATOM     16  C   UNL     1     -11.846   9.148  -6.899  1.00  0.00     0.034 A 
ATOM     17  C   UNL     1     -11.888  11.921  -7.026  1.00  0.00     0.043 A 
ATOM     18  C   UNL     1     -12.418   9.783  -7.983  1.00  0.00     0.043 A 
ATOM     19  C   UNL     1     -12.440  11.166  -8.047  1.00  0.00     0.041 A 
ATOM     20  Cl  UNL     1     -11.920  13.654  -7.116  1.00  0.00    -0.084 Cl
ATOM     21  Cl  UNL     1     -13.112   8.845  -9.269  1.00  0.00    -0.084 Cl
ENDBRANCH   7  14
TORSDOF 3
ENDMDL
MODEL 7
REMARK VINA RESULT:    -3.760      3.732      5.828
REMARK INTER + INTRA:          -4.593
REMARK INTER:                  -4.296
REMARK INTRA:                  -0.296
REMARK UNBOUND:                -0.283
REMARK SMILES O=C(O)c1ccc2nc(-c3cc(Cl)cc(Cl)c3)oc2c1
REMARK SMILES IDX 5 1 6 2 20 3 8 4 18 5 4 6 9 7 7 8 19 9 2 10 1 11 3 12 10 14
REMARK SMILES IDX 11 15 17 16 12 17 15 18 14 19 13 20 16 21
REMARK H PARENT 3 13
ROOT
ATOM      1  C   UNL     1     -11.075   9.335  -2.168  1.00  0.00     0.018 A 
ATOM      2  C   UNL     1     -10.498   8.555  -1.212  1.00  0.00     0.033 A 
ATOM      3  C   UNL     1      -9.668   8.331  -3.870  1.00  0.00     0.065 A 
ATOM      4  N   UNL     1      -8.752   6.763  -0.857  1.00  0.00    -0.209 NA
ATOM      5  O   UNL     1      -8.109   6.599  -2.929  1.00  0.00    -0.436 OA
ATOM      6  C   UNL     1     -10.671   9.233  -3.507  1.00  0.00     0.063 A 
ATOM      7  C   UNL     1      -7.935   6.145  -1.673  1.00  0.00     0.227 A 
ATOM      8  C   UNL     1      -9.492   7.646  -1.562  1.00  0.00     0.110 A 
ATOM      9  C   UNL     1      -9.077   7.541  -2.902  1.00  0.00     0.156 A 
ENDROOT
BRANCH   6  10
ATOM     10  C   UNL     1     -11.306  10.078  -4.534  1.00  0.00     0.335 C 
ATOM     11  O   UNL     1     -11.060   9.895  -5.709  1.00  0.00    -0.246 OA
BRANCH  10  12
ATOM     12  O   UNL     1     -12.160  11.055  -4.169  1.00  0.00    -0.478 OA
ATOM     13  H   UNL     1     -12.208  11.833  -4.742  1.00  0.00     0.297 HD
ENDBRANCH  10  12
ENDBRANCH   6  10
BRANCH   7  14
ATOM     14  C   UNL     1      -6.965   5.104  -1.273  1.00  0.00     0.040 A 
ATOM     15  C   UNL     1      -7.168   4.368  -0.106  1.00  0.00     0.034 A 
ATOM     16  C   UNL     1      -5.841   4.855  -2.063  1.00  0.00     0.034 A 
ATOM     17  C   UNL     1      -6.259   3.397   0.262  1.00  0.00     0.043 A 
ATOM     18  C   UNL     1      -4.939   3.880  -1.685  1.00  0.00     0.043 A 
ATOM     19  C   UNL     1      -5.146   3.154  -0.525  1.00  0.00     0.041 A 
ATOM     20  Cl  UNL     1      -6.510   2.479   1.714  1.00  0.00    -0.084 Cl
ATOM     21  Cl  UNL     1      -3.540   3.568  -2.666  1.00  0.00    -0.084 Cl
ENDBRANCH   7  14
TORSDOF 3
ENDMDL
MODEL 8
REMARK VINA RESULT:    -3.713      5.021      6.719
REMARK INTER + INTRA:          -4.539
REMARK INTER:                  -4.242
REMARK INTRA:                  -0.296
REMARK UNBOUND:                -0.283
REMARK SMILES O=C(O)c1ccc2nc(-c3cc(Cl)cc(Cl)c3)oc2c1
REMARK SMILES IDX 5 1 6 2 20 3 8 4 18 5 4 6 9 7 7 8 19 9 2 10 1 11 3 12 10 14
REMARK SMILES IDX 11 15 17 16 12 17 15 18 14 19 13 20 16 21
REMARK H PARENT 3 13
ROOT
ATOM      1  C   UNL     1     -10.983   9.261  -2.784  1.00  0.00     0.018 A 
ATOM      2  C   UNL     1      -9.977   8.474  -3.260  1.00  0.00     0.033 A 
ATOM      3  C   UNL     1     -10.578   8.458  -0.532  1.00  0.00     0.065 A 
ATOM      4  N   UNL     1      -8.227   6.795  -2.553  1.00  0.00    -0.209 NA
ATOM      5  O   UNL     1      -8.704   6.784  -0.431  1.00  0.00    -0.436 OA
ATOM      6  C   UNL     1     -11.295   9.265  -1.417  1.00  0.00     0.063 A 
ATOM      7  C   UNL     1      -7.908   6.280  -1.392  1.00  0.00     0.227 A 
ATOM      8  C   UNL     1      -9.251   7.660  -2.383  1.00  0.00     0.110 A 
ATOM      9  C   UNL     1      -9.560   7.654  -1.012  1.00  0.00     0.156 A 
ENDROOT
BRANCH   6  10
ATOM     10  C   UNL     1     -12.380  10.125  -0.912  1.00  0.00     0.335 C 
ATOM     11  O   UNL     1     -12.568  10.228   0.283  1.00  0.00    -0.246 OA
BRANCH  10  12
ATOM     12  O   UNL     1     -13.166  10.796  -1.778  1.00  0.00    -0.478 OA
ATOM     13  H   UNL     1     -13.514  11.649  -1.484  1.00  0.00     0.297 HD
ENDBRANCH  10  12
ENDBRANCH   6  10
BRANCH   7  14
ATOM     14  C   UNL     1      -6.833   5.291  -1.171  1.00  0.00     0.040 A 
ATOM     15  C   UNL     1      -6.866   4.457  -0.053  1.00  0.00     0.034 A 
ATOM     16  C   UNL     1      -5.778   5.188  -2.080  1.00  0.00     0.034 A 
ATOM     17  C   UNL     1      -5.859   3.534   0.148  1.00  0.00     0.043 A 
ATOM     18  C   UNL     1      -4.777   4.261  -1.869  1.00  0.00     0.043 A 
ATOM     19  C   UNL     1      -4.816   3.437  -0.758  1.00  0.00     0.041 A 
ATOM     20  Cl  UNL     1      -5.899   2.495   1.537  1.00  0.00    -0.084 Cl
ATOM     21  Cl  UNL     1      -3.464   4.132  -2.999  1.00  0.00    -0.084 Cl
ENDBRANCH   7  14
TORSDOF 3
ENDMDL
MODEL 9
REMARK VINA RESULT:    -3.710      5.017      6.544
REMARK INTER + INTRA:          -4.535
REMARK INTER:                  -4.239
REMARK INTRA:                  -0.296
REMARK UNBOUND:                -0.283
REMARK SMILES O=C(O)c1ccc2nc(-c3cc(Cl)cc(Cl)c3)oc2c1
REMARK SMILES IDX 5 1 6 2 20 3 8 4 18 5 4 6 9 7 7 8 19 9 2 10 1 11 3 12 10 14
REMARK SMILES IDX 11 15 17 16 12 17 15 18 14 19 13 20 16 21
REMARK H PARENT 3 13
ROOT
ATOM      1  C   UNL     1     -10.978   9.255  -2.792  1.00  0.00     0.018 A 
ATOM      2  C   UNL     1      -9.970   8.471  -3.268  1.00  0.00     0.033 A 
ATOM      3  C   UNL     1     -10.577   8.446  -0.542  1.00  0.00     0.065 A 
ATOM      4  N   UNL     1      -8.218   6.793  -2.562  1.00  0.00    -0.209 NA
ATOM      5  O   UNL     1      -8.701   6.775  -0.441  1.00  0.00    -0.436 OA
ATOM      6  C   UNL     1     -11.293   9.254  -1.426  1.00  0.00     0.063 A 
ATOM      7  C   UNL     1      -7.901   6.275  -1.401  1.00  0.00     0.227 A 
ATOM      8  C   UNL     1      -9.244   7.655  -2.392  1.00  0.00     0.110 A 
ATOM      9  C   UNL     1      -9.557   7.645  -1.021  1.00  0.00     0.156 A 
ENDROOT
BRANCH   6  10
ATOM     10  C   UNL     1     -12.382  10.111  -0.922  1.00  0.00     0.335 C 
ATOM     11  O   UNL     1     -12.575  10.207   0.273  1.00  0.00    -0.246 OA
BRANCH  10  12
ATOM     12  O   UNL     1     -13.164  10.786  -1.788  1.00  0.00    -0.478 OA
ATOM     13  H   UNL     1     -12.722  11.241  -2.517  1.00  0.00     0.297 HD
ENDBRANCH  10  12
ENDBRANCH   6  10
BRANCH   7  14
ATOM     14  C   UNL     1      -6.825   5.288  -1.180  1.00  0.00     0.040 A 
ATOM     15  C   UNL     1      -5.768   5.187  -2.086  1.00  0.00     0.034 A 
ATOM     16  C   UNL     1      -6.861   4.450  -0.063  1.00  0.00     0.034 A 
ATOM     17  C   UNL     1      -4.765   4.263  -1.873  1.00  0.00     0.043 A 
ATOM     18  C   UNL     1      -5.852   3.530   0.139  1.00  0.00     0.043 A 
ATOM     19  C   UNL     1      -4.807   3.435  -0.764  1.00  0.00     0.041 A 
ATOM     20  Cl  UNL     1      -3.449   4.137  -2.998  1.00  0.00    -0.084 Cl
ATOM     21  Cl  UNL     1      -5.896   2.487   1.526  1.00  0.00    -0.084 Cl
ENDBRANCH   7  14
TORSDOF 3
ENDMDL
