MODEL 1
REMARK VINA RESULT:    -5.549      0.000      0.000
REMARK INTER + INTRA:          -8.320
REMARK INTER:                  -7.658
REMARK INTRA:                  -0.663
REMARK UNBOUND:                -0.663
REMARK SMILES Cc1n[nH]c(C)c1CCCOc1cc(C(=O)O)ccc1F
REMARK SMILES IDX 11 1 12 2 14 3 18 4 13 5 19 6 20 7 21 8 15 9 16 10 17 11
REMARK SMILES IDX 10 13 9 14 8 15 7 16 5 17 2 18 4 19 3 20 6 21 1 22
REMARK H PARENT 17 12 4 23
ROOT
ATOM      1  O   UNL     1      -3.900  -1.919   4.763  1.00  0.00    -0.490 OA
ENDROOT
BRANCH   1   2
ATOM      2  C   UNL     1      -3.284  -1.976   3.552  1.00  0.00     0.155 A 
ATOM      3  C   UNL     1      -3.138  -2.868   1.324  1.00  0.00     0.063 A 
ATOM      4  C   UNL     1      -2.018  -2.069   1.082  1.00  0.00     0.019 A 
ATOM      5  C   UNL     1      -3.770  -2.816   2.568  1.00  0.00     0.065 A 
ATOM      6  C   UNL     1      -1.543  -1.230   2.068  1.00  0.00     0.044 A 
ATOM      7  C   UNL     1      -2.175  -1.176   3.299  1.00  0.00     0.165 A 
ATOM      8  F   UNL     1      -1.705  -0.352   4.261  1.00  0.00    -0.203 F 
BRANCH   3   9
ATOM      9  C   UNL     1      -3.649  -3.767   0.271  1.00  0.00     0.335 C 
ATOM     10  O   UNL     1      -2.909  -4.578  -0.247  1.00  0.00    -0.246 OA
BRANCH   9  11
ATOM     11  O   UNL     1      -4.939  -3.693  -0.110  1.00  0.00    -0.478 OA
ATOM     12  H   UNL     1      -5.122  -3.757  -1.058  1.00  0.00     0.297 HD
ENDBRANCH   9  11
ENDBRANCH   3   9
ENDBRANCH   1   2
BRANCH   1  13
ATOM     13  C   UNL     1      -3.490  -2.875   5.745  1.00  0.00     0.230 C 
BRANCH  13  14
ATOM     14  C   UNL     1      -4.673  -3.207   6.656  1.00  0.00     0.046 C 
BRANCH  14  15
ATOM     15  C   UNL     1      -5.982  -2.988   5.894  1.00  0.00     0.043 C 
BRANCH  15  16
ATOM     16  C   UNL     1      -7.148  -3.276   6.803  1.00  0.00    -0.004 A 
ATOM     17  C   UNL     1      -7.742  -4.479   6.980  1.00  0.00     0.036 A 
ATOM     18  C   UNL     1      -7.804  -2.349   7.620  1.00  0.00     0.063 A 
ATOM     19  N   UNL     1      -8.743  -4.317   7.871  1.00  0.00    -0.282 N 
ATOM     20  N   UNL     1      -8.764  -2.970   8.255  1.00  0.00    -0.181 NA
ATOM     21  C   UNL     1      -7.355  -5.768   6.303  1.00  0.00     0.066 C 
ATOM     22  C   UNL     1      -7.470  -0.883   7.738  1.00  0.00     0.069 C 
ATOM     23  H   UNL     1      -9.341  -5.011   8.189  1.00  0.00     0.190 HD
ENDBRANCH  15  16
ENDBRANCH  14  15
ENDBRANCH  13  14
ENDBRANCH   1  13
TORSDOF 7
ENDMDL
MODEL 2
REMARK VINA RESULT:    -5.544      2.009      3.662
REMARK INTER + INTRA:          -8.313
REMARK INTER:                  -7.649
REMARK INTRA:                  -0.664
REMARK UNBOUND:                -0.663
REMARK SMILES Cc1n[nH]c(C)c1CCCOc1cc(C(=O)O)ccc1F
REMARK SMILES IDX 11 1 12 2 14 3 18 4 13 5 19 6 20 7 21 8 15 9 16 10 17 11
REMARK SMILES IDX 10 13 9 14 8 15 7 16 5 17 2 18 4 19 3 20 6 21 1 22
REMARK H PARENT 17 12 4 23
ROOT
ATOM      1  O   UNL     1      -5.064  -3.452   3.135  1.00  0.00    -0.490 OA
ENDROOT
BRANCH   1   2
ATOM      2  C   UNL     1      -3.944  -2.880   2.619  1.00  0.00     0.155 A 
ATOM      3  C   UNL     1      -2.067  -1.393   2.840  1.00  0.00     0.063 A 
ATOM      4  C   UNL     1      -1.653  -1.729   1.548  1.00  0.00     0.019 A 
ATOM      5  C   UNL     1      -3.219  -1.975   3.372  1.00  0.00     0.065 A 
ATOM      6  C   UNL     1      -2.379  -2.637   0.806  1.00  0.00     0.044 A 
ATOM      7  C   UNL     1      -3.519  -3.217   1.338  1.00  0.00     0.165 A 
ATOM      8  F   UNL     1      -4.226  -4.105   0.606  1.00  0.00    -0.203 F 
BRANCH   3   9
ATOM      9  C   UNL     1      -1.291  -0.422   3.637  1.00  0.00     0.335 C 
ATOM     10  O   UNL     1      -1.045   0.677   3.184  1.00  0.00    -0.246 OA
BRANCH   9  11
ATOM     11  O   UNL     1      -0.862  -0.754   4.870  1.00  0.00    -0.478 OA
ATOM     12  H   UNL     1      -0.355  -1.574   4.953  1.00  0.00     0.297 HD
ENDBRANCH   9  11
ENDBRANCH   3   9
ENDBRANCH   1   2
BRANCH   1  13
ATOM     13  C   UNL     1      -6.294  -2.747   2.956  1.00  0.00     0.230 C 
BRANCH  13  14
ATOM     14  C   UNL     1      -7.237  -3.064   4.118  1.00  0.00     0.046 C 
BRANCH  14  15
ATOM     15  C   UNL     1      -6.416  -3.379   5.370  1.00  0.00     0.043 C 
BRANCH  15  16
ATOM     16  C   UNL     1      -7.344  -3.663   6.523  1.00  0.00    -0.004 A 
ATOM     17  C   UNL     1      -7.815  -2.754   7.408  1.00  0.00     0.036 A 
ATOM     18  C   UNL     1      -7.875  -4.911   6.863  1.00  0.00     0.063 A 
ATOM     19  N   UNL     1      -8.612  -3.406   8.281  1.00  0.00    -0.282 N 
ATOM     20  N   UNL     1      -8.630  -4.760   7.921  1.00  0.00    -0.181 NA
ATOM     21  C   UNL     1      -7.507  -1.280   7.416  1.00  0.00     0.066 C 
ATOM     22  C   UNL     1      -7.614  -6.209   6.143  1.00  0.00     0.069 C 
ATOM     23  H   UNL     1      -9.087  -3.007   9.027  1.00  0.00     0.190 HD
ENDBRANCH  15  16
ENDBRANCH  14  15
ENDBRANCH  13  14
ENDBRANCH   1  13
TORSDOF 7
ENDMDL
MODEL 3
REMARK VINA RESULT:    -5.410      0.168      1.776
REMARK INTER + INTRA:          -8.128
REMARK INTER:                  -7.477
REMARK INTRA:                  -0.650
REMARK UNBOUND:                -0.663
REMARK SMILES Cc1n[nH]c(C)c1CCCOc1cc(C(=O)O)ccc1F
REMARK SMILES IDX 11 1 12 2 14 3 18 4 13 5 19 6 20 7 21 8 15 9 16 10 17 11
REMARK SMILES IDX 10 13 9 14 8 15 7 16 5 17 2 18 4 19 3 20 6 21 1 22
REMARK H PARENT 17 12 4 23
ROOT
ATOM      1  O   UNL     1      -3.874  -1.935   4.814  1.00  0.00    -0.490 OA
ENDROOT
BRANCH   1   2
ATOM      2  C   UNL     1      -3.256  -1.992   3.604  1.00  0.00     0.155 A 
ATOM      3  C   UNL     1      -3.122  -2.866   1.368  1.00  0.00     0.063 A 
ATOM      4  C   UNL     1      -1.985  -2.087   1.135  1.00  0.00     0.019 A 
ATOM      5  C   UNL     1      -3.756  -2.814   2.611  1.00  0.00     0.065 A 
ATOM      6  C   UNL     1      -1.498  -1.266   2.130  1.00  0.00     0.044 A 
ATOM      7  C   UNL     1      -2.131  -1.212   3.361  1.00  0.00     0.165 A 
ATOM      8  F   UNL     1      -1.648  -0.405   4.331  1.00  0.00    -0.203 F 
BRANCH   3   9
ATOM      9  C   UNL     1      -3.647  -3.746   0.305  1.00  0.00     0.335 C 
ATOM     10  O   UNL     1      -2.921  -4.566  -0.219  1.00  0.00    -0.246 OA
BRANCH   9  11
ATOM     11  O   UNL     1      -4.934  -3.642  -0.079  1.00  0.00    -0.478 OA
ATOM     12  H   UNL     1      -5.186  -2.842  -0.562  1.00  0.00     0.297 HD
ENDBRANCH   9  11
ENDBRANCH   3   9
ENDBRANCH   1   2
BRANCH   1  13
ATOM     13  C   UNL     1      -3.444  -2.870   5.806  1.00  0.00     0.230 C 
BRANCH  13  14
ATOM     14  C   UNL     1      -4.623  -3.232   6.710  1.00  0.00     0.046 C 
BRANCH  14  15
ATOM     15  C   UNL     1      -5.925  -3.146   5.910  1.00  0.00     0.043 C 
BRANCH  15  16
ATOM     16  C   UNL     1      -7.090  -3.472   6.807  1.00  0.00    -0.004 A 
ATOM     17  C   UNL     1      -7.765  -2.595   7.587  1.00  0.00     0.036 A 
ATOM     18  C   UNL     1      -7.669  -4.734   6.978  1.00  0.00     0.063 A 
ATOM     19  N   UNL     1      -8.733  -3.280   8.232  1.00  0.00    -0.282 N 
ATOM     20  N   UNL     1      -8.650  -4.621   7.836  1.00  0.00    -0.181 NA
ATOM     21  C   UNL     1      -7.486  -1.120   7.711  1.00  0.00     0.066 C 
ATOM     22  C   UNL     1      -7.232  -6.006   6.298  1.00  0.00     0.069 C 
ATOM     23  H   UNL     1      -9.373  -2.909   8.859  1.00  0.00     0.190 HD
ENDBRANCH  15  16
ENDBRANCH  14  15
ENDBRANCH  13  14
ENDBRANCH   1  13
TORSDOF 7
ENDMDL
MODEL 4
REMARK VINA RESULT:    -5.389     10.283     12.704
REMARK INTER + INTRA:          -8.099
REMARK INTER:                  -5.865
REMARK INTRA:                  -2.234
REMARK UNBOUND:                -0.663
REMARK SMILES Cc1n[nH]c(C)c1CCCOc1cc(C(=O)O)ccc1F
REMARK SMILES IDX 11 1 12 2 14 3 18 4 13 5 19 6 20 7 21 8 15 9 16 10 17 11
REMARK SMILES IDX 10 13 9 14 8 15 7 16 5 17 2 18 4 19 3 20 6 21 1 22
REMARK H PARENT 17 12 4 23
ROOT
ATOM      1  O   UNL     1     -12.265 -11.390  11.678  1.00  0.00    -0.490 OA
ENDROOT
BRANCH   1   2
ATOM      2  C   UNL     1     -11.807 -10.237  12.234  1.00  0.00     0.155 A 
ATOM      3  C   UNL     1     -11.489  -7.855  12.138  1.00  0.00     0.063 A 
ATOM      4  C   UNL     1     -10.874  -7.891  13.393  1.00  0.00     0.019 A 
ATOM      5  C   UNL     1     -11.956  -9.038  11.562  1.00  0.00     0.065 A 
ATOM      6  C   UNL     1     -10.735  -9.090  14.059  1.00  0.00     0.044 A 
ATOM      7  C   UNL     1     -11.204 -10.262  13.487  1.00  0.00     0.165 A 
ATOM      8  F   UNL     1     -11.065 -11.434  14.145  1.00  0.00    -0.203 F 
BRANCH   3   9
ATOM      9  C   UNL     1     -11.639  -6.573  11.423  1.00  0.00     0.335 C 
ATOM     10  O   UNL     1     -12.549  -6.421  10.633  1.00  0.00    -0.246 OA
BRANCH   9  11
ATOM     11  O   UNL     1     -10.771  -5.569  11.652  1.00  0.00    -0.478 OA
ATOM     12  H   UNL     1      -9.834  -5.803  11.715  1.00  0.00     0.297 HD
ENDBRANCH   9  11
ENDBRANCH   3   9
ENDBRANCH   1   2
BRANCH   1  13
ATOM     13  C   UNL     1     -11.654 -11.807  10.455  1.00  0.00     0.230 C 
BRANCH  13  14
ATOM     14  C   UNL     1     -10.375 -12.587  10.764  1.00  0.00     0.046 C 
BRANCH  14  15
ATOM     15  C   UNL     1      -9.234 -12.063   9.889  1.00  0.00     0.043 C 
BRANCH  15  16
ATOM     16  C   UNL     1      -8.594 -10.873  10.555  1.00  0.00    -0.004 A 
ATOM     17  C   UNL     1      -7.913 -10.886  11.725  1.00  0.00     0.036 A 
ATOM     18  C   UNL     1      -8.593  -9.561  10.071  1.00  0.00     0.063 A 
ATOM     19  N   UNL     1      -7.502  -9.625  11.975  1.00  0.00    -0.282 N 
ATOM     20  N   UNL     1      -7.945  -8.811  10.924  1.00  0.00    -0.181 NA
ATOM     21  C   UNL     1      -7.660 -12.092  12.591  1.00  0.00     0.066 C 
ATOM     22  C   UNL     1      -9.238  -9.089   8.792  1.00  0.00     0.069 C 
ATOM     23  H   UNL     1      -6.991  -9.334  12.746  1.00  0.00     0.190 HD
ENDBRANCH  15  16
ENDBRANCH  14  15
ENDBRANCH  13  14
ENDBRANCH   1  13
TORSDOF 7
ENDMDL
MODEL 5
REMARK VINA RESULT:    -4.898      6.030      9.118
REMARK INTER + INTRA:          -7.421
REMARK INTER:                  -7.050
REMARK INTRA:                  -0.371
REMARK UNBOUND:                -0.663
REMARK SMILES Cc1n[nH]c(C)c1CCCOc1cc(C(=O)O)ccc1F
REMARK SMILES IDX 11 1 12 2 14 3 18 4 13 5 19 6 20 7 21 8 15 9 16 10 17 11
REMARK SMILES IDX 10 13 9 14 8 15 7 16 5 17 2 18 4 19 3 20 6 21 1 22
REMARK H PARENT 17 12 4 23
ROOT
ATOM      1  O   UNL     1      -0.485  -0.937   0.553  1.00  0.00    -0.490 OA
ENDROOT
BRANCH   1   2
ATOM      2  C   UNL     1      -1.550  -1.465   1.212  1.00  0.00     0.155 A 
ATOM      3  C   UNL     1      -3.395  -3.004   1.302  1.00  0.00     0.063 A 
ATOM      4  C   UNL     1      -3.717  -2.539   2.580  1.00  0.00     0.019 A 
ATOM      5  C   UNL     1      -2.305  -2.460   0.620  1.00  0.00     0.065 A 
ATOM      6  C   UNL     1      -2.954  -1.550   3.165  1.00  0.00     0.044 A 
ATOM      7  C   UNL     1      -1.870  -1.015   2.488  1.00  0.00     0.165 A 
ATOM      8  F   UNL     1      -1.127  -0.047   3.067  1.00  0.00    -0.203 F 
BRANCH   3   9
ATOM      9  C   UNL     1      -4.209  -4.063   0.673  1.00  0.00     0.335 C 
ATOM     10  O   UNL     1      -4.307  -5.150   1.203  1.00  0.00    -0.246 OA
BRANCH   9  11
ATOM     11  O   UNL     1      -4.850  -3.819  -0.487  1.00  0.00    -0.478 OA
ATOM     12  H   UNL     1      -5.398  -3.023  -0.528  1.00  0.00     0.297 HD
ENDBRANCH   9  11
ENDBRANCH   3   9
ENDBRANCH   1   2
BRANCH   1  13
ATOM     13  C   UNL     1      -0.661  -0.645  -0.836  1.00  0.00     0.230 C 
BRANCH  13  14
ATOM     14  C   UNL     1      -0.043   0.718  -1.152  1.00  0.00     0.046 C 
BRANCH  14  15
ATOM     15  C   UNL     1      -0.088   0.960  -2.663  1.00  0.00     0.043 C 
BRANCH  15  16
ATOM     16  C   UNL     1      -0.741   2.289  -2.939  1.00  0.00    -0.004 A 
ATOM     17  C   UNL     1      -1.933   2.479  -3.552  1.00  0.00     0.036 A 
ATOM     18  C   UNL     1      -0.225   3.546  -2.603  1.00  0.00     0.063 A 
ATOM     19  N   UNL     1      -2.160   3.809  -3.607  1.00  0.00    -0.282 N 
ATOM     20  N   UNL     1      -1.072   4.457  -3.008  1.00  0.00    -0.181 NA
ATOM     21  C   UNL     1      -2.843   1.400  -4.077  1.00  0.00     0.066 C 
ATOM     22  C   UNL     1       1.085   3.805  -1.904  1.00  0.00     0.069 C 
ATOM     23  H   UNL     1      -2.938   4.239  -3.993  1.00  0.00     0.190 HD
ENDBRANCH  15  16
ENDBRANCH  14  15
ENDBRANCH  13  14
ENDBRANCH   1  13
TORSDOF 7
ENDMDL
MODEL 6
REMARK VINA RESULT:    -4.625      8.426     10.986
REMARK INTER + INTRA:          -7.045
REMARK INTER:                  -4.909
REMARK INTRA:                  -2.136
REMARK UNBOUND:                -0.663
REMARK SMILES Cc1n[nH]c(C)c1CCCOc1cc(C(=O)O)ccc1F
REMARK SMILES IDX 11 1 12 2 14 3 18 4 13 5 19 6 20 7 21 8 15 9 16 10 17 11
REMARK SMILES IDX 10 13 9 14 8 15 7 16 5 17 2 18 4 19 3 20 6 21 1 22
REMARK H PARENT 17 12 4 23
ROOT
ATOM      1  O   UNL     1     -10.115 -12.105   9.889  1.00  0.00    -0.490 OA
ENDROOT
BRANCH   1   2
ATOM      2  C   UNL     1      -9.140 -11.160   9.948  1.00  0.00     0.155 A 
ATOM      3  C   UNL     1      -8.084  -9.191   9.058  1.00  0.00     0.063 A 
ATOM      4  C   UNL     1      -7.146  -9.231  10.092  1.00  0.00     0.019 A 
ATOM      5  C   UNL     1      -9.084 -10.164   8.991  1.00  0.00     0.065 A 
ATOM      6  C   UNL     1      -7.213 -10.225  11.046  1.00  0.00     0.044 A 
ATOM      7  C   UNL     1      -8.209 -11.186  10.980  1.00  0.00     0.165 A 
ATOM      8  F   UNL     1      -8.269 -12.157  11.918  1.00  0.00    -0.203 F 
BRANCH   3   9
ATOM      9  C   UNL     1      -8.015  -8.129   8.035  1.00  0.00     0.335 C 
ATOM     10  O   UNL     1      -7.170  -8.177   7.165  1.00  0.00    -0.246 OA
BRANCH   9  11
ATOM     11  O   UNL     1      -8.895  -7.108   8.065  1.00  0.00    -0.478 OA
ATOM     12  H   UNL     1      -8.571  -6.240   7.786  1.00  0.00     0.297 HD
ENDBRANCH   9  11
ENDBRANCH   3   9
ENDBRANCH   1   2
BRANCH   1  13
ATOM     13  C   UNL     1     -11.460 -11.664  10.094  1.00  0.00     0.230 C 
BRANCH  13  14
ATOM     14  C   UNL     1     -11.726 -11.520  11.593  1.00  0.00     0.046 C 
BRANCH  14  15
ATOM     15  C   UNL     1     -12.419 -10.183  11.862  1.00  0.00     0.043 C 
BRANCH  15  16
ATOM     16  C   UNL     1     -11.391  -9.153  12.251  1.00  0.00    -0.004 A 
ATOM     17  C   UNL     1     -10.653  -9.153  13.385  1.00  0.00     0.036 A 
ATOM     18  C   UNL     1     -11.026  -8.030  11.500  1.00  0.00     0.063 A 
ATOM     19  N   UNL     1      -9.854  -8.065  13.355  1.00  0.00    -0.282 N 
ATOM     20  N   UNL     1     -10.110  -7.374  12.164  1.00  0.00    -0.181 NA
ATOM     21  C   UNL     1     -10.711 -10.183  14.482  1.00  0.00     0.066 C 
ATOM     22  C   UNL     1     -11.599  -7.637  10.162  1.00  0.00     0.069 C 
ATOM     23  H   UNL     1      -9.216  -7.807  14.039  1.00  0.00     0.190 HD
ENDBRANCH  15  16
ENDBRANCH  14  15
ENDBRANCH  13  14
ENDBRANCH   1  13
TORSDOF 7
ENDMDL
MODEL 7
REMARK VINA RESULT:    -4.435      4.181      7.110
REMARK INTER + INTRA:          -6.783
REMARK INTER:                  -6.232
REMARK INTRA:                  -0.551
REMARK UNBOUND:                -0.663
REMARK SMILES Cc1n[nH]c(C)c1CCCOc1cc(C(=O)O)ccc1F
REMARK SMILES IDX 11 1 12 2 14 3 18 4 13 5 19 6 20 7 21 8 15 9 16 10 17 11
REMARK SMILES IDX 10 13 9 14 8 15 7 16 5 17 2 18 4 19 3 20 6 21 1 22
REMARK H PARENT 17 12 4 23
ROOT
ATOM      1  O   UNL     1      -5.353  -2.430   5.413  1.00  0.00    -0.490 OA
ENDROOT
BRANCH   1   2
ATOM      2  C   UNL     1      -6.350  -3.023   6.122  1.00  0.00     0.155 A 
ATOM      3  C   UNL     1      -7.591  -4.990   6.736  1.00  0.00     0.063 A 
ATOM      4  C   UNL     1      -8.386  -4.218   7.587  1.00  0.00     0.019 A 
ATOM      5  C   UNL     1      -6.569  -4.383   6.002  1.00  0.00     0.065 A 
ATOM      6  C   UNL     1      -8.156  -2.863   7.704  1.00  0.00     0.044 A 
ATOM      7  C   UNL     1      -7.139  -2.264   6.979  1.00  0.00     0.165 A 
ATOM      8  F   UNL     1      -6.919  -0.937   7.099  1.00  0.00    -0.203 F 
BRANCH   3   9
ATOM      9  C   UNL     1      -7.834  -6.440   6.609  1.00  0.00     0.335 C 
ATOM     10  O   UNL     1      -7.158  -7.105   5.850  1.00  0.00    -0.246 OA
BRANCH   9  11
ATOM     11  O   UNL     1      -8.802  -7.027   7.339  1.00  0.00    -0.478 OA
ATOM     12  H   UNL     1      -9.696  -6.666   7.256  1.00  0.00     0.297 HD
ENDBRANCH   9  11
ENDBRANCH   3   9
ENDBRANCH   1   2
BRANCH   1  13
ATOM     13  C   UNL     1      -4.022  -2.889   5.658  1.00  0.00     0.230 C 
BRANCH  13  14
ATOM     14  C   UNL     1      -3.377  -3.311   4.336  1.00  0.00     0.046 C 
BRANCH  14  15
ATOM     15  C   UNL     1      -3.939  -2.456   3.199  1.00  0.00     0.043 C 
BRANCH  15  16
ATOM     16  C   UNL     1      -2.859  -2.202   2.179  1.00  0.00    -0.004 A 
ATOM     17  C   UNL     1      -2.776  -2.763   0.951  1.00  0.00     0.036 A 
ATOM     18  C   UNL     1      -1.769  -1.340   2.333  1.00  0.00     0.063 A 
ATOM     19  N   UNL     1      -1.669  -2.278   0.351  1.00  0.00    -0.282 N 
ATOM     20  N   UNL     1      -1.051  -1.390   1.240  1.00  0.00    -0.181 NA
ATOM     21  C   UNL     1      -3.747  -3.751   0.359  1.00  0.00     0.066 C 
ATOM     22  C   UNL     1      -1.466  -0.506   3.552  1.00  0.00     0.069 C 
ATOM     23  H   UNL     1      -1.356  -2.505  -0.539  1.00  0.00     0.190 HD
ENDBRANCH  15  16
ENDBRANCH  14  15
ENDBRANCH  13  14
ENDBRANCH   1  13
TORSDOF 7
ENDMDL
MODEL 8
REMARK VINA RESULT:    -4.431      4.235      7.633
REMARK INTER + INTRA:          -6.778
REMARK INTER:                  -6.177
REMARK INTRA:                  -0.600
REMARK UNBOUND:                -0.663
REMARK SMILES Cc1n[nH]c(C)c1CCCOc1cc(C(=O)O)ccc1F
REMARK SMILES IDX 11 1 12 2 14 3 18 4 13 5 19 6 20 7 21 8 15 9 16 10 17 11
REMARK SMILES IDX 10 13 9 14 8 15 7 16 5 17 2 18 4 19 3 20 6 21 1 22
REMARK H PARENT 17 12 4 23
ROOT
ATOM      1  O   UNL     1      -5.841  -3.678   4.606  1.00  0.00    -0.490 OA
ENDROOT
BRANCH   1   2
ATOM      2  C   UNL     1      -6.652  -3.613   5.696  1.00  0.00     0.155 A 
ATOM      3  C   UNL     1      -7.725  -2.334   7.426  1.00  0.00     0.063 A 
ATOM      4  C   UNL     1      -8.321  -3.500   7.914  1.00  0.00     0.019 A 
ATOM      5  C   UNL     1      -6.887  -2.398   6.311  1.00  0.00     0.065 A 
ATOM      6  C   UNL     1      -8.085  -4.707   7.290  1.00  0.00     0.044 A 
ATOM      7  C   UNL     1      -7.258  -4.767   6.181  1.00  0.00     0.165 A 
ATOM      8  F   UNL     1      -7.031  -5.953   5.574  1.00  0.00    -0.203 F 
BRANCH   3   9
ATOM      9  C   UNL     1      -7.975  -1.040   8.092  1.00  0.00     0.335 C 
ATOM     10  O   UNL     1      -7.583  -0.010   7.583  1.00  0.00    -0.246 OA
BRANCH   9  11
ATOM     11  O   UNL     1      -8.645  -1.003   9.260  1.00  0.00    -0.478 OA
ATOM     12  H   UNL     1      -9.388  -0.387   9.321  1.00  0.00     0.297 HD
ENDBRANCH   9  11
ENDBRANCH   3   9
ENDBRANCH   1   2
BRANCH   1  13
ATOM     13  C   UNL     1      -6.186  -2.854   3.490  1.00  0.00     0.230 C 
BRANCH  13  14
ATOM     14  C   UNL     1      -5.017  -1.924   3.163  1.00  0.00     0.046 C 
BRANCH  14  15
ATOM     15  C   UNL     1      -3.698  -2.673   3.364  1.00  0.00     0.043 C 
BRANCH  15  16
ATOM     16  C   UNL     1      -2.714  -2.253   2.302  1.00  0.00    -0.004 A 
ATOM     17  C   UNL     1      -2.665  -2.719   1.033  1.00  0.00     0.036 A 
ATOM     18  C   UNL     1      -1.694  -1.308   2.453  1.00  0.00     0.063 A 
ATOM     19  N   UNL     1      -1.646  -2.096   0.405  1.00  0.00    -0.282 N 
ATOM     20  N   UNL     1      -1.049  -1.218   1.319  1.00  0.00    -0.181 NA
ATOM     21  C   UNL     1      -3.584  -3.749   0.429  1.00  0.00     0.066 C 
ATOM     22  C   UNL     1      -1.384  -0.535   3.710  1.00  0.00     0.069 C 
ATOM     23  H   UNL     1      -1.374  -2.232  -0.516  1.00  0.00     0.190 HD
ENDBRANCH  15  16
ENDBRANCH  14  15
ENDBRANCH  13  14
ENDBRANCH   1  13
TORSDOF 7
ENDMDL
MODEL 9
REMARK VINA RESULT:    -4.409      4.224      7.796
REMARK INTER + INTRA:          -6.747
REMARK INTER:                  -6.166
REMARK INTRA:                  -0.581
REMARK UNBOUND:                -0.663
REMARK SMILES Cc1n[nH]c(C)c1CCCOc1cc(C(=O)O)ccc1F
REMARK SMILES IDX 11 1 12 2 14 3 18 4 13 5 19 6 20 7 21 8 15 9 16 10 17 11
REMARK SMILES IDX 10 13 9 14 8 15 7 16 5 17 2 18 4 19 3 20 6 21 1 22
REMARK H PARENT 17 12 4 23
ROOT
ATOM      1  O   UNL     1      -5.821  -3.583   4.630  1.00  0.00    -0.490 OA
ENDROOT
BRANCH   1   2
ATOM      2  C   UNL     1      -6.640  -3.565   5.715  1.00  0.00     0.155 A 
ATOM      3  C   UNL     1      -7.730  -2.362   7.489  1.00  0.00     0.063 A 
ATOM      4  C   UNL     1      -8.326  -3.549   7.923  1.00  0.00     0.019 A 
ATOM      5  C   UNL     1      -6.884  -2.377   6.378  1.00  0.00     0.065 A 
ATOM      6  C   UNL     1      -8.082  -4.728   7.251  1.00  0.00     0.044 A 
ATOM      7  C   UNL     1      -7.246  -4.740   6.147  1.00  0.00     0.165 A 
ATOM      8  F   UNL     1      -7.011  -5.899   5.493  1.00  0.00    -0.203 F 
BRANCH   3   9
ATOM      9  C   UNL     1      -7.989  -1.098   8.205  1.00  0.00     0.335 C 
ATOM     10  O   UNL     1      -8.409  -1.120   9.344  1.00  0.00    -0.246 OA
BRANCH   9  11
ATOM     11  O   UNL     1      -7.754   0.081   7.596  1.00  0.00    -0.478 OA
ATOM     12  H   UNL     1      -8.056   0.879   8.052  1.00  0.00     0.297 HD
ENDBRANCH   9  11
ENDBRANCH   3   9
ENDBRANCH   1   2
BRANCH   1  13
ATOM     13  C   UNL     1      -6.242  -2.835   3.487  1.00  0.00     0.230 C 
BRANCH  13  14
ATOM     14  C   UNL     1      -5.105  -1.919   3.030  1.00  0.00     0.046 C 
BRANCH  14  15
ATOM     15  C   UNL     1      -3.761  -2.561   3.381  1.00  0.00     0.043 C 
BRANCH  15  16
ATOM     16  C   UNL     1      -2.741  -2.196   2.335  1.00  0.00    -0.004 A 
ATOM     17  C   UNL     1      -1.725  -1.315   2.486  1.00  0.00     0.036 A 
ATOM     18  C   UNL     1      -2.671  -2.713   1.037  1.00  0.00     0.063 A 
ATOM     19  N   UNL     1      -1.041  -1.271   1.323  1.00  0.00    -0.282 N 
ATOM     20  N   UNL     1      -1.658  -2.155   0.427  1.00  0.00    -0.181 NA
ATOM     21  C   UNL     1      -1.413  -0.525   3.730  1.00  0.00     0.066 C 
ATOM     22  C   UNL     1      -3.611  -3.730   0.439  1.00  0.00     0.069 C 
ATOM     23  H   UNL     1      -0.262  -0.724   1.140  1.00  0.00     0.190 HD
ENDBRANCH  15  16
ENDBRANCH  14  15
ENDBRANCH  13  14
ENDBRANCH   1  13
TORSDOF 7
ENDMDL
