MODEL 1
REMARK VINA RESULT:    -4.034      0.000      0.000
REMARK INTER + INTRA:          -4.911
REMARK INTER:                  -4.624
REMARK INTRA:                  -0.287
REMARK UNBOUND:                -0.287
REMARK SMILES O=C(O)c1ccc2nc(-c3cc(Cl)cc(Cl)c3)oc2c1
REMARK SMILES IDX 5 1 6 2 20 3 8 4 18 5 4 6 9 7 7 8 19 9 2 10 1 11 3 12 10 14
REMARK SMILES IDX 11 15 17 16 12 17 15 18 14 19 13 20 16 21
REMARK H PARENT 3 13
ROOT
ATOM      1  C   UNL     1      -3.073  -3.234   0.447  1.00  0.00     0.018 A 
ATOM      2  C   UNL     1      -4.165  -3.792   1.040  1.00  0.00     0.033 A 
ATOM      3  C   UNL     1      -2.651  -1.898   2.427  1.00  0.00     0.065 A 
ATOM      4  N   UNL     1      -5.529  -3.782   3.167  1.00  0.00    -0.209 NA
ATOM      5  O   UNL     1      -4.347  -2.302   4.238  1.00  0.00    -0.436 OA
ATOM      6  C   UNL     1      -2.302  -2.283   1.131  1.00  0.00     0.063 A 
ATOM      7  C   UNL     1      -5.416  -3.119   4.291  1.00  0.00     0.227 A 
ATOM      8  C   UNL     1      -4.527  -3.415   2.339  1.00  0.00     0.110 A 
ATOM      9  C   UNL     1      -3.762  -2.458   3.030  1.00  0.00     0.156 A 
ENDROOT
BRANCH   6  10
ATOM     10  C   UNL     1      -1.119  -1.690   0.482  1.00  0.00     0.335 C 
ATOM     11  O   UNL     1      -1.045  -0.487   0.337  1.00  0.00    -0.246 OA
BRANCH  10  12
ATOM     12  O   UNL     1      -0.120  -2.484   0.047  1.00  0.00    -0.478 OA
ATOM     13  H   UNL     1      -0.009  -2.566  -0.909  1.00  0.00     0.297 HD
ENDBRANCH  10  12
ENDBRANCH   6  10
BRANCH   7  14
ATOM     14  C   UNL     1      -6.328  -3.249   5.446  1.00  0.00     0.040 A 
ATOM     15  C   UNL     1      -6.604  -2.142   6.249  1.00  0.00     0.034 A 
ATOM     16  C   UNL     1      -6.917  -4.481   5.738  1.00  0.00     0.034 A 
ATOM     17  C   UNL     1      -7.459  -2.269   7.327  1.00  0.00     0.043 A 
ATOM     18  C   UNL     1      -7.770  -4.596   6.818  1.00  0.00     0.043 A 
ATOM     19  C   UNL     1      -8.040  -3.494   7.611  1.00  0.00     0.041 A 
ATOM     20  Cl  UNL     1      -7.804  -0.894   8.327  1.00  0.00    -0.084 Cl
ATOM     21  Cl  UNL     1      -8.504  -6.127   7.183  1.00  0.00    -0.084 Cl
ENDBRANCH   7  14
TORSDOF 3
ENDMDL
MODEL 2
REMARK VINA RESULT:    -4.030      0.009      2.019
REMARK INTER + INTRA:          -4.906
REMARK INTER:                  -4.619
REMARK INTRA:                  -0.287
REMARK UNBOUND:                -0.287
REMARK SMILES O=C(O)c1ccc2nc(-c3cc(Cl)cc(Cl)c3)oc2c1
REMARK SMILES IDX 5 1 6 2 20 3 8 4 18 5 4 6 9 7 7 8 19 9 2 10 1 11 3 12 10 14
REMARK SMILES IDX 11 15 17 16 12 17 15 18 14 19 13 20 16 21
REMARK H PARENT 3 13
ROOT
ATOM      1  C   UNL     1      -3.073  -3.238   0.451  1.00  0.00     0.018 A 
ATOM      2  C   UNL     1      -4.166  -3.795   1.045  1.00  0.00     0.033 A 
ATOM      3  C   UNL     1      -2.649  -1.902   2.431  1.00  0.00     0.065 A 
ATOM      4  N   UNL     1      -5.528  -3.783   3.173  1.00  0.00    -0.209 NA
ATOM      5  O   UNL     1      -4.344  -2.304   4.243  1.00  0.00    -0.436 OA
ATOM      6  C   UNL     1      -2.301  -2.288   1.135  1.00  0.00     0.063 A 
ATOM      7  C   UNL     1      -5.414  -3.120   4.297  1.00  0.00     0.227 A 
ATOM      8  C   UNL     1      -4.526  -3.417   2.344  1.00  0.00     0.110 A 
ATOM      9  C   UNL     1      -3.760  -2.462   3.035  1.00  0.00     0.156 A 
ENDROOT
BRANCH   6  10
ATOM     10  C   UNL     1      -1.118  -1.696   0.485  1.00  0.00     0.335 C 
ATOM     11  O   UNL     1      -1.043  -0.493   0.339  1.00  0.00    -0.246 OA
BRANCH  10  12
ATOM     12  O   UNL     1      -0.119  -2.491   0.050  1.00  0.00    -0.478 OA
ATOM     13  H   UNL     1      -0.207  -3.438   0.219  1.00  0.00     0.297 HD
ENDBRANCH  10  12
ENDBRANCH   6  10
BRANCH   7  14
ATOM     14  C   UNL     1      -6.326  -3.249   5.452  1.00  0.00     0.040 A 
ATOM     15  C   UNL     1      -6.921  -4.478   5.742  1.00  0.00     0.034 A 
ATOM     16  C   UNL     1      -6.597  -2.141   6.257  1.00  0.00     0.034 A 
ATOM     17  C   UNL     1      -7.771  -4.592   6.824  1.00  0.00     0.043 A 
ATOM     18  C   UNL     1      -7.449  -2.268   7.336  1.00  0.00     0.043 A 
ATOM     19  C   UNL     1      -8.035  -3.489   7.619  1.00  0.00     0.041 A 
ATOM     20  Cl  UNL     1      -8.511  -6.119   7.188  1.00  0.00    -0.084 Cl
ATOM     21  Cl  UNL     1      -7.787  -0.891   8.339  1.00  0.00    -0.084 Cl
ENDBRANCH   7  14
TORSDOF 3
ENDMDL
MODEL 3
REMARK VINA RESULT:    -3.992      1.203      1.940
REMARK INTER + INTRA:          -4.862
REMARK INTER:                  -4.576
REMARK INTRA:                  -0.286
REMARK UNBOUND:                -0.287
REMARK SMILES O=C(O)c1ccc2nc(-c3cc(Cl)cc(Cl)c3)oc2c1
REMARK SMILES IDX 5 1 6 2 20 3 8 4 18 5 4 6 9 7 7 8 19 9 2 10 1 11 3 12 10 14
REMARK SMILES IDX 11 15 17 16 12 17 15 18 14 19 13 20 16 21
REMARK H PARENT 3 13
ROOT
ATOM      1  C   UNL     1      -1.304  -0.856   2.992  1.00  0.00     0.018 A 
ATOM      2  C   UNL     1      -1.985  -0.846   4.172  1.00  0.00     0.033 A 
ATOM      3  C   UNL     1      -2.896  -2.429   2.059  1.00  0.00     0.065 A 
ATOM      4  N   UNL     1      -4.000  -1.821   5.343  1.00  0.00    -0.209 NA
ATOM      5  O   UNL     1      -4.700  -3.055   3.694  1.00  0.00    -0.436 OA
ATOM      6  C   UNL     1      -1.750  -1.644   1.921  1.00  0.00     0.063 A 
ATOM      7  C   UNL     1      -4.924  -2.667   4.964  1.00  0.00     0.227 A 
ATOM      8  C   UNL     1      -3.136  -1.628   4.323  1.00  0.00     0.110 A 
ATOM      9  C   UNL     1      -3.588  -2.425   3.256  1.00  0.00     0.156 A 
ENDROOT
BRANCH   6  10
ATOM     10  C   UNL     1      -1.008  -1.643   0.648  1.00  0.00     0.335 C 
ATOM     11  O   UNL     1      -0.529  -2.675   0.223  1.00  0.00    -0.246 OA
BRANCH  10  12
ATOM     12  O   UNL     1      -0.860  -0.496  -0.045  1.00  0.00    -0.478 OA
ATOM     13  H   UNL     1      -0.190  -0.488  -0.742  1.00  0.00     0.297 HD
ENDBRANCH  10  12
ENDBRANCH   6  10
BRANCH   7  14
ATOM     14  C   UNL     1      -6.047  -3.129   5.806  1.00  0.00     0.040 A 
ATOM     15  C   UNL     1      -6.660  -2.251   6.701  1.00  0.00     0.034 A 
ATOM     16  C   UNL     1      -6.499  -4.447   5.710  1.00  0.00     0.034 A 
ATOM     17  C   UNL     1      -7.709  -2.688   7.485  1.00  0.00     0.043 A 
ATOM     18  C   UNL     1      -7.549  -4.872   6.499  1.00  0.00     0.043 A 
ATOM     19  C   UNL     1      -8.152  -3.996   7.385  1.00  0.00     0.041 A 
ATOM     20  Cl  UNL     1      -8.473  -1.597   8.598  1.00  0.00    -0.084 Cl
ATOM     21  Cl  UNL     1      -8.113  -6.511   6.381  1.00  0.00    -0.084 Cl
ENDBRANCH   7  14
TORSDOF 3
ENDMDL
MODEL 4
REMARK VINA RESULT:    -3.565      3.934      7.897
REMARK INTER + INTRA:          -4.372
REMARK INTER:                  -4.077
REMARK INTRA:                  -0.295
REMARK UNBOUND:                -0.287
REMARK SMILES O=C(O)c1ccc2nc(-c3cc(Cl)cc(Cl)c3)oc2c1
REMARK SMILES IDX 5 1 6 2 20 3 8 4 18 5 4 6 9 7 7 8 19 9 2 10 1 11 3 12 10 14
REMARK SMILES IDX 11 15 17 16 12 17 15 18 14 19 13 20 16 21
REMARK H PARENT 3 13
ROOT
ATOM      1  C   UNL     1      -8.472  -3.746   7.849  1.00  0.00     0.018 A 
ATOM      2  C   UNL     1      -7.625  -2.793   7.368  1.00  0.00     0.033 A 
ATOM      3  C   UNL     1      -7.588  -5.362   6.272  1.00  0.00     0.065 A 
ATOM      4  N   UNL     1      -5.809  -2.390   5.658  1.00  0.00    -0.209 NA
ATOM      5  O   UNL     1      -5.790  -4.392   4.807  1.00  0.00    -0.436 OA
ATOM      6  C   UNL     1      -8.464  -5.040   7.310  1.00  0.00     0.063 A 
ATOM      7  C   UNL     1      -5.249  -3.160   4.759  1.00  0.00     0.227 A 
ATOM      8  C   UNL     1      -6.741  -3.102   6.326  1.00  0.00     0.110 A 
ATOM      9  C   UNL     1      -6.730  -4.397   5.778  1.00  0.00     0.156 A 
ENDROOT
BRANCH   6  10
ATOM     10  C   UNL     1      -9.381  -6.064   7.843  1.00  0.00     0.335 C 
ATOM     11  O   UNL     1      -9.298  -7.213   7.457  1.00  0.00    -0.246 OA
BRANCH  10  12
ATOM     12  O   UNL     1     -10.312  -5.726   8.757  1.00  0.00    -0.478 OA
ATOM     13  H   UNL     1     -10.397  -4.787   8.970  1.00  0.00     0.297 HD
ENDBRANCH  10  12
ENDBRANCH   6  10
BRANCH   7  14
ATOM     14  C   UNL     1      -4.180  -2.738   3.829  1.00  0.00     0.040 A 
ATOM     15  C   UNL     1      -4.080  -3.322   2.566  1.00  0.00     0.034 A 
ATOM     16  C   UNL     1      -3.267  -1.754   4.213  1.00  0.00     0.034 A 
ATOM     17  C   UNL     1      -3.080  -2.922   1.701  1.00  0.00     0.043 A 
ATOM     18  C   UNL     1      -2.271  -1.363   3.340  1.00  0.00     0.043 A 
ATOM     19  C   UNL     1      -2.177  -1.946   2.088  1.00  0.00     0.041 A 
ATOM     20  Cl  UNL     1      -2.953  -3.646   0.129  1.00  0.00    -0.084 Cl
ATOM     21  Cl  UNL     1      -1.134  -0.140   3.814  1.00  0.00    -0.084 Cl
ENDBRANCH   7  14
TORSDOF 3
ENDMDL
MODEL 5
REMARK VINA RESULT:    -3.562      3.935      7.683
REMARK INTER + INTRA:          -4.369
REMARK INTER:                  -4.074
REMARK INTRA:                  -0.295
REMARK UNBOUND:                -0.287
REMARK SMILES O=C(O)c1ccc2nc(-c3cc(Cl)cc(Cl)c3)oc2c1
REMARK SMILES IDX 5 1 6 2 20 3 8 4 18 5 4 6 9 7 7 8 19 9 2 10 1 11 3 12 10 14
REMARK SMILES IDX 11 15 17 16 12 17 15 18 14 19 13 20 16 21
REMARK H PARENT 3 13
ROOT
ATOM      1  C   UNL     1      -8.475  -3.756   7.846  1.00  0.00     0.018 A 
ATOM      2  C   UNL     1      -7.629  -2.802   7.366  1.00  0.00     0.033 A 
ATOM      3  C   UNL     1      -7.586  -5.371   6.270  1.00  0.00     0.065 A 
ATOM      4  N   UNL     1      -5.813  -2.395   5.657  1.00  0.00    -0.209 NA
ATOM      5  O   UNL     1      -5.789  -4.397   4.806  1.00  0.00    -0.436 OA
ATOM      6  C   UNL     1      -8.463  -5.051   7.308  1.00  0.00     0.063 A 
ATOM      7  C   UNL     1      -5.250  -3.164   4.759  1.00  0.00     0.227 A 
ATOM      8  C   UNL     1      -6.744  -3.109   6.325  1.00  0.00     0.110 A 
ATOM      9  C   UNL     1      -6.730  -4.404   5.777  1.00  0.00     0.156 A 
ENDROOT
BRANCH   6  10
ATOM     10  C   UNL     1      -9.378  -6.077   7.840  1.00  0.00     0.335 C 
ATOM     11  O   UNL     1      -9.290  -7.226   7.457  1.00  0.00    -0.246 OA
BRANCH  10  12
ATOM     12  O   UNL     1     -10.313  -5.740   8.750  1.00  0.00    -0.478 OA
ATOM     13  H   UNL     1     -11.204  -5.561   8.420  1.00  0.00     0.297 HD
ENDBRANCH  10  12
ENDBRANCH   6  10
BRANCH   7  14
ATOM     14  C   UNL     1      -4.182  -2.740   3.830  1.00  0.00     0.040 A 
ATOM     15  C   UNL     1      -3.269  -1.756   4.213  1.00  0.00     0.034 A 
ATOM     16  C   UNL     1      -4.082  -3.322   2.565  1.00  0.00     0.034 A 
ATOM     17  C   UNL     1      -2.273  -1.365   3.341  1.00  0.00     0.043 A 
ATOM     18  C   UNL     1      -3.081  -2.922   1.702  1.00  0.00     0.043 A 
ATOM     19  C   UNL     1      -2.179  -1.946   2.088  1.00  0.00     0.041 A 
ATOM     20  Cl  UNL     1      -1.136  -0.142   3.816  1.00  0.00    -0.084 Cl
ATOM     21  Cl  UNL     1      -2.956  -3.645   0.128  1.00  0.00    -0.084 Cl
ENDBRANCH   7  14
TORSDOF 3
ENDMDL
MODEL 6
REMARK VINA RESULT:    -3.498      3.810      7.822
REMARK INTER + INTRA:          -4.296
REMARK INTER:                  -4.000
REMARK INTRA:                  -0.296
REMARK UNBOUND:                -0.287
REMARK SMILES O=C(O)c1ccc2nc(-c3cc(Cl)cc(Cl)c3)oc2c1
REMARK SMILES IDX 5 1 6 2 20 3 8 4 18 5 4 6 9 7 7 8 19 9 2 10 1 11 3 12 10 14
REMARK SMILES IDX 11 15 17 16 12 17 15 18 14 19 13 20 16 21
REMARK H PARENT 3 13
ROOT
ATOM      1  C   UNL     1      -8.399  -3.940   7.831  1.00  0.00     0.018 A 
ATOM      2  C   UNL     1      -7.690  -4.437   6.779  1.00  0.00     0.033 A 
ATOM      3  C   UNL     1      -7.384  -1.760   7.517  1.00  0.00     0.065 A 
ATOM      4  N   UNL     1      -5.993  -3.807   5.016  1.00  0.00    -0.209 NA
ATOM      5  O   UNL     1      -5.757  -1.724   5.600  1.00  0.00    -0.436 OA
ATOM      6  C   UNL     1      -8.258  -2.598   8.212  1.00  0.00     0.063 A 
ATOM      7  C   UNL     1      -5.372  -2.687   4.741  1.00  0.00     0.227 A 
ATOM      8  C   UNL     1      -6.810  -3.607   6.073  1.00  0.00     0.110 A 
ATOM      9  C   UNL     1      -6.659  -2.262   6.452  1.00  0.00     0.156 A 
ENDROOT
BRANCH   6  10
ATOM     10  C   UNL     1      -9.035  -2.070   9.348  1.00  0.00     0.335 C 
ATOM     11  O   UNL     1      -8.964  -0.892   9.637  1.00  0.00    -0.246 OA
BRANCH  10  12
ATOM     12  O   UNL     1      -9.824  -2.894  10.066  1.00  0.00    -0.478 OA
ATOM     13  H   UNL     1     -10.521  -3.361   9.588  1.00  0.00     0.297 HD
ENDBRANCH  10  12
ENDBRANCH   6  10
BRANCH   7  14
ATOM     14  C   UNL     1      -4.394  -2.507   3.649  1.00  0.00     0.040 A 
ATOM     15  C   UNL     1      -4.501  -3.261   2.480  1.00  0.00     0.034 A 
ATOM     16  C   UNL     1      -3.357  -1.582   3.783  1.00  0.00     0.034 A 
ATOM     17  C   UNL     1      -3.584  -3.088   1.462  1.00  0.00     0.043 A 
ATOM     18  C   UNL     1      -2.446  -1.417   2.758  1.00  0.00     0.043 A 
ATOM     19  C   UNL     1      -2.558  -2.169   1.601  1.00  0.00     0.041 A 
ATOM     20  Cl  UNL     1      -3.717  -4.025   0.007  1.00  0.00    -0.084 Cl
ATOM     21  Cl  UNL     1      -1.155  -0.267   2.923  1.00  0.00    -0.084 Cl
ENDBRANCH   7  14
TORSDOF 3
ENDMDL
MODEL 7
REMARK VINA RESULT:    -3.496      3.810      7.598
REMARK INTER + INTRA:          -4.294
REMARK INTER:                  -3.998
REMARK INTRA:                  -0.296
REMARK UNBOUND:                -0.287
REMARK SMILES O=C(O)c1ccc2nc(-c3cc(Cl)cc(Cl)c3)oc2c1
REMARK SMILES IDX 5 1 6 2 20 3 8 4 18 5 4 6 9 7 7 8 19 9 2 10 1 11 3 12 10 14
REMARK SMILES IDX 11 15 17 16 12 17 15 18 14 19 13 20 16 21
REMARK H PARENT 3 13
ROOT
ATOM      1  C   UNL     1      -8.399  -3.941   7.832  1.00  0.00     0.018 A 
ATOM      2  C   UNL     1      -7.690  -4.438   6.779  1.00  0.00     0.033 A 
ATOM      3  C   UNL     1      -7.385  -1.761   7.518  1.00  0.00     0.065 A 
ATOM      4  N   UNL     1      -5.994  -3.807   5.017  1.00  0.00    -0.209 NA
ATOM      5  O   UNL     1      -5.758  -1.724   5.601  1.00  0.00    -0.436 OA
ATOM      6  C   UNL     1      -8.258  -2.599   8.213  1.00  0.00     0.063 A 
ATOM      7  C   UNL     1      -5.373  -2.686   4.741  1.00  0.00     0.227 A 
ATOM      8  C   UNL     1      -6.810  -3.608   6.073  1.00  0.00     0.110 A 
ATOM      9  C   UNL     1      -6.660  -2.262   6.452  1.00  0.00     0.156 A 
ENDROOT
BRANCH   6  10
ATOM     10  C   UNL     1      -9.035  -2.072   9.349  1.00  0.00     0.335 C 
ATOM     11  O   UNL     1      -8.965  -0.894   9.638  1.00  0.00    -0.246 OA
BRANCH  10  12
ATOM     12  O   UNL     1      -9.823  -2.896  10.068  1.00  0.00    -0.478 OA
ATOM     13  H   UNL     1     -10.204  -3.654   9.604  1.00  0.00     0.297 HD
ENDBRANCH  10  12
ENDBRANCH   6  10
BRANCH   7  14
ATOM     14  C   UNL     1      -4.395  -2.506   3.649  1.00  0.00     0.040 A 
ATOM     15  C   UNL     1      -3.359  -1.581   3.781  1.00  0.00     0.034 A 
ATOM     16  C   UNL     1      -4.504  -3.262   2.479  1.00  0.00     0.034 A 
ATOM     17  C   UNL     1      -2.448  -1.418   2.756  1.00  0.00     0.043 A 
ATOM     18  C   UNL     1      -3.587  -3.090   1.462  1.00  0.00     0.043 A 
ATOM     19  C   UNL     1      -2.562  -2.170   1.599  1.00  0.00     0.041 A 
ATOM     20  Cl  UNL     1      -1.158  -0.268   2.918  1.00  0.00    -0.084 Cl
ATOM     21  Cl  UNL     1      -3.721  -4.028   0.007  1.00  0.00    -0.084 Cl
ENDBRANCH   7  14
TORSDOF 3
ENDMDL
MODEL 8
REMARK VINA RESULT:    -3.137      5.474      9.159
REMARK INTER + INTRA:          -3.882
REMARK INTER:                  -3.598
REMARK INTRA:                  -0.284
REMARK UNBOUND:                -0.287
REMARK SMILES O=C(O)c1ccc2nc(-c3cc(Cl)cc(Cl)c3)oc2c1
REMARK SMILES IDX 5 1 6 2 20 3 8 4 18 5 4 6 9 7 7 8 19 9 2 10 1 11 3 12 10 14
REMARK SMILES IDX 11 15 17 16 12 17 15 18 14 19 13 20 16 21
REMARK H PARENT 3 13
ROOT
ATOM      1  C   UNL     1     -10.107  -9.428   9.208  1.00  0.00     0.018 A 
ATOM      2  C   UNL     1     -10.279  -8.110   8.908  1.00  0.00     0.033 A 
ATOM      3  C   UNL     1      -7.874  -9.376   8.264  1.00  0.00     0.065 A 
ATOM      4  N   UNL     1      -9.132  -6.115   7.866  1.00  0.00    -0.209 NA
ATOM      5  O   UNL     1      -7.263  -7.109   7.363  1.00  0.00    -0.436 OA
ATOM      6  C   UNL     1      -8.905 -10.077   8.892  1.00  0.00     0.063 A 
ATOM      7  C   UNL     1      -7.950  -5.952   7.326  1.00  0.00     0.227 A 
ATOM      8  C   UNL     1      -9.253  -7.395   8.278  1.00  0.00     0.110 A 
ATOM      9  C   UNL     1      -8.046  -8.039   7.954  1.00  0.00     0.156 A 
ENDROOT
BRANCH   6  10
ATOM     10  C   UNL     1      -8.728 -11.501   9.227  1.00  0.00     0.335 C 
ATOM     11  O   UNL     1      -8.306 -11.820  10.320  1.00  0.00    -0.246 OA
BRANCH  10  12
ATOM     12  O   UNL     1      -9.034 -12.450   8.319  1.00  0.00    -0.478 OA
ATOM     13  H   UNL     1      -9.323 -12.147   7.448  1.00  0.00     0.297 HD
ENDBRANCH  10  12
ENDBRANCH   6  10
BRANCH   7  14
ATOM     14  C   UNL     1      -7.446  -4.684   6.757  1.00  0.00     0.040 A 
ATOM     15  C   UNL     1      -6.576  -4.702   5.666  1.00  0.00     0.034 A 
ATOM     16  C   UNL     1      -7.837  -3.464   7.311  1.00  0.00     0.034 A 
ATOM     17  C   UNL     1      -6.110  -3.514   5.139  1.00  0.00     0.043 A 
ATOM     18  C   UNL     1      -7.364  -2.283   6.776  1.00  0.00     0.043 A 
ATOM     19  C   UNL     1      -6.502  -2.307   5.693  1.00  0.00     0.041 A 
ATOM     20  Cl  UNL     1      -5.029  -3.533   3.781  1.00  0.00    -0.084 Cl
ATOM     21  Cl  UNL     1      -7.850  -0.764   7.463  1.00  0.00    -0.084 Cl
ENDBRANCH   7  14
TORSDOF 3
ENDMDL
MODEL 9
REMARK VINA RESULT:    -3.131      5.479      9.040
REMARK INTER + INTRA:          -3.875
REMARK INTER:                  -3.591
REMARK INTRA:                  -0.284
REMARK UNBOUND:                -0.287
REMARK SMILES O=C(O)c1ccc2nc(-c3cc(Cl)cc(Cl)c3)oc2c1
REMARK SMILES IDX 5 1 6 2 20 3 8 4 18 5 4 6 9 7 7 8 19 9 2 10 1 11 3 12 10 14
REMARK SMILES IDX 11 15 17 16 12 17 15 18 14 19 13 20 16 21
REMARK H PARENT 3 13
ROOT
ATOM      1  C   UNL     1     -10.127  -9.420   9.225  1.00  0.00     0.018 A 
ATOM      2  C   UNL     1     -10.291  -8.099   8.933  1.00  0.00     0.033 A 
ATOM      3  C   UNL     1      -7.904  -9.382   8.257  1.00  0.00     0.065 A 
ATOM      4  N   UNL     1      -9.137  -6.109   7.887  1.00  0.00    -0.209 NA
ATOM      5  O   UNL     1      -7.283  -7.117   7.360  1.00  0.00    -0.436 OA
ATOM      6  C   UNL     1      -8.934 -10.077   8.893  1.00  0.00     0.063 A 
ATOM      7  C   UNL     1      -7.960  -5.954   7.335  1.00  0.00     0.227 A 
ATOM      8  C   UNL     1      -9.265  -7.390   8.295  1.00  0.00     0.110 A 
ATOM      9  C   UNL     1      -8.068  -8.043   7.955  1.00  0.00     0.156 A 
ENDROOT
BRANCH   6  10
ATOM     10  C   UNL     1      -8.766 -11.505   9.219  1.00  0.00     0.335 C 
ATOM     11  O   UNL     1      -8.492 -11.840  10.354  1.00  0.00    -0.246 OA
BRANCH  10  12
ATOM     12  O   UNL     1      -8.915 -12.438   8.258  1.00  0.00    -0.478 OA
ATOM     13  H   UNL     1      -8.426 -12.303   7.435  1.00  0.00     0.297 HD
ENDBRANCH  10  12
ENDBRANCH   6  10
BRANCH   7  14
ATOM     14  C   UNL     1      -7.451  -4.688   6.767  1.00  0.00     0.040 A 
ATOM     15  C   UNL     1      -7.841  -3.466   7.316  1.00  0.00     0.034 A 
ATOM     16  C   UNL     1      -6.578  -4.711   5.677  1.00  0.00     0.034 A 
ATOM     17  C   UNL     1      -7.361  -2.287   6.781  1.00  0.00     0.043 A 
ATOM     18  C   UNL     1      -6.104  -3.525   5.151  1.00  0.00     0.043 A 
ATOM     19  C   UNL     1      -6.495  -2.316   5.701  1.00  0.00     0.041 A 
ATOM     20  Cl  UNL     1      -7.844  -0.766   7.463  1.00  0.00    -0.084 Cl
ATOM     21  Cl  UNL     1      -5.018  -3.551   3.797  1.00  0.00    -0.084 Cl
ENDBRANCH   7  14
TORSDOF 3
ENDMDL
