MODEL 1
REMARK VINA RESULT:    -5.660      0.000      0.000
REMARK INTER + INTRA:          -8.430
REMARK INTER:                  -7.811
REMARK INTRA:                  -0.619
REMARK UNBOUND:                -0.619
REMARK SMILES Cc1n[nH]c(C)c1CCCOc1cc(C(=O)O)ccc1F
REMARK SMILES IDX 11 1 12 2 14 3 18 4 13 5 19 6 20 7 21 8 15 9 16 10 17 11
REMARK SMILES IDX 10 13 9 14 8 15 7 16 5 17 2 18 4 19 3 20 6 21 1 22
REMARK H PARENT 17 12 4 23
ROOT
ATOM      1  O   UNL     1      -1.153   4.289  -8.359  1.00  0.00    -0.490 OA
ENDROOT
BRANCH   1   2
ATOM      2  C   UNL     1      -0.659   4.186  -7.096  1.00  0.00     0.155 A 
ATOM      3  C   UNL     1       1.208   4.126  -5.583  1.00  0.00     0.063 A 
ATOM      4  C   UNL     1       0.327   3.983  -4.507  1.00  0.00     0.019 A 
ATOM      5  C   UNL     1       0.705   4.227  -6.882  1.00  0.00     0.065 A 
ATOM      6  C   UNL     1      -1.033   3.948  -4.731  1.00  0.00     0.044 A 
ATOM      7  C   UNL     1      -1.529   4.054  -6.019  1.00  0.00     0.165 A 
ATOM      8  F   UNL     1      -2.863   4.019  -6.231  1.00  0.00    -0.203 F 
BRANCH   3   9
ATOM      9  C   UNL     1       2.665   4.164  -5.347  1.00  0.00     0.335 C 
ATOM     10  O   UNL     1       3.432   3.863  -6.239  1.00  0.00    -0.246 OA
BRANCH   9  11
ATOM     11  O   UNL     1       3.143   4.538  -4.144  1.00  0.00    -0.478 OA
ATOM     12  H   UNL     1       2.779   4.090  -3.368  1.00  0.00     0.297 HD
ENDBRANCH   9  11
ENDBRANCH   3   9
ENDBRANCH   1   2
BRANCH   1  13
ATOM     13  C   UNL     1      -1.766   5.531  -8.716  1.00  0.00     0.230 C 
BRANCH  13  14
ATOM     14  C   UNL     1      -0.980   6.177  -9.858  1.00  0.00     0.046 C 
BRANCH  14  15
ATOM     15  C   UNL     1      -0.182   7.366  -9.319  1.00  0.00     0.043 C 
BRANCH  15  16
ATOM     16  C   UNL     1      -0.017   8.396 -10.406  1.00  0.00    -0.004 A 
ATOM     17  C   UNL     1       0.939   8.397 -11.363  1.00  0.00     0.036 A 
ATOM     18  C   UNL     1      -0.829   9.517 -10.607  1.00  0.00     0.063 A 
ATOM     19  N   UNL     1       0.743   9.484 -12.139  1.00  0.00    -0.282 N 
ATOM     20  N   UNL     1      -0.371  10.173 -11.642  1.00  0.00    -0.181 NA
ATOM     21  C   UNL     1       2.027   7.370 -11.533  1.00  0.00     0.066 C 
ATOM     22  C   UNL     1      -2.020   9.908  -9.770  1.00  0.00     0.069 C 
ATOM     23  H   UNL     1       1.278   9.742 -12.905  1.00  0.00     0.190 HD
ENDBRANCH  15  16
ENDBRANCH  14  15
ENDBRANCH  13  14
ENDBRANCH   1  13
TORSDOF 7
ENDMDL
MODEL 2
REMARK VINA RESULT:    -5.644      2.111      3.745
REMARK INTER + INTRA:          -8.408
REMARK INTER:                  -7.753
REMARK INTRA:                  -0.655
REMARK UNBOUND:                -0.619
REMARK SMILES Cc1n[nH]c(C)c1CCCOc1cc(C(=O)O)ccc1F
REMARK SMILES IDX 11 1 12 2 14 3 18 4 13 5 19 6 20 7 21 8 15 9 16 10 17 11
REMARK SMILES IDX 10 13 9 14 8 15 7 16 5 17 2 18 4 19 3 20 6 21 1 22
REMARK H PARENT 17 12 4 23
ROOT
ATOM      1  O   UNL     1       1.542   5.935  -7.227  1.00  0.00    -0.490 OA
ENDROOT
BRANCH   1   2
ATOM      2  C   UNL     1       0.864   5.150  -6.348  1.00  0.00     0.155 A 
ATOM      3  C   UNL     1      -1.211   4.312  -5.468  1.00  0.00     0.063 A 
ATOM      4  C   UNL     1      -0.502   3.533  -4.549  1.00  0.00     0.019 A 
ATOM      5  C   UNL     1      -0.518   5.123  -6.369  1.00  0.00     0.065 A 
ATOM      6  C   UNL     1       0.876   3.563  -4.539  1.00  0.00     0.044 A 
ATOM      7  C   UNL     1       1.561   4.364  -5.438  1.00  0.00     0.165 A 
ATOM      8  F   UNL     1       2.912   4.388  -5.423  1.00  0.00    -0.203 F 
BRANCH   3   9
ATOM      9  C   UNL     1      -2.687   4.282  -5.481  1.00  0.00     0.335 C 
ATOM     10  O   UNL     1      -3.316   5.315  -5.383  1.00  0.00    -0.246 OA
BRANCH   9  11
ATOM     11  O   UNL     1      -3.335   3.108  -5.610  1.00  0.00    -0.478 OA
ATOM     12  H   UNL     1      -3.059   2.387  -5.026  1.00  0.00     0.297 HD
ENDBRANCH   9  11
ENDBRANCH   3   9
ENDBRANCH   1   2
BRANCH   1  13
ATOM     13  C   UNL     1       1.586   7.336  -6.946  1.00  0.00     0.230 C 
BRANCH  13  14
ATOM     14  C   UNL     1       1.602   8.118  -8.261  1.00  0.00     0.046 C 
BRANCH  14  15
ATOM     15  C   UNL     1       0.633   7.471  -9.252  1.00  0.00     0.043 C 
BRANCH  15  16
ATOM     16  C   UNL     1       0.536   8.323 -10.491  1.00  0.00    -0.004 A 
ATOM     17  C   UNL     1      -0.381   9.291 -10.722  1.00  0.00     0.036 A 
ATOM     18  C   UNL     1       1.383   8.258 -11.603  1.00  0.00     0.063 A 
ATOM     19  N   UNL     1      -0.128   9.815 -11.940  1.00  0.00    -0.282 N 
ATOM     20  N   UNL     1       0.982   9.147 -12.475  1.00  0.00    -0.181 NA
ATOM     21  C   UNL     1      -1.486   9.708  -9.788  1.00  0.00     0.066 C 
ATOM     22  C   UNL     1       2.549   7.318 -11.772  1.00  0.00     0.069 C 
ATOM     23  H   UNL     1      -0.626  10.527 -12.369  1.00  0.00     0.190 HD
ENDBRANCH  15  16
ENDBRANCH  14  15
ENDBRANCH  13  14
ENDBRANCH   1  13
TORSDOF 7
ENDMDL
MODEL 3
REMARK VINA RESULT:    -5.593      2.249      3.401
REMARK INTER + INTRA:          -8.337
REMARK INTER:                  -7.691
REMARK INTRA:                  -0.646
REMARK UNBOUND:                -0.619
REMARK SMILES Cc1n[nH]c(C)c1CCCOc1cc(C(=O)O)ccc1F
REMARK SMILES IDX 11 1 12 2 14 3 18 4 13 5 19 6 20 7 21 8 15 9 16 10 17 11
REMARK SMILES IDX 10 13 9 14 8 15 7 16 5 17 2 18 4 19 3 20 6 21 1 22
REMARK H PARENT 17 12 4 23
ROOT
ATOM      1  O   UNL     1       1.242   7.115  -6.136  1.00  0.00    -0.490 OA
ENDROOT
BRANCH   1   2
ATOM      2  C   UNL     1       0.695   5.937  -5.734  1.00  0.00     0.155 A 
ATOM      3  C   UNL     1      -1.230   4.540  -5.385  1.00  0.00     0.063 A 
ATOM      4  C   UNL     1      -0.400   3.519  -4.916  1.00  0.00     0.019 A 
ATOM      5  C   UNL     1      -0.673   5.753  -5.794  1.00  0.00     0.065 A 
ATOM      6  C   UNL     1       0.965   3.709  -4.865  1.00  0.00     0.044 A 
ATOM      7  C   UNL     1       1.516   4.912  -5.276  1.00  0.00     0.165 A 
ATOM      8  F   UNL     1       2.854   5.092  -5.223  1.00  0.00    -0.203 F 
BRANCH   3   9
ATOM      9  C   UNL     1      -2.692   4.339  -5.442  1.00  0.00     0.335 C 
ATOM     10  O   UNL     1      -3.440   5.291  -5.355  1.00  0.00    -0.246 OA
BRANCH   9  11
ATOM     11  O   UNL     1      -3.195   3.099  -5.597  1.00  0.00    -0.478 OA
ATOM     12  H   UNL     1      -3.193   2.524  -4.819  1.00  0.00     0.297 HD
ENDBRANCH   9  11
ENDBRANCH   3   9
ENDBRANCH   1   2
BRANCH   1  13
ATOM     13  C   UNL     1       1.882   7.131  -7.414  1.00  0.00     0.230 C 
BRANCH  13  14
ATOM     14  C   UNL     1       1.242   8.208  -8.292  1.00  0.00     0.046 C 
BRANCH  14  15
ATOM     15  C   UNL     1       0.441   7.543  -9.413  1.00  0.00     0.043 C 
BRANCH  15  16
ATOM     16  C   UNL     1       0.531   8.382 -10.661  1.00  0.00    -0.004 A 
ATOM     17  C   UNL     1       1.461   8.261 -11.637  1.00  0.00     0.036 A 
ATOM     18  C   UNL     1      -0.337   9.419 -11.020  1.00  0.00     0.063 A 
ATOM     19  N   UNL     1       1.195   9.193 -12.576  1.00  0.00    -0.282 N 
ATOM     20  N   UNL     1       0.065   9.911 -12.164  1.00  0.00    -0.181 NA
ATOM     21  C   UNL     1       2.590   7.264 -11.669  1.00  0.00     0.066 C 
ATOM     22  C   UNL     1      -1.522   9.896 -10.220  1.00  0.00     0.069 C 
ATOM     23  H   UNL     1       1.699   9.341 -13.391  1.00  0.00     0.190 HD
ENDBRANCH  15  16
ENDBRANCH  14  15
ENDBRANCH  13  14
ENDBRANCH   1  13
TORSDOF 7
ENDMDL
MODEL 4
REMARK VINA RESULT:    -5.562      0.166      1.775
REMARK INTER + INTRA:          -8.294
REMARK INTER:                  -7.745
REMARK INTRA:                  -0.549
REMARK UNBOUND:                -0.619
REMARK SMILES Cc1n[nH]c(C)c1CCCOc1cc(C(=O)O)ccc1F
REMARK SMILES IDX 11 1 12 2 14 3 18 4 13 5 19 6 20 7 21 8 15 9 16 10 17 11
REMARK SMILES IDX 10 13 9 14 8 15 7 16 5 17 2 18 4 19 3 20 6 21 1 22
REMARK H PARENT 17 12 4 23
ROOT
ATOM      1  O   UNL     1      -1.091   4.264  -8.456  1.00  0.00    -0.490 OA
ENDROOT
BRANCH   1   2
ATOM      2  C   UNL     1      -0.629   4.182  -7.180  1.00  0.00     0.155 A 
ATOM      3  C   UNL     1       1.201   4.131  -5.622  1.00  0.00     0.063 A 
ATOM      4  C   UNL     1       0.294   4.022  -4.565  1.00  0.00     0.019 A 
ATOM      5  C   UNL     1       0.731   4.211  -6.934  1.00  0.00     0.065 A 
ATOM      6  C   UNL     1      -1.061   3.999  -4.820  1.00  0.00     0.044 A 
ATOM      7  C   UNL     1      -1.526   4.083  -6.122  1.00  0.00     0.165 A 
ATOM      8  F   UNL     1      -2.855   4.061  -6.365  1.00  0.00    -0.203 F 
BRANCH   3   9
ATOM      9  C   UNL     1       2.652   4.156  -5.352  1.00  0.00     0.335 C 
ATOM     10  O   UNL     1       3.438   3.860  -6.229  1.00  0.00    -0.246 OA
BRANCH   9  11
ATOM     11  O   UNL     1       3.105   4.513  -4.134  1.00  0.00    -0.478 OA
ATOM     12  H   UNL     1       3.916   4.086  -3.824  1.00  0.00     0.297 HD
ENDBRANCH   9  11
ENDBRANCH   3   9
ENDBRANCH   1   2
BRANCH   1  13
ATOM     13  C   UNL     1      -1.782   5.462  -8.820  1.00  0.00     0.230 C 
BRANCH  13  14
ATOM     14  C   UNL     1      -1.002   6.186  -9.919  1.00  0.00     0.046 C 
BRANCH  14  15
ATOM     15  C   UNL     1      -0.323   7.425  -9.330  1.00  0.00     0.043 C 
BRANCH  15  16
ATOM     16  C   UNL     1      -0.221   8.493 -10.388  1.00  0.00    -0.004 A 
ATOM     17  C   UNL     1      -1.043   9.559 -10.525  1.00  0.00     0.036 A 
ATOM     18  C   UNL     1       0.745   8.562 -11.398  1.00  0.00     0.063 A 
ATOM     19  N   UNL     1      -0.617  10.273 -11.588  1.00  0.00    -0.282 N 
ATOM     20  N   UNL     1       0.504   9.624 -12.122  1.00  0.00    -0.181 NA
ATOM     21  C   UNL     1      -2.222   9.889  -9.648  1.00  0.00     0.066 C 
ATOM     22  C   UNL     1       1.862   7.575 -11.622  1.00  0.00     0.069 C 
ATOM     23  H   UNL     1      -1.017  11.090 -11.924  1.00  0.00     0.190 HD
ENDBRANCH  15  16
ENDBRANCH  14  15
ENDBRANCH  13  14
ENDBRANCH   1  13
TORSDOF 7
ENDMDL
MODEL 5
REMARK VINA RESULT:    -4.663      3.818      6.555
REMARK INTER + INTRA:          -7.054
REMARK INTER:                  -6.176
REMARK INTRA:                  -0.879
REMARK UNBOUND:                -0.619
REMARK SMILES Cc1n[nH]c(C)c1CCCOc1cc(C(=O)O)ccc1F
REMARK SMILES IDX 11 1 12 2 14 3 18 4 13 5 19 6 20 7 21 8 15 9 16 10 17 11
REMARK SMILES IDX 10 13 9 14 8 15 7 16 5 17 2 18 4 19 3 20 6 21 1 22
REMARK H PARENT 17 12 4 23
ROOT
ATOM      1  O   UNL     1      -0.997   7.024  -8.124  1.00  0.00    -0.490 OA
ENDROOT
BRANCH   1   2
ATOM      2  C   UNL     1      -0.515   7.685  -9.210  1.00  0.00     0.155 A 
ATOM      3  C   UNL     1       1.052   7.854 -11.026  1.00  0.00     0.063 A 
ATOM      4  C   UNL     1       0.448   9.047 -11.432  1.00  0.00     0.019 A 
ATOM      5  C   UNL     1       0.563   7.174  -9.908  1.00  0.00     0.065 A 
ATOM      6  C   UNL     1      -0.631   9.546 -10.732  1.00  0.00     0.044 A 
ATOM      7  C   UNL     1      -1.117   8.867  -9.627  1.00  0.00     0.165 A 
ATOM      8  F   UNL     1      -2.175   9.361  -8.946  1.00  0.00    -0.203 F 
BRANCH   3   9
ATOM      9  C   UNL     1       2.206   7.317 -11.773  1.00  0.00     0.335 C 
ATOM     10  O   UNL     1       2.033   6.501 -12.655  1.00  0.00    -0.246 OA
BRANCH   9  11
ATOM     11  O   UNL     1       3.452   7.738 -11.479  1.00  0.00    -0.478 OA
ATOM     12  H   UNL     1       4.087   7.066 -11.192  1.00  0.00     0.297 HD
ENDBRANCH   9  11
ENDBRANCH   3   9
ENDBRANCH   1   2
BRANCH   1  13
ATOM     13  C   UNL     1      -0.998   5.595  -8.182  1.00  0.00     0.230 C 
BRANCH  13  14
ATOM     14  C   UNL     1      -1.330   5.030  -6.800  1.00  0.00     0.046 C 
BRANCH  14  15
ATOM     15  C   UNL     1      -0.646   5.876  -5.725  1.00  0.00     0.043 C 
BRANCH  15  16
ATOM     16  C   UNL     1       0.723   5.316  -5.439  1.00  0.00    -0.004 A 
ATOM     17  C   UNL     1       1.904   5.915  -5.720  1.00  0.00     0.036 A 
ATOM     18  C   UNL     1       0.999   4.087  -4.829  1.00  0.00     0.063 A 
ATOM     19  N   UNL     1       2.891   5.091  -5.309  1.00  0.00    -0.282 N 
ATOM     20  N   UNL     1       2.298   3.948  -4.757  1.00  0.00    -0.181 NA
ATOM     21  C   UNL     1       2.083   7.260  -6.374  1.00  0.00     0.066 C 
ATOM     22  C   UNL     1      -0.024   3.089  -4.349  1.00  0.00     0.069 C 
ATOM     23  H   UNL     1       3.843   5.260  -5.384  1.00  0.00     0.190 HD
ENDBRANCH  15  16
ENDBRANCH  14  15
ENDBRANCH  13  14
ENDBRANCH   1  13
TORSDOF 7
ENDMDL
MODEL 6
REMARK VINA RESULT:    -4.660      3.921      7.075
REMARK INTER + INTRA:          -7.050
REMARK INTER:                  -6.221
REMARK INTRA:                  -0.828
REMARK UNBOUND:                -0.619
REMARK SMILES Cc1n[nH]c(C)c1CCCOc1cc(C(=O)O)ccc1F
REMARK SMILES IDX 11 1 12 2 14 3 18 4 13 5 19 6 20 7 21 8 15 9 16 10 17 11
REMARK SMILES IDX 10 13 9 14 8 15 7 16 5 17 2 18 4 19 3 20 6 21 1 22
REMARK H PARENT 17 12 4 23
ROOT
ATOM      1  O   UNL     1       1.288   6.287  -8.641  1.00  0.00    -0.490 OA
ENDROOT
BRANCH   1   2
ATOM      2  C   UNL     1       0.900   7.233  -9.538  1.00  0.00     0.155 A 
ATOM      3  C   UNL     1      -0.547   9.049 -10.162  1.00  0.00     0.063 A 
ATOM      4  C   UNL     1       0.131   9.166 -11.378  1.00  0.00     0.019 A 
ATOM      5  C   UNL     1      -0.155   8.075  -9.241  1.00  0.00     0.065 A 
ATOM      6  C   UNL     1       1.186   8.325 -11.663  1.00  0.00     0.044 A 
ATOM      7  C   UNL     1       1.576   7.363 -10.746  1.00  0.00     0.165 A 
ATOM      8  F   UNL     1       2.611   6.542 -11.031  1.00  0.00    -0.203 F 
BRANCH   3   9
ATOM      9  C   UNL     1      -1.676   9.948  -9.854  1.00  0.00     0.335 C 
ATOM     10  O   UNL     1      -1.482  10.984  -9.252  1.00  0.00    -0.246 OA
BRANCH   9  11
ATOM     11  O   UNL     1      -2.923   9.621 -10.246  1.00  0.00    -0.478 OA
ATOM     12  H   UNL     1      -3.041   9.375 -11.175  1.00  0.00     0.297 HD
ENDBRANCH   9  11
ENDBRANCH   3   9
ENDBRANCH   1   2
BRANCH   1  13
ATOM     13  C   UNL     1       1.148   6.610  -7.256  1.00  0.00     0.230 C 
BRANCH  13  14
ATOM     14  C   UNL     1       1.482   5.380  -6.409  1.00  0.00     0.046 C 
BRANCH  14  15
ATOM     15  C   UNL     1       0.776   4.154  -6.991  1.00  0.00     0.043 C 
BRANCH  15  16
ATOM     16  C   UNL     1      -0.631   4.083  -6.458  1.00  0.00    -0.004 A 
ATOM     17  C   UNL     1      -0.987   3.784  -5.186  1.00  0.00     0.036 A 
ATOM     18  C   UNL     1      -1.801   4.321  -7.187  1.00  0.00     0.063 A 
ATOM     19  N   UNL     1      -2.334   3.824  -5.115  1.00  0.00    -0.282 N 
ATOM     20  N   UNL     1      -2.823   4.159  -6.385  1.00  0.00    -0.181 NA
ATOM     21  C   UNL     1      -0.047   3.463  -4.054  1.00  0.00     0.066 C 
ATOM     22  C   UNL     1      -1.873   4.687  -8.647  1.00  0.00     0.069 C 
ATOM     23  H   UNL     1      -2.869   3.651  -4.326  1.00  0.00     0.190 HD
ENDBRANCH  15  16
ENDBRANCH  14  15
ENDBRANCH  13  14
ENDBRANCH   1  13
TORSDOF 7
ENDMDL
MODEL 7
REMARK VINA RESULT:    -4.410      4.970      7.999
REMARK INTER + INTRA:          -6.705
REMARK INTER:                  -6.050
REMARK INTRA:                  -0.655
REMARK UNBOUND:                -0.619
REMARK SMILES Cc1n[nH]c(C)c1CCCOc1cc(C(=O)O)ccc1F
REMARK SMILES IDX 11 1 12 2 14 3 18 4 13 5 19 6 20 7 21 8 15 9 16 10 17 11
REMARK SMILES IDX 10 13 9 14 8 15 7 16 5 17 2 18 4 19 3 20 6 21 1 22
REMARK H PARENT 17 12 4 23
ROOT
ATOM      1  O   UNL     1       1.828   7.695 -10.956  1.00  0.00    -0.490 OA
ENDROOT
BRANCH   1   2
ATOM      2  C   UNL     1       2.220   7.909 -12.240  1.00  0.00     0.155 A 
ATOM      3  C   UNL     1       2.613   9.403 -14.082  1.00  0.00     0.063 A 
ATOM      4  C   UNL     1       3.034   8.324 -14.864  1.00  0.00     0.019 A 
ATOM      5  C   UNL     1       2.205   9.188 -12.764  1.00  0.00     0.065 A 
ATOM      6  C   UNL     1       3.051   7.053 -14.330  1.00  0.00     0.044 A 
ATOM      7  C   UNL     1       2.651   6.842 -13.021  1.00  0.00     0.165 A 
ATOM      8  F   UNL     1       2.670   5.593 -12.505  1.00  0.00    -0.203 F 
BRANCH   3   9
ATOM      9  C   UNL     1       2.594  10.766 -14.650  1.00  0.00     0.335 C 
ATOM     10  O   UNL     1       2.957  10.953 -15.793  1.00  0.00    -0.246 OA
BRANCH   9  11
ATOM     11  O   UNL     1       2.167  11.801 -13.901  1.00  0.00    -0.478 OA
ATOM     12  H   UNL     1       2.420  11.802 -12.967  1.00  0.00     0.297 HD
ENDBRANCH   9  11
ENDBRANCH   3   9
ENDBRANCH   1   2
BRANCH   1  13
ATOM     13  C   UNL     1       0.440   7.877 -10.663  1.00  0.00     0.230 C 
BRANCH  13  14
ATOM     14  C   UNL     1       0.201   7.651  -9.169  1.00  0.00     0.046 C 
BRANCH  14  15
ATOM     15  C   UNL     1       0.794   6.302  -8.756  1.00  0.00     0.043 C 
BRANCH  15  16
ATOM     16  C   UNL     1       0.219   5.886  -7.427  1.00  0.00    -0.004 A 
ATOM     17  C   UNL     1       0.683   6.252  -6.209  1.00  0.00     0.036 A 
ATOM     18  C   UNL     1      -0.893   5.059  -7.233  1.00  0.00     0.063 A 
ATOM     19  N   UNL     1      -0.103   5.671  -5.278  1.00  0.00    -0.282 N 
ATOM     20  N   UNL     1      -1.082   4.924  -5.946  1.00  0.00    -0.181 NA
ATOM     21  C   UNL     1       1.865   7.146  -5.941  1.00  0.00     0.066 C 
ATOM     22  C   UNL     1      -1.722   4.424  -8.320  1.00  0.00     0.069 C 
ATOM     23  H   UNL     1      -0.006   5.755  -4.317  1.00  0.00     0.190 HD
ENDBRANCH  15  16
ENDBRANCH  14  15
ENDBRANCH  13  14
ENDBRANCH   1  13
TORSDOF 7
ENDMDL
MODEL 8
REMARK VINA RESULT:    -4.403      4.133      7.090
REMARK INTER + INTRA:          -6.695
REMARK INTER:                  -6.245
REMARK INTRA:                  -0.450
REMARK UNBOUND:                -0.619
REMARK SMILES Cc1n[nH]c(C)c1CCCOc1cc(C(=O)O)ccc1F
REMARK SMILES IDX 11 1 12 2 14 3 18 4 13 5 19 6 20 7 21 8 15 9 16 10 17 11
REMARK SMILES IDX 10 13 9 14 8 15 7 16 5 17 2 18 4 19 3 20 6 21 1 22
REMARK H PARENT 17 12 4 23
ROOT
ATOM      1  O   UNL     1      -1.003   6.963  -8.653  1.00  0.00    -0.490 OA
ENDROOT
BRANCH   1   2
ATOM      2  C   UNL     1      -0.454   7.690  -9.662  1.00  0.00     0.155 A 
ATOM      3  C   UNL     1       1.229   7.971 -11.356  1.00  0.00     0.063 A 
ATOM      4  C   UNL     1       0.646   9.186 -11.728  1.00  0.00     0.019 A 
ATOM      5  C   UNL     1       0.671   7.225 -10.316  1.00  0.00     0.065 A 
ATOM      6  C   UNL     1      -0.480   9.639 -11.074  1.00  0.00     0.044 A 
ATOM      7  C   UNL     1      -1.034   8.894 -10.046  1.00  0.00     0.165 A 
ATOM      8  F   UNL     1      -2.138   9.344  -9.409  1.00  0.00    -0.203 F 
BRANCH   3   9
ATOM      9  C   UNL     1       2.434   7.483 -12.054  1.00  0.00     0.335 C 
ATOM     10  O   UNL     1       2.965   6.450 -11.701  1.00  0.00    -0.246 OA
BRANCH   9  11
ATOM     11  O   UNL     1       2.942   8.181 -13.089  1.00  0.00    -0.478 OA
ATOM     12  H   UNL     1       3.045   9.136 -12.967  1.00  0.00     0.297 HD
ENDBRANCH   9  11
ENDBRANCH   3   9
ENDBRANCH   1   2
BRANCH   1  13
ATOM     13  C   UNL     1      -1.305   5.593  -8.929  1.00  0.00     0.230 C 
BRANCH  13  14
ATOM     14  C   UNL     1      -0.443   4.693  -8.042  1.00  0.00     0.046 C 
BRANCH  14  15
ATOM     15  C   UNL     1      -0.064   5.447  -6.766  1.00  0.00     0.043 C 
BRANCH  15  16
ATOM     16  C   UNL     1      -0.046   4.490  -5.603  1.00  0.00    -0.004 A 
ATOM     17  C   UNL     1      -1.130   3.985  -4.969  1.00  0.00     0.036 A 
ATOM     18  C   UNL     1       1.095   3.960  -4.990  1.00  0.00     0.063 A 
ATOM     19  N   UNL     1      -0.691   3.170  -3.987  1.00  0.00    -0.282 N 
ATOM     20  N   UNL     1       0.710   3.175  -4.018  1.00  0.00    -0.181 NA
ATOM     21  C   UNL     1      -2.569   4.280  -5.302  1.00  0.00     0.066 C 
ATOM     22  C   UNL     1       2.523   4.253  -5.377  1.00  0.00     0.069 C 
ATOM     23  H   UNL     1      -1.246   2.671  -3.369  1.00  0.00     0.190 HD
ENDBRANCH  15  16
ENDBRANCH  14  15
ENDBRANCH  13  14
ENDBRANCH   1  13
TORSDOF 7
ENDMDL
MODEL 9
REMARK VINA RESULT:    -4.402      4.596      8.000
REMARK INTER + INTRA:          -6.694
REMARK INTER:                  -6.000
REMARK INTRA:                  -0.694
REMARK UNBOUND:                -0.619
REMARK SMILES Cc1n[nH]c(C)c1CCCOc1cc(C(=O)O)ccc1F
REMARK SMILES IDX 11 1 12 2 14 3 18 4 13 5 19 6 20 7 21 8 15 9 16 10 17 11
REMARK SMILES IDX 10 13 9 14 8 15 7 16 5 17 2 18 4 19 3 20 6 21 1 22
REMARK H PARENT 17 12 4 23
ROOT
ATOM      1  O   UNL     1      -1.157   8.720  -9.879  1.00  0.00    -0.490 OA
ENDROOT
BRANCH   1   2
ATOM      2  C   UNL     1      -1.519   9.944 -10.347  1.00  0.00     0.155 A 
ATOM      3  C   UNL     1      -1.675  11.528 -12.149  1.00  0.00     0.063 A 
ATOM      4  C   UNL     1      -2.275  12.447 -11.284  1.00  0.00     0.019 A 
ATOM      5  C   UNL     1      -1.297  10.271 -11.671  1.00  0.00     0.065 A 
ATOM      6  C   UNL     1      -2.497  12.109  -9.966  1.00  0.00     0.044 A 
ATOM      7  C   UNL     1      -2.126  10.861  -9.496  1.00  0.00     0.165 A 
ATOM      8  F   UNL     1      -2.347  10.536  -8.203  1.00  0.00    -0.203 F 
BRANCH   3   9
ATOM      9  C   UNL     1      -1.435  11.886 -13.561  1.00  0.00     0.335 C 
ATOM     10  O   UNL     1      -0.815  12.893 -13.835  1.00  0.00    -0.246 OA
BRANCH   9  11
ATOM     11  O   UNL     1      -1.900  11.092 -14.545  1.00  0.00    -0.478 OA
ATOM     12  H   UNL     1      -1.290  10.883 -15.266  1.00  0.00     0.297 HD
ENDBRANCH   9  11
ENDBRANCH   3   9
ENDBRANCH   1   2
BRANCH   1  13
ATOM     13  C   UNL     1       0.065   8.170 -10.378  1.00  0.00     0.230 C 
BRANCH  13  14
ATOM     14  C   UNL     1       0.594   7.127  -9.393  1.00  0.00     0.046 C 
BRANCH  14  15
ATOM     15  C   UNL     1      -0.335   7.055  -8.179  1.00  0.00     0.043 C 
BRANCH  15  16
ATOM     16  C   UNL     1       0.017   5.849  -7.347  1.00  0.00    -0.004 A 
ATOM     17  C   UNL     1      -0.562   4.628  -7.429  1.00  0.00     0.036 A 
ATOM     18  C   UNL     1       1.004   5.790  -6.358  1.00  0.00     0.063 A 
ATOM     19  N   UNL     1       0.033   3.828  -6.519  1.00  0.00    -0.282 N 
ATOM     20  N   UNL     1       1.010   4.582  -5.856  1.00  0.00    -0.181 NA
ATOM     21  C   UNL     1      -1.672   4.233  -8.368  1.00  0.00     0.066 C 
ATOM     22  C   UNL     1       1.899   6.928  -5.934  1.00  0.00     0.069 C 
ATOM     23  H   UNL     1      -0.179   2.897  -6.353  1.00  0.00     0.190 HD
ENDBRANCH  15  16
ENDBRANCH  14  15
ENDBRANCH  13  14
ENDBRANCH   1  13
TORSDOF 7
ENDMDL
