MODEL 1
REMARK VINA RESULT:    -5.619      0.000      0.000
REMARK INTER + INTRA:          -8.401
REMARK INTER:                  -7.754
REMARK INTRA:                  -0.647
REMARK UNBOUND:                -0.647
REMARK SMILES Cc1n[nH]c(C)c1CCCOc1cc(C(=O)O)ccc1F
REMARK SMILES IDX 11 1 12 2 14 3 18 4 13 5 19 6 20 7 21 8 15 9 16 10 17 11
REMARK SMILES IDX 10 13 9 14 8 15 7 16 5 17 2 18 4 19 3 20 6 21 1 22
REMARK H PARENT 17 12 4 23
ROOT
ATOM      1  O   UNL     1      -9.147   1.181   2.758  1.00  0.00    -0.490 OA
ENDROOT
BRANCH   1   2
ATOM      2  C   UNL     1      -7.854   1.588   2.644  1.00  0.00     0.155 A 
ATOM      3  C   UNL     1      -6.241   3.313   2.193  1.00  0.00     0.063 A 
ATOM      4  C   UNL     1      -5.207   2.401   2.426  1.00  0.00     0.019 A 
ATOM      5  C   UNL     1      -7.569   2.897   2.304  1.00  0.00     0.065 A 
ATOM      6  C   UNL     1      -5.501   1.099   2.770  1.00  0.00     0.044 A 
ATOM      7  C   UNL     1      -6.820   0.690   2.885  1.00  0.00     0.165 A 
ATOM      8  F   UNL     1      -7.102  -0.587   3.223  1.00  0.00    -0.203 F 
BRANCH   3   9
ATOM      9  C   UNL     1      -5.929   4.708   1.825  1.00  0.00     0.335 C 
ATOM     10  O   UNL     1      -6.754   5.380   1.241  1.00  0.00    -0.246 OA
BRANCH   9  11
ATOM     11  O   UNL     1      -4.731   5.236   2.143  1.00  0.00    -0.478 OA
ATOM     12  H   UNL     1      -4.206   4.767   2.807  1.00  0.00     0.297 HD
ENDBRANCH   9  11
ENDBRANCH   3   9
ENDBRANCH   1   2
BRANCH   1  13
ATOM     13  C   UNL     1      -9.661   1.020   4.083  1.00  0.00     0.230 C 
BRANCH  13  14
ATOM     14  C   UNL     1     -10.796   2.019   4.313  1.00  0.00     0.046 C 
BRANCH  14  15
ATOM     15  C   UNL     1     -10.307   3.146   5.225  1.00  0.00     0.043 C 
BRANCH  15  16
ATOM     16  C   UNL     1     -11.456   3.657   6.055  1.00  0.00    -0.004 A 
ATOM     17  C   UNL     1     -12.349   4.602   5.682  1.00  0.00     0.036 A 
ATOM     18  C   UNL     1     -11.791   3.233   7.345  1.00  0.00     0.063 A 
ATOM     19  N   UNL     1     -13.216   4.775   6.702  1.00  0.00    -0.282 N 
ATOM     20  N   UNL     1     -12.842   3.908   7.737  1.00  0.00    -0.181 NA
ATOM     21  C   UNL     1     -12.373   5.330   4.363  1.00  0.00     0.066 C 
ATOM     22  C   UNL     1     -11.061   2.189   8.151  1.00  0.00     0.069 C 
ATOM     23  H   UNL     1     -13.964   5.392   6.717  1.00  0.00     0.190 HD
ENDBRANCH  15  16
ENDBRANCH  14  15
ENDBRANCH  13  14
ENDBRANCH   1  13
TORSDOF 7
ENDMDL
MODEL 2
REMARK VINA RESULT:    -5.609      2.244      3.846
REMARK INTER + INTRA:          -8.387
REMARK INTER:                  -7.808
REMARK INTRA:                  -0.579
REMARK UNBOUND:                -0.647
REMARK SMILES Cc1n[nH]c(C)c1CCCOc1cc(C(=O)O)ccc1F
REMARK SMILES IDX 11 1 12 2 14 3 18 4 13 5 19 6 20 7 21 8 15 9 16 10 17 11
REMARK SMILES IDX 10 13 9 14 8 15 7 16 5 17 2 18 4 19 3 20 6 21 1 22
REMARK H PARENT 17 12 4 23
ROOT
ATOM      1  O   UNL     1      -6.927   4.292   5.037  1.00  0.00    -0.490 OA
ENDROOT
BRANCH   1   2
ATOM      2  C   UNL     1      -6.498   3.411   4.094  1.00  0.00     0.155 A 
ATOM      3  C   UNL     1      -6.190   1.150   3.336  1.00  0.00     0.063 A 
ATOM      4  C   UNL     1      -5.624   1.628   2.151  1.00  0.00     0.019 A 
ATOM      5  C   UNL     1      -6.628   2.051   4.308  1.00  0.00     0.065 A 
ATOM      6  C   UNL     1      -5.504   2.986   1.944  1.00  0.00     0.044 A 
ATOM      7  C   UNL     1      -5.943   3.879   2.908  1.00  0.00     0.165 A 
ATOM      8  F   UNL     1      -5.822   5.208   2.699  1.00  0.00    -0.203 F 
BRANCH   3   9
ATOM      9  C   UNL     1      -6.321  -0.303   3.561  1.00  0.00     0.335 C 
ATOM     10  O   UNL     1      -6.351  -0.743   4.692  1.00  0.00    -0.246 OA
BRANCH   9  11
ATOM     11  O   UNL     1      -6.412  -1.141   2.509  1.00  0.00    -0.478 OA
ATOM     12  H   UNL     1      -5.583  -1.421   2.097  1.00  0.00     0.297 HD
ENDBRANCH   9  11
ENDBRANCH   3   9
ENDBRANCH   1   2
BRANCH   1  13
ATOM     13  C   UNL     1      -8.081   5.073   4.717  1.00  0.00     0.230 C 
BRANCH  13  14
ATOM     14  C   UNL     1      -9.149   4.867   5.792  1.00  0.00     0.046 C 
BRANCH  14  15
ATOM     15  C   UNL     1     -10.159   3.822   5.313  1.00  0.00     0.043 C 
BRANCH  15  16
ATOM     16  C   UNL     1     -11.460   4.005   6.051  1.00  0.00    -0.004 A 
ATOM     17  C   UNL     1     -11.815   3.392   7.205  1.00  0.00     0.036 A 
ATOM     18  C   UNL     1     -12.513   4.843   5.668  1.00  0.00     0.063 A 
ATOM     19  N   UNL     1     -13.050   3.823   7.536  1.00  0.00    -0.282 N 
ATOM     20  N   UNL     1     -13.469   4.730   6.554  1.00  0.00    -0.181 NA
ATOM     21  C   UNL     1     -10.980   2.407   7.980  1.00  0.00     0.066 C 
ATOM     22  C   UNL     1     -12.545   5.717   4.440  1.00  0.00     0.069 C 
ATOM     23  H   UNL     1     -13.559   3.551   8.316  1.00  0.00     0.190 HD
ENDBRANCH  15  16
ENDBRANCH  14  15
ENDBRANCH  13  14
ENDBRANCH   1  13
TORSDOF 7
ENDMDL
MODEL 3
REMARK VINA RESULT:    -5.544      2.251      3.420
REMARK INTER + INTRA:          -8.298
REMARK INTER:                  -7.678
REMARK INTRA:                  -0.620
REMARK UNBOUND:                -0.647
REMARK SMILES Cc1n[nH]c(C)c1CCCOc1cc(C(=O)O)ccc1F
REMARK SMILES IDX 11 1 12 2 14 3 18 4 13 5 19 6 20 7 21 8 15 9 16 10 17 11
REMARK SMILES IDX 10 13 9 14 8 15 7 16 5 17 2 18 4 19 3 20 6 21 1 22
REMARK H PARENT 17 12 4 23
ROOT
ATOM      1  O   UNL     1      -6.941   4.329   5.008  1.00  0.00    -0.490 OA
ENDROOT
BRANCH   1   2
ATOM      2  C   UNL     1      -6.514   3.436   4.076  1.00  0.00     0.155 A 
ATOM      3  C   UNL     1      -6.204   1.165   3.348  1.00  0.00     0.063 A 
ATOM      4  C   UNL     1      -5.645   1.628   2.154  1.00  0.00     0.019 A 
ATOM      5  C   UNL     1      -6.638   2.079   4.310  1.00  0.00     0.065 A 
ATOM      6  C   UNL     1      -5.530   2.983   1.927  1.00  0.00     0.044 A 
ATOM      7  C   UNL     1      -5.967   3.888   2.880  1.00  0.00     0.165 A 
ATOM      8  F   UNL     1      -5.852   5.214   2.651  1.00  0.00    -0.203 F 
BRANCH   3   9
ATOM      9  C   UNL     1      -6.328  -0.285   3.595  1.00  0.00     0.335 C 
ATOM     10  O   UNL     1      -6.360  -0.708   4.732  1.00  0.00    -0.246 OA
BRANCH   9  11
ATOM     11  O   UNL     1      -6.413  -1.140   2.556  1.00  0.00    -0.478 OA
ATOM     12  H   UNL     1      -6.220  -2.070   2.736  1.00  0.00     0.297 HD
ENDBRANCH   9  11
ENDBRANCH   3   9
ENDBRANCH   1   2
BRANCH   1  13
ATOM     13  C   UNL     1      -8.136   5.055   4.711  1.00  0.00     0.230 C 
BRANCH  13  14
ATOM     14  C   UNL     1      -9.173   4.798   5.806  1.00  0.00     0.046 C 
BRANCH  14  15
ATOM     15  C   UNL     1     -10.239   3.834   5.283  1.00  0.00     0.043 C 
BRANCH  15  16
ATOM     16  C   UNL     1     -11.565   4.155   5.923  1.00  0.00    -0.004 A 
ATOM     17  C   UNL     1     -12.500   5.003   5.434  1.00  0.00     0.036 A 
ATOM     18  C   UNL     1     -12.050   3.625   7.123  1.00  0.00     0.063 A 
ATOM     19  N   UNL     1     -13.537   5.013   6.299  1.00  0.00    -0.282 N 
ATOM     20  N   UNL     1     -13.229   4.144   7.353  1.00  0.00    -0.181 NA
ATOM     21  C   UNL     1     -12.402   5.792   4.156  1.00  0.00     0.066 C 
ATOM     22  C   UNL     1     -11.332   2.636   8.006  1.00  0.00     0.069 C 
ATOM     23  H   UNL     1     -14.351   5.532   6.207  1.00  0.00     0.190 HD
ENDBRANCH  15  16
ENDBRANCH  14  15
ENDBRANCH  13  14
ENDBRANCH   1  13
TORSDOF 7
ENDMDL
MODEL 4
REMARK VINA RESULT:    -5.515      0.136      1.774
REMARK INTER + INTRA:          -8.257
REMARK INTER:                  -7.563
REMARK INTRA:                  -0.694
REMARK UNBOUND:                -0.647
REMARK SMILES Cc1n[nH]c(C)c1CCCOc1cc(C(=O)O)ccc1F
REMARK SMILES IDX 11 1 12 2 14 3 18 4 13 5 19 6 20 7 21 8 15 9 16 10 17 11
REMARK SMILES IDX 10 13 9 14 8 15 7 16 5 17 2 18 4 19 3 20 6 21 1 22
REMARK H PARENT 17 12 4 23
ROOT
ATOM      1  O   UNL     1      -9.099   1.212   2.812  1.00  0.00    -0.490 OA
ENDROOT
BRANCH   1   2
ATOM      2  C   UNL     1      -7.808   1.613   2.668  1.00  0.00     0.155 A 
ATOM      3  C   UNL     1      -6.198   3.331   2.179  1.00  0.00     0.063 A 
ATOM      4  C   UNL     1      -5.163   2.416   2.389  1.00  0.00     0.019 A 
ATOM      5  C   UNL     1      -7.526   2.921   2.321  1.00  0.00     0.065 A 
ATOM      6  C   UNL     1      -5.455   1.115   2.741  1.00  0.00     0.044 A 
ATOM      7  C   UNL     1      -6.772   0.712   2.886  1.00  0.00     0.165 A 
ATOM      8  F   UNL     1      -7.051  -0.565   3.230  1.00  0.00    -0.203 F 
BRANCH   3   9
ATOM      9  C   UNL     1      -5.890   4.725   1.803  1.00  0.00     0.335 C 
ATOM     10  O   UNL     1      -6.712   5.390   1.207  1.00  0.00    -0.246 OA
BRANCH   9  11
ATOM     11  O   UNL     1      -4.697   5.262   2.128  1.00  0.00    -0.478 OA
ATOM     12  H   UNL     1      -4.089   5.453   1.401  1.00  0.00     0.297 HD
ENDBRANCH   9  11
ENDBRANCH   3   9
ENDBRANCH   1   2
BRANCH   1  13
ATOM     13  C   UNL     1      -9.614   1.147   4.144  1.00  0.00     0.230 C 
BRANCH  13  14
ATOM     14  C   UNL     1     -10.785   2.120   4.285  1.00  0.00     0.046 C 
BRANCH  14  15
ATOM     15  C   UNL     1     -10.375   3.286   5.188  1.00  0.00     0.043 C 
BRANCH  15  16
ATOM     16  C   UNL     1     -11.565   3.746   5.989  1.00  0.00    -0.004 A 
ATOM     17  C   UNL     1     -11.918   3.302   7.217  1.00  0.00     0.036 A 
ATOM     18  C   UNL     1     -12.497   4.712   5.596  1.00  0.00     0.063 A 
ATOM     19  N   UNL     1     -13.038   3.959   7.586  1.00  0.00    -0.282 N 
ATOM     20  N   UNL     1     -13.384   4.836   6.550  1.00  0.00    -0.181 NA
ATOM     21  C   UNL     1     -11.192   2.261   8.028  1.00  0.00     0.066 C 
ATOM     22  C   UNL     1     -12.488   5.471   4.294  1.00  0.00     0.069 C 
ATOM     23  H   UNL     1     -13.518   3.844   8.421  1.00  0.00     0.190 HD
ENDBRANCH  15  16
ENDBRANCH  14  15
ENDBRANCH  13  14
ENDBRANCH   1  13
TORSDOF 7
ENDMDL
MODEL 5
REMARK VINA RESULT:    -4.602      3.868      6.619
REMARK INTER + INTRA:          -6.998
REMARK INTER:                  -6.184
REMARK INTRA:                  -0.814
REMARK UNBOUND:                -0.647
REMARK SMILES Cc1n[nH]c(C)c1CCCOc1cc(C(=O)O)ccc1F
REMARK SMILES IDX 11 1 12 2 14 3 18 4 13 5 19 6 20 7 21 8 15 9 16 10 17 11
REMARK SMILES IDX 10 13 9 14 8 15 7 16 5 17 2 18 4 19 3 20 6 21 1 22
REMARK H PARENT 17 12 4 23
ROOT
ATOM      1  O   UNL     1      -9.159   2.483   5.277  1.00  0.00    -0.490 OA
ENDROOT
BRANCH   1   2
ATOM      2  C   UNL     1     -10.299   3.114   5.667  1.00  0.00     0.155 A 
ATOM      3  C   UNL     1     -12.080   4.668   5.226  1.00  0.00     0.063 A 
ATOM      4  C   UNL     1     -12.631   4.385   6.478  1.00  0.00     0.019 A 
ATOM      5  C   UNL     1     -10.907   4.025   4.824  1.00  0.00     0.065 A 
ATOM      6  C   UNL     1     -12.021   3.470   7.310  1.00  0.00     0.044 A 
ATOM      7  C   UNL     1     -10.860   2.830   6.907  1.00  0.00     0.165 A 
ATOM      8  F   UNL     1     -10.267   1.935   7.726  1.00  0.00    -0.203 F 
BRANCH   3   9
ATOM      9  C   UNL     1     -12.731   5.647   4.334  1.00  0.00     0.335 C 
ATOM     10  O   UNL     1     -12.341   5.781   3.192  1.00  0.00    -0.246 OA
BRANCH   9  11
ATOM     11  O   UNL     1     -13.762   6.387   4.785  1.00  0.00    -0.478 OA
ATOM     12  H   UNL     1     -14.090   6.189   5.673  1.00  0.00     0.297 HD
ENDBRANCH   9  11
ENDBRANCH   3   9
ENDBRANCH   1   2
BRANCH   1  13
ATOM     13  C   UNL     1      -9.143   1.928   3.959  1.00  0.00     0.230 C 
BRANCH  13  14
ATOM     14  C   UNL     1      -7.775   1.300   3.688  1.00  0.00     0.046 C 
BRANCH  14  15
ATOM     15  C   UNL     1      -6.692   2.105   4.409  1.00  0.00     0.043 C 
BRANCH  15  16
ATOM     16  C   UNL     1      -6.214   3.219   3.515  1.00  0.00    -0.004 A 
ATOM     17  C   UNL     1      -5.503   3.074   2.372  1.00  0.00     0.036 A 
ATOM     18  C   UNL     1      -6.432   4.587   3.715  1.00  0.00     0.063 A 
ATOM     19  N   UNL     1      -5.273   4.306   1.871  1.00  0.00    -0.282 N 
ATOM     20  N   UNL     1      -5.862   5.239   2.734  1.00  0.00    -0.181 NA
ATOM     21  C   UNL     1      -5.049   1.771   1.768  1.00  0.00     0.066 C 
ATOM     22  C   UNL     1      -7.182   5.203   4.868  1.00  0.00     0.069 C 
ATOM     23  H   UNL     1      -4.786   4.509   1.058  1.00  0.00     0.190 HD
ENDBRANCH  15  16
ENDBRANCH  14  15
ENDBRANCH  13  14
ENDBRANCH   1  13
TORSDOF 7
ENDMDL
MODEL 6
REMARK VINA RESULT:    -4.546      3.940      7.076
REMARK INTER + INTRA:          -6.921
REMARK INTER:                  -6.084
REMARK INTRA:                  -0.837
REMARK UNBOUND:                -0.647
REMARK SMILES Cc1n[nH]c(C)c1CCCOc1cc(C(=O)O)ccc1F
REMARK SMILES IDX 11 1 12 2 14 3 18 4 13 5 19 6 20 7 21 8 15 9 16 10 17 11
REMARK SMILES IDX 10 13 9 14 8 15 7 16 5 17 2 18 4 19 3 20 6 21 1 22
REMARK H PARENT 17 12 4 23
ROOT
ATOM      1  O   UNL     1      -9.458   3.977   4.023  1.00  0.00    -0.490 OA
ENDROOT
BRANCH   1   2
ATOM      2  C   UNL     1     -10.456   3.969   4.946  1.00  0.00     0.155 A 
ATOM      3  C   UNL     1     -11.372   3.175   7.023  1.00  0.00     0.063 A 
ATOM      4  C   UNL     1     -12.502   3.973   6.825  1.00  0.00     0.019 A 
ATOM      5  C   UNL     1     -10.347   3.178   6.074  1.00  0.00     0.065 A 
ATOM      6  C   UNL     1     -12.599   4.763   5.699  1.00  0.00     0.044 A 
ATOM      7  C   UNL     1     -11.579   4.768   4.762  1.00  0.00     0.165 A 
ATOM      8  F   UNL     1     -11.680   5.545   3.661  1.00  0.00    -0.203 F 
BRANCH   3   9
ATOM      9  C   UNL     1     -11.265   2.329   8.227  1.00  0.00     0.335 C 
ATOM     10  O   UNL     1     -12.268   1.966   8.806  1.00  0.00    -0.246 OA
BRANCH   9  11
ATOM     11  O   UNL     1     -10.053   1.953   8.680  1.00  0.00    -0.478 OA
ATOM     12  H   UNL     1      -9.998   1.665   9.602  1.00  0.00     0.297 HD
ENDBRANCH   9  11
ENDBRANCH   3   9
ENDBRANCH   1   2
BRANCH   1  13
ATOM     13  C   UNL     1      -8.118   4.052   4.516  1.00  0.00     0.230 C 
BRANCH  13  14
ATOM     14  C   UNL     1      -7.138   3.958   3.346  1.00  0.00     0.046 C 
BRANCH  14  15
ATOM     15  C   UNL     1      -7.682   2.980   2.302  1.00  0.00     0.043 C 
BRANCH  15  16
ATOM     16  C   UNL     1      -7.217   1.585   2.630  1.00  0.00    -0.004 A 
ATOM     17  C   UNL     1      -5.945   1.130   2.550  1.00  0.00     0.036 A 
ATOM     18  C   UNL     1      -8.024   0.533   3.077  1.00  0.00     0.063 A 
ATOM     19  N   UNL     1      -5.948  -0.166   2.926  1.00  0.00    -0.282 N 
ATOM     20  N   UNL     1      -7.265  -0.519   3.248  1.00  0.00    -0.181 NA
ATOM     21  C   UNL     1      -4.742   1.927   2.119  1.00  0.00     0.066 C 
ATOM     22  C   UNL     1      -9.512   0.597   3.308  1.00  0.00     0.069 C 
ATOM     23  H   UNL     1      -5.175  -0.751   2.966  1.00  0.00     0.190 HD
ENDBRANCH  15  16
ENDBRANCH  14  15
ENDBRANCH  13  14
ENDBRANCH   1  13
TORSDOF 7
ENDMDL
MODEL 7
REMARK VINA RESULT:    -4.507      3.937      7.061
REMARK INTER + INTRA:          -6.867
REMARK INTER:                  -6.033
REMARK INTRA:                  -0.834
REMARK UNBOUND:                -0.647
REMARK SMILES Cc1n[nH]c(C)c1CCCOc1cc(C(=O)O)ccc1F
REMARK SMILES IDX 11 1 12 2 14 3 18 4 13 5 19 6 20 7 21 8 15 9 16 10 17 11
REMARK SMILES IDX 10 13 9 14 8 15 7 16 5 17 2 18 4 19 3 20 6 21 1 22
REMARK H PARENT 17 12 4 23
ROOT
ATOM      1  O   UNL     1      -9.422   4.053   3.922  1.00  0.00    -0.490 OA
ENDROOT
BRANCH   1   2
ATOM      2  C   UNL     1     -10.421   4.041   4.845  1.00  0.00     0.155 A 
ATOM      3  C   UNL     1     -11.312   3.288   6.948  1.00  0.00     0.063 A 
ATOM      4  C   UNL     1     -12.468   4.040   6.722  1.00  0.00     0.019 A 
ATOM      5  C   UNL     1     -10.286   3.293   6.000  1.00  0.00     0.065 A 
ATOM      6  C   UNL     1     -12.591   4.787   5.570  1.00  0.00     0.044 A 
ATOM      7  C   UNL     1     -11.570   4.795   4.634  1.00  0.00     0.165 A 
ATOM      8  F   UNL     1     -11.697   5.529   3.507  1.00  0.00    -0.203 F 
BRANCH   3   9
ATOM      9  C   UNL     1     -11.177   2.487   8.180  1.00  0.00     0.335 C 
ATOM     10  O   UNL     1     -11.689   1.389   8.250  1.00  0.00    -0.246 OA
BRANCH   9  11
ATOM     11  O   UNL     1     -10.480   2.974   9.226  1.00  0.00    -0.478 OA
ATOM     12  H   UNL     1     -10.433   2.420  10.018  1.00  0.00     0.297 HD
ENDBRANCH   9  11
ENDBRANCH   3   9
ENDBRANCH   1   2
BRANCH   1  13
ATOM     13  C   UNL     1      -8.097   4.287   4.404  1.00  0.00     0.230 C 
BRANCH  13  14
ATOM     14  C   UNL     1      -7.091   4.006   3.286  1.00  0.00     0.046 C 
BRANCH  14  15
ATOM     15  C   UNL     1      -7.692   3.000   2.302  1.00  0.00     0.043 C 
BRANCH  15  16
ATOM     16  C   UNL     1      -7.233   1.610   2.659  1.00  0.00    -0.004 A 
ATOM     17  C   UNL     1      -8.017   0.605   3.113  1.00  0.00     0.036 A 
ATOM     18  C   UNL     1      -5.922   1.129   2.576  1.00  0.00     0.063 A 
ATOM     19  N   UNL     1      -7.229  -0.472   3.315  1.00  0.00    -0.282 N 
ATOM     20  N   UNL     1      -5.917  -0.116   2.975  1.00  0.00    -0.181 NA
ATOM     21  C   UNL     1      -9.503   0.675   3.349  1.00  0.00     0.066 C 
ATOM     22  C   UNL     1      -4.720   1.915   2.117  1.00  0.00     0.069 C 
ATOM     23  H   UNL     1      -7.519  -1.339   3.639  1.00  0.00     0.190 HD
ENDBRANCH  15  16
ENDBRANCH  14  15
ENDBRANCH  13  14
ENDBRANCH   1  13
TORSDOF 7
ENDMDL
MODEL 8
REMARK VINA RESULT:    -4.361      4.683      8.074
REMARK INTER + INTRA:          -6.665
REMARK INTER:                  -5.966
REMARK INTRA:                  -0.700
REMARK UNBOUND:                -0.647
REMARK SMILES Cc1n[nH]c(C)c1CCCOc1cc(C(=O)O)ccc1F
REMARK SMILES IDX 11 1 12 2 14 3 18 4 13 5 19 6 20 7 21 8 15 9 16 10 17 11
REMARK SMILES IDX 10 13 9 14 8 15 7 16 5 17 2 18 4 19 3 20 6 21 1 22
REMARK H PARENT 17 12 4 23
ROOT
ATOM      1  O   UNL     1     -11.074   2.693   7.062  1.00  0.00    -0.490 OA
ENDROOT
BRANCH   1   2
ATOM      2  C   UNL     1     -11.670   2.711   8.284  1.00  0.00     0.155 A 
ATOM      3  C   UNL     1     -13.644   2.918   9.641  1.00  0.00     0.063 A 
ATOM      4  C   UNL     1     -12.869   2.735  10.789  1.00  0.00     0.019 A 
ATOM      5  C   UNL     1     -13.035   2.905   8.384  1.00  0.00     0.065 A 
ATOM      6  C   UNL     1     -11.509   2.537  10.678  1.00  0.00     0.044 A 
ATOM      7  C   UNL     1     -10.908   2.519   9.431  1.00  0.00     0.165 A 
ATOM      8  F   UNL     1      -9.574   2.324   9.329  1.00  0.00    -0.203 F 
BRANCH   3   9
ATOM      9  C   UNL     1     -15.100   3.130   9.756  1.00  0.00     0.335 C 
ATOM     10  O   UNL     1     -15.639   3.067  10.841  1.00  0.00    -0.246 OA
BRANCH   9  11
ATOM     11  O   UNL     1     -15.830   3.400   8.655  1.00  0.00    -0.478 OA
ATOM     12  H   UNL     1     -15.402   3.258   7.799  1.00  0.00     0.297 HD
ENDBRANCH   9  11
ENDBRANCH   3   9
ENDBRANCH   1   2
BRANCH   1  13
ATOM     13  C   UNL     1     -11.457   3.714   6.138  1.00  0.00     0.230 C 
BRANCH  13  14
ATOM     14  C   UNL     1     -10.454   3.759   4.984  1.00  0.00     0.046 C 
BRANCH  14  15
ATOM     15  C   UNL     1      -9.266   2.849   5.304  1.00  0.00     0.043 C 
BRANCH  15  16
ATOM     16  C   UNL     1      -8.328   2.812   4.126  1.00  0.00    -0.004 A 
ATOM     17  C   UNL     1      -7.310   3.672   3.891  1.00  0.00     0.036 A 
ATOM     18  C   UNL     1      -8.351   1.878   3.084  1.00  0.00     0.063 A 
ATOM     19  N   UNL     1      -6.715   3.300   2.738  1.00  0.00    -0.282 N 
ATOM     20  N   UNL     1      -7.389   2.174   2.248  1.00  0.00    -0.181 NA
ATOM     21  C   UNL     1      -6.913   4.836   4.761  1.00  0.00     0.066 C 
ATOM     22  C   UNL     1      -9.324   0.736   2.942  1.00  0.00     0.069 C 
ATOM     23  H   UNL     1      -5.955   3.736   2.322  1.00  0.00     0.190 HD
ENDBRANCH  15  16
ENDBRANCH  14  15
ENDBRANCH  13  14
ENDBRANCH   1  13
TORSDOF 7
ENDMDL
MODEL 9
REMARK VINA RESULT:    -4.223      4.348      7.401
REMARK INTER + INTRA:          -6.475
REMARK INTER:                  -5.999
REMARK INTRA:                  -0.476
REMARK UNBOUND:                -0.647
REMARK SMILES Cc1n[nH]c(C)c1CCCOc1cc(C(=O)O)ccc1F
REMARK SMILES IDX 11 1 12 2 14 3 18 4 13 5 19 6 20 7 21 8 15 9 16 10 17 11
REMARK SMILES IDX 10 13 9 14 8 15 7 16 5 17 2 18 4 19 3 20 6 21 1 22
REMARK H PARENT 17 12 4 23
ROOT
ATOM      1  O   UNL     1      -9.442   4.271   4.593  1.00  0.00    -0.490 OA
ENDROOT
BRANCH   1   2
ATOM      2  C   UNL     1     -10.508   4.150   5.429  1.00  0.00     0.155 A 
ATOM      3  C   UNL     1     -11.502   3.260   7.429  1.00  0.00     0.063 A 
ATOM      4  C   UNL     1     -12.694   3.926   7.128  1.00  0.00     0.019 A 
ATOM      5  C   UNL     1     -10.407   3.377   6.570  1.00  0.00     0.065 A 
ATOM      6  C   UNL     1     -12.783   4.699   5.990  1.00  0.00     0.044 A 
ATOM      7  C   UNL     1     -11.693   4.818   5.142  1.00  0.00     0.165 A 
ATOM      8  F   UNL     1     -11.787   5.578   4.029  1.00  0.00    -0.203 F 
BRANCH   3   9
ATOM      9  C   UNL     1     -11.403   2.431   8.646  1.00  0.00     0.335 C 
ATOM     10  O   UNL     1     -10.374   1.839   8.896  1.00  0.00    -0.246 OA
BRANCH   9  11
ATOM     11  O   UNL     1     -12.455   2.338   9.484  1.00  0.00    -0.478 OA
ATOM     12  H   UNL     1     -12.927   1.494   9.503  1.00  0.00     0.297 HD
ENDBRANCH   9  11
ENDBRANCH   3   9
ENDBRANCH   1   2
BRANCH   1  13
ATOM     13  C   UNL     1      -9.357   3.340   3.511  1.00  0.00     0.230 C 
BRANCH  13  14
ATOM     14  C   UNL     1      -8.553   2.116   3.955  1.00  0.00     0.046 C 
BRANCH  14  15
ATOM     15  C   UNL     1      -7.144   2.552   4.362  1.00  0.00     0.043 C 
BRANCH  15  16
ATOM     16  C   UNL     1      -6.201   2.352   3.204  1.00  0.00    -0.004 A 
ATOM     17  C   UNL     1      -5.729   3.321   2.385  1.00  0.00     0.036 A 
ATOM     18  C   UNL     1      -5.654   1.133   2.789  1.00  0.00     0.063 A 
ATOM     19  N   UNL     1      -4.917   2.734   1.480  1.00  0.00    -0.282 N 
ATOM     20  N   UNL     1      -4.889   1.360   1.752  1.00  0.00    -0.181 NA
ATOM     21  C   UNL     1      -6.051   4.789   2.469  1.00  0.00     0.066 C 
ATOM     22  C   UNL     1      -5.910  -0.211   3.421  1.00  0.00     0.069 C 
ATOM     23  H   UNL     1      -4.438   3.185   0.767  1.00  0.00     0.190 HD
ENDBRANCH  15  16
ENDBRANCH  14  15
ENDBRANCH  13  14
ENDBRANCH   1  13
TORSDOF 7
ENDMDL
