MODEL 1
REMARK VINA RESULT:    -4.364      0.000      0.000
REMARK INTER + INTRA:          -5.298
REMARK INTER:                  -5.002
REMARK INTRA:                  -0.296
REMARK UNBOUND:                -0.296
REMARK SMILES O=C(O)c1ccc2nc(-c3cc(Cl)cc(Cl)c3)oc2c1
REMARK SMILES IDX 5 1 6 2 20 3 8 4 18 5 4 6 9 7 7 8 19 9 2 10 1 11 3 12 10 14
REMARK SMILES IDX 11 15 17 16 12 17 15 18 14 19 13 20 16 21
REMARK H PARENT 3 13
ROOT
ATOM      1  C   UNL     1       0.275   9.302 -11.724  1.00  0.00     0.018 A 
ATOM      2  C   UNL     1       0.933   8.282 -11.104  1.00  0.00     0.033 A 
ATOM      3  C   UNL     1      -1.381   9.342  -9.954  1.00  0.00     0.065 A 
ATOM      4  N   UNL     1       0.869   6.787  -9.068  1.00  0.00    -0.209 NA
ATOM      5  O   UNL     1      -0.937   7.615  -8.181  1.00  0.00    -0.436 OA
ATOM      6  C   UNL     1      -0.886   9.846 -11.158  1.00  0.00     0.063 A 
ATOM      7  C   UNL     1       0.044   6.702  -8.054  1.00  0.00     0.227 A 
ATOM      8  C   UNL     1       0.447   7.768  -9.896  1.00  0.00     0.110 A 
ATOM      9  C   UNL     1      -0.720   8.304  -9.324  1.00  0.00     0.156 A 
ENDROOT
BRANCH   6  10
ATOM     10  C   UNL     1      -1.585  10.953 -11.835  1.00  0.00     0.335 C 
ATOM     11  O   UNL     1      -2.699  11.278 -11.475  1.00  0.00    -0.246 OA
BRANCH  10  12
ATOM     12  O   UNL     1      -0.990  11.603 -12.854  1.00  0.00    -0.478 OA
ATOM     13  H   UNL     1      -0.490  12.400 -12.634  1.00  0.00     0.297 HD
ENDBRANCH  10  12
ENDBRANCH   6  10
BRANCH   7  14
ATOM     14  C   UNL     1       0.173   5.745  -6.936  1.00  0.00     0.040 A 
ATOM     15  C   UNL     1      -0.963   5.306  -6.255  1.00  0.00     0.034 A 
ATOM     16  C   UNL     1       1.432   5.276  -6.557  1.00  0.00     0.034 A 
ATOM     17  C   UNL     1      -0.837   4.411  -5.211  1.00  0.00     0.043 A 
ATOM     18  C   UNL     1       1.546   4.381  -5.512  1.00  0.00     0.043 A 
ATOM     19  C   UNL     1       0.415   3.950  -4.840  1.00  0.00     0.041 A 
ATOM     20  Cl  UNL     1      -2.249   3.863  -4.363  1.00  0.00    -0.084 Cl
ATOM     21  Cl  UNL     1       3.111   3.796  -5.039  1.00  0.00    -0.084 Cl
ENDBRANCH   7  14
TORSDOF 3
ENDMDL
MODEL 2
REMARK VINA RESULT:    -4.363      0.010      2.019
REMARK INTER + INTRA:          -5.296
REMARK INTER:                  -5.001
REMARK INTRA:                  -0.295
REMARK UNBOUND:                -0.296
REMARK SMILES O=C(O)c1ccc2nc(-c3cc(Cl)cc(Cl)c3)oc2c1
REMARK SMILES IDX 5 1 6 2 20 3 8 4 18 5 4 6 9 7 7 8 19 9 2 10 1 11 3 12 10 14
REMARK SMILES IDX 11 15 17 16 12 17 15 18 14 19 13 20 16 21
REMARK H PARENT 3 13
ROOT
ATOM      1  C   UNL     1       0.270   9.309 -11.722  1.00  0.00     0.018 A 
ATOM      2  C   UNL     1       0.929   8.289 -11.104  1.00  0.00     0.033 A 
ATOM      3  C   UNL     1      -1.382   9.348  -9.947  1.00  0.00     0.065 A 
ATOM      4  N   UNL     1       0.871   6.793  -9.069  1.00  0.00    -0.209 NA
ATOM      5  O   UNL     1      -0.933   7.620  -8.177  1.00  0.00    -0.436 OA
ATOM      6  C   UNL     1      -0.891   9.852 -11.153  1.00  0.00     0.063 A 
ATOM      7  C   UNL     1       0.049   6.707  -8.053  1.00  0.00     0.227 A 
ATOM      8  C   UNL     1       0.447   7.774  -9.895  1.00  0.00     0.110 A 
ATOM      9  C   UNL     1      -0.719   8.310  -9.320  1.00  0.00     0.156 A 
ENDROOT
BRANCH   6  10
ATOM     10  C   UNL     1      -1.592  10.959 -11.827  1.00  0.00     0.335 C 
ATOM     11  O   UNL     1      -2.706  11.283 -11.465  1.00  0.00    -0.246 OA
BRANCH  10  12
ATOM     12  O   UNL     1      -0.999  11.612 -12.846  1.00  0.00    -0.478 OA
ATOM     13  H   UNL     1      -0.072  11.402 -13.022  1.00  0.00     0.297 HD
ENDBRANCH  10  12
ENDBRANCH   6  10
BRANCH   7  14
ATOM     14  C   UNL     1       0.180   5.749  -6.936  1.00  0.00     0.040 A 
ATOM     15  C   UNL     1       1.439   5.279  -6.559  1.00  0.00     0.034 A 
ATOM     16  C   UNL     1      -0.956   5.309  -6.253  1.00  0.00     0.034 A 
ATOM     17  C   UNL     1       1.555   4.385  -5.514  1.00  0.00     0.043 A 
ATOM     18  C   UNL     1      -0.827   4.415  -5.210  1.00  0.00     0.043 A 
ATOM     19  C   UNL     1       0.425   3.953  -4.841  1.00  0.00     0.041 A 
ATOM     20  Cl  UNL     1       3.120   3.800  -5.043  1.00  0.00    -0.084 Cl
ATOM     21  Cl  UNL     1      -2.238   3.867  -4.359  1.00  0.00    -0.084 Cl
ENDBRANCH   7  14
TORSDOF 3
ENDMDL
MODEL 3
REMARK VINA RESULT:    -4.358      1.854      3.227
REMARK INTER + INTRA:          -5.291
REMARK INTER:                  -4.995
REMARK INTRA:                  -0.296
REMARK UNBOUND:                -0.296
REMARK SMILES O=C(O)c1ccc2nc(-c3cc(Cl)cc(Cl)c3)oc2c1
REMARK SMILES IDX 5 1 6 2 20 3 8 4 18 5 4 6 9 7 7 8 19 9 2 10 1 11 3 12 10 14
REMARK SMILES IDX 11 15 17 16 12 17 15 18 14 19 13 20 16 21
REMARK H PARENT 3 13
ROOT
ATOM      1  C   UNL     1       0.357   9.336 -11.664  1.00  0.00     0.018 A 
ATOM      2  C   UNL     1      -0.382   8.984 -10.575  1.00  0.00     0.033 A 
ATOM      3  C   UNL     1       1.898   7.514 -11.238  1.00  0.00     0.065 A 
ATOM      4  N   UNL     1      -0.511   7.315  -8.682  1.00  0.00    -0.209 NA
ATOM      5  O   UNL     1       1.269   6.178  -9.203  1.00  0.00    -0.436 OA
ATOM      6  C   UNL     1       1.502   8.607 -12.011  1.00  0.00     0.063 A 
ATOM      7  C   UNL     1       0.244   6.301  -8.340  1.00  0.00     0.227 A 
ATOM      8  C   UNL     1       0.004   7.890  -9.791  1.00  0.00     0.110 A 
ATOM      9  C   UNL     1       1.154   7.156 -10.129  1.00  0.00     0.156 A 
ENDROOT
BRANCH   6  10
ATOM     10  C   UNL     1       2.290   8.993 -13.196  1.00  0.00     0.335 C 
ATOM     11  O   UNL     1       3.332   8.421 -13.445  1.00  0.00    -0.246 OA
BRANCH  10  12
ATOM     12  O   UNL     1       1.855   9.983 -14.001  1.00  0.00    -0.478 OA
ATOM     13  H   UNL     1       1.758   9.774 -14.940  1.00  0.00     0.297 HD
ENDBRANCH  10  12
ENDBRANCH   6  10
BRANCH   7  14
ATOM     14  C   UNL     1       0.004   5.422  -7.177  1.00  0.00     0.040 A 
ATOM     15  C   UNL     1       1.075   4.794  -6.539  1.00  0.00     0.034 A 
ATOM     16  C   UNL     1      -1.296   5.215  -6.711  1.00  0.00     0.034 A 
ATOM     17  C   UNL     1       0.845   3.975  -5.452  1.00  0.00     0.043 A 
ATOM     18  C   UNL     1      -1.514   4.393  -5.623  1.00  0.00     0.043 A 
ATOM     19  C   UNL     1      -0.447   3.774  -4.995  1.00  0.00     0.041 A 
ATOM     20  Cl  UNL     1       2.176   3.194  -4.657  1.00  0.00    -0.084 Cl
ATOM     21  Cl  UNL     1      -3.130   4.135  -5.042  1.00  0.00    -0.084 Cl
ENDBRANCH   7  14
TORSDOF 3
ENDMDL
MODEL 4
REMARK VINA RESULT:    -4.354      1.852      2.540
REMARK INTER + INTRA:          -5.286
REMARK INTER:                  -4.990
REMARK INTRA:                  -0.296
REMARK UNBOUND:                -0.296
REMARK SMILES O=C(O)c1ccc2nc(-c3cc(Cl)cc(Cl)c3)oc2c1
REMARK SMILES IDX 5 1 6 2 20 3 8 4 18 5 4 6 9 7 7 8 19 9 2 10 1 11 3 12 10 14
REMARK SMILES IDX 11 15 17 16 12 17 15 18 14 19 13 20 16 21
REMARK H PARENT 3 13
ROOT
ATOM      1  C   UNL     1       0.354   9.338 -11.658  1.00  0.00     0.018 A 
ATOM      2  C   UNL     1      -0.383   8.986 -10.568  1.00  0.00     0.033 A 
ATOM      3  C   UNL     1       1.894   7.513 -11.237  1.00  0.00     0.065 A 
ATOM      4  N   UNL     1      -0.510   7.315  -8.677  1.00  0.00    -0.209 NA
ATOM      5  O   UNL     1       1.268   6.176  -9.202  1.00  0.00    -0.436 OA
ATOM      6  C   UNL     1       1.498   8.608 -12.008  1.00  0.00     0.063 A 
ATOM      7  C   UNL     1       0.244   6.299  -8.337  1.00  0.00     0.227 A 
ATOM      8  C   UNL     1       0.003   7.890  -9.786  1.00  0.00     0.110 A 
ATOM      9  C   UNL     1       1.152   7.155 -10.127  1.00  0.00     0.156 A 
ENDROOT
BRANCH   6  10
ATOM     10  C   UNL     1       2.284   8.995 -13.193  1.00  0.00     0.335 C 
ATOM     11  O   UNL     1       3.327   8.423 -13.444  1.00  0.00    -0.246 OA
BRANCH  10  12
ATOM     12  O   UNL     1       1.848   9.984 -13.998  1.00  0.00    -0.478 OA
ATOM     13  H   UNL     1       2.490  10.660 -14.251  1.00  0.00     0.297 HD
ENDBRANCH  10  12
ENDBRANCH   6  10
BRANCH   7  14
ATOM     14  C   UNL     1       0.005   5.419  -7.174  1.00  0.00     0.040 A 
ATOM     15  C   UNL     1      -1.293   5.213  -6.706  1.00  0.00     0.034 A 
ATOM     16  C   UNL     1       1.079   4.791  -6.539  1.00  0.00     0.034 A 
ATOM     17  C   UNL     1      -1.509   4.388  -5.619  1.00  0.00     0.043 A 
ATOM     18  C   UNL     1       0.850   3.969  -5.454  1.00  0.00     0.043 A 
ATOM     19  C   UNL     1      -0.440   3.769  -4.994  1.00  0.00     0.041 A 
ATOM     20  Cl  UNL     1      -3.123   4.130  -5.035  1.00  0.00    -0.084 Cl
ATOM     21  Cl  UNL     1       2.183   3.187  -4.663  1.00  0.00    -0.084 Cl
ENDBRANCH   7  14
TORSDOF 3
ENDMDL
MODEL 5
REMARK VINA RESULT:    -4.235      3.743      7.414
REMARK INTER + INTRA:          -5.149
REMARK INTER:                  -4.851
REMARK INTRA:                  -0.298
REMARK UNBOUND:                -0.296
REMARK SMILES O=C(O)c1ccc2nc(-c3cc(Cl)cc(Cl)c3)oc2c1
REMARK SMILES IDX 5 1 6 2 20 3 8 4 18 5 4 6 9 7 7 8 19 9 2 10 1 11 3 12 10 14
REMARK SMILES IDX 11 15 17 16 12 17 15 18 14 19 13 20 16 21
REMARK H PARENT 3 13
ROOT
ATOM      1  C   UNL     1       1.019   3.720  -5.374  1.00  0.00     0.018 A 
ATOM      2  C   UNL     1       1.603   4.281  -6.470  1.00  0.00     0.033 A 
ATOM      3  C   UNL     1      -0.939   5.120  -5.672  1.00  0.00     0.065 A 
ATOM      4  N   UNL     1       1.243   5.999  -8.288  1.00  0.00    -0.209 NA
ATOM      5  O   UNL     1      -0.735   6.650  -7.656  1.00  0.00    -0.436 OA
ATOM      6  C   UNL     1      -0.257   4.130  -4.962  1.00  0.00     0.063 A 
ATOM      7  C   UNL     1       0.251   6.811  -8.559  1.00  0.00     0.227 A 
ATOM      8  C   UNL     1       0.930   5.276  -7.191  1.00  0.00     0.110 A 
ATOM      9  C   UNL     1      -0.348   5.695  -6.781  1.00  0.00     0.156 A 
ENDROOT
BRANCH   6  10
ATOM     10  C   UNL     1      -0.881   3.512  -3.779  1.00  0.00     0.335 C 
ATOM     11  O   UNL     1      -0.261   2.702  -3.118  1.00  0.00    -0.246 OA
BRANCH  10  12
ATOM     12  O   UNL     1      -2.140   3.843  -3.429  1.00  0.00    -0.478 OA
ATOM     13  H   UNL     1      -2.855   3.321  -3.817  1.00  0.00     0.297 HD
ENDBRANCH  10  12
ENDBRANCH   6  10
BRANCH   7  14
ATOM     14  C   UNL     1       0.221   7.763  -9.688  1.00  0.00     0.040 A 
ATOM     15  C   UNL     1      -0.783   8.730  -9.763  1.00  0.00     0.034 A 
ATOM     16  C   UNL     1       1.197   7.699 -10.685  1.00  0.00     0.034 A 
ATOM     17  C   UNL     1      -0.805   9.618 -10.821  1.00  0.00     0.043 A 
ATOM     18  C   UNL     1       1.164   8.592 -11.737  1.00  0.00     0.043 A 
ATOM     19  C   UNL     1       0.166   9.548 -11.806  1.00  0.00     0.041 A 
ATOM     20  Cl  UNL     1      -2.052  10.821 -10.916  1.00  0.00    -0.084 Cl
ATOM     21  Cl  UNL     1       2.377   8.514 -12.977  1.00  0.00    -0.084 Cl
ENDBRANCH   7  14
TORSDOF 3
ENDMDL
MODEL 6
REMARK VINA RESULT:    -4.227      3.743      7.647
REMARK INTER + INTRA:          -5.140
REMARK INTER:                  -4.842
REMARK INTRA:                  -0.298
REMARK UNBOUND:                -0.296
REMARK SMILES O=C(O)c1ccc2nc(-c3cc(Cl)cc(Cl)c3)oc2c1
REMARK SMILES IDX 5 1 6 2 20 3 8 4 18 5 4 6 9 7 7 8 19 9 2 10 1 11 3 12 10 14
REMARK SMILES IDX 11 15 17 16 12 17 15 18 14 19 13 20 16 21
REMARK H PARENT 3 13
ROOT
ATOM      1  C   UNL     1       1.016   3.720  -5.390  1.00  0.00     0.018 A 
ATOM      2  C   UNL     1       1.599   4.280  -6.487  1.00  0.00     0.033 A 
ATOM      3  C   UNL     1      -0.938   5.126  -5.683  1.00  0.00     0.065 A 
ATOM      4  N   UNL     1       1.241   6.000  -8.303  1.00  0.00    -0.209 NA
ATOM      5  O   UNL     1      -0.733   6.657  -7.667  1.00  0.00    -0.436 OA
ATOM      6  C   UNL     1      -0.258   4.133  -4.975  1.00  0.00     0.063 A 
ATOM      7  C   UNL     1       0.251   6.815  -8.571  1.00  0.00     0.227 A 
ATOM      8  C   UNL     1       0.928   5.277  -7.206  1.00  0.00     0.110 A 
ATOM      9  C   UNL     1      -0.348   5.700  -6.793  1.00  0.00     0.156 A 
ENDROOT
BRANCH   6  10
ATOM     10  C   UNL     1      -0.882   3.516  -3.791  1.00  0.00     0.335 C 
ATOM     11  O   UNL     1      -0.261   2.710  -3.128  1.00  0.00    -0.246 OA
BRANCH  10  12
ATOM     12  O   UNL     1      -2.142   3.845  -3.444  1.00  0.00    -0.478 OA
ATOM     13  H   UNL     1      -2.563   3.310  -2.758  1.00  0.00     0.297 HD
ENDBRANCH  10  12
ENDBRANCH   6  10
BRANCH   7  14
ATOM     14  C   UNL     1       0.222   7.768  -9.700  1.00  0.00     0.040 A 
ATOM     15  C   UNL     1       1.199   7.708 -10.694  1.00  0.00     0.034 A 
ATOM     16  C   UNL     1      -0.784   8.734  -9.775  1.00  0.00     0.034 A 
ATOM     17  C   UNL     1       1.165   8.602 -11.746  1.00  0.00     0.043 A 
ATOM     18  C   UNL     1      -0.807   9.621 -10.832  1.00  0.00     0.043 A 
ATOM     19  C   UNL     1       0.165   9.557 -11.815  1.00  0.00     0.041 A 
ATOM     20  Cl  UNL     1       2.379   8.528 -12.985  1.00  0.00    -0.084 Cl
ATOM     21  Cl  UNL     1      -2.058  10.823 -10.927  1.00  0.00    -0.084 Cl
ENDBRANCH   7  14
TORSDOF 3
ENDMDL
MODEL 7
REMARK VINA RESULT:    -4.091      5.041      6.459
REMARK INTER + INTRA:          -4.984
REMARK INTER:                  -4.698
REMARK INTRA:                  -0.286
REMARK UNBOUND:                -0.296
REMARK SMILES O=C(O)c1ccc2nc(-c3cc(Cl)cc(Cl)c3)oc2c1
REMARK SMILES IDX 5 1 6 2 20 3 8 4 18 5 4 6 9 7 7 8 19 9 2 10 1 11 3 12 10 14
REMARK SMILES IDX 11 15 17 16 12 17 15 18 14 19 13 20 16 21
REMARK H PARENT 3 13
ROOT
ATOM      1  C   UNL     1       3.791   8.551 -16.187  1.00  0.00     0.018 A 
ATOM      2  C   UNL     1       3.154   9.237 -15.196  1.00  0.00     0.033 A 
ATOM      3  C   UNL     1       3.378   6.458 -15.034  1.00  0.00     0.065 A 
ATOM      4  N   UNL     1       1.949   8.943 -12.996  1.00  0.00    -0.209 NA
ATOM      5  O   UNL     1       2.131   6.778 -12.875  1.00  0.00    -0.436 OA
ATOM      6  C   UNL     1       3.909   7.156 -16.120  1.00  0.00     0.063 A 
ATOM      7  C   UNL     1       1.664   7.888 -12.273  1.00  0.00     0.227 A 
ATOM      8  C   UNL     1       2.616   8.549 -14.101  1.00  0.00     0.110 A 
ATOM      9  C   UNL     1       2.735   7.151 -14.025  1.00  0.00     0.156 A 
ENDROOT
BRANCH   6  10
ATOM     10  C   UNL     1       4.595   6.423 -17.201  1.00  0.00     0.335 C 
ATOM     11  O   UNL     1       3.993   5.587 -17.844  1.00  0.00    -0.246 OA
BRANCH  10  12
ATOM     12  O   UNL     1       5.889   6.681 -17.474  1.00  0.00    -0.478 OA
ATOM     13  H   UNL     1       6.402   7.130 -16.789  1.00  0.00     0.297 HD
ENDBRANCH  10  12
ENDBRANCH   6  10
BRANCH   7  14
ATOM     14  C   UNL     1       0.936   7.914 -10.987  1.00  0.00     0.040 A 
ATOM     15  C   UNL     1      -0.089   8.837 -10.780  1.00  0.00     0.034 A 
ATOM     16  C   UNL     1       1.274   7.015  -9.974  1.00  0.00     0.034 A 
ATOM     17  C   UNL     1      -0.765   8.855  -9.576  1.00  0.00     0.043 A 
ATOM     18  C   UNL     1       0.591   7.043  -8.774  1.00  0.00     0.043 A 
ATOM     19  C   UNL     1      -0.426   7.961  -8.575  1.00  0.00     0.041 A 
ATOM     20  Cl  UNL     1      -2.042  10.002  -9.316  1.00  0.00    -0.084 Cl
ATOM     21  Cl  UNL     1       1.009   5.925  -7.513  1.00  0.00    -0.084 Cl
ENDBRANCH   7  14
TORSDOF 3
ENDMDL
MODEL 8
REMARK VINA RESULT:    -4.090      5.039      6.628
REMARK INTER + INTRA:          -4.983
REMARK INTER:                  -4.698
REMARK INTRA:                  -0.286
REMARK UNBOUND:                -0.296
REMARK SMILES O=C(O)c1ccc2nc(-c3cc(Cl)cc(Cl)c3)oc2c1
REMARK SMILES IDX 5 1 6 2 20 3 8 4 18 5 4 6 9 7 7 8 19 9 2 10 1 11 3 12 10 14
REMARK SMILES IDX 11 15 17 16 12 17 15 18 14 19 13 20 16 21
REMARK H PARENT 3 13
ROOT
ATOM      1  C   UNL     1       3.792   8.574 -16.185  1.00  0.00     0.018 A 
ATOM      2  C   UNL     1       3.151   9.260 -15.197  1.00  0.00     0.033 A 
ATOM      3  C   UNL     1       3.390   6.482 -15.026  1.00  0.00     0.065 A 
ATOM      4  N   UNL     1       1.945   8.966 -12.997  1.00  0.00    -0.209 NA
ATOM      5  O   UNL     1       2.139   6.803 -12.868  1.00  0.00    -0.436 OA
ATOM      6  C   UNL     1       3.918   7.179 -16.114  1.00  0.00     0.063 A 
ATOM      7  C   UNL     1       1.665   7.912 -12.271  1.00  0.00     0.227 A 
ATOM      8  C   UNL     1       2.616   8.573 -14.100  1.00  0.00     0.110 A 
ATOM      9  C   UNL     1       2.742   7.175 -14.019  1.00  0.00     0.156 A 
ENDROOT
BRANCH   6  10
ATOM     10  C   UNL     1       4.609   6.448 -17.191  1.00  0.00     0.335 C 
ATOM     11  O   UNL     1       4.008   5.617 -17.843  1.00  0.00    -0.246 OA
BRANCH  10  12
ATOM     12  O   UNL     1       5.907   6.698 -17.452  1.00  0.00    -0.478 OA
ATOM     13  H   UNL     1       6.496   6.802 -16.692  1.00  0.00     0.297 HD
ENDBRANCH  10  12
ENDBRANCH   6  10
BRANCH   7  14
ATOM     14  C   UNL     1       0.936   7.938 -10.986  1.00  0.00     0.040 A 
ATOM     15  C   UNL     1       1.282   7.051  -9.966  1.00  0.00     0.034 A 
ATOM     16  C   UNL     1      -0.102   8.850 -10.788  1.00  0.00     0.034 A 
ATOM     17  C   UNL     1       0.598   7.081  -8.766  1.00  0.00     0.043 A 
ATOM     18  C   UNL     1      -0.778   8.871  -9.584  1.00  0.00     0.043 A 
ATOM     19  C   UNL     1      -0.430   7.988  -8.576  1.00  0.00     0.041 A 
ATOM     20  Cl  UNL     1       1.027   5.979  -7.496  1.00  0.00    -0.084 Cl
ATOM     21  Cl  UNL     1      -2.070  10.005  -9.336  1.00  0.00    -0.084 Cl
ENDBRANCH   7  14
TORSDOF 3
ENDMDL
MODEL 9
REMARK VINA RESULT:    -3.632      4.291      7.668
REMARK INTER + INTRA:          -4.458
REMARK INTER:                  -4.171
REMARK INTRA:                  -0.288
REMARK UNBOUND:                -0.296
REMARK SMILES O=C(O)c1ccc2nc(-c3cc(Cl)cc(Cl)c3)oc2c1
REMARK SMILES IDX 5 1 6 2 20 3 8 4 18 5 4 6 9 7 7 8 19 9 2 10 1 11 3 12 10 14
REMARK SMILES IDX 11 15 17 16 12 17 15 18 14 19 13 20 16 21
REMARK H PARENT 3 13
ROOT
ATOM      1  C   UNL     1      -0.340   4.837  -8.049  1.00  0.00     0.018 A 
ATOM      2  C   UNL     1      -1.196   5.519  -8.861  1.00  0.00     0.033 A 
ATOM      3  C   UNL     1       0.995   6.837  -7.737  1.00  0.00     0.065 A 
ATOM      4  N   UNL     1      -1.630   7.791  -9.876  1.00  0.00    -0.209 NA
ATOM      5  O   UNL     1       0.082   8.809  -9.001  1.00  0.00    -0.436 OA
ATOM      6  C   UNL     1       0.763   5.485  -7.476  1.00  0.00     0.063 A 
ATOM      7  C   UNL     1      -0.998   8.936  -9.794  1.00  0.00     0.227 A 
ATOM      8  C   UNL     1      -0.975   6.875  -9.131  1.00  0.00     0.110 A 
ATOM      9  C   UNL     1       0.132   7.531  -8.565  1.00  0.00     0.156 A 
ENDROOT
BRANCH   6  10
ATOM     10  C   UNL     1       1.679   4.739  -6.595  1.00  0.00     0.335 C 
ATOM     11  O   UNL     1       1.693   3.525  -6.622  1.00  0.00    -0.246 OA
BRANCH  10  12
ATOM     12  O   UNL     1       2.500   5.403  -5.757  1.00  0.00    -0.478 OA
ATOM     13  H   UNL     1       2.504   6.368  -5.819  1.00  0.00     0.297 HD
ENDBRANCH  10  12
ENDBRANCH   6  10
BRANCH   7  14
ATOM     14  C   UNL     1      -1.411  10.181 -10.473  1.00  0.00     0.040 A 
ATOM     15  C   UNL     1      -1.848  11.275  -9.726  1.00  0.00     0.034 A 
ATOM     16  C   UNL     1      -1.366  10.267 -11.866  1.00  0.00     0.034 A 
ATOM     17  C   UNL     1      -2.232  12.437 -10.367  1.00  0.00     0.043 A 
ATOM     18  C   UNL     1      -1.752  11.434 -12.496  1.00  0.00     0.043 A 
ATOM     19  C   UNL     1      -2.185  12.516 -11.749  1.00  0.00     0.041 A 
ATOM     20  Cl  UNL     1      -2.775  13.800  -9.439  1.00  0.00    -0.084 Cl
ATOM     21  Cl  UNL     1      -1.697  11.543 -14.228  1.00  0.00    -0.084 Cl
ENDBRANCH   7  14
TORSDOF 3
ENDMDL
