MODEL 1
REMARK VINA RESULT:    -4.303      0.000      0.000
REMARK INTER + INTRA:          -5.228
REMARK INTER:                  -4.932
REMARK INTRA:                  -0.296
REMARK UNBOUND:                -0.296
REMARK SMILES O=C(O)c1ccc2nc(-c3cc(Cl)cc(Cl)c3)oc2c1
REMARK SMILES IDX 5 1 6 2 20 3 8 4 18 5 4 6 9 7 7 8 19 9 2 10 1 11 3 12 10 14
REMARK SMILES IDX 11 15 17 16 12 17 15 18 14 19 13 20 16 21
REMARK H PARENT 3 13
ROOT
ATOM      1  C   UNL     1     -12.719   4.239   6.861  1.00  0.00     0.018 A 
ATOM      2  C   UNL     1     -11.636   3.413   6.833  1.00  0.00     0.033 A 
ATOM      3  C   UNL     1     -12.090   5.177   4.715  1.00  0.00     0.065 A 
ATOM      4  N   UNL     1      -9.626   2.773   5.443  1.00  0.00    -0.209 NA
ATOM      5  O   UNL     1      -9.984   4.154   3.799  1.00  0.00    -0.436 OA
ATOM      6  C   UNL     1     -12.961   5.129   5.805  1.00  0.00     0.063 A 
ATOM      7  C   UNL     1      -9.175   3.194   4.287  1.00  0.00     0.227 A 
ATOM      8  C   UNL     1     -10.754   3.451   5.746  1.00  0.00     0.110 A 
ATOM      9  C   UNL     1     -10.987   4.343   4.685  1.00  0.00     0.156 A 
ENDROOT
BRANCH   6  10
ATOM     10  C   UNL     1     -14.139   6.014   5.843  1.00  0.00     0.335 C 
ATOM     11  O   UNL     1     -14.349   6.787   4.930  1.00  0.00    -0.246 OA
BRANCH  10  12
ATOM     12  O   UNL     1     -14.984   5.967   6.893  1.00  0.00    -0.478 OA
ATOM     13  H   UNL     1     -15.444   6.785   7.123  1.00  0.00     0.297 HD
ENDBRANCH  10  12
ENDBRANCH   6  10
BRANCH   7  14
ATOM     14  C   UNL     1      -7.957   2.691   3.619  1.00  0.00     0.040 A 
ATOM     15  C   UNL     1      -7.520   1.386   3.850  1.00  0.00     0.034 A 
ATOM     16  C   UNL     1      -7.239   3.519   2.755  1.00  0.00     0.034 A 
ATOM     17  C   UNL     1      -6.381   0.921   3.221  1.00  0.00     0.043 A 
ATOM     18  C   UNL     1      -6.102   3.043   2.132  1.00  0.00     0.043 A 
ATOM     19  C   UNL     1      -5.674   1.747   2.365  1.00  0.00     0.041 A 
ATOM     20  Cl  UNL     1      -5.835  -0.702   3.506  1.00  0.00    -0.084 Cl
ATOM     21  Cl  UNL     1      -5.208   4.072   1.057  1.00  0.00    -0.084 Cl
ENDBRANCH   7  14
TORSDOF 3
ENDMDL
MODEL 2
REMARK VINA RESULT:    -4.302      0.014      2.019
REMARK INTER + INTRA:          -5.226
REMARK INTER:                  -4.930
REMARK INTRA:                  -0.296
REMARK UNBOUND:                -0.296
REMARK SMILES O=C(O)c1ccc2nc(-c3cc(Cl)cc(Cl)c3)oc2c1
REMARK SMILES IDX 5 1 6 2 20 3 8 4 18 5 4 6 9 7 7 8 19 9 2 10 1 11 3 12 10 14
REMARK SMILES IDX 11 15 17 16 12 17 15 18 14 19 13 20 16 21
REMARK H PARENT 3 13
ROOT
ATOM      1  C   UNL     1     -12.716   4.223   6.863  1.00  0.00     0.018 A 
ATOM      2  C   UNL     1     -11.633   3.396   6.830  1.00  0.00     0.033 A 
ATOM      3  C   UNL     1     -12.085   5.173   4.723  1.00  0.00     0.065 A 
ATOM      4  N   UNL     1      -9.622   2.766   5.438  1.00  0.00    -0.209 NA
ATOM      5  O   UNL     1      -9.977   4.156   3.803  1.00  0.00    -0.436 OA
ATOM      6  C   UNL     1     -12.957   5.118   5.812  1.00  0.00     0.063 A 
ATOM      7  C   UNL     1      -9.169   3.194   4.286  1.00  0.00     0.227 A 
ATOM      8  C   UNL     1     -10.750   3.441   5.745  1.00  0.00     0.110 A 
ATOM      9  C   UNL     1     -10.982   4.340   4.689  1.00  0.00     0.156 A 
ENDROOT
BRANCH   6  10
ATOM     10  C   UNL     1     -14.135   6.003   5.855  1.00  0.00     0.335 C 
ATOM     11  O   UNL     1     -14.353   6.769   4.938  1.00  0.00    -0.246 OA
BRANCH  10  12
ATOM     12  O   UNL     1     -14.970   5.963   6.912  1.00  0.00    -0.478 OA
ATOM     13  H   UNL     1     -14.626   6.286   7.756  1.00  0.00     0.297 HD
ENDBRANCH  10  12
ENDBRANCH   6  10
BRANCH   7  14
ATOM     14  C   UNL     1      -7.951   2.694   3.616  1.00  0.00     0.040 A 
ATOM     15  C   UNL     1      -7.238   3.523   2.749  1.00  0.00     0.034 A 
ATOM     16  C   UNL     1      -7.508   1.390   3.848  1.00  0.00     0.034 A 
ATOM     17  C   UNL     1      -6.099   3.051   2.126  1.00  0.00     0.043 A 
ATOM     18  C   UNL     1      -6.369   0.929   3.220  1.00  0.00     0.043 A 
ATOM     19  C   UNL     1      -5.666   1.756   2.360  1.00  0.00     0.041 A 
ATOM     20  Cl  UNL     1      -5.210   4.080   1.048  1.00  0.00    -0.084 Cl
ATOM     21  Cl  UNL     1      -5.817  -0.692   3.506  1.00  0.00    -0.084 Cl
ENDBRANCH   7  14
TORSDOF 3
ENDMDL
MODEL 3
REMARK VINA RESULT:    -4.290      1.777      2.470
REMARK INTER + INTRA:          -5.213
REMARK INTER:                  -4.918
REMARK INTRA:                  -0.296
REMARK UNBOUND:                -0.296
REMARK SMILES O=C(O)c1ccc2nc(-c3cc(Cl)cc(Cl)c3)oc2c1
REMARK SMILES IDX 5 1 6 2 20 3 8 4 18 5 4 6 9 7 7 8 19 9 2 10 1 11 3 12 10 14
REMARK SMILES IDX 11 15 17 16 12 17 15 18 14 19 13 20 16 21
REMARK H PARENT 3 13
ROOT
ATOM      1  C   UNL     1     -12.801   4.221   6.764  1.00  0.00     0.018 A 
ATOM      2  C   UNL     1     -12.052   4.502   5.661  1.00  0.00     0.033 A 
ATOM      3  C   UNL     1     -11.158   2.595   7.496  1.00  0.00     0.065 A 
ATOM      4  N   UNL     1      -9.903   3.896   4.478  1.00  0.00    -0.209 NA
ATOM      5  O   UNL     1      -9.217   2.409   5.909  1.00  0.00    -0.436 OA
ATOM      6  C   UNL     1     -12.365   3.268   7.695  1.00  0.00     0.063 A 
ATOM      7  C   UNL     1      -8.944   3.049   4.756  1.00  0.00     0.227 A 
ATOM      8  C   UNL     1     -10.839   3.835   5.449  1.00  0.00     0.110 A 
ATOM      9  C   UNL     1     -10.397   2.874   6.375  1.00  0.00     0.156 A 
ENDROOT
BRANCH   6  10
ATOM     10  C   UNL     1     -13.181   2.977   8.887  1.00  0.00     0.335 C 
ATOM     11  O   UNL     1     -12.866   2.070   9.632  1.00  0.00    -0.246 OA
BRANCH  10  12
ATOM     12  O   UNL     1     -14.277   3.715   9.150  1.00  0.00    -0.478 OA
ATOM     13  H   UNL     1     -14.298   4.613   8.794  1.00  0.00     0.297 HD
ENDBRANCH  10  12
ENDBRANCH   6  10
BRANCH   7  14
ATOM     14  C   UNL     1      -7.741   2.828   3.927  1.00  0.00     0.040 A 
ATOM     15  C   UNL     1      -7.097   1.591   3.942  1.00  0.00     0.034 A 
ATOM     16  C   UNL     1      -7.245   3.859   3.125  1.00  0.00     0.034 A 
ATOM     17  C   UNL     1      -5.974   1.391   3.163  1.00  0.00     0.043 A 
ATOM     18  C   UNL     1      -6.121   3.647   2.352  1.00  0.00     0.043 A 
ATOM     19  C   UNL     1      -5.486   2.417   2.371  1.00  0.00     0.041 A 
ATOM     20  Cl  UNL     1      -5.171  -0.148   3.180  1.00  0.00    -0.084 Cl
ATOM     21  Cl  UNL     1      -5.502   4.926   1.354  1.00  0.00    -0.084 Cl
ENDBRANCH   7  14
TORSDOF 3
ENDMDL
MODEL 4
REMARK VINA RESULT:    -4.288      1.773      3.172
REMARK INTER + INTRA:          -5.211
REMARK INTER:                  -4.915
REMARK INTRA:                  -0.296
REMARK UNBOUND:                -0.296
REMARK SMILES O=C(O)c1ccc2nc(-c3cc(Cl)cc(Cl)c3)oc2c1
REMARK SMILES IDX 5 1 6 2 20 3 8 4 18 5 4 6 9 7 7 8 19 9 2 10 1 11 3 12 10 14
REMARK SMILES IDX 11 15 17 16 12 17 15 18 14 19 13 20 16 21
REMARK H PARENT 3 13
ROOT
ATOM      1  C   UNL     1     -12.799   4.226   6.758  1.00  0.00     0.018 A 
ATOM      2  C   UNL     1     -12.051   4.506   5.653  1.00  0.00     0.033 A 
ATOM      3  C   UNL     1     -11.152   2.603   7.490  1.00  0.00     0.065 A 
ATOM      4  N   UNL     1      -9.905   3.900   4.467  1.00  0.00    -0.209 NA
ATOM      5  O   UNL     1      -9.214   2.416   5.900  1.00  0.00    -0.436 OA
ATOM      6  C   UNL     1     -12.359   3.275   7.690  1.00  0.00     0.063 A 
ATOM      7  C   UNL     1      -8.944   3.054   4.746  1.00  0.00     0.227 A 
ATOM      8  C   UNL     1     -10.838   3.839   5.441  1.00  0.00     0.110 A 
ATOM      9  C   UNL     1     -10.394   2.881   6.368  1.00  0.00     0.156 A 
ENDROOT
BRANCH   6  10
ATOM     10  C   UNL     1     -13.173   2.986   8.884  1.00  0.00     0.335 C 
ATOM     11  O   UNL     1     -12.859   2.078   9.628  1.00  0.00    -0.246 OA
BRANCH  10  12
ATOM     12  O   UNL     1     -14.267   3.727   9.151  1.00  0.00    -0.478 OA
ATOM     13  H   UNL     1     -14.354   4.566   8.680  1.00  0.00     0.297 HD
ENDBRANCH  10  12
ENDBRANCH   6  10
BRANCH   7  14
ATOM     14  C   UNL     1      -7.742   2.833   3.915  1.00  0.00     0.040 A 
ATOM     15  C   UNL     1      -7.247   3.860   3.111  1.00  0.00     0.034 A 
ATOM     16  C   UNL     1      -7.098   1.594   3.931  1.00  0.00     0.034 A 
ATOM     17  C   UNL     1      -6.123   3.648   2.338  1.00  0.00     0.043 A 
ATOM     18  C   UNL     1      -5.976   1.393   3.153  1.00  0.00     0.043 A 
ATOM     19  C   UNL     1      -5.489   2.417   2.357  1.00  0.00     0.041 A 
ATOM     20  Cl  UNL     1      -5.505   4.924   1.337  1.00  0.00    -0.084 Cl
ATOM     21  Cl  UNL     1      -5.173  -0.146   3.171  1.00  0.00    -0.084 Cl
ENDBRANCH   7  14
TORSDOF 3
ENDMDL
MODEL 5
REMARK VINA RESULT:    -4.041      3.931      7.604
REMARK INTER + INTRA:          -4.928
REMARK INTER:                  -4.630
REMARK INTRA:                  -0.298
REMARK UNBOUND:                -0.296
REMARK SMILES O=C(O)c1ccc2nc(-c3cc(Cl)cc(Cl)c3)oc2c1
REMARK SMILES IDX 5 1 6 2 20 3 8 4 18 5 4 6 9 7 7 8 19 9 2 10 1 11 3 12 10 14
REMARK SMILES IDX 11 15 17 16 12 17 15 18 14 19 13 20 16 21
REMARK H PARENT 3 13
ROOT
ATOM      1  C   UNL     1      -5.907   3.068   1.925  1.00  0.00     0.018 A 
ATOM      2  C   UNL     1      -7.004   3.836   2.180  1.00  0.00     0.033 A 
ATOM      3  C   UNL     1      -6.480   1.596   3.764  1.00  0.00     0.065 A 
ATOM      4  N   UNL     1      -8.996   4.055   3.718  1.00  0.00    -0.209 NA
ATOM      5  O   UNL     1      -8.579   2.312   4.951  1.00  0.00    -0.436 OA
ATOM      6  C   UNL     1      -5.632   1.940   2.710  1.00  0.00     0.063 A 
ATOM      7  C   UNL     1      -9.415   3.344   4.735  1.00  0.00     0.227 A 
ATOM      8  C   UNL     1      -7.863   3.503   3.234  1.00  0.00     0.110 A 
ATOM      9  C   UNL     1      -7.592   2.375   4.029  1.00  0.00     0.156 A 
ENDROOT
BRANCH   6  10
ATOM     10  C   UNL     1      -4.446   1.114   2.421  1.00  0.00     0.335 C 
ATOM     11  O   UNL     1      -3.688   1.432   1.527  1.00  0.00    -0.246 OA
BRANCH  10  12
ATOM     12  O   UNL     1      -4.204   0.005   3.148  1.00  0.00    -0.478 OA
ATOM     13  H   UNL     1      -4.956  -0.394   3.605  1.00  0.00     0.297 HD
ENDBRANCH  10  12
ENDBRANCH   6  10
BRANCH   7  14
ATOM     14  C   UNL     1     -10.628   3.633   5.528  1.00  0.00     0.040 A 
ATOM     15  C   UNL     1     -10.845   2.979   6.741  1.00  0.00     0.034 A 
ATOM     16  C   UNL     1     -11.562   4.563   5.066  1.00  0.00     0.034 A 
ATOM     17  C   UNL     1     -11.979   3.255   7.478  1.00  0.00     0.043 A 
ATOM     18  C   UNL     1     -12.692   4.830   5.812  1.00  0.00     0.043 A 
ATOM     19  C   UNL     1     -12.902   4.178   7.015  1.00  0.00     0.041 A 
ATOM     20  Cl  UNL     1     -12.251   2.442   8.988  1.00  0.00    -0.084 Cl
ATOM     21  Cl  UNL     1     -13.855   5.986   5.239  1.00  0.00    -0.084 Cl
ENDBRANCH   7  14
TORSDOF 3
ENDMDL
MODEL 6
REMARK VINA RESULT:    -4.039      3.931      7.831
REMARK INTER + INTRA:          -4.926
REMARK INTER:                  -4.628
REMARK INTRA:                  -0.298
REMARK UNBOUND:                -0.296
REMARK SMILES O=C(O)c1ccc2nc(-c3cc(Cl)cc(Cl)c3)oc2c1
REMARK SMILES IDX 5 1 6 2 20 3 8 4 18 5 4 6 9 7 7 8 19 9 2 10 1 11 3 12 10 14
REMARK SMILES IDX 11 15 17 16 12 17 15 18 14 19 13 20 16 21
REMARK H PARENT 3 13
ROOT
ATOM      1  C   UNL     1      -5.904   3.071   1.926  1.00  0.00     0.018 A 
ATOM      2  C   UNL     1      -7.000   3.839   2.181  1.00  0.00     0.033 A 
ATOM      3  C   UNL     1      -6.481   1.596   3.763  1.00  0.00     0.065 A 
ATOM      4  N   UNL     1      -8.993   4.058   3.718  1.00  0.00    -0.209 NA
ATOM      5  O   UNL     1      -8.579   2.312   4.949  1.00  0.00    -0.436 OA
ATOM      6  C   UNL     1      -5.631   1.941   2.710  1.00  0.00     0.063 A 
ATOM      7  C   UNL     1      -9.414   3.346   4.734  1.00  0.00     0.227 A 
ATOM      8  C   UNL     1      -7.860   3.505   3.235  1.00  0.00     0.110 A 
ATOM      9  C   UNL     1      -7.591   2.376   4.028  1.00  0.00     0.156 A 
ENDROOT
BRANCH   6  10
ATOM     10  C   UNL     1      -4.446   1.113   2.421  1.00  0.00     0.335 C 
ATOM     11  O   UNL     1      -3.688   1.430   1.526  1.00  0.00    -0.246 OA
BRANCH  10  12
ATOM     12  O   UNL     1      -4.203   0.005   3.148  1.00  0.00    -0.478 OA
ATOM     13  H   UNL     1      -3.282  -0.181   3.370  1.00  0.00     0.297 HD
ENDBRANCH  10  12
ENDBRANCH   6  10
BRANCH   7  14
ATOM     14  C   UNL     1     -10.627   3.635   5.527  1.00  0.00     0.040 A 
ATOM     15  C   UNL     1     -11.561   4.564   5.065  1.00  0.00     0.034 A 
ATOM     16  C   UNL     1     -10.843   2.981   6.741  1.00  0.00     0.034 A 
ATOM     17  C   UNL     1     -12.693   4.829   5.811  1.00  0.00     0.043 A 
ATOM     18  C   UNL     1     -11.978   3.255   7.477  1.00  0.00     0.043 A 
ATOM     19  C   UNL     1     -12.901   4.177   7.014  1.00  0.00     0.041 A 
ATOM     20  Cl  UNL     1     -13.856   5.984   5.239  1.00  0.00    -0.084 Cl
ATOM     21  Cl  UNL     1     -12.248   2.442   8.988  1.00  0.00    -0.084 Cl
ENDBRANCH   7  14
TORSDOF 3
ENDMDL
MODEL 7
REMARK VINA RESULT:    -3.826      4.699      6.207
REMARK INTER + INTRA:          -4.681
REMARK INTER:                  -4.400
REMARK INTRA:                  -0.281
REMARK UNBOUND:                -0.296
REMARK SMILES O=C(O)c1ccc2nc(-c3cc(Cl)cc(Cl)c3)oc2c1
REMARK SMILES IDX 5 1 6 2 20 3 8 4 18 5 4 6 9 7 7 8 19 9 2 10 1 11 3 12 10 14
REMARK SMILES IDX 11 15 17 16 12 17 15 18 14 19 13 20 16 21
REMARK H PARENT 3 13
ROOT
ATOM      1  C   UNL     1     -12.149   2.460  12.715  1.00  0.00     0.018 A 
ATOM      2  C   UNL     1     -11.185   2.716  11.786  1.00  0.00     0.033 A 
ATOM      3  C   UNL     1     -13.846   2.437  10.983  1.00  0.00     0.065 A 
ATOM      4  N   UNL     1     -10.818   3.087   9.314  1.00  0.00    -0.209 NA
ATOM      5  O   UNL     1     -12.893   2.873   8.697  1.00  0.00    -0.436 OA
ATOM      6  C   UNL     1     -13.488   2.315  12.327  1.00  0.00     0.063 A 
ATOM      7  C   UNL     1     -11.632   3.104   8.288  1.00  0.00     0.227 A 
ATOM      8  C   UNL     1     -11.530   2.841  10.434  1.00  0.00     0.110 A 
ATOM      9  C   UNL     1     -12.872   2.703  10.038  1.00  0.00     0.156 A 
ENDROOT
BRANCH   6  10
ATOM     10  C   UNL     1     -14.521   2.032  13.339  1.00  0.00     0.335 C 
ATOM     11  O   UNL     1     -15.151   2.944  13.836  1.00  0.00    -0.246 OA
BRANCH  10  12
ATOM     12  O   UNL     1     -14.765   0.761  13.716  1.00  0.00    -0.478 OA
ATOM     13  H   UNL     1     -14.844   0.102  13.013  1.00  0.00     0.297 HD
ENDBRANCH  10  12
ENDBRANCH   6  10
BRANCH   7  14
ATOM     14  C   UNL     1     -11.224   3.342   6.887  1.00  0.00     0.040 A 
ATOM     15  C   UNL     1     -10.105   2.696   6.363  1.00  0.00     0.034 A 
ATOM     16  C   UNL     1     -11.959   4.217   6.084  1.00  0.00     0.034 A 
ATOM     17  C   UNL     1      -9.730   2.922   5.053  1.00  0.00     0.043 A 
ATOM     18  C   UNL     1     -11.574   4.435   4.776  1.00  0.00     0.043 A 
ATOM     19  C   UNL     1     -10.462   3.790   4.262  1.00  0.00     0.041 A 
ATOM     20  Cl  UNL     1      -8.338   2.118   4.399  1.00  0.00    -0.084 Cl
ATOM     21  Cl  UNL     1     -12.485   5.523   3.775  1.00  0.00    -0.084 Cl
ENDBRANCH   7  14
TORSDOF 3
ENDMDL
MODEL 8
REMARK VINA RESULT:    -3.824      4.699      6.378
REMARK INTER + INTRA:          -4.679
REMARK INTER:                  -4.397
REMARK INTRA:                  -0.281
REMARK UNBOUND:                -0.296
REMARK SMILES O=C(O)c1ccc2nc(-c3cc(Cl)cc(Cl)c3)oc2c1
REMARK SMILES IDX 5 1 6 2 20 3 8 4 18 5 4 6 9 7 7 8 19 9 2 10 1 11 3 12 10 14
REMARK SMILES IDX 11 15 17 16 12 17 15 18 14 19 13 20 16 21
REMARK H PARENT 3 13
ROOT
ATOM      1  C   UNL     1     -12.151   2.452  12.708  1.00  0.00     0.018 A 
ATOM      2  C   UNL     1     -11.189   2.709  11.778  1.00  0.00     0.033 A 
ATOM      3  C   UNL     1     -13.852   2.438  10.980  1.00  0.00     0.065 A 
ATOM      4  N   UNL     1     -10.826   3.084   9.306  1.00  0.00    -0.209 NA
ATOM      5  O   UNL     1     -12.903   2.876   8.693  1.00  0.00    -0.436 OA
ATOM      6  C   UNL     1     -13.492   2.312  12.323  1.00  0.00     0.063 A 
ATOM      7  C   UNL     1     -11.642   3.105   8.282  1.00  0.00     0.227 A 
ATOM      8  C   UNL     1     -11.536   2.837  10.428  1.00  0.00     0.110 A 
ATOM      9  C   UNL     1     -12.879   2.703  10.034  1.00  0.00     0.156 A 
ENDROOT
BRANCH   6  10
ATOM     10  C   UNL     1     -14.523   2.028  13.337  1.00  0.00     0.335 C 
ATOM     11  O   UNL     1     -15.175   2.938  13.811  1.00  0.00    -0.246 OA
BRANCH  10  12
ATOM     12  O   UNL     1     -14.743   0.761  13.740  1.00  0.00    -0.478 OA
ATOM     13  H   UNL     1     -15.428   0.265  13.274  1.00  0.00     0.297 HD
ENDBRANCH  10  12
ENDBRANCH   6  10
BRANCH   7  14
ATOM     14  C   UNL     1     -11.236   3.346   6.881  1.00  0.00     0.040 A 
ATOM     15  C   UNL     1     -11.971   4.220   6.079  1.00  0.00     0.034 A 
ATOM     16  C   UNL     1     -10.117   2.698   6.355  1.00  0.00     0.034 A 
ATOM     17  C   UNL     1     -11.586   4.441   4.772  1.00  0.00     0.043 A 
ATOM     18  C   UNL     1      -9.743   2.927   5.046  1.00  0.00     0.043 A 
ATOM     19  C   UNL     1     -10.475   3.796   4.256  1.00  0.00     0.041 A 
ATOM     20  Cl  UNL     1     -12.498   5.529   3.772  1.00  0.00    -0.084 Cl
ATOM     21  Cl  UNL     1      -8.351   2.122   4.390  1.00  0.00    -0.084 Cl
ENDBRANCH   7  14
TORSDOF 3
ENDMDL
MODEL 9
REMARK VINA RESULT:    -3.598      4.303      7.669
REMARK INTER + INTRA:          -4.420
REMARK INTER:                  -4.132
REMARK INTRA:                  -0.288
REMARK UNBOUND:                -0.296
REMARK SMILES O=C(O)c1ccc2nc(-c3cc(Cl)cc(Cl)c3)oc2c1
REMARK SMILES IDX 5 1 6 2 20 3 8 4 18 5 4 6 9 7 7 8 19 9 2 10 1 11 3 12 10 14
REMARK SMILES IDX 11 15 17 16 12 17 15 18 14 19 13 20 16 21
REMARK H PARENT 3 13
ROOT
ATOM      1  C   UNL     1      -7.420   3.459   4.739  1.00  0.00     0.018 A 
ATOM      2  C   UNL     1      -8.192   4.556   4.980  1.00  0.00     0.033 A 
ATOM      3  C   UNL     1      -9.399   2.139   4.270  1.00  0.00     0.065 A 
ATOM      4  N   UNL     1     -10.587   5.358   5.045  1.00  0.00    -0.209 NA
ATOM      5  O   UNL     1     -11.519   3.470   4.497  1.00  0.00    -0.436 OA
ATOM      6  C   UNL     1      -8.011   2.239   4.380  1.00  0.00     0.063 A 
ATOM      7  C   UNL     1     -11.730   4.760   4.820  1.00  0.00     0.227 A 
ATOM      8  C   UNL     1      -9.586   4.468   4.873  1.00  0.00     0.110 A 
ATOM      9  C   UNL     1     -10.186   3.248   4.518  1.00  0.00     0.156 A 
ENDROOT
BRANCH   6  10
ATOM     10  C   UNL     1      -7.165   1.062   4.116  1.00  0.00     0.335 C 
ATOM     11  O   UNL     1      -6.018   1.036   4.515  1.00  0.00    -0.246 OA
BRANCH  10  12
ATOM     12  O   UNL     1      -7.663   0.013   3.432  1.00  0.00    -0.478 OA
ATOM     13  H   UNL     1      -7.371  -0.868   3.704  1.00  0.00     0.297 HD
ENDBRANCH  10  12
ENDBRANCH   6  10
BRANCH   7  14
ATOM     14  C   UNL     1     -13.056   5.406   4.910  1.00  0.00     0.040 A 
ATOM     15  C   UNL     1     -13.540   5.846   6.142  1.00  0.00     0.034 A 
ATOM     16  C   UNL     1     -13.830   5.578   3.761  1.00  0.00     0.034 A 
ATOM     17  C   UNL     1     -14.779   6.451   6.219  1.00  0.00     0.043 A 
ATOM     18  C   UNL     1     -15.068   6.184   3.850  1.00  0.00     0.043 A 
ATOM     19  C   UNL     1     -15.542   6.618   5.076  1.00  0.00     0.041 A 
ATOM     20  Cl  UNL     1     -15.383   7.000   7.751  1.00  0.00    -0.084 Cl
ATOM     21  Cl  UNL     1     -16.032   6.398   2.422  1.00  0.00    -0.084 Cl
ENDBRANCH   7  14
TORSDOF 3
ENDMDL
