MODEL 1
REMARK VINA RESULT:    -5.056      0.000      0.000
REMARK INTER + INTRA:          -6.081
REMARK INTER:                  -5.795
REMARK INTRA:                  -0.287
REMARK UNBOUND:                -0.287
REMARK SMILES O=C(O)c1ccc2nc(-c3cc(Cl)cc(Cl)c3)oc2c1
REMARK SMILES IDX 5 1 6 2 20 3 8 4 18 5 4 6 9 7 7 8 19 9 2 10 1 11 3 12 10 14
REMARK SMILES IDX 11 15 17 16 12 17 15 18 14 19 13 20 16 21
REMARK H PARENT 3 13
ROOT
ATOM      1  C   UNL     1       2.047   0.316  -6.933  1.00  0.00     0.018 A 
ATOM      2  C   UNL     1       3.062   0.857  -7.664  1.00  0.00     0.033 A 
ATOM      3  C   UNL     1       2.552  -1.885  -7.816  1.00  0.00     0.065 A 
ATOM      4  N   UNL     1       4.889   0.279  -9.310  1.00  0.00    -0.209 NA
ATOM      5  O   UNL     1       4.482  -1.855  -9.427  1.00  0.00    -0.436 OA
ATOM      6  C   UNL     1       1.780  -1.059  -6.997  1.00  0.00     0.063 A 
ATOM      7  C   UNL     1       5.263  -0.848  -9.862  1.00  0.00     0.227 A 
ATOM      8  C   UNL     1       3.844   0.040  -8.489  1.00  0.00     0.110 A 
ATOM      9  C   UNL     1       3.579  -1.339  -8.563  1.00  0.00     0.156 A 
ENDROOT
BRANCH   6  10
ATOM     10  C   UNL     1       0.683  -1.633  -6.198  1.00  0.00     0.335 C 
ATOM     11  O   UNL     1      -0.062  -0.903  -5.576  1.00  0.00    -0.246 OA
BRANCH  10  12
ATOM     12  O   UNL     1       0.508  -2.969  -6.154  1.00  0.00    -0.478 OA
ATOM     13  H   UNL     1       0.231  -3.348  -5.310  1.00  0.00     0.297 HD
ENDBRANCH  10  12
ENDBRANCH   6  10
BRANCH   7  14
ATOM     14  C   UNL     1       6.377  -0.993 -10.821  1.00  0.00     0.040 A 
ATOM     15  C   UNL     1       6.137  -0.905 -12.193  1.00  0.00     0.034 A 
ATOM     16  C   UNL     1       7.675  -1.219 -10.359  1.00  0.00     0.034 A 
ATOM     17  C   UNL     1       7.183  -1.040 -13.085  1.00  0.00     0.043 A 
ATOM     18  C   UNL     1       8.712  -1.352 -11.260  1.00  0.00     0.043 A 
ATOM     19  C   UNL     1       8.468  -1.264 -12.619  1.00  0.00     0.041 A 
ATOM     20  Cl  UNL     1       6.887  -0.930 -14.792  1.00  0.00    -0.084 Cl
ATOM     21  Cl  UNL     1      10.327  -1.633 -10.687  1.00  0.00    -0.084 Cl
ENDBRANCH   7  14
TORSDOF 3
ENDMDL
MODEL 2
REMARK VINA RESULT:    -5.055      0.025      2.020
REMARK INTER + INTRA:          -6.081
REMARK INTER:                  -5.794
REMARK INTRA:                  -0.287
REMARK UNBOUND:                -0.287
REMARK SMILES O=C(O)c1ccc2nc(-c3cc(Cl)cc(Cl)c3)oc2c1
REMARK SMILES IDX 5 1 6 2 20 3 8 4 18 5 4 6 9 7 7 8 19 9 2 10 1 11 3 12 10 14
REMARK SMILES IDX 11 15 17 16 12 17 15 18 14 19 13 20 16 21
REMARK H PARENT 3 13
ROOT
ATOM      1  C   UNL     1       2.084   0.319  -6.912  1.00  0.00     0.018 A 
ATOM      2  C   UNL     1       3.101   0.858  -7.642  1.00  0.00     0.033 A 
ATOM      3  C   UNL     1       2.566  -1.878  -7.818  1.00  0.00     0.065 A 
ATOM      4  N   UNL     1       4.917   0.279  -9.300  1.00  0.00    -0.209 NA
ATOM      5  O   UNL     1       4.491  -1.851  -9.435  1.00  0.00    -0.436 OA
ATOM      6  C   UNL     1       1.805  -1.053  -6.989  1.00  0.00     0.063 A 
ATOM      7  C   UNL     1       5.279  -0.847  -9.864  1.00  0.00     0.227 A 
ATOM      8  C   UNL     1       3.873   0.041  -8.478  1.00  0.00     0.110 A 
ATOM      9  C   UNL     1       3.596  -1.335  -8.564  1.00  0.00     0.156 A 
ENDROOT
BRANCH   6  10
ATOM     10  C   UNL     1       0.706  -1.626  -6.190  1.00  0.00     0.335 C 
ATOM     11  O   UNL     1      -0.031  -0.894  -5.559  1.00  0.00    -0.246 OA
BRANCH  10  12
ATOM     12  O   UNL     1       0.519  -2.960  -6.159  1.00  0.00    -0.478 OA
ATOM     13  H   UNL     1       1.311  -3.515  -6.172  1.00  0.00     0.297 HD
ENDBRANCH  10  12
ENDBRANCH   6  10
BRANCH   7  14
ATOM     14  C   UNL     1       6.389  -0.992 -10.829  1.00  0.00     0.040 A 
ATOM     15  C   UNL     1       7.689  -1.217 -10.374  1.00  0.00     0.034 A 
ATOM     16  C   UNL     1       6.140  -0.903 -12.200  1.00  0.00     0.034 A 
ATOM     17  C   UNL     1       8.721  -1.353 -11.281  1.00  0.00     0.043 A 
ATOM     18  C   UNL     1       7.181  -1.041 -13.097  1.00  0.00     0.043 A 
ATOM     19  C   UNL     1       8.468  -1.264 -12.639  1.00  0.00     0.041 A 
ATOM     20  Cl  UNL     1      10.339  -1.634 -10.717  1.00  0.00    -0.084 Cl
ATOM     21  Cl  UNL     1       6.874  -0.931 -14.803  1.00  0.00    -0.084 Cl
ENDBRANCH   7  14
TORSDOF 3
ENDMDL
MODEL 3
REMARK VINA RESULT:    -5.038      2.767      3.604
REMARK INTER + INTRA:          -6.060
REMARK INTER:                  -5.774
REMARK INTRA:                  -0.286
REMARK UNBOUND:                -0.287
REMARK SMILES O=C(O)c1ccc2nc(-c3cc(Cl)cc(Cl)c3)oc2c1
REMARK SMILES IDX 5 1 6 2 20 3 8 4 18 5 4 6 9 7 7 8 19 9 2 10 1 11 3 12 10 14
REMARK SMILES IDX 11 15 17 16 12 17 15 18 14 19 13 20 16 21
REMARK H PARENT 3 13
ROOT
ATOM      1  C   UNL     1       4.019  -0.973  -5.824  1.00  0.00     0.018 A 
ATOM      2  C   UNL     1       3.899  -1.662  -6.994  1.00  0.00     0.033 A 
ATOM      3  C   UNL     1       4.791   0.985  -7.029  1.00  0.00     0.065 A 
ATOM      4  N   UNL     1       4.209  -1.458  -9.493  1.00  0.00    -0.209 NA
ATOM      5  O   UNL     1       4.908   0.603  -9.511  1.00  0.00    -0.436 OA
ATOM      6  C   UNL     1       4.464   0.357  -5.826  1.00  0.00     0.063 A 
ATOM      7  C   UNL     1       4.614  -0.477 -10.260  1.00  0.00     0.227 A 
ATOM      8  C   UNL     1       4.224  -1.044  -8.207  1.00  0.00     0.110 A 
ATOM      9  C   UNL     1       4.676   0.288  -8.217  1.00  0.00     0.156 A 
ENDROOT
BRANCH   6  10
ATOM     10  C   UNL     1       4.583   1.094  -4.555  1.00  0.00     0.335 C 
ATOM     11  O   UNL     1       4.605   0.489  -3.502  1.00  0.00    -0.246 OA
BRANCH  10  12
ATOM     12  O   UNL     1       4.668   2.439  -4.561  1.00  0.00    -0.478 OA
ATOM     13  H   UNL     1       4.760   2.877  -3.704  1.00  0.00     0.297 HD
ENDBRANCH  10  12
ENDBRANCH   6  10
BRANCH   7  14
ATOM     14  C   UNL     1       4.733  -0.546 -11.731  1.00  0.00     0.040 A 
ATOM     15  C   UNL     1       3.614  -0.329 -12.536  1.00  0.00     0.034 A 
ATOM     16  C   UNL     1       5.966  -0.830 -12.322  1.00  0.00     0.034 A 
ATOM     17  C   UNL     1       3.731  -0.395 -13.910  1.00  0.00     0.043 A 
ATOM     18  C   UNL     1       6.071  -0.892 -13.697  1.00  0.00     0.043 A 
ATOM     19  C   UNL     1       4.957  -0.676 -14.490  1.00  0.00     0.041 A 
ATOM     20  Cl  UNL     1       2.341  -0.125 -14.913  1.00  0.00    -0.084 Cl
ATOM     21  Cl  UNL     1       7.604  -1.245 -14.434  1.00  0.00    -0.084 Cl
ENDBRANCH   7  14
TORSDOF 3
ENDMDL
MODEL 4
REMARK VINA RESULT:    -5.029      2.764      3.984
REMARK INTER + INTRA:          -6.050
REMARK INTER:                  -5.764
REMARK INTRA:                  -0.286
REMARK UNBOUND:                -0.287
REMARK SMILES O=C(O)c1ccc2nc(-c3cc(Cl)cc(Cl)c3)oc2c1
REMARK SMILES IDX 5 1 6 2 20 3 8 4 18 5 4 6 9 7 7 8 19 9 2 10 1 11 3 12 10 14
REMARK SMILES IDX 11 15 17 16 12 17 15 18 14 19 13 20 16 21
REMARK H PARENT 3 13
ROOT
ATOM      1  C   UNL     1       4.014  -0.971  -5.818  1.00  0.00     0.018 A 
ATOM      2  C   UNL     1       3.895  -1.660  -6.988  1.00  0.00     0.033 A 
ATOM      3  C   UNL     1       4.794   0.985  -7.022  1.00  0.00     0.065 A 
ATOM      4  N   UNL     1       4.211  -1.457  -9.486  1.00  0.00    -0.209 NA
ATOM      5  O   UNL     1       4.915   0.602  -9.504  1.00  0.00    -0.436 OA
ATOM      6  C   UNL     1       4.462   0.358  -5.819  1.00  0.00     0.063 A 
ATOM      7  C   UNL     1       4.621  -0.477 -10.253  1.00  0.00     0.227 A 
ATOM      8  C   UNL     1       4.225  -1.043  -8.201  1.00  0.00     0.110 A 
ATOM      9  C   UNL     1       4.680   0.288  -8.210  1.00  0.00     0.156 A 
ENDROOT
BRANCH   6  10
ATOM     10  C   UNL     1       4.581   1.095  -4.549  1.00  0.00     0.335 C 
ATOM     11  O   UNL     1       4.603   0.490  -3.495  1.00  0.00    -0.246 OA
BRANCH  10  12
ATOM     12  O   UNL     1       4.663   2.440  -4.554  1.00  0.00    -0.478 OA
ATOM     13  H   UNL     1       4.811   2.868  -5.409  1.00  0.00     0.297 HD
ENDBRANCH  10  12
ENDBRANCH   6  10
BRANCH   7  14
ATOM     14  C   UNL     1       4.743  -0.547 -11.724  1.00  0.00     0.040 A 
ATOM     15  C   UNL     1       5.977  -0.825 -12.313  1.00  0.00     0.034 A 
ATOM     16  C   UNL     1       3.622  -0.334 -12.530  1.00  0.00     0.034 A 
ATOM     17  C   UNL     1       6.083  -0.889 -13.688  1.00  0.00     0.043 A 
ATOM     18  C   UNL     1       3.742  -0.402 -13.904  1.00  0.00     0.043 A 
ATOM     19  C   UNL     1       4.969  -0.678 -14.482  1.00  0.00     0.041 A 
ATOM     20  Cl  UNL     1       7.617  -1.235 -14.423  1.00  0.00    -0.084 Cl
ATOM     21  Cl  UNL     1       2.350  -0.138 -14.909  1.00  0.00    -0.084 Cl
ENDBRANCH   7  14
TORSDOF 3
ENDMDL
MODEL 5
REMARK VINA RESULT:    -4.929      3.963      7.481
REMARK INTER + INTRA:          -5.936
REMARK INTER:                  -5.642
REMARK INTRA:                  -0.294
REMARK UNBOUND:                -0.287
REMARK SMILES O=C(O)c1ccc2nc(-c3cc(Cl)cc(Cl)c3)oc2c1
REMARK SMILES IDX 5 1 6 2 20 3 8 4 18 5 4 6 9 7 7 8 19 9 2 10 1 11 3 12 10 14
REMARK SMILES IDX 11 15 17 16 12 17 15 18 14 19 13 20 16 21
REMARK H PARENT 3 13
ROOT
ATOM      1  C   UNL     1       6.350  -0.896 -13.207  1.00  0.00     0.018 A 
ATOM      2  C   UNL     1       5.157  -0.869 -12.549  1.00  0.00     0.033 A 
ATOM      3  C   UNL     1       7.542  -0.826 -11.097  1.00  0.00     0.065 A 
ATOM      4  N   UNL     1       4.130  -0.782 -10.243  1.00  0.00    -0.209 NA
ATOM      5  O   UNL     1       5.992  -0.744  -9.119  1.00  0.00    -0.436 OA
ATOM      6  C   UNL     1       7.556  -0.877 -12.492  1.00  0.00     0.063 A 
ATOM      7  C   UNL     1       4.648  -0.739  -9.041  1.00  0.00     0.227 A 
ATOM      8  C   UNL     1       5.129  -0.818 -11.150  1.00  0.00     0.110 A 
ATOM      9  C   UNL     1       6.334  -0.793 -10.426  1.00  0.00     0.156 A 
ENDROOT
BRANCH   6  10
ATOM     10  C   UNL     1       8.840  -0.913 -13.214  1.00  0.00     0.335 C 
ATOM     11  O   UNL     1       9.854  -0.524 -12.669  1.00  0.00    -0.246 OA
BRANCH  10  12
ATOM     12  O   UNL     1       8.890  -1.375 -14.479  1.00  0.00    -0.478 OA
ATOM     13  H   UNL     1       8.531  -0.803 -15.170  1.00  0.00     0.297 HD
ENDBRANCH  10  12
ENDBRANCH   6  10
BRANCH   7  14
ATOM     14  C   UNL     1       3.872  -0.691  -7.785  1.00  0.00     0.040 A 
ATOM     15  C   UNL     1       2.604  -1.271  -7.721  1.00  0.00     0.034 A 
ATOM     16  C   UNL     1       4.404  -0.063  -6.656  1.00  0.00     0.034 A 
ATOM     17  C   UNL     1       1.884  -1.223  -6.544  1.00  0.00     0.043 A 
ATOM     18  C   UNL     1       3.674  -0.022  -5.485  1.00  0.00     0.043 A 
ATOM     19  C   UNL     1       2.417  -0.599  -5.429  1.00  0.00     0.041 A 
ATOM     20  Cl  UNL     1       0.307  -1.945  -6.463  1.00  0.00    -0.084 Cl
ATOM     21  Cl  UNL     1       4.333   0.757  -4.080  1.00  0.00    -0.084 Cl
ENDBRANCH   7  14
TORSDOF 3
ENDMDL
MODEL 6
REMARK VINA RESULT:    -4.929      3.963      7.681
REMARK INTER + INTRA:          -5.936
REMARK INTER:                  -5.641
REMARK INTRA:                  -0.295
REMARK UNBOUND:                -0.287
REMARK SMILES O=C(O)c1ccc2nc(-c3cc(Cl)cc(Cl)c3)oc2c1
REMARK SMILES IDX 5 1 6 2 20 3 8 4 18 5 4 6 9 7 7 8 19 9 2 10 1 11 3 12 10 14
REMARK SMILES IDX 11 15 17 16 12 17 15 18 14 19 13 20 16 21
REMARK H PARENT 3 13
ROOT
ATOM      1  C   UNL     1       6.354  -0.898 -13.209  1.00  0.00     0.018 A 
ATOM      2  C   UNL     1       5.161  -0.868 -12.551  1.00  0.00     0.033 A 
ATOM      3  C   UNL     1       7.548  -0.830 -11.099  1.00  0.00     0.065 A 
ATOM      4  N   UNL     1       4.136  -0.779 -10.244  1.00  0.00    -0.209 NA
ATOM      5  O   UNL     1       5.999  -0.745  -9.121  1.00  0.00    -0.436 OA
ATOM      6  C   UNL     1       7.560  -0.881 -12.494  1.00  0.00     0.063 A 
ATOM      7  C   UNL     1       4.655  -0.737  -9.042  1.00  0.00     0.227 A 
ATOM      8  C   UNL     1       5.134  -0.817 -11.152  1.00  0.00     0.110 A 
ATOM      9  C   UNL     1       6.339  -0.795 -10.428  1.00  0.00     0.156 A 
ENDROOT
BRANCH   6  10
ATOM     10  C   UNL     1       8.844  -0.920 -13.217  1.00  0.00     0.335 C 
ATOM     11  O   UNL     1       9.861  -0.543 -12.669  1.00  0.00    -0.246 OA
BRANCH  10  12
ATOM     12  O   UNL     1       8.891  -1.372 -14.486  1.00  0.00    -0.478 OA
ATOM     13  H   UNL     1       8.055  -1.411 -14.969  1.00  0.00     0.297 HD
ENDBRANCH  10  12
ENDBRANCH   6  10
BRANCH   7  14
ATOM     14  C   UNL     1       3.879  -0.687  -7.786  1.00  0.00     0.040 A 
ATOM     15  C   UNL     1       4.409  -0.059  -6.658  1.00  0.00     0.034 A 
ATOM     16  C   UNL     1       2.611  -1.270  -7.722  1.00  0.00     0.034 A 
ATOM     17  C   UNL     1       3.678  -0.015  -5.488  1.00  0.00     0.043 A 
ATOM     18  C   UNL     1       1.890  -1.219  -6.546  1.00  0.00     0.043 A 
ATOM     19  C   UNL     1       2.422  -0.595  -5.431  1.00  0.00     0.041 A 
ATOM     20  Cl  UNL     1       4.336   0.766  -4.084  1.00  0.00    -0.084 Cl
ATOM     21  Cl  UNL     1       0.314  -1.943  -6.465  1.00  0.00    -0.084 Cl
ENDBRANCH   7  14
TORSDOF 3
ENDMDL
MODEL 7
REMARK VINA RESULT:    -4.912      3.984      7.393
REMARK INTER + INTRA:          -5.916
REMARK INTER:                  -5.622
REMARK INTRA:                  -0.295
REMARK UNBOUND:                -0.287
REMARK SMILES O=C(O)c1ccc2nc(-c3cc(Cl)cc(Cl)c3)oc2c1
REMARK SMILES IDX 5 1 6 2 20 3 8 4 18 5 4 6 9 7 7 8 19 9 2 10 1 11 3 12 10 14
REMARK SMILES IDX 11 15 17 16 12 17 15 18 14 19 13 20 16 21
REMARK H PARENT 3 13
ROOT
ATOM      1  C   UNL     1       6.681  -1.004 -13.034  1.00  0.00     0.018 A 
ATOM      2  C   UNL     1       6.874  -0.864 -11.692  1.00  0.00     0.033 A 
ATOM      3  C   UNL     1       4.281  -0.828 -12.731  1.00  0.00     0.065 A 
ATOM      4  N   UNL     1       5.653  -0.547  -9.504  1.00  0.00    -0.209 NA
ATOM      5  O   UNL     1       3.636  -0.526 -10.320  1.00  0.00    -0.436 OA
ATOM      6  C   UNL     1       5.386  -0.986 -13.570  1.00  0.00     0.063 A 
ATOM      7  C   UNL     1       4.382  -0.441  -9.203  1.00  0.00     0.227 A 
ATOM      8  C   UNL     1       5.775  -0.704 -10.839  1.00  0.00     0.110 A 
ATOM      9  C   UNL     1       4.473  -0.691 -11.369  1.00  0.00     0.156 A 
ENDROOT
BRANCH   6  10
ATOM     10  C   UNL     1       5.190  -1.133 -15.024  1.00  0.00     0.335 C 
ATOM     11  O   UNL     1       4.097  -1.432 -15.462  1.00  0.00    -0.246 OA
BRANCH  10  12
ATOM     12  O   UNL     1       6.223  -0.936 -15.867  1.00  0.00    -0.478 OA
ATOM     13  H   UNL     1       6.591  -1.718 -16.301  1.00  0.00     0.297 HD
ENDBRANCH  10  12
ENDBRANCH   6  10
BRANCH   7  14
ATOM     14  C   UNL     1       3.848  -0.257  -7.838  1.00  0.00     0.040 A 
ATOM     15  C   UNL     1       4.598   0.421  -6.876  1.00  0.00     0.034 A 
ATOM     16  C   UNL     1       2.589  -0.762  -7.504  1.00  0.00     0.034 A 
ATOM     17  C   UNL     1       4.093   0.591  -5.603  1.00  0.00     0.043 A 
ATOM     18  C   UNL     1       2.095  -0.586  -6.227  1.00  0.00     0.043 A 
ATOM     19  C   UNL     1       2.844   0.088  -5.278  1.00  0.00     0.041 A 
ATOM     20  Cl  UNL     1       5.024   1.435  -4.406  1.00  0.00    -0.084 Cl
ATOM     21  Cl  UNL     1       0.530  -1.212  -5.811  1.00  0.00    -0.084 Cl
ENDBRANCH   7  14
TORSDOF 3
ENDMDL
MODEL 8
REMARK VINA RESULT:    -4.903      3.983      7.206
REMARK INTER + INTRA:          -5.907
REMARK INTER:                  -5.612
REMARK INTRA:                  -0.295
REMARK UNBOUND:                -0.287
REMARK SMILES O=C(O)c1ccc2nc(-c3cc(Cl)cc(Cl)c3)oc2c1
REMARK SMILES IDX 5 1 6 2 20 3 8 4 18 5 4 6 9 7 7 8 19 9 2 10 1 11 3 12 10 14
REMARK SMILES IDX 11 15 17 16 12 17 15 18 14 19 13 20 16 21
REMARK H PARENT 3 13
ROOT
ATOM      1  C   UNL     1       6.679  -1.006 -13.038  1.00  0.00     0.018 A 
ATOM      2  C   UNL     1       6.874  -0.866 -11.696  1.00  0.00     0.033 A 
ATOM      3  C   UNL     1       4.280  -0.829 -12.732  1.00  0.00     0.065 A 
ATOM      4  N   UNL     1       5.655  -0.547  -9.506  1.00  0.00    -0.209 NA
ATOM      5  O   UNL     1       3.637  -0.525 -10.321  1.00  0.00    -0.436 OA
ATOM      6  C   UNL     1       5.383  -0.988 -13.573  1.00  0.00     0.063 A 
ATOM      7  C   UNL     1       4.385  -0.440  -9.204  1.00  0.00     0.227 A 
ATOM      8  C   UNL     1       5.776  -0.705 -10.842  1.00  0.00     0.110 A 
ATOM      9  C   UNL     1       4.473  -0.691 -11.370  1.00  0.00     0.156 A 
ENDROOT
BRANCH   6  10
ATOM     10  C   UNL     1       5.186  -1.134 -15.026  1.00  0.00     0.335 C 
ATOM     11  O   UNL     1       4.091  -1.429 -15.463  1.00  0.00    -0.246 OA
BRANCH  10  12
ATOM     12  O   UNL     1       6.219  -0.944 -15.870  1.00  0.00    -0.478 OA
ATOM     13  H   UNL     1       6.995  -0.488 -15.518  1.00  0.00     0.297 HD
ENDBRANCH  10  12
ENDBRANCH   6  10
BRANCH   7  14
ATOM     14  C   UNL     1       3.852  -0.255  -7.838  1.00  0.00     0.040 A 
ATOM     15  C   UNL     1       2.595  -0.760  -7.502  1.00  0.00     0.034 A 
ATOM     16  C   UNL     1       4.604   0.427  -6.880  1.00  0.00     0.034 A 
ATOM     17  C   UNL     1       2.103  -0.584  -6.223  1.00  0.00     0.043 A 
ATOM     18  C   UNL     1       4.101   0.596  -5.605  1.00  0.00     0.043 A 
ATOM     19  C   UNL     1       2.854   0.093  -5.277  1.00  0.00     0.041 A 
ATOM     20  Cl  UNL     1       0.541  -1.212  -5.802  1.00  0.00    -0.084 Cl
ATOM     21  Cl  UNL     1       5.035   1.443  -4.411  1.00  0.00    -0.084 Cl
ENDBRANCH   7  14
TORSDOF 3
ENDMDL
MODEL 9
REMARK VINA RESULT:    -4.842      1.944      2.988
REMARK INTER + INTRA:          -5.836
REMARK INTER:                  -5.538
REMARK INTRA:                  -0.298
REMARK UNBOUND:                -0.287
REMARK SMILES O=C(O)c1ccc2nc(-c3cc(Cl)cc(Cl)c3)oc2c1
REMARK SMILES IDX 5 1 6 2 20 3 8 4 18 5 4 6 9 7 7 8 19 9 2 10 1 11 3 12 10 14
REMARK SMILES IDX 11 15 17 16 12 17 15 18 14 19 13 20 16 21
REMARK H PARENT 3 13
ROOT
ATOM      1  C   UNL     1       1.858  -0.478  -6.180  1.00  0.00     0.018 A 
ATOM      2  C   UNL     1       1.893  -0.676  -7.528  1.00  0.00     0.033 A 
ATOM      3  C   UNL     1       4.266  -0.198  -6.135  1.00  0.00     0.065 A 
ATOM      4  N   UNL     1       3.459  -0.797  -9.506  1.00  0.00    -0.209 NA
ATOM      5  O   UNL     1       5.304  -0.429  -8.413  1.00  0.00    -0.436 OA
ATOM      6  C   UNL     1       3.041  -0.235  -5.468  1.00  0.00     0.063 A 
ATOM      7  C   UNL     1       4.758  -0.670  -9.620  1.00  0.00     0.227 A 
ATOM      8  C   UNL     1       3.115  -0.641  -8.210  1.00  0.00     0.110 A 
ATOM      9  C   UNL     1       4.306  -0.403  -7.502  1.00  0.00     0.156 A 
ENDROOT
BRANCH   6  10
ATOM     10  C   UNL     1       2.990  -0.016  -4.011  1.00  0.00     0.335 C 
ATOM     11  O   UNL     1       1.938  -0.135  -3.415  1.00  0.00    -0.246 OA
BRANCH  10  12
ATOM     12  O   UNL     1       4.111   0.316  -3.339  1.00  0.00    -0.478 OA
ATOM     13  H   UNL     1       4.021   0.965  -2.629  1.00  0.00     0.297 HD
ENDBRANCH  10  12
ENDBRANCH   6  10
BRANCH   7  14
ATOM     14  C   UNL     1       5.511  -0.776 -10.887  1.00  0.00     0.040 A 
ATOM     15  C   UNL     1       6.904  -0.863 -10.869  1.00  0.00     0.034 A 
ATOM     16  C   UNL     1       4.832  -0.788 -12.107  1.00  0.00     0.034 A 
ATOM     17  C   UNL     1       7.602  -0.962 -12.056  1.00  0.00     0.043 A 
ATOM     18  C   UNL     1       5.541  -0.888 -13.287  1.00  0.00     0.043 A 
ATOM     19  C   UNL     1       6.923  -0.974 -13.263  1.00  0.00     0.041 A 
ATOM     20  Cl  UNL     1       9.334  -1.071 -12.037  1.00  0.00    -0.084 Cl
ATOM     21  Cl  UNL     1       4.699  -0.903 -14.805  1.00  0.00    -0.084 Cl
ENDBRANCH   7  14
TORSDOF 3
ENDMDL
