MODEL 1
REMARK VINA RESULT:    -5.918      0.000      0.000
REMARK INTER + INTRA:          -8.836
REMARK INTER:                  -8.167
REMARK INTRA:                  -0.669
REMARK UNBOUND:                -0.669
REMARK SMILES Cc1n[nH]c(C)c1CCCOc1cc(C(=O)O)ccc1F
REMARK SMILES IDX 11 1 12 2 14 3 18 4 13 5 19 6 20 7 21 8 15 9 16 10 17 11
REMARK SMILES IDX 10 13 9 14 8 15 7 16 5 17 2 18 4 19 3 20 6 21 1 22
REMARK H PARENT 17 12 4 23
ROOT
ATOM      1  O   UNL     1       3.239  -1.174  -8.784  1.00  0.00    -0.490 OA
ENDROOT
BRANCH   1   2
ATOM      2  C   UNL     1       3.081  -0.769  -7.496  1.00  0.00     0.155 A 
ATOM      3  C   UNL     1       3.871   0.447  -5.578  1.00  0.00     0.063 A 
ATOM      4  C   UNL     1       2.734   0.056  -4.866  1.00  0.00     0.019 A 
ATOM      5  C   UNL     1       4.039   0.029  -6.899  1.00  0.00     0.065 A 
ATOM      6  C   UNL     1       1.780  -0.736  -5.471  1.00  0.00     0.044 A 
ATOM      7  C   UNL     1       1.947  -1.145  -6.784  1.00  0.00     0.165 A 
ATOM      8  F   UNL     1       1.010  -1.921  -7.371  1.00  0.00    -0.203 F 
BRANCH   3   9
ATOM      9  C   UNL     1       4.893   1.295  -4.933  1.00  0.00     0.335 C 
ATOM     10  O   UNL     1       6.046   0.921  -4.880  1.00  0.00    -0.246 OA
BRANCH   9  11
ATOM     11  O   UNL     1       4.546   2.487  -4.410  1.00  0.00    -0.478 OA
ATOM     12  H   UNL     1       4.487   2.543  -3.446  1.00  0.00     0.297 HD
ENDBRANCH   9  11
ENDBRANCH   3   9
ENDBRANCH   1   2
BRANCH   1  13
ATOM     13  C   UNL     1       3.980  -2.378  -8.999  1.00  0.00     0.230 C 
BRANCH  13  14
ATOM     14  C   UNL     1       4.603  -2.350 -10.396  1.00  0.00     0.046 C 
BRANCH  14  15
ATOM     15  C   UNL     1       4.997  -0.914 -10.750  1.00  0.00     0.043 C 
BRANCH  15  16
ATOM     16  C   UNL     1       5.758  -0.907 -12.050  1.00  0.00    -0.004 A 
ATOM     17  C   UNL     1       7.103  -0.986 -12.186  1.00  0.00     0.036 A 
ATOM     18  C   UNL     1       5.201  -0.824 -13.330  1.00  0.00     0.063 A 
ATOM     19  N   UNL     1       7.385  -0.947 -13.505  1.00  0.00    -0.282 N 
ATOM     20  N   UNL     1       6.175  -0.841 -14.203  1.00  0.00    -0.181 NA
ATOM     21  C   UNL     1       8.104  -1.097 -11.066  1.00  0.00     0.066 C 
ATOM     22  C   UNL     1       3.731  -0.720 -13.648  1.00  0.00     0.069 C 
ATOM     23  H   UNL     1       8.270  -0.986 -13.900  1.00  0.00     0.190 HD
ENDBRANCH  15  16
ENDBRANCH  14  15
ENDBRANCH  13  14
ENDBRANCH   1  13
TORSDOF 7
ENDMDL
MODEL 2
REMARK VINA RESULT:    -5.896      2.001      3.651
REMARK INTER + INTRA:          -8.806
REMARK INTER:                  -8.142
REMARK INTRA:                  -0.664
REMARK UNBOUND:                -0.669
REMARK SMILES Cc1n[nH]c(C)c1CCCOc1cc(C(=O)O)ccc1F
REMARK SMILES IDX 11 1 12 2 14 3 18 4 13 5 19 6 20 7 21 8 15 9 16 10 17 11
REMARK SMILES IDX 10 13 9 14 8 15 7 16 5 17 2 18 4 19 3 20 6 21 1 22
REMARK H PARENT 17 12 4 23
ROOT
ATOM      1  O   UNL     1       5.058   0.065  -8.095  1.00  0.00    -0.490 OA
ENDROOT
BRANCH   1   2
ATOM      2  C   UNL     1       4.118  -0.131  -7.133  1.00  0.00     0.155 A 
ATOM      3  C   UNL     1       2.030  -1.086  -6.418  1.00  0.00     0.063 A 
ATOM      4  C   UNL     1       2.214  -0.529  -5.149  1.00  0.00     0.019 A 
ATOM      5  C   UNL     1       2.991  -0.882  -7.411  1.00  0.00     0.065 A 
ATOM      6  C   UNL     1       3.344   0.213  -4.880  1.00  0.00     0.044 A 
ATOM      7  C   UNL     1       4.299   0.410  -5.865  1.00  0.00     0.165 A 
ATOM      8  F   UNL     1       5.404   1.138  -5.594  1.00  0.00    -0.203 F 
BRANCH   3   9
ATOM      9  C   UNL     1       0.821  -1.881  -6.710  1.00  0.00     0.335 C 
ATOM     10  O   UNL     1       0.109  -1.583  -7.647  1.00  0.00    -0.246 OA
BRANCH   9  11
ATOM     11  O   UNL     1       0.511  -2.942  -5.939  1.00  0.00    -0.478 OA
ATOM     12  H   UNL     1       1.012  -3.050  -5.118  1.00  0.00     0.297 HD
ENDBRANCH   9  11
ENDBRANCH   3   9
ENDBRANCH   1   2
BRANCH   1  13
ATOM     13  C   UNL     1       4.890   1.204  -8.944  1.00  0.00     0.230 C 
BRANCH  13  14
ATOM     14  C   UNL     1       5.591   0.952 -10.279  1.00  0.00     0.046 C 
BRANCH  14  15
ATOM     15  C   UNL     1       5.623  -0.552 -10.563  1.00  0.00     0.043 C 
BRANCH  15  16
ATOM     16  C   UNL     1       6.165  -0.791 -11.948  1.00  0.00    -0.004 A 
ATOM     17  C   UNL     1       5.435  -0.879 -13.085  1.00  0.00     0.036 A 
ATOM     18  C   UNL     1       7.512  -0.954 -12.289  1.00  0.00     0.063 A 
ATOM     19  N   UNL     1       6.289  -1.098 -14.107  1.00  0.00    -0.282 N 
ATOM     20  N   UNL     1       7.587  -1.145 -13.581  1.00  0.00    -0.181 NA
ATOM     21  C   UNL     1       3.938  -0.756 -13.190  1.00  0.00     0.066 C 
ATOM     22  C   UNL     1       8.675  -0.928 -11.330  1.00  0.00     0.069 C 
ATOM     23  H   UNL     1       6.048  -1.204 -15.040  1.00  0.00     0.190 HD
ENDBRANCH  15  16
ENDBRANCH  14  15
ENDBRANCH  13  14
ENDBRANCH   1  13
TORSDOF 7
ENDMDL
MODEL 3
REMARK VINA RESULT:    -5.797      2.022      3.163
REMARK INTER + INTRA:          -8.669
REMARK INTER:                  -7.990
REMARK INTRA:                  -0.679
REMARK UNBOUND:                -0.669
REMARK SMILES Cc1n[nH]c(C)c1CCCOc1cc(C(=O)O)ccc1F
REMARK SMILES IDX 11 1 12 2 14 3 18 4 13 5 19 6 20 7 21 8 15 9 16 10 17 11
REMARK SMILES IDX 10 13 9 14 8 15 7 16 5 17 2 18 4 19 3 20 6 21 1 22
REMARK H PARENT 17 12 4 23
ROOT
ATOM      1  O   UNL     1       4.177   1.296  -8.265  1.00  0.00    -0.490 OA
ENDROOT
BRANCH   1   2
ATOM      2  C   UNL     1       3.546   0.673  -7.234  1.00  0.00     0.155 A 
ATOM      3  C   UNL     1       1.881  -0.862  -6.426  1.00  0.00     0.063 A 
ATOM      4  C   UNL     1       2.277  -0.595  -5.113  1.00  0.00     0.019 A 
ATOM      5  C   UNL     1       2.523  -0.221  -7.488  1.00  0.00     0.065 A 
ATOM      6  C   UNL     1       3.303   0.294  -4.870  1.00  0.00     0.044 A 
ATOM      7  C   UNL     1       3.942   0.925  -5.924  1.00  0.00     0.165 A 
ATOM      8  F   UNL     1       4.946   1.795  -5.679  1.00  0.00    -0.203 F 
BRANCH   3   9
ATOM      9  C   UNL     1       0.784  -1.814  -6.690  1.00  0.00     0.335 C 
ATOM     10  O   UNL     1       0.020  -1.619  -7.613  1.00  0.00    -0.246 OA
BRANCH   9  11
ATOM     11  O   UNL     1       0.635  -2.903  -5.911  1.00  0.00    -0.478 OA
ATOM     12  H   UNL     1       1.367  -3.120  -5.315  1.00  0.00     0.297 HD
ENDBRANCH   9  11
ENDBRANCH   3   9
ENDBRANCH   1   2
BRANCH   1  13
ATOM     13  C   UNL     1       5.248   0.586  -8.893  1.00  0.00     0.230 C 
BRANCH  13  14
ATOM     14  C   UNL     1       5.018   0.552 -10.405  1.00  0.00     0.046 C 
BRANCH  14  15
ATOM     15  C   UNL     1       5.125  -0.891 -10.905  1.00  0.00     0.043 C 
BRANCH  15  16
ATOM     16  C   UNL     1       5.837  -0.912 -12.232  1.00  0.00    -0.004 A 
ATOM     17  C   UNL     1       7.175  -0.995 -12.417  1.00  0.00     0.036 A 
ATOM     18  C   UNL     1       5.232  -0.856 -13.492  1.00  0.00     0.063 A 
ATOM     19  N   UNL     1       7.408  -0.985 -13.746  1.00  0.00    -0.282 N 
ATOM     20  N   UNL     1       6.173  -0.892 -14.400  1.00  0.00    -0.181 NA
ATOM     21  C   UNL     1       8.217  -1.084 -11.333  1.00  0.00     0.066 C 
ATOM     22  C   UNL     1       3.751  -0.757 -13.757  1.00  0.00     0.069 C 
ATOM     23  H   UNL     1       8.277  -1.033 -14.173  1.00  0.00     0.190 HD
ENDBRANCH  15  16
ENDBRANCH  14  15
ENDBRANCH  13  14
ENDBRANCH   1  13
TORSDOF 7
ENDMDL
MODEL 4
REMARK VINA RESULT:    -5.774      0.145      1.774
REMARK INTER + INTRA:          -8.637
REMARK INTER:                  -7.986
REMARK INTRA:                  -0.651
REMARK UNBOUND:                -0.669
REMARK SMILES Cc1n[nH]c(C)c1CCCOc1cc(C(=O)O)ccc1F
REMARK SMILES IDX 11 1 12 2 14 3 18 4 13 5 19 6 20 7 21 8 15 9 16 10 17 11
REMARK SMILES IDX 10 13 9 14 8 15 7 16 5 17 2 18 4 19 3 20 6 21 1 22
REMARK H PARENT 17 12 4 23
ROOT
ATOM      1  O   UNL     1       3.211  -1.252  -8.705  1.00  0.00    -0.490 OA
ENDROOT
BRANCH   1   2
ATOM      2  C   UNL     1       3.061  -0.820  -7.425  1.00  0.00     0.155 A 
ATOM      3  C   UNL     1       3.863   0.433  -5.536  1.00  0.00     0.063 A 
ATOM      4  C   UNL     1       2.729   0.059  -4.810  1.00  0.00     0.019 A 
ATOM      5  C   UNL     1       4.023  -0.012  -6.850  1.00  0.00     0.065 A 
ATOM      6  C   UNL     1       1.771  -0.743  -5.394  1.00  0.00     0.044 A 
ATOM      7  C   UNL     1       1.930  -1.179  -6.699  1.00  0.00     0.165 A 
ATOM      8  F   UNL     1       0.988  -1.965  -7.266  1.00  0.00    -0.203 F 
BRANCH   3   9
ATOM      9  C   UNL     1       4.890   1.292  -4.914  1.00  0.00     0.335 C 
ATOM     10  O   UNL     1       6.043   0.916  -4.858  1.00  0.00    -0.246 OA
BRANCH   9  11
ATOM     11  O   UNL     1       4.548   2.496  -4.414  1.00  0.00    -0.478 OA
ATOM     12  H   UNL     1       3.606   2.662  -4.274  1.00  0.00     0.297 HD
ENDBRANCH   9  11
ENDBRANCH   3   9
ENDBRANCH   1   2
BRANCH   1  13
ATOM     13  C   UNL     1       3.875  -2.504  -8.894  1.00  0.00     0.230 C 
BRANCH  13  14
ATOM     14  C   UNL     1       4.631  -2.484 -10.224  1.00  0.00     0.046 C 
BRANCH  14  15
ATOM     15  C   UNL     1       4.981  -1.040 -10.590  1.00  0.00     0.043 C 
BRANCH  15  16
ATOM     16  C   UNL     1       5.699  -1.017 -11.914  1.00  0.00    -0.004 A 
ATOM     17  C   UNL     1       5.120  -0.928 -13.134  1.00  0.00     0.036 A 
ATOM     18  C   UNL     1       7.085  -1.078 -12.100  1.00  0.00     0.063 A 
ATOM     19  N   UNL     1       6.103  -0.938 -14.059  1.00  0.00    -0.282 N 
ATOM     20  N   UNL     1       7.327  -1.038 -13.385  1.00  0.00    -0.181 NA
ATOM     21  C   UNL     1       3.642  -0.833 -13.409  1.00  0.00     0.066 C 
ATOM     22  C   UNL     1       8.119  -1.185 -11.008  1.00  0.00     0.069 C 
ATOM     23  H   UNL     1       5.983  -0.887 -15.019  1.00  0.00     0.190 HD
ENDBRANCH  15  16
ENDBRANCH  14  15
ENDBRANCH  13  14
ENDBRANCH   1  13
TORSDOF 7
ENDMDL
MODEL 5
REMARK VINA RESULT:    -4.889      3.809      7.219
REMARK INTER + INTRA:          -7.416
REMARK INTER:                  -6.570
REMARK INTRA:                  -0.846
REMARK UNBOUND:                -0.669
REMARK SMILES Cc1n[nH]c(C)c1CCCOc1cc(C(=O)O)ccc1F
REMARK SMILES IDX 11 1 12 2 14 3 18 4 13 5 19 6 20 7 21 8 15 9 16 10 17 11
REMARK SMILES IDX 10 13 9 14 8 15 7 16 5 17 2 18 4 19 3 20 6 21 1 22
REMARK H PARENT 17 12 4 23
ROOT
ATOM      1  O   UNL     1       5.516  -0.428  -8.931  1.00  0.00    -0.490 OA
ENDROOT
BRANCH   1   2
ATOM      2  C   UNL     1       5.722  -0.606 -10.263  1.00  0.00     0.155 A 
ATOM      3  C   UNL     1       4.867  -0.753 -12.506  1.00  0.00     0.063 A 
ATOM      4  C   UNL     1       6.165  -0.959 -12.983  1.00  0.00     0.019 A 
ATOM      5  C   UNL     1       4.652  -0.576 -11.138  1.00  0.00     0.065 A 
ATOM      6  C   UNL     1       7.227  -0.982 -12.103  1.00  0.00     0.044 A 
ATOM      7  C   UNL     1       7.011  -0.801 -10.747  1.00  0.00     0.165 A 
ATOM      8  F   UNL     1       8.055  -0.823  -9.890  1.00  0.00    -0.203 F 
BRANCH   3   9
ATOM      9  C   UNL     1       3.729  -0.728 -13.445  1.00  0.00     0.335 C 
ATOM     10  O   UNL     1       3.891  -1.046 -14.605  1.00  0.00    -0.246 OA
BRANCH   9  11
ATOM     11  O   UNL     1       2.507  -0.359 -13.012  1.00  0.00    -0.478 OA
ATOM     12  H   UNL     1       2.473   0.268 -12.276  1.00  0.00     0.297 HD
ENDBRANCH   9  11
ENDBRANCH   3   9
ENDBRANCH   1   2
BRANCH   1  13
ATOM     13  C   UNL     1       4.600   0.601  -8.547  1.00  0.00     0.230 C 
BRANCH  13  14
ATOM     14  C   UNL     1       4.458   0.613  -7.024  1.00  0.00     0.046 C 
BRANCH  14  15
ATOM     15  C   UNL     1       4.506  -0.822  -6.496  1.00  0.00     0.043 C 
BRANCH  15  16
ATOM     16  C   UNL     1       3.116  -1.401  -6.482  1.00  0.00    -0.004 A 
ATOM     17  C   UNL     1       2.108  -1.034  -5.655  1.00  0.00     0.036 A 
ATOM     18  C   UNL     1       2.634  -2.408  -7.326  1.00  0.00     0.063 A 
ATOM     19  N   UNL     1       1.031  -1.787  -5.961  1.00  0.00    -0.282 N 
ATOM     20  N   UNL     1       1.387  -2.645  -7.010  1.00  0.00    -0.181 NA
ATOM     21  C   UNL     1       2.178   0.025  -4.587  1.00  0.00     0.066 C 
ATOM     22  C   UNL     1       3.421  -3.108  -8.404  1.00  0.00     0.069 C 
ATOM     23  H   UNL     1       0.163  -1.743  -5.530  1.00  0.00     0.190 HD
ENDBRANCH  15  16
ENDBRANCH  14  15
ENDBRANCH  13  14
ENDBRANCH   1  13
TORSDOF 7
ENDMDL
MODEL 6
REMARK VINA RESULT:    -4.868      4.274      7.714
REMARK INTER + INTRA:          -7.386
REMARK INTER:                  -6.759
REMARK INTRA:                  -0.628
REMARK UNBOUND:                -0.669
REMARK SMILES Cc1n[nH]c(C)c1CCCOc1cc(C(=O)O)ccc1F
REMARK SMILES IDX 11 1 12 2 14 3 18 4 13 5 19 6 20 7 21 8 15 9 16 10 17 11
REMARK SMILES IDX 10 13 9 14 8 15 7 16 5 17 2 18 4 19 3 20 6 21 1 22
REMARK H PARENT 17 12 4 23
ROOT
ATOM      1  O   UNL     1       5.741  -0.780  -9.368  1.00  0.00    -0.490 OA
ENDROOT
BRANCH   1   2
ATOM      2  C   UNL     1       6.179  -0.852 -10.653  1.00  0.00     0.155 A 
ATOM      3  C   UNL     1       5.721  -0.935 -13.013  1.00  0.00     0.063 A 
ATOM      4  C   UNL     1       7.093  -0.988 -13.273  1.00  0.00     0.019 A 
ATOM      5  C   UNL     1       5.268  -0.866 -11.694  1.00  0.00     0.065 A 
ATOM      6  C   UNL     1       7.994  -0.967 -12.229  1.00  0.00     0.044 A 
ATOM      7  C   UNL     1       7.542  -0.894 -10.922  1.00  0.00     0.165 A 
ATOM      8  F   UNL     1       8.430  -0.874  -9.903  1.00  0.00    -0.203 F 
BRANCH   3   9
ATOM      9  C   UNL     1       4.754  -0.956 -14.128  1.00  0.00     0.335 C 
ATOM     10  O   UNL     1       5.007  -0.373 -15.162  1.00  0.00    -0.246 OA
BRANCH   9  11
ATOM     11  O   UNL     1       3.594  -1.630 -13.999  1.00  0.00    -0.478 OA
ATOM     12  H   UNL     1       3.518  -2.234 -13.248  1.00  0.00     0.297 HD
ENDBRANCH   9  11
ENDBRANCH   3   9
ENDBRANCH   1   2
BRANCH   1  13
ATOM     13  C   UNL     1       4.923   0.340  -9.023  1.00  0.00     0.230 C 
BRANCH  13  14
ATOM     14  C   UNL     1       3.582  -0.156  -8.480  1.00  0.00     0.046 C 
BRANCH  14  15
ATOM     15  C   UNL     1       3.826  -1.084  -7.288  1.00  0.00     0.043 C 
BRANCH  15  16
ATOM     16  C   UNL     1       2.990  -0.632  -6.119  1.00  0.00    -0.004 A 
ATOM     17  C   UNL     1       3.374   0.234  -5.153  1.00  0.00     0.036 A 
ATOM     18  C   UNL     1       1.677  -1.029  -5.844  1.00  0.00     0.063 A 
ATOM     19  N   UNL     1       2.343   0.375  -4.293  1.00  0.00    -0.282 N 
ATOM     20  N   UNL     1       1.290  -0.431  -4.747  1.00  0.00    -0.181 NA
ATOM     21  C   UNL     1       4.712   0.918  -5.054  1.00  0.00     0.066 C 
ATOM     22  C   UNL     1       0.854  -1.989  -6.664  1.00  0.00     0.069 C 
ATOM     23  H   UNL     1       2.332   0.935  -3.502  1.00  0.00     0.190 HD
ENDBRANCH  15  16
ENDBRANCH  14  15
ENDBRANCH  13  14
ENDBRANCH   1  13
TORSDOF 7
ENDMDL
MODEL 7
REMARK VINA RESULT:    -4.822      4.134      7.139
REMARK INTER + INTRA:          -7.324
REMARK INTER:                  -6.903
REMARK INTRA:                  -0.421
REMARK UNBOUND:                -0.669
REMARK SMILES Cc1n[nH]c(C)c1CCCOc1cc(C(=O)O)ccc1F
REMARK SMILES IDX 11 1 12 2 14 3 18 4 13 5 19 6 20 7 21 8 15 9 16 10 17 11
REMARK SMILES IDX 10 13 9 14 8 15 7 16 5 17 2 18 4 19 3 20 6 21 1 22
REMARK H PARENT 17 12 4 23
ROOT
ATOM      1  O   UNL     1       3.836  -0.951 -10.185  1.00  0.00    -0.490 OA
ENDROOT
BRANCH   1   2
ATOM      2  C   UNL     1       4.755  -0.938 -11.188  1.00  0.00     0.155 A 
ATOM      3  C   UNL     1       7.043  -1.011 -11.924  1.00  0.00     0.063 A 
ATOM      4  C   UNL     1       6.615  -0.922 -13.251  1.00  0.00     0.019 A 
ATOM      5  C   UNL     1       6.103  -1.019 -10.891  1.00  0.00     0.065 A 
ATOM      6  C   UNL     1       5.268  -0.848 -13.537  1.00  0.00     0.044 A 
ATOM      7  C   UNL     1       4.337  -0.861 -12.512  1.00  0.00     0.165 A 
ATOM      8  F   UNL     1       3.018  -0.789 -12.799  1.00  0.00    -0.203 F 
BRANCH   3   9
ATOM      9  C   UNL     1       8.484  -1.090 -11.614  1.00  0.00     0.335 C 
ATOM     10  O   UNL     1       8.850  -1.430 -10.508  1.00  0.00    -0.246 OA
BRANCH   9  11
ATOM     11  O   UNL     1       9.394  -0.791 -12.563  1.00  0.00    -0.478 OA
ATOM     12  H   UNL     1      10.283  -1.153 -12.447  1.00  0.00     0.297 HD
ENDBRANCH   9  11
ENDBRANCH   3   9
ENDBRANCH   1   2
BRANCH   1  13
ATOM     13  C   UNL     1       4.107  -1.801  -9.068  1.00  0.00     0.230 C 
BRANCH  13  14
ATOM     14  C   UNL     1       4.601  -0.955  -7.893  1.00  0.00     0.046 C 
BRANCH  14  15
ATOM     15  C   UNL     1       3.574   0.137  -7.583  1.00  0.00     0.043 C 
BRANCH  15  16
ATOM     16  C   UNL     1       3.082  -0.024  -6.168  1.00  0.00    -0.004 A 
ATOM     17  C   UNL     1       3.650   0.510  -5.062  1.00  0.00     0.036 A 
ATOM     18  C   UNL     1       1.953  -0.745  -5.766  1.00  0.00     0.063 A 
ATOM     19  N   UNL     1       2.910   0.134  -3.997  1.00  0.00    -0.282 N 
ATOM     20  N   UNL     1       1.853  -0.657  -4.465  1.00  0.00    -0.181 NA
ATOM     21  C   UNL     1       4.886   1.370  -5.025  1.00  0.00     0.066 C 
ATOM     22  C   UNL     1       1.019  -1.504  -6.675  1.00  0.00     0.069 C 
ATOM     23  H   UNL     1       3.081   0.369  -3.072  1.00  0.00     0.190 HD
ENDBRANCH  15  16
ENDBRANCH  14  15
ENDBRANCH  13  14
ENDBRANCH   1  13
TORSDOF 7
ENDMDL
MODEL 8
REMARK VINA RESULT:    -4.820      3.755      6.714
REMARK INTER + INTRA:          -7.321
REMARK INTER:                  -6.472
REMARK INTRA:                  -0.849
REMARK UNBOUND:                -0.669
REMARK SMILES Cc1n[nH]c(C)c1CCCOc1cc(C(=O)O)ccc1F
REMARK SMILES IDX 11 1 12 2 14 3 18 4 13 5 19 6 20 7 21 8 15 9 16 10 17 11
REMARK SMILES IDX 10 13 9 14 8 15 7 16 5 17 2 18 4 19 3 20 6 21 1 22
REMARK H PARENT 17 12 4 23
ROOT
ATOM      1  O   UNL     1       3.650  -0.932  -9.784  1.00  0.00    -0.490 OA
ENDROOT
BRANCH   1   2
ATOM      2  C   UNL     1       4.631  -0.924 -10.725  1.00  0.00     0.155 A 
ATOM      3  C   UNL     1       6.955  -1.082 -11.320  1.00  0.00     0.063 A 
ATOM      4  C   UNL     1       6.619  -0.913 -12.665  1.00  0.00     0.019 A 
ATOM      5  C   UNL     1       5.951  -1.086 -10.349  1.00  0.00     0.065 A 
ATOM      6  C   UNL     1       5.298  -0.758 -13.031  1.00  0.00     0.044 A 
ATOM      7  C   UNL     1       4.304  -0.767 -12.068  1.00  0.00     0.165 A 
ATOM      8  F   UNL     1       3.012  -0.615 -12.433  1.00  0.00    -0.203 F 
BRANCH   3   9
ATOM      9  C   UNL     1       8.368  -1.249 -10.924  1.00  0.00     0.335 C 
ATOM     10  O   UNL     1       8.869  -0.487 -10.124  1.00  0.00    -0.246 OA
BRANCH   9  11
ATOM     11  O   UNL     1       9.099  -2.252 -11.448  1.00  0.00    -0.478 OA
ATOM     12  H   UNL     1       8.889  -2.524 -12.353  1.00  0.00     0.297 HD
ENDBRANCH   9  11
ENDBRANCH   3   9
ENDBRANCH   1   2
BRANCH   1  13
ATOM     13  C   UNL     1       3.887  -1.708  -8.606  1.00  0.00     0.230 C 
BRANCH  13  14
ATOM     14  C   UNL     1       2.746  -1.487  -7.612  1.00  0.00     0.046 C 
BRANCH  14  15
ATOM     15  C   UNL     1       2.404   0.003  -7.551  1.00  0.00     0.043 C 
BRANCH  15  16
ATOM     16  C   UNL     1       3.299   0.683  -6.547  1.00  0.00    -0.004 A 
ATOM     17  C   UNL     1       3.252   0.526  -5.203  1.00  0.00     0.036 A 
ATOM     18  C   UNL     1       4.328   1.585  -6.839  1.00  0.00     0.063 A 
ATOM     19  N   UNL     1       4.214   1.304  -4.664  1.00  0.00    -0.282 N 
ATOM     20  N   UNL     1       4.872   1.963  -5.711  1.00  0.00    -0.181 NA
ATOM     21  C   UNL     1       2.299  -0.361  -4.446  1.00  0.00     0.066 C 
ATOM     22  C   UNL     1       4.732   2.050  -8.215  1.00  0.00     0.069 C 
ATOM     23  H   UNL     1       4.413   1.393  -3.719  1.00  0.00     0.190 HD
ENDBRANCH  15  16
ENDBRANCH  14  15
ENDBRANCH  13  14
ENDBRANCH   1  13
TORSDOF 7
ENDMDL
MODEL 9
REMARK VINA RESULT:    -4.781      4.154      7.291
REMARK INTER + INTRA:          -7.268
REMARK INTER:                  -6.694
REMARK INTRA:                  -0.574
REMARK UNBOUND:                -0.669
REMARK SMILES Cc1n[nH]c(C)c1CCCOc1cc(C(=O)O)ccc1F
REMARK SMILES IDX 11 1 12 2 14 3 18 4 13 5 19 6 20 7 21 8 15 9 16 10 17 11
REMARK SMILES IDX 10 13 9 14 8 15 7 16 5 17 2 18 4 19 3 20 6 21 1 22
REMARK H PARENT 17 12 4 23
ROOT
ATOM      1  O   UNL     1       3.982  -1.057 -10.112  1.00  0.00    -0.490 OA
ENDROOT
BRANCH   1   2
ATOM      2  C   UNL     1       4.896  -1.003 -11.117  1.00  0.00     0.155 A 
ATOM      3  C   UNL     1       7.182  -1.003 -11.861  1.00  0.00     0.063 A 
ATOM      4  C   UNL     1       6.747  -0.902 -13.185  1.00  0.00     0.019 A 
ATOM      5  C   UNL     1       6.246  -1.054 -10.826  1.00  0.00     0.065 A 
ATOM      6  C   UNL     1       5.398  -0.859 -13.466  1.00  0.00     0.044 A 
ATOM      7  C   UNL     1       4.471  -0.914 -12.438  1.00  0.00     0.165 A 
ATOM      8  F   UNL     1       3.150  -0.871 -12.719  1.00  0.00    -0.203 F 
BRANCH   3   9
ATOM      9  C   UNL     1       8.626  -1.050 -11.557  1.00  0.00     0.335 C 
ATOM     10  O   UNL     1       9.017  -1.602 -10.549  1.00  0.00    -0.246 OA
BRANCH   9  11
ATOM     11  O   UNL     1       9.510  -0.486 -12.403  1.00  0.00    -0.478 OA
ATOM     12  H   UNL     1      10.444  -0.703 -12.272  1.00  0.00     0.297 HD
ENDBRANCH   9  11
ENDBRANCH   3   9
ENDBRANCH   1   2
BRANCH   1  13
ATOM     13  C   UNL     1       4.010  -2.213  -9.270  1.00  0.00     0.230 C 
BRANCH  13  14
ATOM     14  C   UNL     1       4.155  -1.776  -7.811  1.00  0.00     0.046 C 
BRANCH  14  15
ATOM     15  C   UNL     1       3.518  -0.397  -7.625  1.00  0.00     0.043 C 
BRANCH  15  16
ATOM     16  C   UNL     1       2.952  -0.288  -6.234  1.00  0.00    -0.004 A 
ATOM     17  C   UNL     1       1.789  -0.830  -5.802  1.00  0.00     0.036 A 
ATOM     18  C   UNL     1       3.537   0.386  -5.157  1.00  0.00     0.063 A 
ATOM     19  N   UNL     1       1.642  -0.505  -4.501  1.00  0.00    -0.282 N 
ATOM     20  N   UNL     1       2.750   0.263  -4.120  1.00  0.00    -0.181 NA
ATOM     21  C   UNL     1       0.832  -1.651  -6.627  1.00  0.00     0.066 C 
ATOM     22  C   UNL     1       4.845   1.137  -5.190  1.00  0.00     0.069 C 
ATOM     23  H   UNL     1       0.899  -0.757  -3.930  1.00  0.00     0.190 HD
ENDBRANCH  15  16
ENDBRANCH  14  15
ENDBRANCH  13  14
ENDBRANCH   1  13
TORSDOF 7
ENDMDL
