MODEL 1
REMARK VINA RESULT:    -3.785      0.000      0.000
REMARK INTER + INTRA:          -4.624
REMARK INTER:                  -4.338
REMARK INTRA:                  -0.286
REMARK UNBOUND:                -0.286
REMARK SMILES O=C(O)c1ccc2nc(-c3cc(Cl)cc(Cl)c3)oc2c1
REMARK SMILES IDX 5 1 6 2 20 3 8 4 18 5 4 6 9 7 7 8 19 9 2 10 1 11 3 12 10 14
REMARK SMILES IDX 11 15 17 16 12 17 15 18 14 19 13 20 16 21
REMARK H PARENT 3 13
ROOT
ATOM      1  C   UNL     1       5.116   1.812   4.259  1.00  0.00     0.018 A 
ATOM      2  C   UNL     1       5.379   2.748   5.214  1.00  0.00     0.033 A 
ATOM      3  C   UNL     1       5.614   0.034   5.832  1.00  0.00     0.065 A 
ATOM      4  N   UNL     1       6.085   3.025   7.623  1.00  0.00    -0.209 NA
ATOM      5  O   UNL     1       6.271   0.909   8.095  1.00  0.00    -0.436 OA
ATOM      6  C   UNL     1       5.227   0.446   4.555  1.00  0.00     0.063 A 
ATOM      7  C   UNL     1       6.383   2.166   8.566  1.00  0.00     0.227 A 
ATOM      8  C   UNL     1       5.767   2.349   6.498  1.00  0.00     0.110 A 
ATOM      9  C   UNL     1       5.886   0.982   6.802  1.00  0.00     0.156 A 
ENDROOT
BRANCH   6  10
ATOM     10  C   UNL     1       4.935  -0.558   3.516  1.00  0.00     0.335 C 
ATOM     11  O   UNL     1       4.845  -0.219   2.353  1.00  0.00    -0.246 OA
BRANCH  10  12
ATOM     12  O   UNL     1       4.766  -1.851   3.856  1.00  0.00    -0.478 OA
ATOM     13  H   UNL     1       4.901  -2.509   3.161  1.00  0.00     0.297 HD
ENDBRANCH  10  12
ENDBRANCH   6  10
BRANCH   7  14
ATOM     14  C   UNL     1       6.782   2.524   9.943  1.00  0.00     0.040 A 
ATOM     15  C   UNL     1       5.811   2.780  10.911  1.00  0.00     0.034 A 
ATOM     16  C   UNL     1       8.135   2.608  10.280  1.00  0.00     0.034 A 
ATOM     17  C   UNL     1       6.191   3.113  12.196  1.00  0.00     0.043 A 
ATOM     18  C   UNL     1       8.503   2.942  11.568  1.00  0.00     0.043 A 
ATOM     19  C   UNL     1       7.534   3.194  12.524  1.00  0.00     0.041 A 
ATOM     20  Cl  UNL     1       4.984   3.431  13.402  1.00  0.00    -0.084 Cl
ATOM     21  Cl  UNL     1      10.184   3.047  11.989  1.00  0.00    -0.084 Cl
ENDBRANCH   7  14
TORSDOF 3
ENDMDL
MODEL 2
REMARK VINA RESULT:    -3.774      0.029      2.020
REMARK INTER + INTRA:          -4.612
REMARK INTER:                  -4.325
REMARK INTRA:                  -0.286
REMARK UNBOUND:                -0.286
REMARK SMILES O=C(O)c1ccc2nc(-c3cc(Cl)cc(Cl)c3)oc2c1
REMARK SMILES IDX 5 1 6 2 20 3 8 4 18 5 4 6 9 7 7 8 19 9 2 10 1 11 3 12 10 14
REMARK SMILES IDX 11 15 17 16 12 17 15 18 14 19 13 20 16 21
REMARK H PARENT 3 13
ROOT
ATOM      1  C   UNL     1       5.076   1.800   4.271  1.00  0.00     0.018 A 
ATOM      2  C   UNL     1       5.333   2.740   5.224  1.00  0.00     0.033 A 
ATOM      3  C   UNL     1       5.601   0.029   5.841  1.00  0.00     0.065 A 
ATOM      4  N   UNL     1       6.047   3.024   7.631  1.00  0.00    -0.209 NA
ATOM      5  O   UNL     1       6.258   0.911   8.102  1.00  0.00    -0.436 OA
ATOM      6  C   UNL     1       5.205   0.436   4.566  1.00  0.00     0.063 A 
ATOM      7  C   UNL     1       6.358   2.168   8.572  1.00  0.00     0.227 A 
ATOM      8  C   UNL     1       5.731   2.345   6.507  1.00  0.00     0.110 A 
ATOM      9  C   UNL     1       5.867   0.979   6.810  1.00  0.00     0.156 A 
ENDROOT
BRANCH   6  10
ATOM     10  C   UNL     1       4.919  -0.571   3.529  1.00  0.00     0.335 C 
ATOM     11  O   UNL     1       4.827  -0.235   2.365  1.00  0.00    -0.246 OA
BRANCH  10  12
ATOM     12  O   UNL     1       4.757  -1.865   3.871  1.00  0.00    -0.478 OA
ATOM     13  H   UNL     1       5.255  -2.182   4.636  1.00  0.00     0.297 HD
ENDBRANCH  10  12
ENDBRANCH   6  10
BRANCH   7  14
ATOM     14  C   UNL     1       6.760   2.531   9.947  1.00  0.00     0.040 A 
ATOM     15  C   UNL     1       8.112   2.613  10.284  1.00  0.00     0.034 A 
ATOM     16  C   UNL     1       5.788   2.791  10.915  1.00  0.00     0.034 A 
ATOM     17  C   UNL     1       8.481   2.953  11.570  1.00  0.00     0.043 A 
ATOM     18  C   UNL     1       6.169   3.131  12.198  1.00  0.00     0.043 A 
ATOM     19  C   UNL     1       7.512   3.210  12.526  1.00  0.00     0.041 A 
ATOM     20  Cl  UNL     1      10.161   3.057  11.991  1.00  0.00    -0.084 Cl
ATOM     21  Cl  UNL     1       4.962   3.455  13.403  1.00  0.00    -0.084 Cl
ENDBRANCH   7  14
TORSDOF 3
ENDMDL
MODEL 3
REMARK VINA RESULT:    -3.609      1.538      2.967
REMARK INTER + INTRA:          -4.423
REMARK INTER:                  -4.138
REMARK INTRA:                  -0.285
REMARK UNBOUND:                -0.286
REMARK SMILES O=C(O)c1ccc2nc(-c3cc(Cl)cc(Cl)c3)oc2c1
REMARK SMILES IDX 5 1 6 2 20 3 8 4 18 5 4 6 9 7 7 8 19 9 2 10 1 11 3 12 10 14
REMARK SMILES IDX 11 15 17 16 12 17 15 18 14 19 13 20 16 21
REMARK H PARENT 3 13
ROOT
ATOM      1  C   UNL     1       5.734   2.737   6.108  1.00  0.00     0.018 A 
ATOM      2  C   UNL     1       5.889   3.612   7.141  1.00  0.00     0.033 A 
ATOM      3  C   UNL     1       6.238   0.875   7.579  1.00  0.00     0.065 A 
ATOM      4  N   UNL     1       6.441   3.745   9.603  1.00  0.00    -0.209 NA
ATOM      5  O   UNL     1       6.715   1.612   9.934  1.00  0.00    -0.436 OA
ATOM      6  C   UNL     1       5.903   1.360   6.313  1.00  0.00     0.063 A 
ATOM      7  C   UNL     1       6.730   2.834  10.499  1.00  0.00     0.227 A 
ATOM      8  C   UNL     1       6.225   3.139   8.416  1.00  0.00     0.110 A 
ATOM      9  C   UNL     1       6.401   1.760   8.628  1.00  0.00     0.156 A 
ENDROOT
BRANCH   6  10
ATOM     10  C   UNL     1       5.726   0.422   5.189  1.00  0.00     0.335 C 
ATOM     11  O   UNL     1       5.372  -0.720   5.402  1.00  0.00    -0.246 OA
BRANCH  10  12
ATOM     12  O   UNL     1       5.959   0.831   3.926  1.00  0.00    -0.478 OA
ATOM     13  H   UNL     1       6.796   0.563   3.525  1.00  0.00     0.297 HD
ENDBRANCH  10  12
ENDBRANCH   6  10
BRANCH   7  14
ATOM     14  C   UNL     1       7.031   3.109  11.919  1.00  0.00     0.040 A 
ATOM     15  C   UNL     1       8.280   3.608  12.288  1.00  0.00     0.034 A 
ATOM     16  C   UNL     1       6.064   2.869  12.899  1.00  0.00     0.034 A 
ATOM     17  C   UNL     1       8.554   3.864  13.617  1.00  0.00     0.043 A 
ATOM     18  C   UNL     1       6.350   3.128  14.224  1.00  0.00     0.043 A 
ATOM     19  C   UNL     1       7.592   3.624  14.583  1.00  0.00     0.041 A 
ATOM     20  Cl  UNL     1      10.108   4.486  14.078  1.00  0.00    -0.084 Cl
ATOM     21  Cl  UNL     1       5.150   2.830  15.443  1.00  0.00    -0.084 Cl
ENDBRANCH   7  14
TORSDOF 3
ENDMDL
MODEL 4
REMARK VINA RESULT:    -3.607      1.542      2.245
REMARK INTER + INTRA:          -4.421
REMARK INTER:                  -4.135
REMARK INTRA:                  -0.285
REMARK UNBOUND:                -0.286
REMARK SMILES O=C(O)c1ccc2nc(-c3cc(Cl)cc(Cl)c3)oc2c1
REMARK SMILES IDX 5 1 6 2 20 3 8 4 18 5 4 6 9 7 7 8 19 9 2 10 1 11 3 12 10 14
REMARK SMILES IDX 11 15 17 16 12 17 15 18 14 19 13 20 16 21
REMARK H PARENT 3 13
ROOT
ATOM      1  C   UNL     1       5.732   2.741   6.112  1.00  0.00     0.018 A 
ATOM      2  C   UNL     1       5.885   3.615   7.146  1.00  0.00     0.033 A 
ATOM      3  C   UNL     1       6.239   0.879   7.580  1.00  0.00     0.065 A 
ATOM      4  N   UNL     1       6.435   3.747   9.608  1.00  0.00    -0.209 NA
ATOM      5  O   UNL     1       6.714   1.614   9.937  1.00  0.00    -0.436 OA
ATOM      6  C   UNL     1       5.904   1.365   6.315  1.00  0.00     0.063 A 
ATOM      7  C   UNL     1       6.726   2.835  10.503  1.00  0.00     0.227 A 
ATOM      8  C   UNL     1       6.221   3.142   8.420  1.00  0.00     0.110 A 
ATOM      9  C   UNL     1       6.401   1.763   8.630  1.00  0.00     0.156 A 
ENDROOT
BRANCH   6  10
ATOM     10  C   UNL     1       5.730   0.428   5.190  1.00  0.00     0.335 C 
ATOM     11  O   UNL     1       5.381  -0.716   5.401  1.00  0.00    -0.246 OA
BRANCH  10  12
ATOM     12  O   UNL     1       5.959   0.840   3.927  1.00  0.00    -0.478 OA
ATOM     13  H   UNL     1       5.268   0.663   3.275  1.00  0.00     0.297 HD
ENDBRANCH  10  12
ENDBRANCH   6  10
BRANCH   7  14
ATOM     14  C   UNL     1       7.025   3.109  11.924  1.00  0.00     0.040 A 
ATOM     15  C   UNL     1       6.061   2.864  12.903  1.00  0.00     0.034 A 
ATOM     16  C   UNL     1       8.274   3.614  12.292  1.00  0.00     0.034 A 
ATOM     17  C   UNL     1       6.347   3.121  14.229  1.00  0.00     0.043 A 
ATOM     18  C   UNL     1       8.548   3.867  13.622  1.00  0.00     0.043 A 
ATOM     19  C   UNL     1       7.587   3.622  14.588  1.00  0.00     0.041 A 
ATOM     20  Cl  UNL     1       5.150   2.817  15.448  1.00  0.00    -0.084 Cl
ATOM     21  Cl  UNL     1      10.100   4.495  14.082  1.00  0.00    -0.084 Cl
ENDBRANCH   7  14
TORSDOF 3
ENDMDL
MODEL 5
REMARK VINA RESULT:    -3.590      4.068      7.337
REMARK INTER + INTRA:          -4.401
REMARK INTER:                  -4.116
REMARK INTRA:                  -0.285
REMARK UNBOUND:                -0.286
REMARK SMILES O=C(O)c1ccc2nc(-c3cc(Cl)cc(Cl)c3)oc2c1
REMARK SMILES IDX 5 1 6 2 20 3 8 4 18 5 4 6 9 7 7 8 19 9 2 10 1 11 3 12 10 14
REMARK SMILES IDX 11 15 17 16 12 17 15 18 14 19 13 20 16 21
REMARK H PARENT 3 13
ROOT
ATOM      1  C   UNL     1       9.269   2.572  10.685  1.00  0.00     0.018 A 
ATOM      2  C   UNL     1       7.956   2.708  10.349  1.00  0.00     0.033 A 
ATOM      3  C   UNL     1       9.796   1.854   8.429  1.00  0.00     0.065 A 
ATOM      4  N   UNL     1       6.330   2.456   8.432  1.00  0.00    -0.209 NA
ATOM      5  O   UNL     1       7.768   1.786   6.944  1.00  0.00    -0.436 OA
ATOM      6  C   UNL     1      10.205   2.146   9.731  1.00  0.00     0.063 A 
ATOM      7  C   UNL     1       6.477   2.081   7.186  1.00  0.00     0.227 A 
ATOM      8  C   UNL     1       7.531   2.418   9.047  1.00  0.00     0.110 A 
ATOM      9  C   UNL     1       8.463   1.985   8.086  1.00  0.00     0.156 A 
ENDROOT
BRANCH   6  10
ATOM     10  C   UNL     1      11.625   2.009  10.104  1.00  0.00     0.335 C 
ATOM     11  O   UNL     1      12.094   0.908  10.312  1.00  0.00    -0.246 OA
BRANCH  10  12
ATOM     12  O   UNL     1      12.402   3.105  10.215  1.00  0.00    -0.478 OA
ATOM     13  H   UNL     1      13.008   3.139  10.967  1.00  0.00     0.297 HD
ENDBRANCH  10  12
ENDBRANCH   6  10
BRANCH   7  14
ATOM     14  C   UNL     1       5.386   1.993   6.193  1.00  0.00     0.040 A 
ATOM     15  C   UNL     1       5.448   1.052   5.164  1.00  0.00     0.034 A 
ATOM     16  C   UNL     1       4.290   2.854   6.280  1.00  0.00     0.034 A 
ATOM     17  C   UNL     1       4.425   0.975   4.240  1.00  0.00     0.043 A 
ATOM     18  C   UNL     1       3.273   2.767   5.350  1.00  0.00     0.043 A 
ATOM     19  C   UNL     1       3.340   1.831   4.332  1.00  0.00     0.041 A 
ATOM     20  Cl  UNL     1       4.499  -0.195   2.961  1.00  0.00    -0.084 Cl
ATOM     21  Cl  UNL     1       1.908   3.835   5.456  1.00  0.00    -0.084 Cl
ENDBRANCH   7  14
TORSDOF 3
ENDMDL
MODEL 6
REMARK VINA RESULT:    -3.589      4.067      7.157
REMARK INTER + INTRA:          -4.399
REMARK INTER:                  -4.114
REMARK INTRA:                  -0.285
REMARK UNBOUND:                -0.286
REMARK SMILES O=C(O)c1ccc2nc(-c3cc(Cl)cc(Cl)c3)oc2c1
REMARK SMILES IDX 5 1 6 2 20 3 8 4 18 5 4 6 9 7 7 8 19 9 2 10 1 11 3 12 10 14
REMARK SMILES IDX 11 15 17 16 12 17 15 18 14 19 13 20 16 21
REMARK H PARENT 3 13
ROOT
ATOM      1  C   UNL     1       9.267   2.572  10.684  1.00  0.00     0.018 A 
ATOM      2  C   UNL     1       7.953   2.708  10.350  1.00  0.00     0.033 A 
ATOM      3  C   UNL     1       9.791   1.856   8.428  1.00  0.00     0.065 A 
ATOM      4  N   UNL     1       6.325   2.458   8.434  1.00  0.00    -0.209 NA
ATOM      5  O   UNL     1       7.763   1.789   6.944  1.00  0.00    -0.436 OA
ATOM      6  C   UNL     1      10.202   2.147   9.730  1.00  0.00     0.063 A 
ATOM      7  C   UNL     1       6.472   2.083   7.187  1.00  0.00     0.227 A 
ATOM      8  C   UNL     1       7.528   2.419   9.048  1.00  0.00     0.110 A 
ATOM      9  C   UNL     1       8.458   1.987   8.086  1.00  0.00     0.156 A 
ENDROOT
BRANCH   6  10
ATOM     10  C   UNL     1      11.622   2.010  10.102  1.00  0.00     0.335 C 
ATOM     11  O   UNL     1      12.092   0.908  10.307  1.00  0.00    -0.246 OA
BRANCH  10  12
ATOM     12  O   UNL     1      12.398   3.105  10.215  1.00  0.00    -0.478 OA
ATOM     13  H   UNL     1      12.785   3.282  11.083  1.00  0.00     0.297 HD
ENDBRANCH  10  12
ENDBRANCH   6  10
BRANCH   7  14
ATOM     14  C   UNL     1       5.380   1.997   6.195  1.00  0.00     0.040 A 
ATOM     15  C   UNL     1       4.284   2.855   6.283  1.00  0.00     0.034 A 
ATOM     16  C   UNL     1       5.443   1.055   5.166  1.00  0.00     0.034 A 
ATOM     17  C   UNL     1       3.267   2.770   5.352  1.00  0.00     0.043 A 
ATOM     18  C   UNL     1       4.420   0.979   4.241  1.00  0.00     0.043 A 
ATOM     19  C   UNL     1       3.335   1.833   4.334  1.00  0.00     0.041 A 
ATOM     20  Cl  UNL     1       1.902   3.836   5.458  1.00  0.00    -0.084 Cl
ATOM     21  Cl  UNL     1       4.495  -0.192   2.961  1.00  0.00    -0.084 Cl
ENDBRANCH   7  14
TORSDOF 3
ENDMDL
MODEL 7
REMARK VINA RESULT:    -3.587      3.972      7.480
REMARK INTER + INTRA:          -4.397
REMARK INTER:                  -4.101
REMARK INTRA:                  -0.296
REMARK UNBOUND:                -0.286
REMARK SMILES O=C(O)c1ccc2nc(-c3cc(Cl)cc(Cl)c3)oc2c1
REMARK SMILES IDX 5 1 6 2 20 3 8 4 18 5 4 6 9 7 7 8 19 9 2 10 1 11 3 12 10 14
REMARK SMILES IDX 11 15 17 16 12 17 15 18 14 19 13 20 16 21
REMARK H PARENT 3 13
ROOT
ATOM      1  C   UNL     1       8.882   2.736  10.809  1.00  0.00     0.018 A 
ATOM      2  C   UNL     1       8.782   2.301   9.521  1.00  0.00     0.033 A 
ATOM      3  C   UNL     1       6.480   3.053  10.912  1.00  0.00     0.065 A 
ATOM      4  N   UNL     1       7.125   1.856   7.667  1.00  0.00    -0.209 NA
ATOM      5  O   UNL     1       5.336   2.448   8.756  1.00  0.00    -0.436 OA
ATOM      6  C   UNL     1       7.735   3.114  11.520  1.00  0.00     0.063 A 
ATOM      7  C   UNL     1       5.823   1.985   7.589  1.00  0.00     0.227 A 
ATOM      8  C   UNL     1       7.530   2.235   8.899  1.00  0.00     0.110 A 
ATOM      9  C   UNL     1       6.375   2.617   9.604  1.00  0.00     0.156 A 
ENDROOT
BRANCH   6  10
ATOM     10  C   UNL     1       7.854   3.577  12.915  1.00  0.00     0.335 C 
ATOM     11  O   UNL     1       6.882   4.022  13.492  1.00  0.00    -0.246 OA
BRANCH  10  12
ATOM     12  O   UNL     1       9.040   3.507  13.550  1.00  0.00    -0.478 OA
ATOM     13  H   UNL     1       9.761   3.060  13.086  1.00  0.00     0.297 HD
ENDBRANCH  10  12
ENDBRANCH   6  10
BRANCH   7  14
ATOM     14  C   UNL     1       5.011   1.669   6.397  1.00  0.00     0.040 A 
ATOM     15  C   UNL     1       3.812   2.345   6.165  1.00  0.00     0.034 A 
ATOM     16  C   UNL     1       5.439   0.691   5.497  1.00  0.00     0.034 A 
ATOM     17  C   UNL     1       3.058   2.045   5.048  1.00  0.00     0.043 A 
ATOM     18  C   UNL     1       4.677   0.400   4.383  1.00  0.00     0.043 A 
ATOM     19  C   UNL     1       3.489   1.074   4.159  1.00  0.00     0.041 A 
ATOM     20  Cl  UNL     1       1.567   2.885   4.757  1.00  0.00    -0.084 Cl
ATOM     21  Cl  UNL     1       5.208  -0.816   3.263  1.00  0.00    -0.084 Cl
ENDBRANCH   7  14
TORSDOF 3
ENDMDL
MODEL 8
REMARK VINA RESULT:    -3.580      3.971      7.685
REMARK INTER + INTRA:          -4.390
REMARK INTER:                  -4.094
REMARK INTRA:                  -0.296
REMARK UNBOUND:                -0.286
REMARK SMILES O=C(O)c1ccc2nc(-c3cc(Cl)cc(Cl)c3)oc2c1
REMARK SMILES IDX 5 1 6 2 20 3 8 4 18 5 4 6 9 7 7 8 19 9 2 10 1 11 3 12 10 14
REMARK SMILES IDX 11 15 17 16 12 17 15 18 14 19 13 20 16 21
REMARK H PARENT 3 13
ROOT
ATOM      1  C   UNL     1       8.900   2.728  10.791  1.00  0.00     0.018 A 
ATOM      2  C   UNL     1       8.797   2.296   9.503  1.00  0.00     0.033 A 
ATOM      3  C   UNL     1       6.499   3.047  10.902  1.00  0.00     0.065 A 
ATOM      4  N   UNL     1       7.134   1.854   7.654  1.00  0.00    -0.209 NA
ATOM      5  O   UNL     1       5.349   2.446   8.748  1.00  0.00    -0.436 OA
ATOM      6  C   UNL     1       7.756   3.107  11.507  1.00  0.00     0.063 A 
ATOM      7  C   UNL     1       5.833   1.984   7.580  1.00  0.00     0.227 A 
ATOM      8  C   UNL     1       7.543   2.231   8.884  1.00  0.00     0.110 A 
ATOM      9  C   UNL     1       6.391   2.613   9.593  1.00  0.00     0.156 A 
ENDROOT
BRANCH   6  10
ATOM     10  C   UNL     1       7.879   3.568  12.901  1.00  0.00     0.335 C 
ATOM     11  O   UNL     1       6.910   4.017  13.480  1.00  0.00    -0.246 OA
BRANCH  10  12
ATOM     12  O   UNL     1       9.066   3.492  13.534  1.00  0.00    -0.478 OA
ATOM     13  H   UNL     1       9.238   4.145  14.226  1.00  0.00     0.297 HD
ENDBRANCH  10  12
ENDBRANCH   6  10
BRANCH   7  14
ATOM     14  C   UNL     1       5.017   1.669   6.389  1.00  0.00     0.040 A 
ATOM     15  C   UNL     1       5.441   0.693   5.486  1.00  0.00     0.034 A 
ATOM     16  C   UNL     1       3.818   2.349   6.162  1.00  0.00     0.034 A 
ATOM     17  C   UNL     1       4.673   0.404   4.375  1.00  0.00     0.043 A 
ATOM     18  C   UNL     1       3.059   2.050   5.048  1.00  0.00     0.043 A 
ATOM     19  C   UNL     1       3.485   1.081   4.156  1.00  0.00     0.041 A 
ATOM     20  Cl  UNL     1       5.198  -0.810   3.251  1.00  0.00    -0.084 Cl
ATOM     21  Cl  UNL     1       1.568   2.894   4.764  1.00  0.00    -0.084 Cl
ENDBRANCH   7  14
TORSDOF 3
ENDMDL
MODEL 9
REMARK VINA RESULT:    -3.490      4.212      8.149
REMARK INTER + INTRA:          -4.286
REMARK INTER:                  -4.005
REMARK INTRA:                  -0.281
REMARK UNBOUND:                -0.286
REMARK SMILES O=C(O)c1ccc2nc(-c3cc(Cl)cc(Cl)c3)oc2c1
REMARK SMILES IDX 5 1 6 2 20 3 8 4 18 5 4 6 9 7 7 8 19 9 2 10 1 11 3 12 10 14
REMARK SMILES IDX 11 15 17 16 12 17 15 18 14 19 13 20 16 21
REMARK H PARENT 3 13
ROOT
ATOM      1  C   UNL     1       7.744   3.758  14.470  1.00  0.00     0.018 A 
ATOM      2  C   UNL     1       8.153   3.826  13.172  1.00  0.00     0.033 A 
ATOM      3  C   UNL     1       5.662   2.720  13.785  1.00  0.00     0.065 A 
ATOM      4  N   UNL     1       7.452   3.277  10.808  1.00  0.00    -0.209 NA
ATOM      5  O   UNL     1       5.511   2.422  11.293  1.00  0.00    -0.436 OA
ATOM      6  C   UNL     1       6.497   3.204  14.794  1.00  0.00     0.063 A 
ATOM      7  C   UNL     1       6.373   2.729  10.306  1.00  0.00     0.227 A 
ATOM      8  C   UNL     1       7.325   3.345  12.151  1.00  0.00     0.110 A 
ATOM      9  C   UNL     1       6.071   2.792  12.466  1.00  0.00     0.156 A 
ENDROOT
BRANCH   6  10
ATOM     10  C   UNL     1       6.068   3.130  16.202  1.00  0.00     0.335 C 
ATOM     11  O   UNL     1       5.771   2.058  16.691  1.00  0.00    -0.246 OA
BRANCH  10  12
ATOM     12  O   UNL     1       6.004   4.251  16.947  1.00  0.00    -0.478 OA
ATOM     13  H   UNL     1       6.807   4.513  17.417  1.00  0.00     0.297 HD
ENDBRANCH  10  12
ENDBRANCH   6  10
BRANCH   7  14
ATOM     14  C   UNL     1       6.139   2.485   8.868  1.00  0.00     0.040 A 
ATOM     15  C   UNL     1       6.030   1.179   8.387  1.00  0.00     0.034 A 
ATOM     16  C   UNL     1       6.025   3.560   7.984  1.00  0.00     0.034 A 
ATOM     17  C   UNL     1       5.809   0.958   7.042  1.00  0.00     0.043 A 
ATOM     18  C   UNL     1       5.805   3.326   6.641  1.00  0.00     0.043 A 
ATOM     19  C   UNL     1       5.698   2.028   6.171  1.00  0.00     0.041 A 
ATOM     20  Cl  UNL     1       5.673  -0.665   6.441  1.00  0.00    -0.084 Cl
ATOM     21  Cl  UNL     1       5.664   4.661   5.541  1.00  0.00    -0.084 Cl
ENDBRANCH   7  14
TORSDOF 3
ENDMDL
