MODEL 1
REMARK VINA RESULT:    -6.316      0.000      0.000
REMARK INTER + INTRA:          -7.525
REMARK INTER:                  -7.239
REMARK INTRA:                  -0.285
REMARK UNBOUND:                -0.285
REMARK SMILES O=C(O)c1ccc2nc(-c3cc(Cl)cc(Cl)c3)oc2c1
REMARK SMILES IDX 5 1 6 2 20 3 8 4 18 5 4 6 9 7 7 8 19 9 2 10 1 11 3 12 10 14
REMARK SMILES IDX 11 15 17 16 12 17 15 18 14 19 13 20 16 21
REMARK H PARENT 3 13
ROOT
ATOM      1  C   UNL     1       5.277   0.310  -4.171  1.00  0.00     0.018 A 
ATOM      2  C   UNL     1       5.811   1.386  -4.813  1.00  0.00     0.033 A 
ATOM      3  C   UNL     1       7.483  -0.663  -3.915  1.00  0.00     0.065 A 
ATOM      4  N   UNL     1       7.994   2.376  -5.612  1.00  0.00    -0.209 NA
ATOM      5  O   UNL     1       9.289   0.774  -4.913  1.00  0.00    -0.436 OA
ATOM      6  C   UNL     1       6.104  -0.725  -3.713  1.00  0.00     0.063 A 
ATOM      7  C   UNL     1       9.235   1.963  -5.543  1.00  0.00     0.227 A 
ATOM      8  C   UNL     1       7.194   1.462  -5.023  1.00  0.00     0.110 A 
ATOM      9  C   UNL     1       8.029   0.425  -4.571  1.00  0.00     0.156 A 
ENDROOT
BRANCH   6  10
ATOM     10  C   UNL     1       5.515  -1.882  -3.014  1.00  0.00     0.335 C 
ATOM     11  O   UNL     1       4.332  -2.130  -3.140  1.00  0.00    -0.246 OA
BRANCH  10  12
ATOM     12  O   UNL     1       6.287  -2.663  -2.233  1.00  0.00    -0.478 OA
ATOM     13  H   UNL     1       6.494  -3.547  -2.564  1.00  0.00     0.297 HD
ENDBRANCH  10  12
ENDBRANCH   6  10
BRANCH   7  14
ATOM     14  C   UNL     1      10.403   2.693  -6.078  1.00  0.00     0.040 A 
ATOM     15  C   UNL     1      11.124   3.561  -5.256  1.00  0.00     0.034 A 
ATOM     16  C   UNL     1      10.788   2.519  -7.409  1.00  0.00     0.034 A 
ATOM     17  C   UNL     1      12.214   4.240  -5.762  1.00  0.00     0.043 A 
ATOM     18  C   UNL     1      11.880   3.203  -7.903  1.00  0.00     0.043 A 
ATOM     19  C   UNL     1      12.592   4.063  -7.083  1.00  0.00     0.041 A 
ATOM     20  Cl  UNL     1      13.113   5.319  -4.742  1.00  0.00    -0.084 Cl
ATOM     21  Cl  UNL     1      12.362   2.988  -9.557  1.00  0.00    -0.084 Cl
ENDBRANCH   7  14
TORSDOF 3
ENDMDL
MODEL 2
REMARK VINA RESULT:    -6.309      0.007      2.019
REMARK INTER + INTRA:          -7.516
REMARK INTER:                  -7.231
REMARK INTRA:                  -0.286
REMARK UNBOUND:                -0.285
REMARK SMILES O=C(O)c1ccc2nc(-c3cc(Cl)cc(Cl)c3)oc2c1
REMARK SMILES IDX 5 1 6 2 20 3 8 4 18 5 4 6 9 7 7 8 19 9 2 10 1 11 3 12 10 14
REMARK SMILES IDX 11 15 17 16 12 17 15 18 14 19 13 20 16 21
REMARK H PARENT 3 13
ROOT
ATOM      1  C   UNL     1       5.271   0.307  -4.175  1.00  0.00     0.018 A 
ATOM      2  C   UNL     1       5.805   1.382  -4.820  1.00  0.00     0.033 A 
ATOM      3  C   UNL     1       7.478  -0.662  -3.912  1.00  0.00     0.065 A 
ATOM      4  N   UNL     1       7.989   2.372  -5.618  1.00  0.00    -0.209 NA
ATOM      5  O   UNL     1       9.284   0.773  -4.912  1.00  0.00    -0.436 OA
ATOM      6  C   UNL     1       6.098  -0.725  -3.712  1.00  0.00     0.063 A 
ATOM      7  C   UNL     1       9.230   1.960  -5.545  1.00  0.00     0.227 A 
ATOM      8  C   UNL     1       7.188   1.459  -5.028  1.00  0.00     0.110 A 
ATOM      9  C   UNL     1       8.024   0.424  -4.570  1.00  0.00     0.156 A 
ENDROOT
BRANCH   6  10
ATOM     10  C   UNL     1       5.509  -1.880  -3.010  1.00  0.00     0.335 C 
ATOM     11  O   UNL     1       4.327  -2.130  -3.138  1.00  0.00    -0.246 OA
BRANCH  10  12
ATOM     12  O   UNL     1       6.281  -2.658  -2.225  1.00  0.00    -0.478 OA
ATOM     13  H   UNL     1       5.852  -3.408  -1.792  1.00  0.00     0.297 HD
ENDBRANCH  10  12
ENDBRANCH   6  10
BRANCH   7  14
ATOM     14  C   UNL     1      10.398   2.690  -6.080  1.00  0.00     0.040 A 
ATOM     15  C   UNL     1      10.784   2.516  -7.410  1.00  0.00     0.034 A 
ATOM     16  C   UNL     1      11.119   3.557  -5.257  1.00  0.00     0.034 A 
ATOM     17  C   UNL     1      11.876   3.202  -7.904  1.00  0.00     0.043 A 
ATOM     18  C   UNL     1      12.209   4.237  -5.763  1.00  0.00     0.043 A 
ATOM     19  C   UNL     1      12.587   4.060  -7.083  1.00  0.00     0.041 A 
ATOM     20  Cl  UNL     1      12.358   2.988  -9.558  1.00  0.00    -0.084 Cl
ATOM     21  Cl  UNL     1      13.107   5.316  -4.741  1.00  0.00    -0.084 Cl
ENDBRANCH   7  14
TORSDOF 3
ENDMDL
MODEL 3
REMARK VINA RESULT:    -6.305      2.687      3.452
REMARK INTER + INTRA:          -7.512
REMARK INTER:                  -7.226
REMARK INTRA:                  -0.286
REMARK UNBOUND:                -0.285
REMARK SMILES O=C(O)c1ccc2nc(-c3cc(Cl)cc(Cl)c3)oc2c1
REMARK SMILES IDX 5 1 6 2 20 3 8 4 18 5 4 6 9 7 7 8 19 9 2 10 1 11 3 12 10 14
REMARK SMILES IDX 11 15 17 16 12 17 15 18 14 19 13 20 16 21
REMARK H PARENT 3 13
ROOT
ATOM      1  C   UNL     1       6.438   1.265  -2.321  1.00  0.00     0.018 A 
ATOM      2  C   UNL     1       7.516   0.691  -2.924  1.00  0.00     0.033 A 
ATOM      3  C   UNL     1       6.158   2.770  -4.202  1.00  0.00     0.065 A 
ATOM      4  N   UNL     1       8.948   0.783  -5.003  1.00  0.00    -0.209 NA
ATOM      5  O   UNL     1       7.888   2.407  -5.990  1.00  0.00    -0.436 OA
ATOM      6  C   UNL     1       5.745   2.309  -2.951  1.00  0.00     0.063 A 
ATOM      7  C   UNL     1       8.911   1.535  -6.075  1.00  0.00     0.227 A 
ATOM      8  C   UNL     1       7.942   1.144  -4.179  1.00  0.00     0.110 A 
ATOM      9  C   UNL     1       7.255   2.193  -4.815  1.00  0.00     0.156 A 
ENDROOT
BRANCH   6  10
ATOM     10  C   UNL     1       4.575   2.918  -2.292  1.00  0.00     0.335 C 
ATOM     11  O   UNL     1       4.393   2.752  -1.103  1.00  0.00    -0.246 OA
BRANCH  10  12
ATOM     12  O   UNL     1       3.708   3.660  -3.009  1.00  0.00    -0.478 OA
ATOM     13  H   UNL     1       3.664   3.489  -3.959  1.00  0.00     0.297 HD
ENDBRANCH  10  12
ENDBRANCH   6  10
BRANCH   7  14
ATOM     14  C   UNL     1       9.852   1.440  -7.210  1.00  0.00     0.040 A 
ATOM     15  C   UNL     1      11.080   2.101  -7.159  1.00  0.00     0.034 A 
ATOM     16  C   UNL     1       9.516   0.689  -8.338  1.00  0.00     0.034 A 
ATOM     17  C   UNL     1      11.956   2.008  -8.222  1.00  0.00     0.043 A 
ATOM     18  C   UNL     1      10.401   0.604  -9.395  1.00  0.00     0.043 A 
ATOM     19  C   UNL     1      11.617   1.262  -9.338  1.00  0.00     0.041 A 
ATOM     20  Cl  UNL     1      13.485   2.829  -8.161  1.00  0.00    -0.084 Cl
ATOM     21  Cl  UNL     1       9.985  -0.330 -10.799  1.00  0.00    -0.084 Cl
ENDBRANCH   7  14
TORSDOF 3
ENDMDL
MODEL 4
REMARK VINA RESULT:    -6.303      2.688      3.885
REMARK INTER + INTRA:          -7.509
REMARK INTER:                  -7.223
REMARK INTRA:                  -0.286
REMARK UNBOUND:                -0.285
REMARK SMILES O=C(O)c1ccc2nc(-c3cc(Cl)cc(Cl)c3)oc2c1
REMARK SMILES IDX 5 1 6 2 20 3 8 4 18 5 4 6 9 7 7 8 19 9 2 10 1 11 3 12 10 14
REMARK SMILES IDX 11 15 17 16 12 17 15 18 14 19 13 20 16 21
REMARK H PARENT 3 13
ROOT
ATOM      1  C   UNL     1       6.435   1.263  -2.322  1.00  0.00     0.018 A 
ATOM      2  C   UNL     1       7.513   0.687  -2.925  1.00  0.00     0.033 A 
ATOM      3  C   UNL     1       6.156   2.767  -4.204  1.00  0.00     0.065 A 
ATOM      4  N   UNL     1       8.945   0.778  -5.004  1.00  0.00    -0.209 NA
ATOM      5  O   UNL     1       7.886   2.402  -5.991  1.00  0.00    -0.436 OA
ATOM      6  C   UNL     1       5.742   2.307  -2.953  1.00  0.00     0.063 A 
ATOM      7  C   UNL     1       8.908   1.530  -6.076  1.00  0.00     0.227 A 
ATOM      8  C   UNL     1       7.939   1.140  -4.180  1.00  0.00     0.110 A 
ATOM      9  C   UNL     1       7.253   2.189  -4.816  1.00  0.00     0.156 A 
ENDROOT
BRANCH   6  10
ATOM     10  C   UNL     1       4.574   2.917  -2.294  1.00  0.00     0.335 C 
ATOM     11  O   UNL     1       4.392   2.753  -1.104  1.00  0.00    -0.246 OA
BRANCH  10  12
ATOM     12  O   UNL     1       3.705   3.658  -3.011  1.00  0.00    -0.478 OA
ATOM     13  H   UNL     1       4.023   4.017  -3.851  1.00  0.00     0.297 HD
ENDBRANCH  10  12
ENDBRANCH   6  10
BRANCH   7  14
ATOM     14  C   UNL     1       9.850   1.434  -7.211  1.00  0.00     0.040 A 
ATOM     15  C   UNL     1       9.513   0.686  -8.340  1.00  0.00     0.034 A 
ATOM     16  C   UNL     1      11.081   2.091  -7.156  1.00  0.00     0.034 A 
ATOM     17  C   UNL     1      10.397   0.602  -9.397  1.00  0.00     0.043 A 
ATOM     18  C   UNL     1      11.956   1.999  -8.220  1.00  0.00     0.043 A 
ATOM     19  C   UNL     1      11.616   1.255  -9.337  1.00  0.00     0.041 A 
ATOM     20  Cl  UNL     1       9.981  -0.327 -10.803  1.00  0.00    -0.084 Cl
ATOM     21  Cl  UNL     1      13.487   2.815  -8.155  1.00  0.00    -0.084 Cl
ENDBRANCH   7  14
TORSDOF 3
ENDMDL
MODEL 5
REMARK VINA RESULT:    -5.483      1.953      2.284
REMARK INTER + INTRA:          -6.569
REMARK INTER:                  -6.273
REMARK INTRA:                  -0.297
REMARK UNBOUND:                -0.285
REMARK SMILES O=C(O)c1ccc2nc(-c3cc(Cl)cc(Cl)c3)oc2c1
REMARK SMILES IDX 5 1 6 2 20 3 8 4 18 5 4 6 9 7 7 8 19 9 2 10 1 11 3 12 10 14
REMARK SMILES IDX 11 15 17 16 12 17 15 18 14 19 13 20 16 21
REMARK H PARENT 3 13
ROOT
ATOM      1  C   UNL     1       5.310  -0.100  -3.672  1.00  0.00     0.018 A 
ATOM      2  C   UNL     1       6.183  -0.331  -4.693  1.00  0.00     0.033 A 
ATOM      3  C   UNL     1       6.440   1.979  -3.144  1.00  0.00     0.065 A 
ATOM      4  N   UNL     1       8.196   0.632  -5.878  1.00  0.00    -0.209 NA
ATOM      5  O   UNL     1       8.392   2.426  -4.663  1.00  0.00    -0.436 OA
ATOM      6  C   UNL     1       5.425   1.056  -2.887  1.00  0.00     0.063 A 
ATOM      7  C   UNL     1       8.895   1.725  -5.697  1.00  0.00     0.227 A 
ATOM      8  C   UNL     1       7.206   0.587  -4.960  1.00  0.00     0.110 A 
ATOM      9  C   UNL     1       7.331   1.746  -4.175  1.00  0.00     0.156 A 
ENDROOT
BRANCH   6  10
ATOM     10  C   UNL     1       4.470   1.298  -1.790  1.00  0.00     0.335 C 
ATOM     11  O   UNL     1       4.385   2.402  -1.292  1.00  0.00    -0.246 OA
BRANCH  10  12
ATOM     12  O   UNL     1       3.693   0.293  -1.339  1.00  0.00    -0.478 OA
ATOM     13  H   UNL     1       3.198   0.453  -0.524  1.00  0.00     0.297 HD
ENDBRANCH  10  12
ENDBRANCH   6  10
BRANCH   7  14
ATOM     14  C   UNL     1      10.063   2.127  -6.507  1.00  0.00     0.040 A 
ATOM     15  C   UNL     1      10.551   3.432  -6.434  1.00  0.00     0.034 A 
ATOM     16  C   UNL     1      10.684   1.201  -7.348  1.00  0.00     0.034 A 
ATOM     17  C   UNL     1      11.644   3.801  -7.193  1.00  0.00     0.043 A 
ATOM     18  C   UNL     1      11.776   1.582  -8.102  1.00  0.00     0.043 A 
ATOM     19  C   UNL     1      12.255   2.879  -8.026  1.00  0.00     0.041 A 
ATOM     20  Cl  UNL     1      12.252   5.425  -7.104  1.00  0.00    -0.084 Cl
ATOM     21  Cl  UNL     1      12.549   0.433  -9.149  1.00  0.00    -0.084 Cl
ENDBRANCH   7  14
TORSDOF 3
ENDMDL
MODEL 6
REMARK VINA RESULT:    -5.463      2.073      3.119
REMARK INTER + INTRA:          -6.547
REMARK INTER:                  -6.260
REMARK INTRA:                  -0.287
REMARK UNBOUND:                -0.285
REMARK SMILES O=C(O)c1ccc2nc(-c3cc(Cl)cc(Cl)c3)oc2c1
REMARK SMILES IDX 5 1 6 2 20 3 8 4 18 5 4 6 9 7 7 8 19 9 2 10 1 11 3 12 10 14
REMARK SMILES IDX 11 15 17 16 12 17 15 18 14 19 13 20 16 21
REMARK H PARENT 3 13
ROOT
ATOM      1  C   UNL     1       6.598   0.070  -2.630  1.00  0.00     0.018 A 
ATOM      2  C   UNL     1       7.735  -0.252  -3.307  1.00  0.00     0.033 A 
ATOM      3  C   UNL     1       6.417   2.144  -3.874  1.00  0.00     0.065 A 
ATOM      4  N   UNL     1       9.316   0.572  -5.097  1.00  0.00    -0.209 NA
ATOM      5  O   UNL     1       8.286   2.439  -5.529  1.00  0.00    -0.436 OA
ATOM      6  C   UNL     1       5.924   1.269  -2.904  1.00  0.00     0.063 A 
ATOM      7  C   UNL     1       9.337   1.655  -5.834  1.00  0.00     0.227 A 
ATOM      8  C   UNL     1       8.240   0.616  -4.282  1.00  0.00     0.110 A 
ATOM      9  C   UNL     1       7.573   1.822  -4.560  1.00  0.00     0.156 A 
ENDROOT
BRANCH   6  10
ATOM     10  C   UNL     1       4.691   1.604  -2.169  1.00  0.00     0.335 C 
ATOM     11  O   UNL     1       3.801   0.783  -2.070  1.00  0.00    -0.246 OA
BRANCH  10  12
ATOM     12  O   UNL     1       4.551   2.822  -1.608  1.00  0.00    -0.478 OA
ATOM     13  H   UNL     1       3.652   3.171  -1.536  1.00  0.00     0.297 HD
ENDBRANCH  10  12
ENDBRANCH   6  10
BRANCH   7  14
ATOM     14  C   UNL     1      10.364   1.969  -6.848  1.00  0.00     0.040 A 
ATOM     15  C   UNL     1      10.856   0.965  -7.683  1.00  0.00     0.034 A 
ATOM     16  C   UNL     1      10.847   3.274  -6.975  1.00  0.00     0.034 A 
ATOM     17  C   UNL     1      11.815   1.266  -8.630  1.00  0.00     0.043 A 
ATOM     18  C   UNL     1      11.806   3.562  -7.926  1.00  0.00     0.043 A 
ATOM     19  C   UNL     1      12.290   2.561  -8.751  1.00  0.00     0.041 A 
ATOM     20  Cl  UNL     1      12.427   0.018  -9.670  1.00  0.00    -0.084 Cl
ATOM     21  Cl  UNL     1      12.408   5.182  -8.085  1.00  0.00    -0.084 Cl
ENDBRANCH   7  14
TORSDOF 3
ENDMDL
MODEL 7
REMARK VINA RESULT:    -5.335      4.015      7.529
REMARK INTER + INTRA:          -6.401
REMARK INTER:                  -6.116
REMARK INTRA:                  -0.285
REMARK UNBOUND:                -0.285
REMARK SMILES O=C(O)c1ccc2nc(-c3cc(Cl)cc(Cl)c3)oc2c1
REMARK SMILES IDX 5 1 6 2 20 3 8 4 18 5 4 6 9 7 7 8 19 9 2 10 1 11 3 12 10 14
REMARK SMILES IDX 11 15 17 16 12 17 15 18 14 19 13 20 16 21
REMARK H PARENT 3 13
ROOT
ATOM      1  C   UNL     1      11.580   2.019  -8.447  1.00  0.00     0.018 A 
ATOM      2  C   UNL     1      10.652   1.120  -8.013  1.00  0.00     0.033 A 
ATOM      3  C   UNL     1      10.900   3.586  -6.727  1.00  0.00     0.065 A 
ATOM      4  N   UNL     1       8.842   0.768  -6.286  1.00  0.00    -0.209 NA
ATOM      5  O   UNL     1       9.038   2.693  -5.293  1.00  0.00    -0.436 OA
ATOM      6  C   UNL     1      11.717   3.260  -7.810  1.00  0.00     0.063 A 
ATOM      7  C   UNL     1       8.380   1.519  -5.318  1.00  0.00     0.227 A 
ATOM      8  C   UNL     1       9.826   1.434  -6.927  1.00  0.00     0.110 A 
ATOM      9  C   UNL     1       9.955   2.679  -6.286  1.00  0.00     0.156 A 
ENDROOT
BRANCH   6  10
ATOM     10  C   UNL     1      12.728   4.222  -8.285  1.00  0.00     0.335 C 
ATOM     11  O   UNL     1      13.812   4.282  -7.741  1.00  0.00    -0.246 OA
BRANCH  10  12
ATOM     12  O   UNL     1      12.449   5.036  -9.322  1.00  0.00    -0.478 OA
ATOM     13  H   UNL     1      12.070   4.628 -10.112  1.00  0.00     0.297 HD
ENDBRANCH  10  12
ENDBRANCH   6  10
BRANCH   7  14
ATOM     14  C   UNL     1       7.295   1.135  -4.392  1.00  0.00     0.040 A 
ATOM     15  C   UNL     1       6.530   2.117  -3.762  1.00  0.00     0.034 A 
ATOM     16  C   UNL     1       7.031  -0.214  -4.143  1.00  0.00     0.034 A 
ATOM     17  C   UNL     1       5.516   1.751  -2.898  1.00  0.00     0.043 A 
ATOM     18  C   UNL     1       6.015  -0.567  -3.277  1.00  0.00     0.043 A 
ATOM     19  C   UNL     1       5.260   0.412  -2.655  1.00  0.00     0.041 A 
ATOM     20  Cl  UNL     1       4.563   2.971  -2.113  1.00  0.00    -0.084 Cl
ATOM     21  Cl  UNL     1       5.686  -2.243  -2.967  1.00  0.00    -0.084 Cl
ENDBRANCH   7  14
TORSDOF 3
ENDMDL
MODEL 8
REMARK VINA RESULT:    -5.331      4.014      7.680
REMARK INTER + INTRA:          -6.396
REMARK INTER:                  -6.111
REMARK INTRA:                  -0.285
REMARK UNBOUND:                -0.285
REMARK SMILES O=C(O)c1ccc2nc(-c3cc(Cl)cc(Cl)c3)oc2c1
REMARK SMILES IDX 5 1 6 2 20 3 8 4 18 5 4 6 9 7 7 8 19 9 2 10 1 11 3 12 10 14
REMARK SMILES IDX 11 15 17 16 12 17 15 18 14 19 13 20 16 21
REMARK H PARENT 3 13
ROOT
ATOM      1  C   UNL     1      11.586   2.122  -8.357  1.00  0.00     0.018 A 
ATOM      2  C   UNL     1      10.669   1.203  -7.942  1.00  0.00     0.033 A 
ATOM      3  C   UNL     1      10.879   3.652  -6.613  1.00  0.00     0.065 A 
ATOM      4  N   UNL     1       8.856   0.799  -6.229  1.00  0.00    -0.209 NA
ATOM      5  O   UNL     1       9.023   2.710  -5.203  1.00  0.00    -0.436 OA
ATOM      6  C   UNL     1      11.705   3.354  -7.699  1.00  0.00     0.063 A 
ATOM      7  C   UNL     1       8.380   1.529  -5.250  1.00  0.00     0.227 A 
ATOM      8  C   UNL     1       9.834   1.489  -6.854  1.00  0.00     0.110 A 
ATOM      9  C   UNL     1       9.944   2.725  -6.192  1.00  0.00     0.156 A 
ENDROOT
BRANCH   6  10
ATOM     10  C   UNL     1      12.705   4.337  -8.153  1.00  0.00     0.335 C 
ATOM     11  O   UNL     1      13.830   4.315  -7.695  1.00  0.00    -0.246 OA
BRANCH  10  12
ATOM     12  O   UNL     1      12.372   5.261  -9.077  1.00  0.00    -0.478 OA
ATOM     13  H   UNL     1      12.507   6.188  -8.839  1.00  0.00     0.297 HD
ENDBRANCH  10  12
ENDBRANCH   6  10
BRANCH   7  14
ATOM     14  C   UNL     1       7.296   1.115  -4.335  1.00  0.00     0.040 A 
ATOM     15  C   UNL     1       7.043  -0.240  -4.116  1.00  0.00     0.034 A 
ATOM     16  C   UNL     1       6.521   2.078  -3.687  1.00  0.00     0.034 A 
ATOM     17  C   UNL     1       6.029  -0.620  -3.259  1.00  0.00     0.043 A 
ATOM     18  C   UNL     1       5.511   1.686  -2.832  1.00  0.00     0.043 A 
ATOM     19  C   UNL     1       5.264   0.340  -2.619  1.00  0.00     0.041 A 
ATOM     20  Cl  UNL     1       5.712  -2.305  -2.985  1.00  0.00    -0.084 Cl
ATOM     21  Cl  UNL     1       4.546   2.882  -2.024  1.00  0.00    -0.084 Cl
ENDBRANCH   7  14
TORSDOF 3
ENDMDL
MODEL 9
REMARK VINA RESULT:    -5.327      3.925      7.422
REMARK INTER + INTRA:          -6.391
REMARK INTER:                  -6.106
REMARK INTRA:                  -0.285
REMARK UNBOUND:                -0.285
REMARK SMILES O=C(O)c1ccc2nc(-c3cc(Cl)cc(Cl)c3)oc2c1
REMARK SMILES IDX 5 1 6 2 20 3 8 4 18 5 4 6 9 7 7 8 19 9 2 10 1 11 3 12 10 14
REMARK SMILES IDX 11 15 17 16 12 17 15 18 14 19 13 20 16 21
REMARK H PARENT 3 13
ROOT
ATOM      1  C   UNL     1      11.973   3.151  -7.442  1.00  0.00     0.018 A 
ATOM      2  C   UNL     1      11.101   3.479  -6.448  1.00  0.00     0.033 A 
ATOM      3  C   UNL     1      10.865   1.015  -7.742  1.00  0.00     0.065 A 
ATOM      4  N   UNL     1       9.106   2.624  -5.155  1.00  0.00    -0.209 NA
ATOM      5  O   UNL     1       8.932   0.705  -6.165  1.00  0.00    -0.436 OA
ATOM      6  C   UNL     1      11.866   1.919  -8.102  1.00  0.00     0.063 A 
ATOM      7  C   UNL     1       8.422   1.509  -5.213  1.00  0.00     0.227 A 
ATOM      8  C   UNL     1      10.091   2.582  -6.077  1.00  0.00     0.110 A 
ATOM      9  C   UNL     1       9.980   1.343  -6.731  1.00  0.00     0.156 A 
ENDROOT
BRANCH   6  10
ATOM     10  C   UNL     1      12.812   1.577  -9.180  1.00  0.00     0.335 C 
ATOM     11  O   UNL     1      12.523   1.806 -10.337  1.00  0.00    -0.246 OA
BRANCH  10  12
ATOM     12  O   UNL     1      13.998   1.010  -8.881  1.00  0.00    -0.478 OA
ATOM     13  H   UNL     1      14.776   1.584  -8.896  1.00  0.00     0.297 HD
ENDBRANCH  10  12
ENDBRANCH   6  10
BRANCH   7  14
ATOM     14  C   UNL     1       7.262   1.181  -4.358  1.00  0.00     0.040 A 
ATOM     15  C   UNL     1       6.922  -0.151  -4.117  1.00  0.00     0.034 A 
ATOM     16  C   UNL     1       6.501   2.204  -3.788  1.00  0.00     0.034 A 
ATOM     17  C   UNL     1       5.838  -0.450  -3.316  1.00  0.00     0.043 A 
ATOM     18  C   UNL     1       5.419   1.892  -2.989  1.00  0.00     0.043 A 
ATOM     19  C   UNL     1       5.087   0.569  -2.754  1.00  0.00     0.041 A 
ATOM     20  Cl  UNL     1       5.414  -2.106  -3.015  1.00  0.00    -0.084 Cl
ATOM     21  Cl  UNL     1       4.472   3.162  -2.279  1.00  0.00    -0.084 Cl
ENDBRANCH   7  14
TORSDOF 3
ENDMDL
