MODEL 1
REMARK VINA RESULT:    -4.574      0.000      0.000
REMARK INTER + INTRA:          -5.539
REMARK INTER:                  -5.243
REMARK INTRA:                  -0.296
REMARK UNBOUND:                -0.296
REMARK SMILES O=C(O)c1ccc2nc(-c3cc(Cl)cc(Cl)c3)oc2c1
REMARK SMILES IDX 5 1 6 2 20 3 8 4 18 5 4 6 9 7 7 8 19 9 2 10 1 11 3 12 10 14
REMARK SMILES IDX 11 15 17 16 12 17 15 18 14 19 13 20 16 21
REMARK H PARENT 3 13
ROOT
ATOM      1  C   UNL     1      -3.380   0.270   3.198  1.00  0.00     0.018 A 
ATOM      2  C   UNL     1      -2.021   0.241   3.299  1.00  0.00     0.033 A 
ATOM      3  C   UNL     1      -3.218   0.581   0.798  1.00  0.00     0.065 A 
ATOM      4  N   UNL     1       0.104   0.396   1.942  1.00  0.00    -0.209 NA
ATOM      5  O   UNL     1      -0.836   0.665  -0.002  1.00  0.00    -0.436 OA
ATOM      6  C   UNL     1      -3.995   0.438   1.949  1.00  0.00     0.063 A 
ATOM      7  C   UNL     1       0.331   0.562   0.663  1.00  0.00     0.227 A 
ATOM      8  C   UNL     1      -1.230   0.383   2.153  1.00  0.00     0.110 A 
ATOM      9  C   UNL     1      -1.839   0.557   0.898  1.00  0.00     0.156 A 
ENDROOT
BRANCH   6  10
ATOM     10  C   UNL     1      -5.465   0.462   1.851  1.00  0.00     0.335 C 
ATOM     11  O   UNL     1      -6.010   0.140   0.814  1.00  0.00    -0.246 OA
BRANCH  10  12
ATOM     12  O   UNL     1      -6.206   0.843   2.911  1.00  0.00    -0.478 OA
ATOM     13  H   UNL     1      -6.497   0.148   3.516  1.00  0.00     0.297 HD
ENDBRANCH  10  12
ENDBRANCH   6  10
BRANCH   7  14
ATOM     14  C   UNL     1       1.670   0.629   0.041  1.00  0.00     0.040 A 
ATOM     15  C   UNL     1       2.815   0.552   0.834  1.00  0.00     0.034 A 
ATOM     16  C   UNL     1       1.794   0.771  -1.342  1.00  0.00     0.034 A 
ATOM     17  C   UNL     1       4.064   0.613   0.248  1.00  0.00     0.043 A 
ATOM     18  C   UNL     1       3.047   0.832  -1.917  1.00  0.00     0.043 A 
ATOM     19  C   UNL     1       4.180   0.754  -1.125  1.00  0.00     0.041 A 
ATOM     20  Cl  UNL     1       5.490   0.517   1.232  1.00  0.00    -0.084 Cl
ATOM     21  Cl  UNL     1       3.203   1.008  -3.638  1.00  0.00    -0.084 Cl
ENDBRANCH   7  14
TORSDOF 3
ENDMDL
MODEL 2
REMARK VINA RESULT:    -4.569      0.020      2.020
REMARK INTER + INTRA:          -5.534
REMARK INTER:                  -5.237
REMARK INTRA:                  -0.296
REMARK UNBOUND:                -0.296
REMARK SMILES O=C(O)c1ccc2nc(-c3cc(Cl)cc(Cl)c3)oc2c1
REMARK SMILES IDX 5 1 6 2 20 3 8 4 18 5 4 6 9 7 7 8 19 9 2 10 1 11 3 12 10 14
REMARK SMILES IDX 11 15 17 16 12 17 15 18 14 19 13 20 16 21
REMARK H PARENT 3 13
ROOT
ATOM      1  C   UNL     1      -3.374   0.283   3.192  1.00  0.00     0.018 A 
ATOM      2  C   UNL     1      -2.015   0.249   3.292  1.00  0.00     0.033 A 
ATOM      3  C   UNL     1      -3.215   0.588   0.792  1.00  0.00     0.065 A 
ATOM      4  N   UNL     1       0.108   0.394   1.930  1.00  0.00    -0.209 NA
ATOM      5  O   UNL     1      -0.834   0.663  -0.012  1.00  0.00    -0.436 OA
ATOM      6  C   UNL     1      -3.990   0.451   1.944  1.00  0.00     0.063 A 
ATOM      7  C   UNL     1       0.334   0.557   0.650  1.00  0.00     0.227 A 
ATOM      8  C   UNL     1      -1.225   0.386   2.143  1.00  0.00     0.110 A 
ATOM      9  C   UNL     1      -1.836   0.560   0.889  1.00  0.00     0.156 A 
ENDROOT
BRANCH   6  10
ATOM     10  C   UNL     1      -5.461   0.479   1.849  1.00  0.00     0.335 C 
ATOM     11  O   UNL     1      -6.008   0.166   0.810  1.00  0.00    -0.246 OA
BRANCH  10  12
ATOM     12  O   UNL     1      -6.199   0.854   2.913  1.00  0.00    -0.478 OA
ATOM     13  H   UNL     1      -5.865   1.591   3.441  1.00  0.00     0.297 HD
ENDBRANCH  10  12
ENDBRANCH   6  10
BRANCH   7  14
ATOM     14  C   UNL     1       1.672   0.618   0.026  1.00  0.00     0.040 A 
ATOM     15  C   UNL     1       1.795   0.749  -1.357  1.00  0.00     0.034 A 
ATOM     16  C   UNL     1       2.818   0.544   0.820  1.00  0.00     0.034 A 
ATOM     17  C   UNL     1       3.048   0.806  -1.934  1.00  0.00     0.043 A 
ATOM     18  C   UNL     1       4.066   0.602   0.232  1.00  0.00     0.043 A 
ATOM     19  C   UNL     1       4.181   0.732  -1.141  1.00  0.00     0.041 A 
ATOM     20  Cl  UNL     1       3.204   0.970  -3.655  1.00  0.00    -0.084 Cl
ATOM     21  Cl  UNL     1       5.493   0.510   1.217  1.00  0.00    -0.084 Cl
ENDBRANCH   7  14
TORSDOF 3
ENDMDL
MODEL 3
REMARK VINA RESULT:    -4.448      3.986      7.793
REMARK INTER + INTRA:          -5.394
REMARK INTER:                  -5.098
REMARK INTRA:                  -0.296
REMARK UNBOUND:                -0.296
REMARK SMILES O=C(O)c1ccc2nc(-c3cc(Cl)cc(Cl)c3)oc2c1
REMARK SMILES IDX 5 1 6 2 20 3 8 4 18 5 4 6 9 7 7 8 19 9 2 10 1 11 3 12 10 14
REMARK SMILES IDX 11 15 17 16 12 17 15 18 14 19 13 20 16 21
REMARK H PARENT 3 13
ROOT
ATOM      1  C   UNL     1       2.746  -0.005  -1.276  1.00  0.00     0.018 A 
ATOM      2  C   UNL     1       1.435  -0.377  -1.278  1.00  0.00     0.033 A 
ATOM      3  C   UNL     1       2.405   1.274   0.756  1.00  0.00     0.065 A 
ATOM      4  N   UNL     1      -0.732  -0.123  -0.005  1.00  0.00    -0.209 NA
ATOM      5  O   UNL     1       0.030   1.166   1.573  1.00  0.00    -0.436 OA
ATOM      6  C   UNL     1       3.248   0.821  -0.261  1.00  0.00     0.063 A 
ATOM      7  C   UNL     1      -1.051   0.528   1.086  1.00  0.00     0.227 A 
ATOM      8  C   UNL     1       0.579   0.070  -0.264  1.00  0.00     0.110 A 
ATOM      9  C   UNL     1       1.073   0.903   0.755  1.00  0.00     0.156 A 
ENDROOT
BRANCH   6  10
ATOM     10  C   UNL     1       4.670   1.211  -0.266  1.00  0.00     0.335 C 
ATOM     11  O   UNL     1       5.224   1.500   0.776  1.00  0.00    -0.246 OA
BRANCH  10  12
ATOM     12  O   UNL     1       5.355   1.249  -1.426  1.00  0.00    -0.478 OA
ATOM     13  H   UNL     1       6.198   1.721  -1.423  1.00  0.00     0.297 HD
ENDBRANCH  10  12
ENDBRANCH   6  10
BRANCH   7  14
ATOM     14  C   UNL     1      -2.399   0.559   1.691  1.00  0.00     0.040 A 
ATOM     15  C   UNL     1      -3.481  -0.014   1.022  1.00  0.00     0.034 A 
ATOM     16  C   UNL     1      -2.594   1.163   2.935  1.00  0.00     0.034 A 
ATOM     17  C   UNL     1      -4.737   0.018   1.594  1.00  0.00     0.043 A 
ATOM     18  C   UNL     1      -3.855   1.188   3.496  1.00  0.00     0.043 A 
ATOM     19  C   UNL     1      -4.925   0.618   2.827  1.00  0.00     0.041 A 
ATOM     20  Cl  UNL     1      -6.085  -0.695   0.764  1.00  0.00    -0.084 Cl
ATOM     21  Cl  UNL     1      -4.100   1.938   5.043  1.00  0.00    -0.084 Cl
ENDBRANCH   7  14
TORSDOF 3
ENDMDL
MODEL 4
REMARK VINA RESULT:    -4.435      3.986      7.573
REMARK INTER + INTRA:          -5.379
REMARK INTER:                  -5.084
REMARK INTRA:                  -0.295
REMARK UNBOUND:                -0.296
REMARK SMILES O=C(O)c1ccc2nc(-c3cc(Cl)cc(Cl)c3)oc2c1
REMARK SMILES IDX 5 1 6 2 20 3 8 4 18 5 4 6 9 7 7 8 19 9 2 10 1 11 3 12 10 14
REMARK SMILES IDX 11 15 17 16 12 17 15 18 14 19 13 20 16 21
REMARK H PARENT 3 13
ROOT
ATOM      1  C   UNL     1       2.740  -0.018  -1.277  1.00  0.00     0.018 A 
ATOM      2  C   UNL     1       1.429  -0.388  -1.275  1.00  0.00     0.033 A 
ATOM      3  C   UNL     1       2.406   1.264   0.754  1.00  0.00     0.065 A 
ATOM      4  N   UNL     1      -0.735  -0.132   0.003  1.00  0.00    -0.209 NA
ATOM      5  O   UNL     1       0.032   1.159   1.577  1.00  0.00    -0.436 OA
ATOM      6  C   UNL     1       3.246   0.809  -0.264  1.00  0.00     0.063 A 
ATOM      7  C   UNL     1      -1.050   0.522   1.094  1.00  0.00     0.227 A 
ATOM      8  C   UNL     1       0.575   0.061  -0.260  1.00  0.00     0.110 A 
ATOM      9  C   UNL     1       1.073   0.894   0.757  1.00  0.00     0.156 A 
ENDROOT
BRANCH   6  10
ATOM     10  C   UNL     1       4.667   1.199  -0.273  1.00  0.00     0.335 C 
ATOM     11  O   UNL     1       5.250   1.394   0.775  1.00  0.00    -0.246 OA
BRANCH  10  12
ATOM     12  O   UNL     1       5.321   1.338  -1.443  1.00  0.00    -0.478 OA
ATOM     13  H   UNL     1       4.948   0.885  -2.211  1.00  0.00     0.297 HD
ENDBRANCH  10  12
ENDBRANCH   6  10
BRANCH   7  14
ATOM     14  C   UNL     1      -2.396   0.554   1.702  1.00  0.00     0.040 A 
ATOM     15  C   UNL     1      -2.589   1.156   2.946  1.00  0.00     0.034 A 
ATOM     16  C   UNL     1      -3.481  -0.018   1.034  1.00  0.00     0.034 A 
ATOM     17  C   UNL     1      -3.850   1.184   3.509  1.00  0.00     0.043 A 
ATOM     18  C   UNL     1      -4.737   0.016   1.607  1.00  0.00     0.043 A 
ATOM     19  C   UNL     1      -4.921   0.615   2.842  1.00  0.00     0.041 A 
ATOM     20  Cl  UNL     1      -4.092   1.933   5.056  1.00  0.00    -0.084 Cl
ATOM     21  Cl  UNL     1      -6.087  -0.695   0.778  1.00  0.00    -0.084 Cl
ENDBRANCH   7  14
TORSDOF 3
ENDMDL
MODEL 5
REMARK VINA RESULT:    -4.304     14.710     16.093
REMARK INTER + INTRA:          -5.229
REMARK INTER:                  -4.946
REMARK INTRA:                  -0.283
REMARK UNBOUND:                -0.296
REMARK SMILES O=C(O)c1ccc2nc(-c3cc(Cl)cc(Cl)c3)oc2c1
REMARK SMILES IDX 5 1 6 2 20 3 8 4 18 5 4 6 9 7 7 8 19 9 2 10 1 11 3 12 10 14
REMARK SMILES IDX 11 15 17 16 12 17 15 18 14 19 13 20 16 21
REMARK H PARENT 3 13
ROOT
ATOM      1  C   UNL     1       2.205  18.321  -1.466  1.00  0.00     0.018 A 
ATOM      2  C   UNL     1       0.969  17.776  -1.290  1.00  0.00     0.033 A 
ATOM      3  C   UNL     1       3.116  16.141  -2.012  1.00  0.00     0.065 A 
ATOM      4  N   UNL     1      -0.299  15.592  -1.369  1.00  0.00    -0.209 NA
ATOM      5  O   UNL     1       1.379  14.325  -1.927  1.00  0.00    -0.436 OA
ATOM      6  C   UNL     1       3.292  17.514  -1.830  1.00  0.00     0.063 A 
ATOM      7  C   UNL     1       0.064  14.363  -1.642  1.00  0.00     0.227 A 
ATOM      8  C   UNL     1       0.778  16.400  -1.469  1.00  0.00     0.110 A 
ATOM      9  C   UNL     1       1.864  15.583  -1.830  1.00  0.00     0.156 A 
ENDROOT
BRANCH   6  10
ATOM     10  C   UNL     1       4.623  18.116  -2.024  1.00  0.00     0.335 C 
ATOM     11  O   UNL     1       4.875  18.716  -3.050  1.00  0.00    -0.246 OA
BRANCH  10  12
ATOM     12  O   UNL     1       5.562  18.000  -1.063  1.00  0.00    -0.478 OA
ATOM     13  H   UNL     1       5.327  18.314  -0.180  1.00  0.00     0.297 HD
ENDBRANCH  10  12
ENDBRANCH   6  10
BRANCH   7  14
ATOM     14  C   UNL     1      -0.838  13.193  -1.637  1.00  0.00     0.040 A 
ATOM     15  C   UNL     1      -2.136  13.306  -2.136  1.00  0.00     0.034 A 
ATOM     16  C   UNL     1      -0.394  11.969  -1.131  1.00  0.00     0.034 A 
ATOM     17  C   UNL     1      -2.973  12.208  -2.129  1.00  0.00     0.043 A 
ATOM     18  C   UNL     1      -1.241  10.879  -1.130  1.00  0.00     0.043 A 
ATOM     19  C   UNL     1      -2.527  10.997  -1.627  1.00  0.00     0.041 A 
ATOM     20  Cl  UNL     1      -4.588  12.345  -2.751  1.00  0.00    -0.084 Cl
ATOM     21  Cl  UNL     1      -0.691   9.356  -0.502  1.00  0.00    -0.084 Cl
ENDBRANCH   7  14
TORSDOF 3
ENDMDL
MODEL 6
REMARK VINA RESULT:    -4.298     14.712     16.002
REMARK INTER + INTRA:          -5.222
REMARK INTER:                  -4.939
REMARK INTRA:                  -0.283
REMARK UNBOUND:                -0.296
REMARK SMILES O=C(O)c1ccc2nc(-c3cc(Cl)cc(Cl)c3)oc2c1
REMARK SMILES IDX 5 1 6 2 20 3 8 4 18 5 4 6 9 7 7 8 19 9 2 10 1 11 3 12 10 14
REMARK SMILES IDX 11 15 17 16 12 17 15 18 14 19 13 20 16 21
REMARK H PARENT 3 13
ROOT
ATOM      1  C   UNL     1       2.210  18.321  -1.468  1.00  0.00     0.018 A 
ATOM      2  C   UNL     1       0.973  17.777  -1.292  1.00  0.00     0.033 A 
ATOM      3  C   UNL     1       3.118  16.140  -2.014  1.00  0.00     0.065 A 
ATOM      4  N   UNL     1      -0.297  15.594  -1.370  1.00  0.00    -0.209 NA
ATOM      5  O   UNL     1       1.381  14.325  -1.927  1.00  0.00    -0.436 OA
ATOM      6  C   UNL     1       3.296  17.513  -1.832  1.00  0.00     0.063 A 
ATOM      7  C   UNL     1       0.065  14.365  -1.642  1.00  0.00     0.227 A 
ATOM      8  C   UNL     1       0.781  16.401  -1.470  1.00  0.00     0.110 A 
ATOM      9  C   UNL     1       1.866  15.583  -1.831  1.00  0.00     0.156 A 
ENDROOT
BRANCH   6  10
ATOM     10  C   UNL     1       4.628  18.114  -2.026  1.00  0.00     0.335 C 
ATOM     11  O   UNL     1       4.882  18.708  -3.055  1.00  0.00    -0.246 OA
BRANCH  10  12
ATOM     12  O   UNL     1       5.564  18.004  -1.063  1.00  0.00    -0.478 OA
ATOM     13  H   UNL     1       5.911  17.120  -0.887  1.00  0.00     0.297 HD
ENDBRANCH  10  12
ENDBRANCH   6  10
BRANCH   7  14
ATOM     14  C   UNL     1      -0.837  13.195  -1.636  1.00  0.00     0.040 A 
ATOM     15  C   UNL     1      -0.395  11.971  -1.132  1.00  0.00     0.034 A 
ATOM     16  C   UNL     1      -2.136  13.310  -2.137  1.00  0.00     0.034 A 
ATOM     17  C   UNL     1      -1.244  10.882  -1.129  1.00  0.00     0.043 A 
ATOM     18  C   UNL     1      -2.975  12.214  -2.128  1.00  0.00     0.043 A 
ATOM     19  C   UNL     1      -2.531  11.003  -1.626  1.00  0.00     0.041 A 
ATOM     20  Cl  UNL     1      -0.697   9.359  -0.502  1.00  0.00    -0.084 Cl
ATOM     21  Cl  UNL     1      -4.590  12.355  -2.749  1.00  0.00    -0.084 Cl
ENDBRANCH   7  14
TORSDOF 3
ENDMDL
MODEL 7
REMARK VINA RESULT:    -3.886     14.064     15.217
REMARK INTER + INTRA:          -4.750
REMARK INTER:                  -4.468
REMARK INTRA:                  -0.281
REMARK UNBOUND:                -0.296
REMARK SMILES O=C(O)c1ccc2nc(-c3cc(Cl)cc(Cl)c3)oc2c1
REMARK SMILES IDX 5 1 6 2 20 3 8 4 18 5 4 6 9 7 7 8 19 9 2 10 1 11 3 12 10 14
REMARK SMILES IDX 11 15 17 16 12 17 15 18 14 19 13 20 16 21
REMARK H PARENT 3 13
ROOT
ATOM      1  C   UNL     1      -0.639  11.832  -1.200  1.00  0.00     0.018 A 
ATOM      2  C   UNL     1      -1.053  13.090  -1.520  1.00  0.00     0.033 A 
ATOM      3  C   UNL     1      -2.673  10.899  -2.134  1.00  0.00     0.065 A 
ATOM      4  N   UNL     1      -2.950  14.377  -2.582  1.00  0.00    -0.209 NA
ATOM      5  O   UNL     1      -4.208  12.665  -3.052  1.00  0.00    -0.436 OA
ATOM      6  C   UNL     1      -1.440  10.722  -1.504  1.00  0.00     0.063 A 
ATOM      7  C   UNL     1      -4.087  14.005  -3.115  1.00  0.00     0.227 A 
ATOM      8  C   UNL     1      -2.287  13.281  -2.153  1.00  0.00     0.110 A 
ATOM      9  C   UNL     1      -3.099  12.174  -2.456  1.00  0.00     0.156 A 
ENDROOT
BRANCH   6  10
ATOM     10  C   UNL     1      -0.979   9.365  -1.158  1.00  0.00     0.335 C 
ATOM     11  O   UNL     1      -0.812   9.059   0.006  1.00  0.00    -0.246 OA
BRANCH  10  12
ATOM     12  O   UNL     1      -0.741   8.465  -2.132  1.00  0.00    -0.478 OA
ATOM     13  H   UNL     1      -1.510   8.077  -2.569  1.00  0.00     0.297 HD
ENDBRANCH  10  12
ENDBRANCH   6  10
BRANCH   7  14
ATOM     14  C   UNL     1      -5.090  14.921  -3.697  1.00  0.00     0.040 A 
ATOM     15  C   UNL     1      -6.394  14.938  -3.203  1.00  0.00     0.034 A 
ATOM     16  C   UNL     1      -4.735  15.772  -4.746  1.00  0.00     0.034 A 
ATOM     17  C   UNL     1      -7.326  15.797  -3.751  1.00  0.00     0.043 A 
ATOM     18  C   UNL     1      -5.675  16.627  -5.285  1.00  0.00     0.043 A 
ATOM     19  C   UNL     1      -6.968  16.639  -4.790  1.00  0.00     0.041 A 
ATOM     20  Cl  UNL     1      -8.950  15.821  -3.137  1.00  0.00    -0.084 Cl
ATOM     21  Cl  UNL     1      -5.236  17.686  -6.589  1.00  0.00    -0.084 Cl
ENDBRANCH   7  14
TORSDOF 3
ENDMDL
MODEL 8
REMARK VINA RESULT:    -3.882     14.085     15.278
REMARK INTER + INTRA:          -4.746
REMARK INTER:                  -4.465
REMARK INTRA:                  -0.280
REMARK UNBOUND:                -0.296
REMARK SMILES O=C(O)c1ccc2nc(-c3cc(Cl)cc(Cl)c3)oc2c1
REMARK SMILES IDX 5 1 6 2 20 3 8 4 18 5 4 6 9 7 7 8 19 9 2 10 1 11 3 12 10 14
REMARK SMILES IDX 11 15 17 16 12 17 15 18 14 19 13 20 16 21
REMARK H PARENT 3 13
ROOT
ATOM      1  C   UNL     1      -0.659  11.845  -1.202  1.00  0.00     0.018 A 
ATOM      2  C   UNL     1      -1.076  13.105  -1.513  1.00  0.00     0.033 A 
ATOM      3  C   UNL     1      -2.673  10.911  -2.177  1.00  0.00     0.065 A 
ATOM      4  N   UNL     1      -2.965  14.393  -2.586  1.00  0.00    -0.209 NA
ATOM      5  O   UNL     1      -4.205  12.680  -3.096  1.00  0.00    -0.436 OA
ATOM      6  C   UNL     1      -1.448  10.734  -1.530  1.00  0.00     0.063 A 
ATOM      7  C   UNL     1      -4.092  14.021  -3.140  1.00  0.00     0.227 A 
ATOM      8  C   UNL     1      -2.302  13.296  -2.161  1.00  0.00     0.110 A 
ATOM      9  C   UNL     1      -3.102  12.188  -2.489  1.00  0.00     0.156 A 
ENDROOT
BRANCH   6  10
ATOM     10  C   UNL     1      -0.984   9.376  -1.194  1.00  0.00     0.335 C 
ATOM     11  O   UNL     1      -0.904   9.032  -0.032  1.00  0.00    -0.246 OA
BRANCH  10  12
ATOM     12  O   UNL     1      -0.647   8.517  -2.176  1.00  0.00    -0.478 OA
ATOM     13  H   UNL     1      -1.094   7.660  -2.183  1.00  0.00     0.297 HD
ENDBRANCH  10  12
ENDBRANCH   6  10
BRANCH   7  14
ATOM     14  C   UNL     1      -5.092  14.938  -3.726  1.00  0.00     0.040 A 
ATOM     15  C   UNL     1      -4.736  15.785  -4.776  1.00  0.00     0.034 A 
ATOM     16  C   UNL     1      -6.397  14.961  -3.229  1.00  0.00     0.034 A 
ATOM     17  C   UNL     1      -5.675  16.639  -5.320  1.00  0.00     0.043 A 
ATOM     18  C   UNL     1      -7.326  15.819  -3.781  1.00  0.00     0.043 A 
ATOM     19  C   UNL     1      -6.967  16.657  -4.823  1.00  0.00     0.041 A 
ATOM     20  Cl  UNL     1      -5.234  17.693  -6.627  1.00  0.00    -0.084 Cl
ATOM     21  Cl  UNL     1      -8.950  15.850  -3.165  1.00  0.00    -0.084 Cl
ENDBRANCH   7  14
TORSDOF 3
ENDMDL
MODEL 9
REMARK VINA RESULT:    -3.784     11.049     11.509
REMARK INTER + INTRA:          -4.634
REMARK INTER:                  -4.349
REMARK INTRA:                  -0.284
REMARK UNBOUND:                -0.296
REMARK SMILES O=C(O)c1ccc2nc(-c3cc(Cl)cc(Cl)c3)oc2c1
REMARK SMILES IDX 5 1 6 2 20 3 8 4 18 5 4 6 9 7 7 8 19 9 2 10 1 11 3 12 10 14
REMARK SMILES IDX 11 15 17 16 12 17 15 18 14 19 13 20 16 21
REMARK H PARENT 3 13
ROOT
ATOM      1  C   UNL     1      -2.442  14.318  -2.488  1.00  0.00     0.018 A 
ATOM      2  C   UNL     1      -1.577  13.477  -1.855  1.00  0.00     0.033 A 
ATOM      3  C   UNL     1      -3.993  12.490  -2.848  1.00  0.00     0.065 A 
ATOM      4  N   UNL     1      -1.262  11.074  -1.143  1.00  0.00    -0.209 NA
ATOM      5  O   UNL     1      -3.144  10.311  -1.923  1.00  0.00    -0.436 OA
ATOM      6  C   UNL     1      -3.660  13.838  -2.989  1.00  0.00     0.063 A 
ATOM      7  C   UNL     1      -2.006  10.003  -1.274  1.00  0.00     0.227 A 
ATOM      8  C   UNL     1      -1.899  12.122  -1.707  1.00  0.00     0.110 A 
ATOM      9  C   UNL     1      -3.116  11.632  -2.212  1.00  0.00     0.156 A 
ENDROOT
BRANCH   6  10
ATOM     10  C   UNL     1      -4.591  14.759  -3.666  1.00  0.00     0.335 C 
ATOM     11  O   UNL     1      -4.470  14.980  -4.855  1.00  0.00    -0.246 OA
BRANCH  10  12
ATOM     12  O   UNL     1      -5.576  15.356  -2.967  1.00  0.00    -0.478 OA
ATOM     13  H   UNL     1      -5.755  15.015  -2.081  1.00  0.00     0.297 HD
ENDBRANCH  10  12
ENDBRANCH   6  10
BRANCH   7  14
ATOM     14  C   UNL     1      -1.647   8.657  -0.783  1.00  0.00     0.040 A 
ATOM     15  C   UNL     1      -0.851   8.515   0.354  1.00  0.00     0.034 A 
ATOM     16  C   UNL     1      -2.103   7.521  -1.455  1.00  0.00     0.034 A 
ATOM     17  C   UNL     1      -0.520   7.253   0.809  1.00  0.00     0.043 A 
ATOM     18  C   UNL     1      -1.766   6.266  -0.991  1.00  0.00     0.043 A 
ATOM     19  C   UNL     1      -0.975   6.131   0.138  1.00  0.00     0.041 A 
ATOM     20  Cl  UNL     1       0.470   7.074   2.224  1.00  0.00    -0.084 Cl
ATOM     21  Cl  UNL     1      -2.332   4.852  -1.826  1.00  0.00    -0.084 Cl
ENDBRANCH   7  14
TORSDOF 3
ENDMDL
