MODEL 1
REMARK VINA RESULT:    -6.040      0.000      0.000
REMARK INTER + INTRA:          -8.931
REMARK INTER:                  -8.335
REMARK INTRA:                  -0.596
REMARK UNBOUND:                -0.596
REMARK SMILES Cc1n[nH]c(C)c1CCCOc1cc(C(=O)O)ccc1F
REMARK SMILES IDX 11 1 12 2 14 3 18 4 13 5 19 6 20 7 21 8 15 9 16 10 17 11
REMARK SMILES IDX 10 13 9 14 8 15 7 16 5 17 2 18 4 19 3 20 6 21 1 22
REMARK H PARENT 17 12 4 23
ROOT
ATOM      1  O   UNL     1       6.976   2.061  -5.459  1.00  0.00    -0.490 OA
ENDROOT
BRANCH   1   2
ATOM      2  C   UNL     1       6.305   1.395  -4.483  1.00  0.00     0.155 A 
ATOM      3  C   UNL     1       5.758  -0.656  -3.352  1.00  0.00     0.063 A 
ATOM      4  C   UNL     1       4.934   0.053  -2.474  1.00  0.00     0.019 A 
ATOM      5  C   UNL     1       6.445   0.025  -4.359  1.00  0.00     0.065 A 
ATOM      6  C   UNL     1       4.806   1.420  -2.601  1.00  0.00     0.044 A 
ATOM      7  C   UNL     1       5.492   2.094  -3.598  1.00  0.00     0.165 A 
ATOM      8  F   UNL     1       5.362   3.433  -3.717  1.00  0.00    -0.203 F 
BRANCH   3   9
ATOM      9  C   UNL     1       5.898  -2.119  -3.218  1.00  0.00     0.335 C 
ATOM     10  O   UNL     1       5.863  -2.825  -4.205  1.00  0.00    -0.246 OA
BRANCH   9  11
ATOM     11  O   UNL     1       6.072  -2.670  -2.001  1.00  0.00    -0.478 OA
ATOM     12  H   UNL     1       6.466  -2.111  -1.317  1.00  0.00     0.297 HD
ENDBRANCH   9  11
ENDBRANCH   3   9
ENDBRANCH   1   2
BRANCH   1  13
ATOM     13  C   UNL     1       8.372   2.288  -5.249  1.00  0.00     0.230 C 
BRANCH  13  14
ATOM     14  C   UNL     1       9.150   1.872  -6.499  1.00  0.00     0.046 C 
BRANCH  14  15
ATOM     15  C   UNL     1      10.649   1.879  -6.193  1.00  0.00     0.043 C 
BRANCH  15  16
ATOM     16  C   UNL     1      11.322   2.956  -7.002  1.00  0.00    -0.004 A 
ATOM     17  C   UNL     1      11.639   4.198  -6.567  1.00  0.00     0.036 A 
ATOM     18  C   UNL     1      11.737   2.848  -8.334  1.00  0.00     0.063 A 
ATOM     19  N   UNL     1      12.227   4.855  -7.590  1.00  0.00    -0.282 N 
ATOM     20  N   UNL     1      12.273   3.987  -8.689  1.00  0.00    -0.181 NA
ATOM     21  C   UNL     1      11.382   4.749  -5.189  1.00  0.00     0.066 C 
ATOM     22  C   UNL     1      11.581   1.633  -9.212  1.00  0.00     0.069 C 
ATOM     23  H   UNL     1      12.558   5.766  -7.568  1.00  0.00     0.190 HD
ENDBRANCH  15  16
ENDBRANCH  14  15
ENDBRANCH  13  14
ENDBRANCH   1  13
TORSDOF 7
ENDMDL
MODEL 2
REMARK VINA RESULT:    -6.035      2.372      3.433
REMARK INTER + INTRA:          -8.924
REMARK INTER:                  -8.350
REMARK INTRA:                  -0.574
REMARK UNBOUND:                -0.596
REMARK SMILES Cc1n[nH]c(C)c1CCCOc1cc(C(=O)O)ccc1F
REMARK SMILES IDX 11 1 12 2 14 3 18 4 13 5 19 6 20 7 21 8 15 9 16 10 17 11
REMARK SMILES IDX 10 13 9 14 8 15 7 16 5 17 2 18 4 19 3 20 6 21 1 22
REMARK H PARENT 17 12 4 23
ROOT
ATOM      1  O   UNL     1       8.512   0.588  -4.101  1.00  0.00    -0.490 OA
ENDROOT
BRANCH   1   2
ATOM      2  C   UNL     1       7.265   0.664  -3.565  1.00  0.00     0.155 A 
ATOM      3  C   UNL     1       5.402   1.971  -2.789  1.00  0.00     0.063 A 
ATOM      4  C   UNL     1       4.712   0.796  -2.478  1.00  0.00     0.019 A 
ATOM      5  C   UNL     1       6.685   1.897  -3.335  1.00  0.00     0.065 A 
ATOM      6  C   UNL     1       5.296  -0.430  -2.717  1.00  0.00     0.044 A 
ATOM      7  C   UNL     1       6.567  -0.501  -3.263  1.00  0.00     0.165 A 
ATOM      8  F   UNL     1       7.134  -1.705  -3.494  1.00  0.00    -0.203 F 
BRANCH   3   9
ATOM      9  C   UNL     1       4.779   3.285  -2.535  1.00  0.00     0.335 C 
ATOM     10  O   UNL     1       5.426   4.175  -2.024  1.00  0.00    -0.246 OA
BRANCH   9  11
ATOM     11  O   UNL     1       3.493   3.497  -2.877  1.00  0.00    -0.478 OA
ATOM     12  H   UNL     1       3.041   2.786  -3.352  1.00  0.00     0.297 HD
ENDBRANCH   9  11
ENDBRANCH   3   9
ENDBRANCH   1   2
BRANCH   1  13
ATOM     13  C   UNL     1       8.632   0.841  -5.503  1.00  0.00     0.230 C 
BRANCH  13  14
ATOM     14  C   UNL     1       9.716   1.895  -5.739  1.00  0.00     0.046 C 
BRANCH  14  15
ATOM     15  C   UNL     1       9.706   2.315  -7.211  1.00  0.00     0.043 C 
BRANCH  15  16
ATOM     16  C   UNL     1      10.956   1.812  -7.886  1.00  0.00    -0.004 A 
ATOM     17  C   UNL     1      12.172   2.406  -7.853  1.00  0.00     0.036 A 
ATOM     18  C   UNL     1      11.067   0.647  -8.651  1.00  0.00     0.063 A 
ATOM     19  N   UNL     1      13.020   1.646  -8.578  1.00  0.00    -0.282 N 
ATOM     20  N   UNL     1      12.301   0.550  -9.072  1.00  0.00    -0.181 NA
ATOM     21  C   UNL     1      12.517   3.684  -7.136  1.00  0.00     0.066 C 
ATOM     22  C   UNL     1       9.952  -0.323  -8.950  1.00  0.00     0.069 C 
ATOM     23  H   UNL     1      13.960   1.827  -8.730  1.00  0.00     0.190 HD
ENDBRANCH  15  16
ENDBRANCH  14  15
ENDBRANCH  13  14
ENDBRANCH   1  13
TORSDOF 7
ENDMDL
MODEL 3
REMARK VINA RESULT:    -6.020      0.130      1.773
REMARK INTER + INTRA:          -8.903
REMARK INTER:                  -8.311
REMARK INTRA:                  -0.592
REMARK UNBOUND:                -0.596
REMARK SMILES Cc1n[nH]c(C)c1CCCOc1cc(C(=O)O)ccc1F
REMARK SMILES IDX 11 1 12 2 14 3 18 4 13 5 19 6 20 7 21 8 15 9 16 10 17 11
REMARK SMILES IDX 10 13 9 14 8 15 7 16 5 17 2 18 4 19 3 20 6 21 1 22
REMARK H PARENT 17 12 4 23
ROOT
ATOM      1  O   UNL     1       7.022   2.162  -5.277  1.00  0.00    -0.490 OA
ENDROOT
BRANCH   1   2
ATOM      2  C   UNL     1       6.322   1.458  -4.347  1.00  0.00     0.155 A 
ATOM      3  C   UNL     1       5.749  -0.632  -3.307  1.00  0.00     0.063 A 
ATOM      4  C   UNL     1       4.891   0.041  -2.434  1.00  0.00     0.019 A 
ATOM      5  C   UNL     1       6.466   0.086  -4.266  1.00  0.00     0.065 A 
ATOM      6  C   UNL     1       4.758   1.411  -2.518  1.00  0.00     0.044 A 
ATOM      7  C   UNL     1       5.474   2.122  -3.468  1.00  0.00     0.165 A 
ATOM      8  F   UNL     1       5.340   3.465  -3.545  1.00  0.00    -0.203 F 
BRANCH   3   9
ATOM      9  C   UNL     1       5.894  -2.099  -3.219  1.00  0.00     0.335 C 
ATOM     10  O   UNL     1       5.871  -2.773  -4.228  1.00  0.00    -0.246 OA
BRANCH   9  11
ATOM     11  O   UNL     1       6.057  -2.688  -2.018  1.00  0.00    -0.478 OA
ATOM     12  H   UNL     1       5.472  -3.430  -1.809  1.00  0.00     0.297 HD
ENDBRANCH   9  11
ENDBRANCH   3   9
ENDBRANCH   1   2
BRANCH   1  13
ATOM     13  C   UNL     1       8.442   2.207  -5.122  1.00  0.00     0.230 C 
BRANCH  13  14
ATOM     14  C   UNL     1       9.111   1.882  -6.459  1.00  0.00     0.046 C 
BRANCH  14  15
ATOM     15  C   UNL     1      10.629   1.828  -6.270  1.00  0.00     0.043 C 
BRANCH  15  16
ATOM     16  C   UNL     1      11.279   2.889  -7.120  1.00  0.00    -0.004 A 
ATOM     17  C   UNL     1      11.656   2.753  -8.413  1.00  0.00     0.036 A 
ATOM     18  C   UNL     1      11.594   4.190  -6.714  1.00  0.00     0.063 A 
ATOM     19  N   UNL     1      12.197   3.924  -8.809  1.00  0.00    -0.282 N 
ATOM     20  N   UNL     1      12.151   4.809  -7.724  1.00  0.00    -0.181 NA
ATOM     21  C   UNL     1      11.500   1.516  -9.258  1.00  0.00     0.066 C 
ATOM     22  C   UNL     1      11.347   4.774  -5.347  1.00  0.00     0.069 C 
ATOM     23  H   UNL     1      12.555   4.119  -9.689  1.00  0.00     0.190 HD
ENDBRANCH  15  16
ENDBRANCH  14  15
ENDBRANCH  13  14
ENDBRANCH   1  13
TORSDOF 7
ENDMDL
MODEL 4
REMARK VINA RESULT:    -6.004      2.156      3.602
REMARK INTER + INTRA:          -8.882
REMARK INTER:                  -8.290
REMARK INTRA:                  -0.592
REMARK UNBOUND:                -0.596
REMARK SMILES Cc1n[nH]c(C)c1CCCOc1cc(C(=O)O)ccc1F
REMARK SMILES IDX 11 1 12 2 14 3 18 4 13 5 19 6 20 7 21 8 15 9 16 10 17 11
REMARK SMILES IDX 10 13 9 14 8 15 7 16 5 17 2 18 4 19 3 20 6 21 1 22
REMARK H PARENT 17 12 4 23
ROOT
ATOM      1  O   UNL     1       8.409   0.449  -4.213  1.00  0.00    -0.490 OA
ENDROOT
BRANCH   1   2
ATOM      2  C   UNL     1       7.184   0.560  -3.633  1.00  0.00     0.155 A 
ATOM      3  C   UNL     1       5.381   1.919  -2.806  1.00  0.00     0.063 A 
ATOM      4  C   UNL     1       4.676   0.764  -2.456  1.00  0.00     0.019 A 
ATOM      5  C   UNL     1       6.641   1.809  -3.397  1.00  0.00     0.065 A 
ATOM      6  C   UNL     1       5.223  -0.478  -2.701  1.00  0.00     0.044 A 
ATOM      7  C   UNL     1       6.471  -0.584  -3.292  1.00  0.00     0.165 A 
ATOM      8  F   UNL     1       7.001  -1.804  -3.529  1.00  0.00    -0.203 F 
BRANCH   3   9
ATOM      9  C   UNL     1       4.798   3.250  -2.546  1.00  0.00     0.335 C 
ATOM     10  O   UNL     1       5.478   4.124  -2.047  1.00  0.00    -0.246 OA
BRANCH   9  11
ATOM     11  O   UNL     1       3.513   3.497  -2.868  1.00  0.00    -0.478 OA
ATOM     12  H   UNL     1       3.354   4.103  -3.605  1.00  0.00     0.297 HD
ENDBRANCH   9  11
ENDBRANCH   3   9
ENDBRANCH   1   2
BRANCH   1  13
ATOM     13  C   UNL     1       8.780   1.468  -5.144  1.00  0.00     0.230 C 
BRANCH  13  14
ATOM     14  C   UNL     1       9.796   0.903  -6.139  1.00  0.00     0.046 C 
BRANCH  14  15
ATOM     15  C   UNL     1       9.841   1.794  -7.383  1.00  0.00     0.043 C 
BRANCH  15  16
ATOM     16  C   UNL     1      11.262   2.223  -7.643  1.00  0.00    -0.004 A 
ATOM     17  C   UNL     1      12.160   1.574  -8.420  1.00  0.00     0.036 A 
ATOM     18  C   UNL     1      11.884   3.365  -7.128  1.00  0.00     0.063 A 
ATOM     19  N   UNL     1      13.311   2.278  -8.393  1.00  0.00    -0.282 N 
ATOM     20  N   UNL     1      13.114   3.396  -7.572  1.00  0.00    -0.181 NA
ATOM     21  C   UNL     1      11.917   0.297  -9.180  1.00  0.00     0.066 C 
ATOM     22  C   UNL     1      11.250   4.379  -6.210  1.00  0.00     0.069 C 
ATOM     23  H   UNL     1      14.130   2.050  -8.860  1.00  0.00     0.190 HD
ENDBRANCH  15  16
ENDBRANCH  14  15
ENDBRANCH  13  14
ENDBRANCH   1  13
TORSDOF 7
ENDMDL
MODEL 5
REMARK VINA RESULT:    -5.563      4.342      7.781
REMARK INTER + INTRA:          -8.273
REMARK INTER:                  -7.616
REMARK INTRA:                  -0.658
REMARK UNBOUND:                -0.596
REMARK SMILES Cc1n[nH]c(C)c1CCCOc1cc(C(=O)O)ccc1F
REMARK SMILES IDX 11 1 12 2 14 3 18 4 13 5 19 6 20 7 21 8 15 9 16 10 17 11
REMARK SMILES IDX 10 13 9 14 8 15 7 16 5 17 2 18 4 19 3 20 6 21 1 22
REMARK H PARENT 17 12 4 23
ROOT
ATOM      1  O   UNL     1       8.352   2.121  -6.700  1.00  0.00    -0.490 OA
ENDROOT
BRANCH   1   2
ATOM      2  C   UNL     1       9.638   2.542  -6.837  1.00  0.00     0.155 A 
ATOM      3  C   UNL     1      11.551   3.722  -5.982  1.00  0.00     0.063 A 
ATOM      4  C   UNL     1      12.268   3.384  -7.132  1.00  0.00     0.019 A 
ATOM      5  C   UNL     1      10.228   3.295  -5.840  1.00  0.00     0.065 A 
ATOM      6  C   UNL     1      11.673   2.627  -8.119  1.00  0.00     0.044 A 
ATOM      7  C   UNL     1      10.363   2.201  -7.974  1.00  0.00     0.165 A 
ATOM      8  F   UNL     1       9.785   1.460  -8.944  1.00  0.00    -0.203 F 
BRANCH   3   9
ATOM      9  C   UNL     1      12.186   4.531  -4.924  1.00  0.00     0.335 C 
ATOM     10  O   UNL     1      11.530   5.344  -4.305  1.00  0.00    -0.246 OA
BRANCH   9  11
ATOM     11  O   UNL     1      13.492   4.363  -4.640  1.00  0.00    -0.478 OA
ATOM     12  H   UNL     1      13.713   3.716  -3.955  1.00  0.00     0.297 HD
ENDBRANCH   9  11
ENDBRANCH   3   9
ENDBRANCH   1   2
BRANCH   1  13
ATOM     13  C   UNL     1       7.772   2.222  -5.397  1.00  0.00     0.230 C 
BRANCH  13  14
ATOM     14  C   UNL     1       7.350   0.831  -4.919  1.00  0.00     0.046 C 
BRANCH  14  15
ATOM     15  C   UNL     1       7.334   0.802  -3.389  1.00  0.00     0.043 C 
BRANCH  15  16
ATOM     16  C   UNL     1       5.944   0.474  -2.907  1.00  0.00    -0.004 A 
ATOM     17  C   UNL     1       5.002   1.368  -2.527  1.00  0.00     0.036 A 
ATOM     18  C   UNL     1       5.398  -0.807  -2.779  1.00  0.00     0.063 A 
ATOM     19  N   UNL     1       3.901   0.677  -2.165  1.00  0.00    -0.282 N 
ATOM     20  N   UNL     1       4.176  -0.687  -2.328  1.00  0.00    -0.181 NA
ATOM     21  C   UNL     1       5.155   2.867  -2.511  1.00  0.00     0.066 C 
ATOM     22  C   UNL     1       6.100  -2.103  -3.095  1.00  0.00     0.069 C 
ATOM     23  H   UNL     1       3.067   1.057  -1.847  1.00  0.00     0.190 HD
ENDBRANCH  15  16
ENDBRANCH  14  15
ENDBRANCH  13  14
ENDBRANCH   1  13
TORSDOF 7
ENDMDL
MODEL 6
REMARK VINA RESULT:    -5.547      4.353      7.849
REMARK INTER + INTRA:          -8.251
REMARK INTER:                  -7.544
REMARK INTRA:                  -0.707
REMARK UNBOUND:                -0.596
REMARK SMILES Cc1n[nH]c(C)c1CCCOc1cc(C(=O)O)ccc1F
REMARK SMILES IDX 11 1 12 2 14 3 18 4 13 5 19 6 20 7 21 8 15 9 16 10 17 11
REMARK SMILES IDX 10 13 9 14 8 15 7 16 5 17 2 18 4 19 3 20 6 21 1 22
REMARK H PARENT 17 12 4 23
ROOT
ATOM      1  O   UNL     1       8.063   2.497  -6.699  1.00  0.00    -0.490 OA
ENDROOT
BRANCH   1   2
ATOM      2  C   UNL     1       9.404   2.695  -6.805  1.00  0.00     0.155 A 
ATOM      3  C   UNL     1      11.444   3.657  -5.971  1.00  0.00     0.063 A 
ATOM      4  C   UNL     1      12.145   3.080  -7.033  1.00  0.00     0.019 A 
ATOM      5  C   UNL     1      10.066   3.460  -5.862  1.00  0.00     0.065 A 
ATOM      6  C   UNL     1      11.477   2.314  -7.965  1.00  0.00     0.044 A 
ATOM      7  C   UNL     1      10.111   2.116  -7.852  1.00  0.00     0.165 A 
ATOM      8  F   UNL     1       9.463   1.364  -8.769  1.00  0.00    -0.203 F 
BRANCH   3   9
ATOM      9  C   UNL     1      12.156   4.477  -4.972  1.00  0.00     0.335 C 
ATOM     10  O   UNL     1      11.545   5.287  -4.304  1.00  0.00    -0.246 OA
BRANCH   9  11
ATOM     11  O   UNL     1      13.483   4.322  -4.795  1.00  0.00    -0.478 OA
ATOM     12  H   UNL     1      13.815   3.415  -4.742  1.00  0.00     0.297 HD
ENDBRANCH   9  11
ENDBRANCH   3   9
ENDBRANCH   1   2
BRANCH   1  13
ATOM     13  C   UNL     1       7.517   2.444  -5.379  1.00  0.00     0.230 C 
BRANCH  13  14
ATOM     14  C   UNL     1       7.252   0.987  -4.995  1.00  0.00     0.046 C 
BRANCH  14  15
ATOM     15  C   UNL     1       7.304   0.843  -3.473  1.00  0.00     0.043 C 
BRANCH  15  16
ATOM     16  C   UNL     1       5.941   0.462  -2.956  1.00  0.00    -0.004 A 
ATOM     17  C   UNL     1       5.458  -0.797  -2.838  1.00  0.00     0.036 A 
ATOM     18  C   UNL     1       4.953   1.345  -2.508  1.00  0.00     0.063 A 
ATOM     19  N   UNL     1       4.207  -0.713  -2.339  1.00  0.00    -0.282 N 
ATOM     20  N   UNL     1       3.911   0.643  -2.145  1.00  0.00    -0.181 NA
ATOM     21  C   UNL     1       6.187  -2.065  -3.198  1.00  0.00     0.066 C 
ATOM     22  C   UNL     1       5.066   2.848  -2.464  1.00  0.00     0.069 C 
ATOM     23  H   UNL     1       3.616  -1.458  -2.150  1.00  0.00     0.190 HD
ENDBRANCH  15  16
ENDBRANCH  14  15
ENDBRANCH  13  14
ENDBRANCH   1  13
TORSDOF 7
ENDMDL
MODEL 7
REMARK VINA RESULT:    -5.520      4.334      7.614
REMARK INTER + INTRA:          -8.213
REMARK INTER:                  -7.589
REMARK INTRA:                  -0.624
REMARK UNBOUND:                -0.596
REMARK SMILES Cc1n[nH]c(C)c1CCCOc1cc(C(=O)O)ccc1F
REMARK SMILES IDX 11 1 12 2 14 3 18 4 13 5 19 6 20 7 21 8 15 9 16 10 17 11
REMARK SMILES IDX 10 13 9 14 8 15 7 16 5 17 2 18 4 19 3 20 6 21 1 22
REMARK H PARENT 17 12 4 23
ROOT
ATOM      1  O   UNL     1       9.947   1.666  -5.271  1.00  0.00    -0.490 OA
ENDROOT
BRANCH   1   2
ATOM      2  C   UNL     1      10.450   1.609  -6.533  1.00  0.00     0.155 A 
ATOM      3  C   UNL     1      10.385   0.724  -8.768  1.00  0.00     0.063 A 
ATOM      4  C   UNL     1      11.486   1.515  -9.109  1.00  0.00     0.019 A 
ATOM      5  C   UNL     1       9.869   0.776  -7.472  1.00  0.00     0.065 A 
ATOM      6  C   UNL     1      12.054   2.347  -8.168  1.00  0.00     0.044 A 
ATOM      7  C   UNL     1      11.538   2.401  -6.884  1.00  0.00     0.165 A 
ATOM      8  F   UNL     1      12.100   3.219  -5.967  1.00  0.00    -0.203 F 
BRANCH   3   9
ATOM      9  C   UNL     1       9.774  -0.168  -9.773  1.00  0.00     0.335 C 
ATOM     10  O   UNL     1       9.793   0.137 -10.948  1.00  0.00    -0.246 OA
BRANCH   9  11
ATOM     11  O   UNL     1       9.199  -1.324  -9.387  1.00  0.00    -0.478 OA
ATOM     12  H   UNL     1       8.319  -1.266  -8.989  1.00  0.00     0.297 HD
ENDBRANCH   9  11
ENDBRANCH   3   9
ENDBRANCH   1   2
BRANCH   1  13
ATOM     13  C   UNL     1       8.575   2.046  -5.136  1.00  0.00     0.230 C 
BRANCH  13  14
ATOM     14  C   UNL     1       7.872   1.081  -4.180  1.00  0.00     0.046 C 
BRANCH  14  15
ATOM     15  C   UNL     1       6.431   0.861  -4.645  1.00  0.00     0.043 C 
BRANCH  15  16
ATOM     16  C   UNL     1       5.541   0.654  -3.447  1.00  0.00    -0.004 A 
ATOM     17  C   UNL     1       5.249  -0.534  -2.869  1.00  0.00     0.036 A 
ATOM     18  C   UNL     1       4.876   1.656  -2.732  1.00  0.00     0.063 A 
ATOM     19  N   UNL     1       4.423  -0.293  -1.829  1.00  0.00    -0.282 N 
ATOM     20  N   UNL     1       4.201   1.089  -1.766  1.00  0.00    -0.181 NA
ATOM     21  C   UNL     1       5.755  -1.884  -3.307  1.00  0.00     0.066 C 
ATOM     22  C   UNL     1       4.921   3.133  -3.031  1.00  0.00     0.069 C 
ATOM     23  H   UNL     1       4.049  -0.959  -1.231  1.00  0.00     0.190 HD
ENDBRANCH  15  16
ENDBRANCH  14  15
ENDBRANCH  13  14
ENDBRANCH   1  13
TORSDOF 7
ENDMDL
MODEL 8
REMARK VINA RESULT:    -5.451      4.338      7.664
REMARK INTER + INTRA:          -8.118
REMARK INTER:                  -7.507
REMARK INTRA:                  -0.611
REMARK UNBOUND:                -0.596
REMARK SMILES Cc1n[nH]c(C)c1CCCOc1cc(C(=O)O)ccc1F
REMARK SMILES IDX 11 1 12 2 14 3 18 4 13 5 19 6 20 7 21 8 15 9 16 10 17 11
REMARK SMILES IDX 10 13 9 14 8 15 7 16 5 17 2 18 4 19 3 20 6 21 1 22
REMARK H PARENT 17 12 4 23
ROOT
ATOM      1  O   UNL     1       9.433   1.385  -5.553  1.00  0.00    -0.490 OA
ENDROOT
BRANCH   1   2
ATOM      2  C   UNL     1      10.230   1.563  -6.641  1.00  0.00     0.155 A 
ATOM      3  C   UNL     1      10.714   1.163  -8.962  1.00  0.00     0.063 A 
ATOM      4  C   UNL     1      11.867   1.946  -8.852  1.00  0.00     0.019 A 
ATOM      5  C   UNL     1       9.896   0.975  -7.846  1.00  0.00     0.065 A 
ATOM      6  C   UNL     1      12.189   2.534  -7.647  1.00  0.00     0.044 A 
ATOM      7  C   UNL     1      11.373   2.349  -6.543  1.00  0.00     0.165 A 
ATOM      8  F   UNL     1      11.694   2.927  -5.365  1.00  0.00    -0.203 F 
BRANCH   3   9
ATOM      9  C   UNL     1      10.366   0.534 -10.251  1.00  0.00     0.335 C 
ATOM     10  O   UNL     1       9.233   0.148 -10.452  1.00  0.00    -0.246 OA
BRANCH   9  11
ATOM     11  O   UNL     1      11.305   0.393 -11.207  1.00  0.00    -0.478 OA
ATOM     12  H   UNL     1      12.167   0.051 -10.929  1.00  0.00     0.297 HD
ENDBRANCH   9  11
ENDBRANCH   3   9
ENDBRANCH   1   2
BRANCH   1  13
ATOM     13  C   UNL     1       8.232   2.157  -5.497  1.00  0.00     0.230 C 
BRANCH  13  14
ATOM     14  C   UNL     1       7.081   1.274  -5.013  1.00  0.00     0.046 C 
BRANCH  14  15
ATOM     15  C   UNL     1       7.214   1.042  -3.506  1.00  0.00     0.043 C 
BRANCH  15  16
ATOM     16  C   UNL     1       5.880   0.629  -2.941  1.00  0.00    -0.004 A 
ATOM     17  C   UNL     1       4.912   1.463  -2.492  1.00  0.00     0.036 A 
ATOM     18  C   UNL     1       5.419  -0.683  -2.794  1.00  0.00     0.063 A 
ATOM     19  N   UNL     1       3.879   0.704  -2.069  1.00  0.00    -0.282 N 
ATOM     20  N   UNL     1       4.223  -0.640  -2.265  1.00  0.00    -0.181 NA
ATOM     21  C   UNL     1       4.977   2.967  -2.469  1.00  0.00     0.066 C 
ATOM     22  C   UNL     1       6.175  -1.933  -3.168  1.00  0.00     0.069 C 
ATOM     23  H   UNL     1       3.047   1.031  -1.695  1.00  0.00     0.190 HD
ENDBRANCH  15  16
ENDBRANCH  14  15
ENDBRANCH  13  14
ENDBRANCH   1  13
TORSDOF 7
ENDMDL
MODEL 9
REMARK VINA RESULT:    -5.275      4.278      7.896
REMARK INTER + INTRA:          -7.875
REMARK INTER:                  -7.341
REMARK INTRA:                  -0.535
REMARK UNBOUND:                -0.596
REMARK SMILES Cc1n[nH]c(C)c1CCCOc1cc(C(=O)O)ccc1F
REMARK SMILES IDX 11 1 12 2 14 3 18 4 13 5 19 6 20 7 21 8 15 9 16 10 17 11
REMARK SMILES IDX 10 13 9 14 8 15 7 16 5 17 2 18 4 19 3 20 6 21 1 22
REMARK H PARENT 17 12 4 23
ROOT
ATOM      1  O   UNL     1       9.195   2.485  -5.462  1.00  0.00    -0.490 OA
ENDROOT
BRANCH   1   2
ATOM      2  C   UNL     1      10.325   2.726  -6.179  1.00  0.00     0.155 A 
ATOM      3  C   UNL     1      11.787   2.194  -8.013  1.00  0.00     0.063 A 
ATOM      4  C   UNL     1      12.632   3.242  -7.638  1.00  0.00     0.019 A 
ATOM      5  C   UNL     1      10.629   1.940  -7.275  1.00  0.00     0.065 A 
ATOM      6  C   UNL     1      12.317   4.024  -6.546  1.00  0.00     0.044 A 
ATOM      7  C   UNL     1      11.165   3.774  -5.819  1.00  0.00     0.165 A 
ATOM      8  F   UNL     1      10.863   4.544  -4.751  1.00  0.00    -0.203 F 
BRANCH   3   9
ATOM      9  C   UNL     1      12.120   1.355  -9.180  1.00  0.00     0.335 C 
ATOM     10  O   UNL     1      12.333   0.169  -9.035  1.00  0.00    -0.246 OA
BRANCH   9  11
ATOM     11  O   UNL     1      12.183   1.906 -10.409  1.00  0.00    -0.478 OA
ATOM     12  H   UNL     1      12.300   1.302 -11.155  1.00  0.00     0.297 HD
ENDBRANCH   9  11
ENDBRANCH   3   9
ENDBRANCH   1   2
BRANCH   1  13
ATOM     13  C   UNL     1       8.849   1.116  -5.238  1.00  0.00     0.230 C 
BRANCH  13  14
ATOM     14  C   UNL     1       7.900   1.019  -4.042  1.00  0.00     0.046 C 
BRANCH  14  15
ATOM     15  C   UNL     1       6.455   0.946  -4.542  1.00  0.00     0.043 C 
BRANCH  15  16
ATOM     16  C   UNL     1       5.531   0.716  -3.375  1.00  0.00    -0.004 A 
ATOM     17  C   UNL     1       5.213  -0.483  -2.834  1.00  0.00     0.036 A 
ATOM     18  C   UNL     1       4.853   1.705  -2.654  1.00  0.00     0.063 A 
ATOM     19  N   UNL     1       4.360  -0.262  -1.812  1.00  0.00    -0.282 N 
ATOM     20  N   UNL     1       4.146   1.120  -1.722  1.00  0.00    -0.181 NA
ATOM     21  C   UNL     1       5.722  -1.825  -3.292  1.00  0.00     0.066 C 
ATOM     22  C   UNL     1       4.916   3.189  -2.915  1.00  0.00     0.069 C 
ATOM     23  H   UNL     1       3.965  -0.939  -1.242  1.00  0.00     0.190 HD
ENDBRANCH  15  16
ENDBRANCH  14  15
ENDBRANCH  13  14
ENDBRANCH   1  13
TORSDOF 7
ENDMDL
