MODEL 1
REMARK VINA RESULT:    -5.221      0.000      0.000
REMARK INTER + INTRA:          -7.630
REMARK INTER:                  -7.205
REMARK INTRA:                  -0.425
REMARK UNBOUND:                -0.425
REMARK SMILES Cc1n[nH]c(C)c1CCCOc1cc(C(=O)O)ccc1F
REMARK SMILES IDX 11 1 12 2 14 3 18 4 13 5 19 6 20 7 21 8 15 9 16 10 17 11
REMARK SMILES IDX 10 13 9 14 8 15 7 16 5 17 2 18 4 19 3 20 6 21 1 22
REMARK H PARENT 17 12 4 23
ROOT
ATOM      1  O   UNL     1       5.692   3.960   5.533  1.00  0.00    -0.490 OA
ENDROOT
BRANCH   1   2
ATOM      2  C   UNL     1       4.912   2.939   5.088  1.00  0.00     0.155 A 
ATOM      3  C   UNL     1       4.686   0.692   4.261  1.00  0.00     0.063 A 
ATOM      4  C   UNL     1       3.300   0.862   4.191  1.00  0.00     0.019 A 
ATOM      5  C   UNL     1       5.490   1.740   4.712  1.00  0.00     0.065 A 
ATOM      6  C   UNL     1       2.732   2.059   4.573  1.00  0.00     0.044 A 
ATOM      7  C   UNL     1       3.532   3.095   5.025  1.00  0.00     0.165 A 
ATOM      8  F   UNL     1       2.970   4.266   5.398  1.00  0.00    -0.203 F 
BRANCH   3   9
ATOM      9  C   UNL     1       5.297  -0.588   3.853  1.00  0.00     0.335 C 
ATOM     10  O   UNL     1       6.478  -0.637   3.577  1.00  0.00    -0.246 OA
BRANCH   9  11
ATOM     11  O   UNL     1       4.544  -1.704   3.794  1.00  0.00    -0.478 OA
ATOM     12  H   UNL     1       4.745  -2.404   4.431  1.00  0.00     0.297 HD
ENDBRANCH   9  11
ENDBRANCH   3   9
ENDBRANCH   1   2
BRANCH   1  13
ATOM     13  C   UNL     1       5.456   4.423   6.864  1.00  0.00     0.230 C 
BRANCH  13  14
ATOM     14  C   UNL     1       6.694   4.158   7.723  1.00  0.00     0.046 C 
BRANCH  14  15
ATOM     15  C   UNL     1       6.541   2.814   8.437  1.00  0.00     0.043 C 
BRANCH  15  16
ATOM     16  C   UNL     1       7.513   2.741   9.586  1.00  0.00    -0.004 A 
ATOM     17  C   UNL     1       8.818   2.394   9.504  1.00  0.00     0.036 A 
ATOM     18  C   UNL     1       7.227   3.026  10.926  1.00  0.00     0.063 A 
ATOM     19  N   UNL     1       9.338   2.451  10.749  1.00  0.00    -0.282 N 
ATOM     20  N   UNL     1       8.318   2.846  11.624  1.00  0.00    -0.181 NA
ATOM     21  C   UNL     1       9.559   2.013   8.249  1.00  0.00     0.066 C 
ATOM     22  C   UNL     1       5.888   3.454  11.472  1.00  0.00     0.069 C 
ATOM     23  H   UNL     1      10.255   2.253  10.994  1.00  0.00     0.190 HD
ENDBRANCH  15  16
ENDBRANCH  14  15
ENDBRANCH  13  14
ENDBRANCH   1  13
TORSDOF 7
ENDMDL
MODEL 2
REMARK VINA RESULT:    -5.179      2.369      3.976
REMARK INTER + INTRA:          -7.572
REMARK INTER:                  -7.264
REMARK INTRA:                  -0.308
REMARK UNBOUND:                -0.425
REMARK SMILES Cc1n[nH]c(C)c1CCCOc1cc(C(=O)O)ccc1F
REMARK SMILES IDX 11 1 12 2 14 3 18 4 13 5 19 6 20 7 21 8 15 9 16 10 17 11
REMARK SMILES IDX 10 13 9 14 8 15 7 16 5 17 2 18 4 19 3 20 6 21 1 22
REMARK H PARENT 17 12 4 23
ROOT
ATOM      1  O   UNL     1       4.680  -0.233   7.300  1.00  0.00    -0.490 OA
ENDROOT
BRANCH   1   2
ATOM      2  C   UNL     1       4.220   0.472   6.233  1.00  0.00     0.155 A 
ATOM      3  C   UNL     1       3.052   2.370   5.332  1.00  0.00     0.063 A 
ATOM      4  C   UNL     1       3.298   1.903   4.038  1.00  0.00     0.019 A 
ATOM      5  C   UNL     1       3.518   1.646   6.431  1.00  0.00     0.065 A 
ATOM      6  C   UNL     1       4.004   0.734   3.851  1.00  0.00     0.044 A 
ATOM      7  C   UNL     1       4.470   0.019   4.942  1.00  0.00     0.165 A 
ATOM      8  F   UNL     1       5.161  -1.126   4.751  1.00  0.00    -0.203 F 
BRANCH   3   9
ATOM      9  C   UNL     1       2.296   3.622   5.536  1.00  0.00     0.335 C 
ATOM     10  O   UNL     1       1.763   3.842   6.604  1.00  0.00    -0.246 OA
BRANCH   9  11
ATOM     11  O   UNL     1       2.205   4.523   4.539  1.00  0.00    -0.478 OA
ATOM     12  H   UNL     1       2.106   4.176   3.641  1.00  0.00     0.297 HD
ENDBRANCH   9  11
ENDBRANCH   3   9
ENDBRANCH   1   2
BRANCH   1  13
ATOM     13  C   UNL     1       6.074  -0.554   7.314  1.00  0.00     0.230 C 
BRANCH  13  14
ATOM     14  C   UNL     1       6.732   0.090   8.535  1.00  0.00     0.046 C 
BRANCH  14  15
ATOM     15  C   UNL     1       7.101   1.540   8.210  1.00  0.00     0.043 C 
BRANCH  15  16
ATOM     16  C   UNL     1       7.985   2.090   9.299  1.00  0.00    -0.004 A 
ATOM     17  C   UNL     1       7.566   2.660  10.453  1.00  0.00     0.036 A 
ATOM     18  C   UNL     1       9.384   2.097   9.299  1.00  0.00     0.063 A 
ATOM     19  N   UNL     1       8.661   3.021  11.155  1.00  0.00    -0.282 N 
ATOM     20  N   UNL     1       9.790   2.660  10.408  1.00  0.00    -0.181 NA
ATOM     21  C   UNL     1       6.134   2.856  10.877  1.00  0.00     0.066 C 
ATOM     22  C   UNL     1      10.271   1.559   8.205  1.00  0.00     0.069 C 
ATOM     23  H   UNL     1       8.665   3.453  12.023  1.00  0.00     0.190 HD
ENDBRANCH  15  16
ENDBRANCH  14  15
ENDBRANCH  13  14
ENDBRANCH   1  13
TORSDOF 7
ENDMDL
MODEL 3
REMARK VINA RESULT:    -5.150      2.356      3.571
REMARK INTER + INTRA:          -7.532
REMARK INTER:                  -7.145
REMARK INTRA:                  -0.386
REMARK UNBOUND:                -0.425
REMARK SMILES Cc1n[nH]c(C)c1CCCOc1cc(C(=O)O)ccc1F
REMARK SMILES IDX 11 1 12 2 14 3 18 4 13 5 19 6 20 7 21 8 15 9 16 10 17 11
REMARK SMILES IDX 10 13 9 14 8 15 7 16 5 17 2 18 4 19 3 20 6 21 1 22
REMARK H PARENT 17 12 4 23
ROOT
ATOM      1  O   UNL     1       4.639  -0.305   7.202  1.00  0.00    -0.490 OA
ENDROOT
BRANCH   1   2
ATOM      2  C   UNL     1       4.181   0.430   6.154  1.00  0.00     0.155 A 
ATOM      3  C   UNL     1       3.027   2.360   5.304  1.00  0.00     0.063 A 
ATOM      4  C   UNL     1       3.262   1.921   3.998  1.00  0.00     0.019 A 
ATOM      5  C   UNL     1       3.492   1.606   6.383  1.00  0.00     0.065 A 
ATOM      6  C   UNL     1       3.956   0.750   3.780  1.00  0.00     0.044 A 
ATOM      7  C   UNL     1       4.420   0.005   4.851  1.00  0.00     0.165 A 
ATOM      8  F   UNL     1       5.100  -1.141   4.630  1.00  0.00    -0.203 F 
BRANCH   3   9
ATOM      9  C   UNL     1       2.285   3.614   5.541  1.00  0.00     0.335 C 
ATOM     10  O   UNL     1       1.763   3.816   6.618  1.00  0.00    -0.246 OA
BRANCH   9  11
ATOM     11  O   UNL     1       2.193   4.537   4.564  1.00  0.00    -0.478 OA
ATOM     12  H   UNL     1       2.968   4.656   3.998  1.00  0.00     0.297 HD
ENDBRANCH   9  11
ENDBRANCH   3   9
ENDBRANCH   1   2
BRANCH   1  13
ATOM     13  C   UNL     1       6.044  -0.571   7.244  1.00  0.00     0.230 C 
BRANCH  13  14
ATOM     14  C   UNL     1       6.650   0.087   8.484  1.00  0.00     0.046 C 
BRANCH  14  15
ATOM     15  C   UNL     1       7.067   1.521   8.149  1.00  0.00     0.043 C 
BRANCH  15  16
ATOM     16  C   UNL     1       7.971   2.049   9.232  1.00  0.00    -0.004 A 
ATOM     17  C   UNL     1       9.325   2.029   9.219  1.00  0.00     0.036 A 
ATOM     18  C   UNL     1       7.561   2.651  10.426  1.00  0.00     0.063 A 
ATOM     19  N   UNL     1       9.755   2.593  10.367  1.00  0.00    -0.282 N 
ATOM     20  N   UNL     1       8.629   2.971  11.110  1.00  0.00    -0.181 NA
ATOM     21  C   UNL     1      10.194   1.477   8.120  1.00  0.00     0.066 C 
ATOM     22  C   UNL     1       6.135   2.880  10.856  1.00  0.00     0.069 C 
ATOM     23  H   UNL     1      10.680   2.714  10.632  1.00  0.00     0.190 HD
ENDBRANCH  15  16
ENDBRANCH  14  15
ENDBRANCH  13  14
ENDBRANCH   1  13
TORSDOF 7
ENDMDL
MODEL 4
REMARK VINA RESULT:    -5.146      0.102      1.772
REMARK INTER + INTRA:          -7.527
REMARK INTER:                  -7.152
REMARK INTRA:                  -0.375
REMARK UNBOUND:                -0.425
REMARK SMILES Cc1n[nH]c(C)c1CCCOc1cc(C(=O)O)ccc1F
REMARK SMILES IDX 11 1 12 2 14 3 18 4 13 5 19 6 20 7 21 8 15 9 16 10 17 11
REMARK SMILES IDX 10 13 9 14 8 15 7 16 5 17 2 18 4 19 3 20 6 21 1 22
REMARK H PARENT 17 12 4 23
ROOT
ATOM      1  O   UNL     1       5.706   3.970   5.447  1.00  0.00    -0.490 OA
ENDROOT
BRANCH   1   2
ATOM      2  C   UNL     1       4.922   2.939   5.034  1.00  0.00     0.155 A 
ATOM      3  C   UNL     1       4.690   0.678   4.248  1.00  0.00     0.063 A 
ATOM      4  C   UNL     1       3.303   0.840   4.203  1.00  0.00     0.019 A 
ATOM      5  C   UNL     1       5.498   1.737   4.667  1.00  0.00     0.065 A 
ATOM      6  C   UNL     1       2.737   2.041   4.576  1.00  0.00     0.044 A 
ATOM      7  C   UNL     1       3.540   3.088   4.996  1.00  0.00     0.165 A 
ATOM      8  F   UNL     1       2.979   4.262   5.361  1.00  0.00    -0.203 F 
BRANCH   3   9
ATOM      9  C   UNL     1       5.299  -0.606   3.850  1.00  0.00     0.335 C 
ATOM     10  O   UNL     1       6.477  -0.656   3.562  1.00  0.00    -0.246 OA
BRANCH   9  11
ATOM     11  O   UNL     1       4.548  -1.724   3.811  1.00  0.00    -0.478 OA
ATOM     12  H   UNL     1       4.263  -2.092   4.660  1.00  0.00     0.297 HD
ENDBRANCH   9  11
ENDBRANCH   3   9
ENDBRANCH   1   2
BRANCH   1  13
ATOM     13  C   UNL     1       5.437   4.510   6.743  1.00  0.00     0.230 C 
BRANCH  13  14
ATOM     14  C   UNL     1       6.639   4.264   7.656  1.00  0.00     0.046 C 
BRANCH  14  15
ATOM     15  C   UNL     1       6.501   2.893   8.322  1.00  0.00     0.043 C 
BRANCH  15  16
ATOM     16  C   UNL     1       7.465   2.795   9.476  1.00  0.00    -0.004 A 
ATOM     17  C   UNL     1       7.185   3.064  10.772  1.00  0.00     0.036 A 
ATOM     18  C   UNL     1       8.806   2.403   9.398  1.00  0.00     0.063 A 
ATOM     19  N   UNL     1       8.310   2.857  11.488  1.00  0.00    -0.282 N 
ATOM     20  N   UNL     1       9.315   2.446  10.602  1.00  0.00    -0.181 NA
ATOM     21  C   UNL     1       5.855   3.515  11.318  1.00  0.00     0.066 C 
ATOM     22  C   UNL     1       9.540   2.010   8.142  1.00  0.00     0.069 C 
ATOM     23  H   UNL     1       8.406   2.972  12.446  1.00  0.00     0.190 HD
ENDBRANCH  15  16
ENDBRANCH  14  15
ENDBRANCH  13  14
ENDBRANCH   1  13
TORSDOF 7
ENDMDL
MODEL 5
REMARK VINA RESULT:    -4.604      4.723      8.136
REMARK INTER + INTRA:          -6.779
REMARK INTER:                  -6.108
REMARK INTRA:                  -0.671
REMARK UNBOUND:                -0.425
REMARK SMILES Cc1n[nH]c(C)c1CCCOc1cc(C(=O)O)ccc1F
REMARK SMILES IDX 11 1 12 2 14 3 18 4 13 5 19 6 20 7 21 8 15 9 16 10 17 11
REMARK SMILES IDX 10 13 9 14 8 15 7 16 5 17 2 18 4 19 3 20 6 21 1 22
REMARK H PARENT 17 12 4 23
ROOT
ATOM      1  O   UNL     1       6.674   3.280  10.509  1.00  0.00    -0.490 OA
ENDROOT
BRANCH   1   2
ATOM      2  C   UNL     1       6.802   3.315  11.863  1.00  0.00     0.155 A 
ATOM      3  C   UNL     1       8.089   3.839  13.825  1.00  0.00     0.063 A 
ATOM      4  C   UNL     1       7.040   3.387  14.629  1.00  0.00     0.019 A 
ATOM      5  C   UNL     1       7.963   3.799  12.435  1.00  0.00     0.065 A 
ATOM      6  C   UNL     1       5.883   2.911  14.050  1.00  0.00     0.044 A 
ATOM      7  C   UNL     1       5.758   2.878  12.671  1.00  0.00     0.165 A 
ATOM      8  F   UNL     1       4.622   2.410  12.109  1.00  0.00    -0.203 F 
BRANCH   3   9
ATOM      9  C   UNL     1       9.329   4.349  14.442  1.00  0.00     0.335 C 
ATOM     10  O   UNL     1       9.558   4.132  15.614  1.00  0.00    -0.246 OA
BRANCH   9  11
ATOM     11  O   UNL     1      10.210   5.051  13.702  1.00  0.00    -0.478 OA
ATOM     12  H   UNL     1      10.066   5.067  12.746  1.00  0.00     0.297 HD
ENDBRANCH   9  11
ENDBRANCH   3   9
ENDBRANCH   1   2
BRANCH   1  13
ATOM     13  C   UNL     1       7.545   2.397   9.798  1.00  0.00     0.230 C 
BRANCH  13  14
ATOM     14  C   UNL     1       7.202   2.435   8.308  1.00  0.00     0.046 C 
BRANCH  14  15
ATOM     15  C   UNL     1       5.689   2.294   8.129  1.00  0.00     0.043 C 
BRANCH  15  16
ATOM     16  C   UNL     1       5.379   1.985   6.687  1.00  0.00    -0.004 A 
ATOM     17  C   UNL     1       5.229   2.891   5.693  1.00  0.00     0.036 A 
ATOM     18  C   UNL     1       5.202   0.711   6.138  1.00  0.00     0.063 A 
ATOM     19  N   UNL     1       4.960   2.215   4.557  1.00  0.00    -0.282 N 
ATOM     20  N   UNL     1       4.944   0.847   4.863  1.00  0.00    -0.181 NA
ATOM     21  C   UNL     1       5.343   4.387   5.830  1.00  0.00     0.066 C 
ATOM     22  C   UNL     1       5.282  -0.594   6.889  1.00  0.00     0.069 C 
ATOM     23  H   UNL     1       4.804   2.605   3.683  1.00  0.00     0.190 HD
ENDBRANCH  15  16
ENDBRANCH  14  15
ENDBRANCH  13  14
ENDBRANCH   1  13
TORSDOF 7
ENDMDL
MODEL 6
REMARK VINA RESULT:    -4.599      4.866      7.820
REMARK INTER + INTRA:          -6.772
REMARK INTER:                  -6.093
REMARK INTRA:                  -0.679
REMARK UNBOUND:                -0.425
REMARK SMILES Cc1n[nH]c(C)c1CCCOc1cc(C(=O)O)ccc1F
REMARK SMILES IDX 11 1 12 2 14 3 18 4 13 5 19 6 20 7 21 8 15 9 16 10 17 11
REMARK SMILES IDX 10 13 9 14 8 15 7 16 5 17 2 18 4 19 3 20 6 21 1 22
REMARK H PARENT 17 12 4 23
ROOT
ATOM      1  O   UNL     1       8.939   1.798   8.597  1.00  0.00    -0.490 OA
ENDROOT
BRANCH   1   2
ATOM      2  C   UNL     1      10.230   2.012   8.969  1.00  0.00     0.155 A 
ATOM      3  C   UNL     1      11.893   2.265  10.687  1.00  0.00     0.063 A 
ATOM      4  C   UNL     1      12.874   2.439   9.706  1.00  0.00     0.019 A 
ATOM      5  C   UNL     1      10.566   2.050  10.309  1.00  0.00     0.065 A 
ATOM      6  C   UNL     1      12.530   2.393   8.372  1.00  0.00     0.044 A 
ATOM      7  C   UNL     1      11.213   2.175   8.000  1.00  0.00     0.165 A 
ATOM      8  F   UNL     1      10.883   2.131   6.690  1.00  0.00    -0.203 F 
BRANCH   3   9
ATOM      9  C   UNL     1      12.258   2.313  12.116  1.00  0.00     0.335 C 
ATOM     10  O   UNL     1      12.749   3.320  12.584  1.00  0.00    -0.246 OA
BRANCH   9  11
ATOM     11  O   UNL     1      12.041   1.241  12.903  1.00  0.00    -0.478 OA
ATOM     12  H   UNL     1      12.743   1.002  13.524  1.00  0.00     0.297 HD
ENDBRANCH   9  11
ENDBRANCH   3   9
ENDBRANCH   1   2
BRANCH   1  13
ATOM     13  C   UNL     1       7.925   2.431   9.382  1.00  0.00     0.230 C 
BRANCH  13  14
ATOM     14  C   UNL     1       6.567   2.246   8.704  1.00  0.00     0.046 C 
BRANCH  14  15
ATOM     15  C   UNL     1       6.775   1.927   7.222  1.00  0.00     0.043 C 
BRANCH  15  16
ATOM     16  C   UNL     1       5.438   1.820   6.537  1.00  0.00    -0.004 A 
ATOM     17  C   UNL     1       4.707   0.690   6.390  1.00  0.00     0.036 A 
ATOM     18  C   UNL     1       4.729   2.871   5.947  1.00  0.00     0.063 A 
ATOM     19  N   UNL     1       3.578   1.014   5.724  1.00  0.00    -0.282 N 
ATOM     20  N   UNL     1       3.618   2.389   5.453  1.00  0.00    -0.181 NA
ATOM     21  C   UNL     1       5.085  -0.682   6.882  1.00  0.00     0.066 C 
ATOM     22  C   UNL     1       5.174   4.310   5.880  1.00  0.00     0.069 C 
ATOM     23  H   UNL     1       2.867   0.404   5.476  1.00  0.00     0.190 HD
ENDBRANCH  15  16
ENDBRANCH  14  15
ENDBRANCH  13  14
ENDBRANCH   1  13
TORSDOF 7
ENDMDL
MODEL 7
REMARK VINA RESULT:    -4.444      2.047      2.996
REMARK INTER + INTRA:          -6.558
REMARK INTER:                  -5.880
REMARK INTRA:                  -0.678
REMARK UNBOUND:                -0.425
REMARK SMILES Cc1n[nH]c(C)c1CCCOc1cc(C(=O)O)ccc1F
REMARK SMILES IDX 11 1 12 2 14 3 18 4 13 5 19 6 20 7 21 8 15 9 16 10 17 11
REMARK SMILES IDX 10 13 9 14 8 15 7 16 5 17 2 18 4 19 3 20 6 21 1 22
REMARK H PARENT 17 12 4 23
ROOT
ATOM      1  O   UNL     1       6.244   2.827   6.399  1.00  0.00    -0.490 OA
ENDROOT
BRANCH   1   2
ATOM      2  C   UNL     1       5.175   2.436   5.657  1.00  0.00     0.155 A 
ATOM      3  C   UNL     1       2.874   2.701   5.009  1.00  0.00     0.063 A 
ATOM      4  C   UNL     1       3.004   1.629   4.123  1.00  0.00     0.019 A 
ATOM      5  C   UNL     1       3.969   3.102   5.778  1.00  0.00     0.065 A 
ATOM      6  C   UNL     1       4.213   0.975   4.004  1.00  0.00     0.044 A 
ATOM      7  C   UNL     1       5.299   1.378   4.764  1.00  0.00     0.165 A 
ATOM      8  F   UNL     1       6.480   0.733   4.643  1.00  0.00    -0.203 F 
BRANCH   3   9
ATOM      9  C   UNL     1       1.582   3.403   5.138  1.00  0.00     0.335 C 
ATOM     10  O   UNL     1       0.557   2.859   4.782  1.00  0.00    -0.246 OA
BRANCH   9  11
ATOM     11  O   UNL     1       1.540   4.646   5.657  1.00  0.00    -0.478 OA
ATOM     12  H   UNL     1       2.386   5.099   5.781  1.00  0.00     0.297 HD
ENDBRANCH   9  11
ENDBRANCH   3   9
ENDBRANCH   1   2
BRANCH   1  13
ATOM     13  C   UNL     1       6.241   4.172   6.884  1.00  0.00     0.230 C 
BRANCH  13  14
ATOM     14  C   UNL     1       6.643   4.182   8.360  1.00  0.00     0.046 C 
BRANCH  14  15
ATOM     15  C   UNL     1       6.815   2.743   8.852  1.00  0.00     0.043 C 
BRANCH  15  16
ATOM     16  C   UNL     1       7.908   2.693   9.888  1.00  0.00    -0.004 A 
ATOM     17  C   UNL     1       9.206   2.384   9.663  1.00  0.00     0.036 A 
ATOM     18  C   UNL     1       7.761   2.965  11.253  1.00  0.00     0.063 A 
ATOM     19  N   UNL     1       9.856   2.451  10.844  1.00  0.00    -0.282 N 
ATOM     20  N   UNL     1       8.926   2.813  11.828  1.00  0.00    -0.181 NA
ATOM     21  C   UNL     1       9.816   2.029   8.332  1.00  0.00     0.066 C 
ATOM     22  C   UNL     1       6.478   3.353  11.943  1.00  0.00     0.069 C 
ATOM     23  H   UNL     1      10.799   2.278  10.987  1.00  0.00     0.190 HD
ENDBRANCH  15  16
ENDBRANCH  14  15
ENDBRANCH  13  14
ENDBRANCH   1  13
TORSDOF 7
ENDMDL
MODEL 8
REMARK VINA RESULT:    -4.366      3.909      6.977
REMARK INTER + INTRA:          -6.450
REMARK INTER:                  -5.639
REMARK INTRA:                  -0.811
REMARK UNBOUND:                -0.425
REMARK SMILES Cc1n[nH]c(C)c1CCCOc1cc(C(=O)O)ccc1F
REMARK SMILES IDX 11 1 12 2 14 3 18 4 13 5 19 6 20 7 21 8 15 9 16 10 17 11
REMARK SMILES IDX 10 13 9 14 8 15 7 16 5 17 2 18 4 19 3 20 6 21 1 22
REMARK H PARENT 17 12 4 23
ROOT
ATOM      1  O   UNL     1       6.875   1.471   6.962  1.00  0.00    -0.490 OA
ENDROOT
BRANCH   1   2
ATOM      2  C   UNL     1       7.387   1.884   8.152  1.00  0.00     0.155 A 
ATOM      3  C   UNL     1       7.068   2.687  10.396  1.00  0.00     0.063 A 
ATOM      4  C   UNL     1       8.453   2.716  10.578  1.00  0.00     0.019 A 
ATOM      5  C   UNL     1       6.539   2.268   9.173  1.00  0.00     0.065 A 
ATOM      6  C   UNL     1       9.291   2.325   9.555  1.00  0.00     0.044 A 
ATOM      7  C   UNL     1       8.764   1.905   8.345  1.00  0.00     0.165 A 
ATOM      8  F   UNL     1       9.590   1.523   7.347  1.00  0.00    -0.203 F 
BRANCH   3   9
ATOM      9  C   UNL     1       6.168   3.104  11.489  1.00  0.00     0.335 C 
ATOM     10  O   UNL     1       5.750   2.283  12.279  1.00  0.00    -0.246 OA
BRANCH   9  11
ATOM     11  O   UNL     1       5.816   4.399  11.614  1.00  0.00    -0.478 OA
ATOM     12  H   UNL     1       4.982   4.586  12.067  1.00  0.00     0.297 HD
ENDBRANCH   9  11
ENDBRANCH   3   9
ENDBRANCH   1   2
BRANCH   1  13
ATOM     13  C   UNL     1       5.787   0.545   7.011  1.00  0.00     0.230 C 
BRANCH  13  14
ATOM     14  C   UNL     1       5.174   0.405   5.616  1.00  0.00     0.046 C 
BRANCH  14  15
ATOM     15  C   UNL     1       5.428   1.685   4.817  1.00  0.00     0.043 C 
BRANCH  15  16
ATOM     16  C   UNL     1       4.235   2.597   4.937  1.00  0.00    -0.004 A 
ATOM     17  C   UNL     1       2.998   2.361   4.441  1.00  0.00     0.036 A 
ATOM     18  C   UNL     1       4.209   3.836   5.587  1.00  0.00     0.063 A 
ATOM     19  N   UNL     1       2.219   3.416   4.760  1.00  0.00    -0.282 N 
ATOM     20  N   UNL     1       3.003   4.331   5.475  1.00  0.00    -0.181 NA
ATOM     21  C   UNL     1       2.568   1.140   3.672  1.00  0.00     0.066 C 
ATOM     22  C   UNL     1       5.373   4.493   6.284  1.00  0.00     0.069 C 
ATOM     23  H   UNL     1       1.282   3.522   4.533  1.00  0.00     0.190 HD
ENDBRANCH  15  16
ENDBRANCH  14  15
ENDBRANCH  13  14
ENDBRANCH   1  13
TORSDOF 7
ENDMDL
MODEL 9
REMARK VINA RESULT:    -4.153      2.915      3.994
REMARK INTER + INTRA:          -6.156
REMARK INTER:                  -5.608
REMARK INTRA:                  -0.548
REMARK UNBOUND:                -0.425
REMARK SMILES Cc1n[nH]c(C)c1CCCOc1cc(C(=O)O)ccc1F
REMARK SMILES IDX 11 1 12 2 14 3 18 4 13 5 19 6 20 7 21 8 15 9 16 10 17 11
REMARK SMILES IDX 10 13 9 14 8 15 7 16 5 17 2 18 4 19 3 20 6 21 1 22
REMARK H PARENT 17 12 4 23
ROOT
ATOM      1  O   UNL     1       7.175   3.083   9.209  1.00  0.00    -0.490 OA
ENDROOT
BRANCH   1   2
ATOM      2  C   UNL     1       6.508   2.717   8.082  1.00  0.00     0.155 A 
ATOM      3  C   UNL     1       5.559   1.011   6.679  1.00  0.00     0.063 A 
ATOM      4  C   UNL     1       5.135   1.992   5.779  1.00  0.00     0.019 A 
ATOM      5  C   UNL     1       6.249   1.382   7.835  1.00  0.00     0.065 A 
ATOM      6  C   UNL     1       5.394   3.322   6.037  1.00  0.00     0.044 A 
ATOM      7  C   UNL     1       6.074   3.688   7.187  1.00  0.00     0.165 A 
ATOM      8  F   UNL     1       6.324   4.993   7.434  1.00  0.00    -0.203 F 
BRANCH   3   9
ATOM      9  C   UNL     1       5.284  -0.413   6.406  1.00  0.00     0.335 C 
ATOM     10  O   UNL     1       5.139  -0.796   5.263  1.00  0.00    -0.246 OA
BRANCH   9  11
ATOM     11  O   UNL     1       5.199  -1.290   7.426  1.00  0.00    -0.478 OA
ATOM     12  H   UNL     1       5.836  -1.188   8.147  1.00  0.00     0.297 HD
ENDBRANCH   9  11
ENDBRANCH   3   9
ENDBRANCH   1   2
BRANCH   1  13
ATOM     13  C   UNL     1       6.410   3.180  10.413  1.00  0.00     0.230 C 
BRANCH  13  14
ATOM     14  C   UNL     1       7.342   3.060  11.620  1.00  0.00     0.046 C 
BRANCH  14  15
ATOM     15  C   UNL     1       6.784   3.888  12.780  1.00  0.00     0.043 C 
BRANCH  15  16
ATOM     16  C   UNL     1       7.386   3.409  14.075  1.00  0.00    -0.004 A 
ATOM     17  C   UNL     1       8.528   3.864  14.640  1.00  0.00     0.036 A 
ATOM     18  C   UNL     1       6.858   2.419  14.911  1.00  0.00     0.063 A 
ATOM     19  N   UNL     1       8.720   3.182  15.788  1.00  0.00    -0.282 N 
ATOM     20  N   UNL     1       7.661   2.277  15.934  1.00  0.00    -0.181 NA
ATOM     21  C   UNL     1       9.425   4.941  14.085  1.00  0.00     0.066 C 
ATOM     22  C   UNL     1       5.590   1.641  14.668  1.00  0.00     0.069 C 
ATOM     23  H   UNL     1       9.461   3.297  16.403  1.00  0.00     0.190 HD
ENDBRANCH  15  16
ENDBRANCH  14  15
ENDBRANCH  13  14
ENDBRANCH   1  13
TORSDOF 7
ENDMDL
