MODEL 1
REMARK VINA RESULT:    -5.544      0.000      0.000
REMARK INTER + INTRA:          -8.194
REMARK INTER:                  -7.651
REMARK INTRA:                  -0.543
REMARK UNBOUND:                -0.543
REMARK SMILES Cc1n[nH]c(C)c1CCCOc1cc(C(=O)O)ccc1F
REMARK SMILES IDX 11 1 12 2 14 3 18 4 13 5 19 6 20 7 21 8 15 9 16 10 17 11
REMARK SMILES IDX 10 13 9 14 8 15 7 16 5 17 2 18 4 19 3 20 6 21 1 22
REMARK H PARENT 17 12 4 23
ROOT
ATOM      1  O   UNL     1      -2.527   9.008   1.066  1.00  0.00    -0.490 OA
ENDROOT
BRANCH   1   2
ATOM      2  C   UNL     1      -1.967   7.923   0.468  1.00  0.00     0.155 A 
ATOM      3  C   UNL     1      -1.871   6.366  -1.362  1.00  0.00     0.063 A 
ATOM      4  C   UNL     1      -0.803   5.710  -0.743  1.00  0.00     0.019 A 
ATOM      5  C   UNL     1      -2.451   7.478  -0.748  1.00  0.00     0.065 A 
ATOM      6  C   UNL     1      -0.323   6.165   0.467  1.00  0.00     0.044 A 
ATOM      7  C   UNL     1      -0.898   7.271   1.072  1.00  0.00     0.165 A 
ATOM      8  F   UNL     1      -0.423   7.712   2.257  1.00  0.00    -0.203 F 
BRANCH   3   9
ATOM      9  C   UNL     1      -2.387   5.882  -2.658  1.00  0.00     0.335 C 
ATOM     10  O   UNL     1      -3.506   6.185  -3.017  1.00  0.00    -0.246 OA
BRANCH   9  11
ATOM     11  O   UNL     1      -1.613   5.108  -3.444  1.00  0.00    -0.478 OA
ATOM     12  H   UNL     1      -1.776   4.155  -3.420  1.00  0.00     0.297 HD
ENDBRANCH   9  11
ENDBRANCH   3   9
ENDBRANCH   1   2
BRANCH   1  13
ATOM     13  C   UNL     1      -1.717  10.182   1.169  1.00  0.00     0.230 C 
BRANCH  13  14
ATOM     14  C   UNL     1      -2.349  11.310   0.353  1.00  0.00     0.046 C 
BRANCH  14  15
ATOM     15  C   UNL     1      -1.729  11.336  -1.046  1.00  0.00     0.043 C 
BRANCH  15  16
ATOM     16  C   UNL     1      -1.828  12.728  -1.614  1.00  0.00    -0.004 A 
ATOM     17  C   UNL     1      -2.864  13.226  -2.328  1.00  0.00     0.036 A 
ATOM     18  C   UNL     1      -0.866  13.737  -1.491  1.00  0.00     0.063 A 
ATOM     19  N   UNL     1      -2.566  14.502  -2.651  1.00  0.00    -0.282 N 
ATOM     20  N   UNL     1      -1.305  14.798  -2.118  1.00  0.00    -0.181 NA
ATOM     21  C   UNL     1      -4.124  12.488  -2.696  1.00  0.00     0.066 C 
ATOM     22  C   UNL     1       0.453  13.618  -0.771  1.00  0.00     0.069 C 
ATOM     23  H   UNL     1      -3.126  15.107  -3.162  1.00  0.00     0.190 HD
ENDBRANCH  15  16
ENDBRANCH  14  15
ENDBRANCH  13  14
ENDBRANCH   1  13
TORSDOF 7
ENDMDL
MODEL 2
REMARK VINA RESULT:    -5.449      2.157      3.773
REMARK INTER + INTRA:          -8.063
REMARK INTER:                  -7.440
REMARK INTRA:                  -0.622
REMARK UNBOUND:                -0.543
REMARK SMILES Cc1n[nH]c(C)c1CCCOc1cc(C(=O)O)ccc1F
REMARK SMILES IDX 11 1 12 2 14 3 18 4 13 5 19 6 20 7 21 8 15 9 16 10 17 11
REMARK SMILES IDX 10 13 9 14 8 15 7 16 5 17 2 18 4 19 3 20 6 21 1 22
REMARK H PARENT 17 12 4 23
ROOT
ATOM      1  O   UNL     1      -1.957   8.639  -2.307  1.00  0.00    -0.490 OA
ENDROOT
BRANCH   1   2
ATOM      2  C   UNL     1      -1.566   7.624  -1.491  1.00  0.00     0.155 A 
ATOM      3  C   UNL     1      -0.537   6.860   0.543  1.00  0.00     0.063 A 
ATOM      4  C   UNL     1      -0.785   5.537   0.168  1.00  0.00     0.019 A 
ATOM      5  C   UNL     1      -0.932   7.905  -0.295  1.00  0.00     0.065 A 
ATOM      6  C   UNL     1      -1.424   5.268  -1.024  1.00  0.00     0.044 A 
ATOM      7  C   UNL     1      -1.820   6.305  -1.852  1.00  0.00     0.165 A 
ATOM      8  F   UNL     1      -2.446   6.035  -3.018  1.00  0.00    -0.203 F 
BRANCH   3   9
ATOM      9  C   UNL     1       0.147   7.152   1.819  1.00  0.00     0.335 C 
ATOM     10  O   UNL     1       1.152   7.833   1.827  1.00  0.00    -0.246 OA
BRANCH   9  11
ATOM     11  O   UNL     1      -0.349   6.668   2.974  1.00  0.00    -0.478 OA
ATOM     12  H   UNL     1      -1.289   6.439   2.987  1.00  0.00     0.297 HD
ENDBRANCH   9  11
ENDBRANCH   3   9
ENDBRANCH   1   2
BRANCH   1  13
ATOM     13  C   UNL     1      -0.968   9.182  -3.186  1.00  0.00     0.230 C 
BRANCH  13  14
ATOM     14  C   UNL     1      -1.161  10.695  -3.296  1.00  0.00     0.046 C 
BRANCH  14  15
ATOM     15  C   UNL     1      -1.788  11.225  -2.004  1.00  0.00     0.043 C 
BRANCH  15  16
ATOM     16  C   UNL     1      -1.982  12.715  -2.114  1.00  0.00    -0.004 A 
ATOM     17  C   UNL     1      -1.095  13.664  -1.734  1.00  0.00     0.036 A 
ATOM     18  C   UNL     1      -3.109  13.362  -2.632  1.00  0.00     0.063 A 
ATOM     19  N   UNL     1      -1.644  14.869  -1.996  1.00  0.00    -0.282 N 
ATOM     20  N   UNL     1      -2.910  14.653  -2.555  1.00  0.00    -0.181 NA
ATOM     21  C   UNL     1       0.262  13.419  -1.127  1.00  0.00     0.066 C 
ATOM     22  C   UNL     1      -4.344  12.689  -3.173  1.00  0.00     0.069 C 
ATOM     23  H   UNL     1      -1.235  15.731  -1.826  1.00  0.00     0.190 HD
ENDBRANCH  15  16
ENDBRANCH  14  15
ENDBRANCH  13  14
ENDBRANCH   1  13
TORSDOF 7
ENDMDL
MODEL 3
REMARK VINA RESULT:    -5.395      0.256      1.786
REMARK INTER + INTRA:          -7.988
REMARK INTER:                  -7.465
REMARK INTRA:                  -0.523
REMARK UNBOUND:                -0.543
REMARK SMILES Cc1n[nH]c(C)c1CCCOc1cc(C(=O)O)ccc1F
REMARK SMILES IDX 11 1 12 2 14 3 18 4 13 5 19 6 20 7 21 8 15 9 16 10 17 11
REMARK SMILES IDX 10 13 9 14 8 15 7 16 5 17 2 18 4 19 3 20 6 21 1 22
REMARK H PARENT 17 12 4 23
ROOT
ATOM      1  O   UNL     1      -2.456   8.996   1.098  1.00  0.00    -0.490 OA
ENDROOT
BRANCH   1   2
ATOM      2  C   UNL     1      -1.906   7.923   0.469  1.00  0.00     0.155 A 
ATOM      3  C   UNL     1      -1.851   6.393  -1.385  1.00  0.00     0.063 A 
ATOM      4  C   UNL     1      -0.763   5.735  -0.804  1.00  0.00     0.019 A 
ATOM      5  C   UNL     1      -2.421   7.492  -0.740  1.00  0.00     0.065 A 
ATOM      6  C   UNL     1      -0.253   6.175   0.399  1.00  0.00     0.044 A 
ATOM      7  C   UNL     1      -0.817   7.269   1.035  1.00  0.00     0.165 A 
ATOM      8  F   UNL     1      -0.313   7.695   2.213  1.00  0.00    -0.203 F 
BRANCH   3   9
ATOM      9  C   UNL     1      -2.399   5.924  -2.673  1.00  0.00     0.335 C 
ATOM     10  O   UNL     1      -3.519   6.247  -3.010  1.00  0.00    -0.246 OA
BRANCH   9  11
ATOM     11  O   UNL     1      -1.652   5.143  -3.478  1.00  0.00    -0.478 OA
ATOM     12  H   UNL     1      -2.063   4.837  -4.299  1.00  0.00     0.297 HD
ENDBRANCH   9  11
ENDBRANCH   3   9
ENDBRANCH   1   2
BRANCH   1  13
ATOM     13  C   UNL     1      -1.672  10.191   1.146  1.00  0.00     0.230 C 
BRANCH  13  14
ATOM     14  C   UNL     1      -2.283  11.239   0.215  1.00  0.00     0.046 C 
BRANCH  14  15
ATOM     15  C   UNL     1      -1.384  11.420  -1.010  1.00  0.00     0.043 C 
BRANCH  15  16
ATOM     16  C   UNL     1      -1.467  12.846  -1.489  1.00  0.00    -0.004 A 
ATOM     17  C   UNL     1      -0.534  13.807  -1.295  1.00  0.00     0.036 A 
ATOM     18  C   UNL     1      -2.520  13.409  -2.218  1.00  0.00     0.063 A 
ATOM     19  N   UNL     1      -0.983  14.940  -1.875  1.00  0.00    -0.282 N 
ATOM     20  N   UNL     1      -2.234  14.666  -2.444  1.00  0.00    -0.181 NA
ATOM     21  C   UNL     1       0.772  13.641  -0.563  1.00  0.00     0.066 C 
ATOM     22  C   UNL     1      -3.773  12.695  -2.656  1.00  0.00     0.069 C 
ATOM     23  H   UNL     1      -0.523  15.793  -1.894  1.00  0.00     0.190 HD
ENDBRANCH  15  16
ENDBRANCH  14  15
ENDBRANCH  13  14
ENDBRANCH   1  13
TORSDOF 7
ENDMDL
MODEL 4
REMARK VINA RESULT:    -5.338      2.174      3.336
REMARK INTER + INTRA:          -7.909
REMARK INTER:                  -7.265
REMARK INTRA:                  -0.645
REMARK UNBOUND:                -0.543
REMARK SMILES Cc1n[nH]c(C)c1CCCOc1cc(C(=O)O)ccc1F
REMARK SMILES IDX 11 1 12 2 14 3 18 4 13 5 19 6 20 7 21 8 15 9 16 10 17 11
REMARK SMILES IDX 10 13 9 14 8 15 7 16 5 17 2 18 4 19 3 20 6 21 1 22
REMARK H PARENT 17 12 4 23
ROOT
ATOM      1  O   UNL     1      -1.980   8.761  -2.250  1.00  0.00    -0.490 OA
ENDROOT
BRANCH   1   2
ATOM      2  C   UNL     1      -1.594   7.723  -1.461  1.00  0.00     0.155 A 
ATOM      3  C   UNL     1      -0.554   6.899   0.544  1.00  0.00     0.063 A 
ATOM      4  C   UNL     1      -0.823   5.589   0.141  1.00  0.00     0.019 A 
ATOM      5  C   UNL     1      -0.944   7.968  -0.266  1.00  0.00     0.065 A 
ATOM      6  C   UNL     1      -1.478   5.355  -1.050  1.00  0.00     0.044 A 
ATOM      7  C   UNL     1      -1.868   6.416  -1.849  1.00  0.00     0.165 A 
ATOM      8  F   UNL     1      -2.509   6.180  -3.015  1.00  0.00    -0.203 F 
BRANCH   3   9
ATOM      9  C   UNL     1       0.146   7.153   1.819  1.00  0.00     0.335 C 
ATOM     10  O   UNL     1       1.163   7.816   1.832  1.00  0.00    -0.246 OA
BRANCH   9  11
ATOM     11  O   UNL     1      -0.347   6.654   2.969  1.00  0.00    -0.478 OA
ATOM     12  H   UNL     1      -0.240   7.194   3.764  1.00  0.00     0.297 HD
ENDBRANCH   9  11
ENDBRANCH   3   9
ENDBRANCH   1   2
BRANCH   1  13
ATOM     13  C   UNL     1      -1.014   9.268  -3.174  1.00  0.00     0.230 C 
BRANCH  13  14
ATOM     14  C   UNL     1      -1.160  10.786  -3.282  1.00  0.00     0.046 C 
BRANCH  14  15
ATOM     15  C   UNL     1      -1.943  11.311  -2.076  1.00  0.00     0.043 C 
BRANCH  15  16
ATOM     16  C   UNL     1      -2.188  12.788  -2.239  1.00  0.00    -0.004 A 
ATOM     17  C   UNL     1      -3.291  13.357  -2.778  1.00  0.00     0.036 A 
ATOM     18  C   UNL     1      -1.319  13.814  -1.854  1.00  0.00     0.063 A 
ATOM     19  N   UNL     1      -3.123  14.696  -2.742  1.00  0.00    -0.282 N 
ATOM     20  N   UNL     1      -1.875  14.958  -2.161  1.00  0.00    -0.181 NA
ATOM     21  C   UNL     1      -4.492  12.627  -3.321  1.00  0.00     0.066 C 
ATOM     22  C   UNL     1       0.031  13.634  -1.209  1.00  0.00     0.069 C 
ATOM     23  H   UNL     1      -3.754  15.359  -3.062  1.00  0.00     0.190 HD
ENDBRANCH  15  16
ENDBRANCH  14  15
ENDBRANCH  13  14
ENDBRANCH   1  13
TORSDOF 7
ENDMDL
MODEL 5
REMARK VINA RESULT:    -4.579      3.250      4.578
REMARK INTER + INTRA:          -6.862
REMARK INTER:                  -6.326
REMARK INTRA:                  -0.536
REMARK UNBOUND:                -0.543
REMARK SMILES Cc1n[nH]c(C)c1CCCOc1cc(C(=O)O)ccc1F
REMARK SMILES IDX 11 1 12 2 14 3 18 4 13 5 19 6 20 7 21 8 15 9 16 10 17 11
REMARK SMILES IDX 10 13 9 14 8 15 7 16 5 17 2 18 4 19 3 20 6 21 1 22
REMARK H PARENT 17 12 4 23
ROOT
ATOM      1  O   UNL     1      -1.309  12.722  -1.167  1.00  0.00    -0.490 OA
ENDROOT
BRANCH   1   2
ATOM      2  C   UNL     1      -1.434  11.374  -1.046  1.00  0.00     0.155 A 
ATOM      3  C   UNL     1      -1.257   9.168  -1.988  1.00  0.00     0.063 A 
ATOM      4  C   UNL     1      -1.685   8.621  -0.775  1.00  0.00     0.019 A 
ATOM      5  C   UNL     1      -1.133  10.553  -2.117  1.00  0.00     0.065 A 
ATOM      6  C   UNL     1      -1.977   9.447   0.289  1.00  0.00     0.044 A 
ATOM      7  C   UNL     1      -1.849  10.820   0.160  1.00  0.00     0.165 A 
ATOM      8  F   UNL     1      -2.136  11.624   1.207  1.00  0.00    -0.203 F 
BRANCH   3   9
ATOM      9  C   UNL     1      -0.943   8.286  -3.129  1.00  0.00     0.335 C 
ATOM     10  O   UNL     1      -1.227   7.107  -3.082  1.00  0.00    -0.246 OA
BRANCH   9  11
ATOM     11  O   UNL     1      -0.347   8.792  -4.227  1.00  0.00    -0.478 OA
ATOM     12  H   UNL     1      -0.408   9.749  -4.358  1.00  0.00     0.297 HD
ENDBRANCH   9  11
ENDBRANCH   3   9
ENDBRANCH   1   2
BRANCH   1  13
ATOM     13  C   UNL     1      -0.005  13.229  -1.463  1.00  0.00     0.230 C 
BRANCH  13  14
ATOM     14  C   UNL     1       0.260  14.475  -0.616  1.00  0.00     0.046 C 
BRANCH  14  15
ATOM     15  C   UNL     1      -0.064  15.727  -1.435  1.00  0.00     0.043 C 
BRANCH  15  16
ATOM     16  C   UNL     1       1.001  16.768  -1.207  1.00  0.00    -0.004 A 
ATOM     17  C   UNL     1       2.240  16.773  -1.751  1.00  0.00     0.036 A 
ATOM     18  C   UNL     1       0.882  17.904  -0.399  1.00  0.00     0.063 A 
ATOM     19  N   UNL     1       2.884  17.869  -1.299  1.00  0.00    -0.282 N 
ATOM     20  N   UNL     1       2.012  18.561  -0.448  1.00  0.00    -0.181 NA
ATOM     21  C   UNL     1       2.799  15.739  -2.693  1.00  0.00     0.066 C 
ATOM     22  C   UNL     1      -0.335  18.297   0.400  1.00  0.00     0.069 C 
ATOM     23  H   UNL     1       3.790  18.131  -1.523  1.00  0.00     0.190 HD
ENDBRANCH  15  16
ENDBRANCH  14  15
ENDBRANCH  13  14
ENDBRANCH   1  13
TORSDOF 7
ENDMDL
MODEL 6
REMARK VINA RESULT:    -4.557      3.783      6.510
REMARK INTER + INTRA:          -6.831
REMARK INTER:                  -6.035
REMARK INTRA:                  -0.797
REMARK UNBOUND:                -0.543
REMARK SMILES Cc1n[nH]c(C)c1CCCOc1cc(C(=O)O)ccc1F
REMARK SMILES IDX 11 1 12 2 14 3 18 4 13 5 19 6 20 7 21 8 15 9 16 10 17 11
REMARK SMILES IDX 10 13 9 14 8 15 7 16 5 17 2 18 4 19 3 20 6 21 1 22
REMARK H PARENT 17 12 4 23
ROOT
ATOM      1  O   UNL     1      -0.743  10.402  -0.706  1.00  0.00    -0.490 OA
ENDROOT
BRANCH   1   2
ATOM      2  C   UNL     1      -1.272  11.540  -1.231  1.00  0.00     0.155 A 
ATOM      3  C   UNL     1      -3.087  12.698  -2.302  1.00  0.00     0.063 A 
ATOM      4  C   UNL     1      -2.337  13.877  -2.289  1.00  0.00     0.019 A 
ATOM      5  C   UNL     1      -2.545  11.526  -1.769  1.00  0.00     0.065 A 
ATOM      6  C   UNL     1      -1.070  13.882  -1.744  1.00  0.00     0.044 A 
ATOM      7  C   UNL     1      -0.537  12.720  -1.212  1.00  0.00     0.165 A 
ATOM      8  F   UNL     1       0.705  12.732  -0.680  1.00  0.00    -0.203 F 
BRANCH   3   9
ATOM      9  C   UNL     1      -4.444  12.689  -2.883  1.00  0.00     0.335 C 
ATOM     10  O   UNL     1      -4.599  12.427  -4.058  1.00  0.00    -0.246 OA
BRANCH   9  11
ATOM     11  O   UNL     1      -5.510  12.965  -2.107  1.00  0.00    -0.478 OA
ATOM     12  H   UNL     1      -5.898  12.228  -1.615  1.00  0.00     0.297 HD
ENDBRANCH   9  11
ENDBRANCH   3   9
ENDBRANCH   1   2
BRANCH   1  13
ATOM     13  C   UNL     1      -1.605   9.601   0.106  1.00  0.00     0.230 C 
BRANCH  13  14
ATOM     14  C   UNL     1      -0.871   8.326   0.524  1.00  0.00     0.046 C 
BRANCH  14  15
ATOM     15  C   UNL     1       0.030   7.857  -0.620  1.00  0.00     0.043 C 
BRANCH  15  16
ATOM     16  C   UNL     1      -0.766   6.999  -1.568  1.00  0.00    -0.004 A 
ATOM     17  C   UNL     1      -1.274   5.774  -1.298  1.00  0.00     0.036 A 
ATOM     18  C   UNL     1      -1.116   7.330  -2.882  1.00  0.00     0.063 A 
ATOM     19  N   UNL     1      -1.917   5.342  -2.403  1.00  0.00    -0.282 N 
ATOM     20  N   UNL     1      -1.800   6.335  -3.385  1.00  0.00    -0.181 NA
ATOM     21  C   UNL     1      -1.145   5.027   0.004  1.00  0.00     0.066 C 
ATOM     22  C   UNL     1      -0.756   8.607  -3.597  1.00  0.00     0.069 C 
ATOM     23  H   UNL     1      -2.378   4.495  -2.500  1.00  0.00     0.190 HD
ENDBRANCH  15  16
ENDBRANCH  14  15
ENDBRANCH  13  14
ENDBRANCH   1  13
TORSDOF 7
ENDMDL
MODEL 7
REMARK VINA RESULT:    -4.549      3.557      5.314
REMARK INTER + INTRA:          -6.821
REMARK INTER:                  -6.269
REMARK INTRA:                  -0.553
REMARK UNBOUND:                -0.543
REMARK SMILES Cc1n[nH]c(C)c1CCCOc1cc(C(=O)O)ccc1F
REMARK SMILES IDX 11 1 12 2 14 3 18 4 13 5 19 6 20 7 21 8 15 9 16 10 17 11
REMARK SMILES IDX 10 13 9 14 8 15 7 16 5 17 2 18 4 19 3 20 6 21 1 22
REMARK H PARENT 17 12 4 23
ROOT
ATOM      1  O   UNL     1      -2.289  12.271  -2.528  1.00  0.00    -0.490 OA
ENDROOT
BRANCH   1   2
ATOM      2  C   UNL     1      -1.869  11.067  -2.056  1.00  0.00     0.155 A 
ATOM      3  C   UNL     1      -1.606   9.512  -0.241  1.00  0.00     0.063 A 
ATOM      4  C   UNL     1      -1.012   8.598  -1.115  1.00  0.00     0.019 A 
ATOM      5  C   UNL     1      -2.035  10.751  -0.721  1.00  0.00     0.065 A 
ATOM      6  C   UNL     1      -0.856   8.919  -2.447  1.00  0.00     0.044 A 
ATOM      7  C   UNL     1      -1.286  10.147  -2.921  1.00  0.00     0.165 A 
ATOM      8  F   UNL     1      -1.130  10.456  -4.227  1.00  0.00    -0.203 F 
BRANCH   3   9
ATOM      9  C   UNL     1      -1.775   9.171   1.185  1.00  0.00     0.335 C 
ATOM     10  O   UNL     1      -1.256   8.171   1.637  1.00  0.00    -0.246 OA
BRANCH   9  11
ATOM     11  O   UNL     1      -2.501   9.974   1.988  1.00  0.00    -0.478 OA
ATOM     12  H   UNL     1      -2.096  10.811   2.255  1.00  0.00     0.297 HD
ENDBRANCH   9  11
ENDBRANCH   3   9
ENDBRANCH   1   2
BRANCH   1  13
ATOM     13  C   UNL     1      -3.663  12.605  -2.319  1.00  0.00     0.230 C 
BRANCH  13  14
ATOM     14  C   UNL     1      -4.224  13.265  -3.580  1.00  0.00     0.046 C 
BRANCH  14  15
ATOM     15  C   UNL     1      -4.251  14.784  -3.392  1.00  0.00     0.043 C 
BRANCH  15  16
ATOM     16  C   UNL     1      -5.511  15.344  -3.999  1.00  0.00    -0.004 A 
ATOM     17  C   UNL     1      -5.604  15.988  -5.186  1.00  0.00     0.036 A 
ATOM     18  C   UNL     1      -6.791  15.284  -3.440  1.00  0.00     0.063 A 
ATOM     19  N   UNL     1      -6.897  16.330  -5.368  1.00  0.00    -0.282 N 
ATOM     20  N   UNL     1      -7.622  15.881  -4.256  1.00  0.00    -0.181 NA
ATOM     21  C   UNL     1      -4.469  16.273  -6.134  1.00  0.00     0.066 C 
ATOM     22  C   UNL     1      -7.151  14.652  -2.120  1.00  0.00     0.069 C 
ATOM     23  H   UNL     1      -7.260  16.804  -6.132  1.00  0.00     0.190 HD
ENDBRANCH  15  16
ENDBRANCH  14  15
ENDBRANCH  13  14
ENDBRANCH   1  13
TORSDOF 7
ENDMDL
MODEL 8
REMARK VINA RESULT:    -4.522      3.718      5.134
REMARK INTER + INTRA:          -6.784
REMARK INTER:                  -6.197
REMARK INTRA:                  -0.587
REMARK UNBOUND:                -0.543
REMARK SMILES Cc1n[nH]c(C)c1CCCOc1cc(C(=O)O)ccc1F
REMARK SMILES IDX 11 1 12 2 14 3 18 4 13 5 19 6 20 7 21 8 15 9 16 10 17 11
REMARK SMILES IDX 10 13 9 14 8 15 7 16 5 17 2 18 4 19 3 20 6 21 1 22
REMARK H PARENT 17 12 4 23
ROOT
ATOM      1  O   UNL     1      -2.754  12.846  -2.156  1.00  0.00    -0.490 OA
ENDROOT
BRANCH   1   2
ATOM      2  C   UNL     1      -2.154  11.651  -1.910  1.00  0.00     0.155 A 
ATOM      3  C   UNL     1      -1.121   9.631  -2.704  1.00  0.00     0.063 A 
ATOM      4  C   UNL     1      -0.919   9.219  -1.384  1.00  0.00     0.019 A 
ATOM      5  C   UNL     1      -1.742  10.854  -2.962  1.00  0.00     0.065 A 
ATOM      6  C   UNL     1      -1.328  10.023  -0.342  1.00  0.00     0.044 A 
ATOM      7  C   UNL     1      -1.939  11.239  -0.599  1.00  0.00     0.165 A 
ATOM      8  F   UNL     1      -2.337  12.023   0.427  1.00  0.00    -0.203 F 
BRANCH   3   9
ATOM      9  C   UNL     1      -0.684   8.772  -3.823  1.00  0.00     0.335 C 
ATOM     10  O   UNL     1      -0.315   7.636  -3.608  1.00  0.00    -0.246 OA
BRANCH   9  11
ATOM     11  O   UNL     1      -0.702   9.248  -5.083  1.00  0.00    -0.478 OA
ATOM     12  H   UNL     1       0.064   9.046  -5.640  1.00  0.00     0.297 HD
ENDBRANCH   9  11
ENDBRANCH   3   9
ENDBRANCH   1   2
BRANCH   1  13
ATOM     13  C   UNL     1      -4.143  12.816  -2.496  1.00  0.00     0.230 C 
BRANCH  13  14
ATOM     14  C   UNL     1      -4.360  13.559  -3.816  1.00  0.00     0.046 C 
BRANCH  14  15
ATOM     15  C   UNL     1      -4.443  15.063  -3.547  1.00  0.00     0.043 C 
BRANCH  15  16
ATOM     16  C   UNL     1      -5.711  15.612  -4.145  1.00  0.00    -0.004 A 
ATOM     17  C   UNL     1      -5.823  16.234  -5.342  1.00  0.00     0.036 A 
ATOM     18  C   UNL     1      -6.984  15.563  -3.566  1.00  0.00     0.063 A 
ATOM     19  N   UNL     1      -7.119  16.573  -5.510  1.00  0.00    -0.282 N 
ATOM     20  N   UNL     1      -7.827  16.145  -4.379  1.00  0.00    -0.181 NA
ATOM     21  C   UNL     1      -4.702  16.501  -6.312  1.00  0.00     0.066 C 
ATOM     22  C   UNL     1      -7.323  14.956  -2.228  1.00  0.00     0.069 C 
ATOM     23  H   UNL     1      -7.493  17.033  -6.277  1.00  0.00     0.190 HD
ENDBRANCH  15  16
ENDBRANCH  14  15
ENDBRANCH  13  14
ENDBRANCH   1  13
TORSDOF 7
ENDMDL
MODEL 9
REMARK VINA RESULT:    -4.522      3.613      5.492
REMARK INTER + INTRA:          -6.783
REMARK INTER:                  -6.207
REMARK INTRA:                  -0.576
REMARK UNBOUND:                -0.543
REMARK SMILES Cc1n[nH]c(C)c1CCCOc1cc(C(=O)O)ccc1F
REMARK SMILES IDX 11 1 12 2 14 3 18 4 13 5 19 6 20 7 21 8 15 9 16 10 17 11
REMARK SMILES IDX 10 13 9 14 8 15 7 16 5 17 2 18 4 19 3 20 6 21 1 22
REMARK H PARENT 17 12 4 23
ROOT
ATOM      1  O   UNL     1      -1.104  13.076  -1.658  1.00  0.00    -0.490 OA
ENDROOT
BRANCH   1   2
ATOM      2  C   UNL     1      -1.342  11.764  -1.393  1.00  0.00     0.155 A 
ATOM      3  C   UNL     1      -1.847  10.009   0.171  1.00  0.00     0.063 A 
ATOM      4  C   UNL     1      -1.835   9.080  -0.873  1.00  0.00     0.019 A 
ATOM      5  C   UNL     1      -1.599  11.356  -0.097  1.00  0.00     0.065 A 
ATOM      6  C   UNL     1      -1.583   9.497  -2.163  1.00  0.00     0.044 A 
ATOM      7  C   UNL     1      -1.342  10.835  -2.427  1.00  0.00     0.165 A 
ATOM      8  F   UNL     1      -1.096  11.237  -3.694  1.00  0.00    -0.203 F 
BRANCH   3   9
ATOM      9  C   UNL     1      -2.117   9.566   1.553  1.00  0.00     0.335 C 
ATOM     10  O   UNL     1      -2.054   8.387   1.836  1.00  0.00    -0.246 OA
BRANCH   9  11
ATOM     11  O   UNL     1      -2.426  10.471   2.502  1.00  0.00    -0.478 OA
ATOM     12  H   UNL     1      -2.661  10.129   3.376  1.00  0.00     0.297 HD
ENDBRANCH   9  11
ENDBRANCH   3   9
ENDBRANCH   1   2
BRANCH   1  13
ATOM     13  C   UNL     1       0.244  13.532  -1.522  1.00  0.00     0.230 C 
BRANCH  13  14
ATOM     14  C   UNL     1       0.274  14.773  -0.629  1.00  0.00     0.046 C 
BRANCH  14  15
ATOM     15  C   UNL     1       0.011  16.019  -1.478  1.00  0.00     0.043 C 
BRANCH  15  16
ATOM     16  C   UNL     1       1.075  17.049  -1.202  1.00  0.00    -0.004 A 
ATOM     17  C   UNL     1       2.311  17.085  -1.752  1.00  0.00     0.036 A 
ATOM     18  C   UNL     1       0.958  18.142  -0.337  1.00  0.00     0.063 A 
ATOM     19  N   UNL     1       2.955  18.158  -1.248  1.00  0.00    -0.282 N 
ATOM     20  N   UNL     1       2.087  18.803  -0.358  1.00  0.00    -0.181 NA
ATOM     21  C   UNL     1       2.868  16.102  -2.749  1.00  0.00     0.066 C 
ATOM     22  C   UNL     1      -0.255  18.491   0.487  1.00  0.00     0.069 C 
ATOM     23  H   UNL     1       3.860  18.433  -1.463  1.00  0.00     0.190 HD
ENDBRANCH  15  16
ENDBRANCH  14  15
ENDBRANCH  13  14
ENDBRANCH   1  13
TORSDOF 7
ENDMDL
