MODEL 1
REMARK VINA RESULT:    -2.708      0.000      0.000
REMARK INTER + INTRA:          -3.399
REMARK INTER:                  -3.104
REMARK INTRA:                  -0.296
REMARK UNBOUND:                -0.296
REMARK SMILES O=C(O)c1ccc2nc(-c3cc(Cl)cc(Cl)c3)oc2c1
REMARK SMILES IDX 5 1 6 2 20 3 8 4 18 5 4 6 9 7 7 8 19 9 2 10 1 11 3 12 10 14
REMARK SMILES IDX 11 15 17 16 12 17 15 18 14 19 13 20 16 21
REMARK H PARENT 3 13
ROOT
ATOM      1  C   UNL     1     -10.948   1.588  -9.116  1.00  0.00     0.018 A 
ATOM      2  C   UNL     1      -9.592   1.570  -8.988  1.00  0.00     0.033 A 
ATOM      3  C   UNL     1     -11.193   0.602  -6.914  1.00  0.00     0.065 A 
ATOM      4  N   UNL     1      -7.725   0.921  -7.414  1.00  0.00    -0.209 NA
ATOM      5  O   UNL     1      -8.979   0.164  -5.805  1.00  0.00    -0.436 OA
ATOM      6  C   UNL     1     -11.765   1.107  -8.083  1.00  0.00     0.063 A 
ATOM      7  C   UNL     1      -7.717   0.387  -6.218  1.00  0.00     0.227 A 
ATOM      8  C   UNL     1      -9.005   1.066  -7.821  1.00  0.00     0.110 A 
ATOM      9  C   UNL     1      -9.817   0.577  -6.782  1.00  0.00     0.156 A 
ENDROOT
BRANCH   6  10
ATOM     10  C   UNL     1     -13.232   1.137  -8.230  1.00  0.00     0.335 C 
ATOM     11  O   UNL     1     -13.943   0.949  -7.264  1.00  0.00    -0.246 OA
BRANCH  10  12
ATOM     12  O   UNL     1     -13.783   1.371  -9.437  1.00  0.00    -0.478 OA
ATOM     13  H   UNL     1     -13.392   2.076  -9.970  1.00  0.00     0.297 HD
ENDBRANCH  10  12
ENDBRANCH   6  10
BRANCH   7  14
ATOM     14  C   UNL     1      -6.502   0.074  -5.438  1.00  0.00     0.040 A 
ATOM     15  C   UNL     1      -6.522  -0.949  -4.489  1.00  0.00     0.034 A 
ATOM     16  C   UNL     1      -5.329   0.802  -5.648  1.00  0.00     0.034 A 
ATOM     17  C   UNL     1      -5.382  -1.237  -3.765  1.00  0.00     0.043 A 
ATOM     18  C   UNL     1      -4.196   0.504  -4.917  1.00  0.00     0.043 A 
ATOM     19  C   UNL     1      -4.222  -0.512  -3.977  1.00  0.00     0.041 A 
ATOM     20  Cl  UNL     1      -5.404  -2.509  -2.584  1.00  0.00    -0.084 Cl
ATOM     21  Cl  UNL     1      -2.736   1.407  -5.177  1.00  0.00    -0.084 Cl
ENDBRANCH   7  14
TORSDOF 3
ENDMDL
MODEL 2
REMARK VINA RESULT:    -2.706      0.006      2.019
REMARK INTER + INTRA:          -3.396
REMARK INTER:                  -3.101
REMARK INTRA:                  -0.296
REMARK UNBOUND:                -0.296
REMARK SMILES O=C(O)c1ccc2nc(-c3cc(Cl)cc(Cl)c3)oc2c1
REMARK SMILES IDX 5 1 6 2 20 3 8 4 18 5 4 6 9 7 7 8 19 9 2 10 1 11 3 12 10 14
REMARK SMILES IDX 11 15 17 16 12 17 15 18 14 19 13 20 16 21
REMARK H PARENT 3 13
ROOT
ATOM      1  C   UNL     1     -10.948   1.587  -9.117  1.00  0.00     0.018 A 
ATOM      2  C   UNL     1      -9.592   1.571  -8.988  1.00  0.00     0.033 A 
ATOM      3  C   UNL     1     -11.193   0.604  -6.914  1.00  0.00     0.065 A 
ATOM      4  N   UNL     1      -7.725   0.925  -7.413  1.00  0.00    -0.209 NA
ATOM      5  O   UNL     1      -8.979   0.169  -5.804  1.00  0.00    -0.436 OA
ATOM      6  C   UNL     1     -11.765   1.107  -8.083  1.00  0.00     0.063 A 
ATOM      7  C   UNL     1      -7.717   0.392  -6.216  1.00  0.00     0.227 A 
ATOM      8  C   UNL     1      -9.004   1.068  -7.821  1.00  0.00     0.110 A 
ATOM      9  C   UNL     1      -9.816   0.580  -6.781  1.00  0.00     0.156 A 
ENDROOT
BRANCH   6  10
ATOM     10  C   UNL     1     -13.231   1.136  -8.231  1.00  0.00     0.335 C 
ATOM     11  O   UNL     1     -13.943   0.948  -7.264  1.00  0.00    -0.246 OA
BRANCH  10  12
ATOM     12  O   UNL     1     -13.783   1.370  -9.438  1.00  0.00    -0.478 OA
ATOM     13  H   UNL     1     -13.180   1.445 -10.189  1.00  0.00     0.297 HD
ENDBRANCH  10  12
ENDBRANCH   6  10
BRANCH   7  14
ATOM     14  C   UNL     1      -6.502   0.080  -5.436  1.00  0.00     0.040 A 
ATOM     15  C   UNL     1      -5.328   0.806  -5.646  1.00  0.00     0.034 A 
ATOM     16  C   UNL     1      -6.523  -0.943  -4.486  1.00  0.00     0.034 A 
ATOM     17  C   UNL     1      -4.196   0.510  -4.913  1.00  0.00     0.043 A 
ATOM     18  C   UNL     1      -5.384  -1.229  -3.759  1.00  0.00     0.043 A 
ATOM     19  C   UNL     1      -4.223  -0.505  -3.972  1.00  0.00     0.041 A 
ATOM     20  Cl  UNL     1      -2.736   1.412  -5.172  1.00  0.00    -0.084 Cl
ATOM     21  Cl  UNL     1      -5.408  -2.500  -2.577  1.00  0.00    -0.084 Cl
ENDBRANCH   7  14
TORSDOF 3
ENDMDL
MODEL 3
REMARK VINA RESULT:    -2.685      1.226      1.944
REMARK INTER + INTRA:          -3.373
REMARK INTER:                  -3.077
REMARK INTRA:                  -0.296
REMARK UNBOUND:                -0.296
REMARK SMILES O=C(O)c1ccc2nc(-c3cc(Cl)cc(Cl)c3)oc2c1
REMARK SMILES IDX 5 1 6 2 20 3 8 4 18 5 4 6 9 7 7 8 19 9 2 10 1 11 3 12 10 14
REMARK SMILES IDX 11 15 17 16 12 17 15 18 14 19 13 20 16 21
REMARK H PARENT 3 13
ROOT
ATOM      1  C   UNL     1     -11.672   1.257  -8.154  1.00  0.00     0.018 A 
ATOM      2  C   UNL     1     -11.119   0.714  -7.033  1.00  0.00     0.033 A 
ATOM      3  C   UNL     1      -9.465   1.718  -9.047  1.00  0.00     0.065 A 
ATOM      4  N   UNL     1      -8.908   0.199  -5.923  1.00  0.00    -0.209 NA
ATOM      5  O   UNL     1      -7.627   0.988  -7.495  1.00  0.00    -0.436 OA
ATOM      6  C   UNL     1     -10.854   1.763  -9.175  1.00  0.00     0.063 A 
ATOM      7  C   UNL     1      -7.665   0.394  -6.287  1.00  0.00     0.227 A 
ATOM      8  C   UNL     1      -9.727   0.663  -6.892  1.00  0.00     0.110 A 
ATOM      9  C   UNL     1      -8.900   1.173  -7.909  1.00  0.00     0.156 A 
ENDROOT
BRANCH   6  10
ATOM     10  C   UNL     1     -11.464   2.341 -10.386  1.00  0.00     0.335 C 
ATOM     11  O   UNL     1     -10.777   2.566 -11.362  1.00  0.00    -0.246 OA
BRANCH  10  12
ATOM     12  O   UNL     1     -12.782   2.622 -10.409  1.00  0.00    -0.478 OA
ATOM     13  H   UNL     1     -13.278   2.470  -9.594  1.00  0.00     0.297 HD
ENDBRANCH  10  12
ENDBRANCH   6  10
BRANCH   7  14
ATOM     14  C   UNL     1      -6.480   0.018  -5.489  1.00  0.00     0.040 A 
ATOM     15  C   UNL     1      -6.561  -1.020  -4.560  1.00  0.00     0.034 A 
ATOM     16  C   UNL     1      -5.275   0.702  -5.660  1.00  0.00     0.034 A 
ATOM     17  C   UNL     1      -5.449  -1.367  -3.818  1.00  0.00     0.043 A 
ATOM     18  C   UNL     1      -4.171   0.346  -4.912  1.00  0.00     0.043 A 
ATOM     19  C   UNL     1      -4.257  -0.685  -3.992  1.00  0.00     0.041 A 
ATOM     20  Cl  UNL     1      -5.547  -2.660  -2.663  1.00  0.00    -0.084 Cl
ATOM     21  Cl  UNL     1      -2.671   1.195  -5.123  1.00  0.00    -0.084 Cl
ENDBRANCH   7  14
TORSDOF 3
ENDMDL
MODEL 4
REMARK VINA RESULT:    -2.633      3.745      7.681
REMARK INTER + INTRA:          -3.313
REMARK INTER:                  -3.015
REMARK INTRA:                  -0.298
REMARK UNBOUND:                -0.296
REMARK SMILES O=C(O)c1ccc2nc(-c3cc(Cl)cc(Cl)c3)oc2c1
REMARK SMILES IDX 5 1 6 2 20 3 8 4 18 5 4 6 9 7 7 8 19 9 2 10 1 11 3 12 10 14
REMARK SMILES IDX 11 15 17 16 12 17 15 18 14 19 13 20 16 21
REMARK H PARENT 3 13
ROOT
ATOM      1  C   UNL     1      -3.878  -0.084  -4.820  1.00  0.00     0.018 A 
ATOM      2  C   UNL     1      -4.505   0.461  -5.900  1.00  0.00     0.033 A 
ATOM      3  C   UNL     1      -6.014  -0.760  -3.891  1.00  0.00     0.065 A 
ATOM      4  N   UNL     1      -6.781   0.850  -6.924  1.00  0.00    -0.209 NA
ATOM      5  O   UNL     1      -7.950  -0.098  -5.352  1.00  0.00    -0.436 OA
ATOM      6  C   UNL     1      -4.622  -0.702  -3.805  1.00  0.00     0.063 A 
ATOM      7  C   UNL     1      -7.994   0.545  -6.534  1.00  0.00     0.227 A 
ATOM      8  C   UNL     1      -5.900   0.410  -6.000  1.00  0.00     0.110 A 
ATOM      9  C   UNL     1      -6.654  -0.204  -4.983  1.00  0.00     0.156 A 
ENDROOT
BRANCH   6  10
ATOM     10  C   UNL     1      -3.932  -1.294  -2.644  1.00  0.00     0.335 C 
ATOM     11  O   UNL     1      -2.729  -1.172  -2.525  1.00  0.00    -0.246 OA
BRANCH  10  12
ATOM     12  O   UNL     1      -4.635  -1.970  -1.714  1.00  0.00    -0.478 OA
ATOM     13  H   UNL     1      -5.087  -1.447  -1.039  1.00  0.00     0.297 HD
ENDBRANCH  10  12
ENDBRANCH   6  10
BRANCH   7  14
ATOM     14  C   UNL     1      -9.229   0.862  -7.282  1.00  0.00     0.040 A 
ATOM     15  C   UNL     1      -9.152   1.466  -8.537  1.00  0.00     0.034 A 
ATOM     16  C   UNL     1     -10.477   0.558  -6.734  1.00  0.00     0.034 A 
ATOM     17  C   UNL     1     -10.310   1.759  -9.231  1.00  0.00     0.043 A 
ATOM     18  C   UNL     1     -11.627   0.856  -7.438  1.00  0.00     0.043 A 
ATOM     19  C   UNL     1     -11.544   1.455  -8.683  1.00  0.00     0.041 A 
ATOM     20  Cl  UNL     1     -10.217   2.510 -10.794  1.00  0.00    -0.084 Cl
ATOM     21  Cl  UNL     1     -13.180   0.479  -6.758  1.00  0.00    -0.084 Cl
ENDBRANCH   7  14
TORSDOF 3
ENDMDL
MODEL 5
REMARK VINA RESULT:    -2.633      3.745      7.438
REMARK INTER + INTRA:          -3.313
REMARK INTER:                  -3.015
REMARK INTRA:                  -0.298
REMARK UNBOUND:                -0.296
REMARK SMILES O=C(O)c1ccc2nc(-c3cc(Cl)cc(Cl)c3)oc2c1
REMARK SMILES IDX 5 1 6 2 20 3 8 4 18 5 4 6 9 7 7 8 19 9 2 10 1 11 3 12 10 14
REMARK SMILES IDX 11 15 17 16 12 17 15 18 14 19 13 20 16 21
REMARK H PARENT 3 13
ROOT
ATOM      1  C   UNL     1      -3.879  -0.084  -4.824  1.00  0.00     0.018 A 
ATOM      2  C   UNL     1      -4.507   0.461  -5.904  1.00  0.00     0.033 A 
ATOM      3  C   UNL     1      -6.014  -0.760  -3.894  1.00  0.00     0.065 A 
ATOM      4  N   UNL     1      -6.784   0.850  -6.926  1.00  0.00    -0.209 NA
ATOM      5  O   UNL     1      -7.951  -0.099  -5.354  1.00  0.00    -0.436 OA
ATOM      6  C   UNL     1      -4.622  -0.702  -3.808  1.00  0.00     0.063 A 
ATOM      7  C   UNL     1      -7.997   0.545  -6.536  1.00  0.00     0.227 A 
ATOM      8  C   UNL     1      -5.903   0.410  -6.003  1.00  0.00     0.110 A 
ATOM      9  C   UNL     1      -6.655  -0.204  -4.986  1.00  0.00     0.156 A 
ENDROOT
BRANCH   6  10
ATOM     10  C   UNL     1      -3.932  -1.293  -2.648  1.00  0.00     0.335 C 
ATOM     11  O   UNL     1      -2.729  -1.172  -2.531  1.00  0.00    -0.246 OA
BRANCH  10  12
ATOM     12  O   UNL     1      -4.635  -1.968  -1.717  1.00  0.00    -0.478 OA
ATOM     13  H   UNL     1      -5.454  -1.562  -1.405  1.00  0.00     0.297 HD
ENDBRANCH  10  12
ENDBRANCH   6  10
BRANCH   7  14
ATOM     14  C   UNL     1      -9.232   0.861  -7.283  1.00  0.00     0.040 A 
ATOM     15  C   UNL     1     -10.479   0.558  -6.736  1.00  0.00     0.034 A 
ATOM     16  C   UNL     1      -9.155   1.464  -8.540  1.00  0.00     0.034 A 
ATOM     17  C   UNL     1     -11.630   0.858  -7.438  1.00  0.00     0.043 A 
ATOM     18  C   UNL     1     -10.312   1.759  -9.233  1.00  0.00     0.043 A 
ATOM     19  C   UNL     1     -11.546   1.455  -8.685  1.00  0.00     0.041 A 
ATOM     20  Cl  UNL     1     -13.182   0.482  -6.760  1.00  0.00    -0.084 Cl
ATOM     21  Cl  UNL     1     -10.219   2.509 -10.796  1.00  0.00    -0.084 Cl
ENDBRANCH   7  14
TORSDOF 3
ENDMDL
MODEL 6
REMARK VINA RESULT:    -2.623      5.302      8.484
REMARK INTER + INTRA:          -3.302
REMARK INTER:                  -3.022
REMARK INTRA:                  -0.280
REMARK UNBOUND:                -0.296
REMARK SMILES O=C(O)c1ccc2nc(-c3cc(Cl)cc(Cl)c3)oc2c1
REMARK SMILES IDX 5 1 6 2 20 3 8 4 18 5 4 6 9 7 7 8 19 9 2 10 1 11 3 12 10 14
REMARK SMILES IDX 11 15 17 16 12 17 15 18 14 19 13 20 16 21
REMARK H PARENT 3 13
ROOT
ATOM      1  C   UNL     1      -9.990   0.561  -6.704  1.00  0.00     0.018 A 
ATOM      2  C   UNL     1     -10.923   1.013  -7.589  1.00  0.00     0.033 A 
ATOM      3  C   UNL     1      -8.211   1.153  -8.242  1.00  0.00     0.065 A 
ATOM      4  N   UNL     1     -11.193   2.055  -9.875  1.00  0.00    -0.209 NA
ATOM      5  O   UNL     1      -9.079   2.156 -10.377  1.00  0.00    -0.436 OA
ATOM      6  C   UNL     1      -8.625   0.627  -7.017  1.00  0.00     0.063 A 
ATOM      7  C   UNL     1     -10.333   2.417 -10.793  1.00  0.00     0.227 A 
ATOM      8  C   UNL     1     -10.521   1.543  -8.821  1.00  0.00     0.110 A 
ATOM      9  C   UNL     1      -9.154   1.608  -9.144  1.00  0.00     0.156 A 
ENDROOT
BRANCH   6  10
ATOM     10  C   UNL     1      -7.625   0.141  -6.049  1.00  0.00     0.335 C 
ATOM     11  O   UNL     1      -7.250   0.865  -5.149  1.00  0.00    -0.246 OA
BRANCH  10  12
ATOM     12  O   UNL     1      -7.126  -1.106  -6.164  1.00  0.00    -0.478 OA
ATOM     13  H   UNL     1      -6.360  -1.221  -6.742  1.00  0.00     0.297 HD
ENDBRANCH  10  12
ENDBRANCH   6  10
BRANCH   7  14
ATOM     14  C   UNL     1     -10.686   3.022 -12.094  1.00  0.00     0.040 A 
ATOM     15  C   UNL     1     -11.548   4.118 -12.147  1.00  0.00     0.034 A 
ATOM     16  C   UNL     1     -10.160   2.498 -13.276  1.00  0.00     0.034 A 
ATOM     17  C   UNL     1     -11.874   4.679 -13.365  1.00  0.00     0.043 A 
ATOM     18  C   UNL     1     -10.493   3.067 -14.489  1.00  0.00     0.043 A 
ATOM     19  C   UNL     1     -11.349   4.155 -14.534  1.00  0.00     0.041 A 
ATOM     20  Cl  UNL     1     -12.945   6.043 -13.433  1.00  0.00    -0.084 Cl
ATOM     21  Cl  UNL     1      -9.839   2.417 -15.960  1.00  0.00    -0.084 Cl
ENDBRANCH   7  14
TORSDOF 3
ENDMDL
MODEL 7
REMARK VINA RESULT:    -2.620      5.299      8.485
REMARK INTER + INTRA:          -3.299
REMARK INTER:                  -3.018
REMARK INTRA:                  -0.281
REMARK UNBOUND:                -0.296
REMARK SMILES O=C(O)c1ccc2nc(-c3cc(Cl)cc(Cl)c3)oc2c1
REMARK SMILES IDX 5 1 6 2 20 3 8 4 18 5 4 6 9 7 7 8 19 9 2 10 1 11 3 12 10 14
REMARK SMILES IDX 11 15 17 16 12 17 15 18 14 19 13 20 16 21
REMARK H PARENT 3 13
ROOT
ATOM      1  C   UNL     1      -9.979   0.569  -6.695  1.00  0.00     0.018 A 
ATOM      2  C   UNL     1     -10.912   1.017  -7.581  1.00  0.00     0.033 A 
ATOM      3  C   UNL     1      -8.199   1.155  -8.234  1.00  0.00     0.065 A 
ATOM      4  N   UNL     1     -11.181   2.052  -9.871  1.00  0.00    -0.209 NA
ATOM      5  O   UNL     1      -9.066   2.150 -10.373  1.00  0.00    -0.436 OA
ATOM      6  C   UNL     1      -8.614   0.633  -7.007  1.00  0.00     0.063 A 
ATOM      7  C   UNL     1     -10.320   2.410 -10.790  1.00  0.00     0.227 A 
ATOM      8  C   UNL     1     -10.509   1.543  -8.815  1.00  0.00     0.110 A 
ATOM      9  C   UNL     1      -9.142   1.606  -9.138  1.00  0.00     0.156 A 
ENDROOT
BRANCH   6  10
ATOM     10  C   UNL     1      -7.614   0.150  -6.037  1.00  0.00     0.335 C 
ATOM     11  O   UNL     1      -7.227   0.882  -5.149  1.00  0.00    -0.246 OA
BRANCH  10  12
ATOM     12  O   UNL     1      -7.128  -1.103  -6.137  1.00  0.00    -0.478 OA
ATOM     13  H   UNL     1      -7.669  -1.747  -6.613  1.00  0.00     0.297 HD
ENDBRANCH  10  12
ENDBRANCH   6  10
BRANCH   7  14
ATOM     14  C   UNL     1     -10.673   3.010 -12.093  1.00  0.00     0.040 A 
ATOM     15  C   UNL     1     -10.141   2.489 -13.273  1.00  0.00     0.034 A 
ATOM     16  C   UNL     1     -11.541   4.103 -12.149  1.00  0.00     0.034 A 
ATOM     17  C   UNL     1     -10.476   3.053 -14.488  1.00  0.00     0.043 A 
ATOM     18  C   UNL     1     -11.868   4.659 -13.369  1.00  0.00     0.043 A 
ATOM     19  C   UNL     1     -11.337   4.137 -14.536  1.00  0.00     0.041 A 
ATOM     20  Cl  UNL     1      -9.816   2.405 -15.956  1.00  0.00    -0.084 Cl
ATOM     21  Cl  UNL     1     -12.947   6.018 -13.441  1.00  0.00    -0.084 Cl
ENDBRANCH   7  14
TORSDOF 3
ENDMDL
MODEL 8
REMARK VINA RESULT:    -2.402      4.383      5.868
REMARK INTER + INTRA:          -3.049
REMARK INTER:                  -2.758
REMARK INTRA:                  -0.291
REMARK UNBOUND:                -0.296
REMARK SMILES O=C(O)c1ccc2nc(-c3cc(Cl)cc(Cl)c3)oc2c1
REMARK SMILES IDX 5 1 6 2 20 3 8 4 18 5 4 6 9 7 7 8 19 9 2 10 1 11 3 12 10 14
REMARK SMILES IDX 11 15 17 16 12 17 15 18 14 19 13 20 16 21
REMARK H PARENT 3 13
ROOT
ATOM      1  C   UNL     1     -10.572   3.048 -14.675  1.00  0.00     0.018 A 
ATOM      2  C   UNL     1      -9.766   2.260 -13.909  1.00  0.00     0.033 A 
ATOM      3  C   UNL     1     -11.608   3.965 -12.684  1.00  0.00     0.065 A 
ATOM      4  N   UNL     1      -9.218   1.662 -11.516  1.00  0.00    -0.209 NA
ATOM      5  O   UNL     1     -10.659   2.989 -10.570  1.00  0.00    -0.436 OA
ATOM      6  C   UNL     1     -11.500   3.910 -14.074  1.00  0.00     0.063 A 
ATOM      7  C   UNL     1      -9.694   2.072 -10.367  1.00  0.00     0.227 A 
ATOM      8  C   UNL     1      -9.864   2.305 -12.513  1.00  0.00     0.110 A 
ATOM      9  C   UNL     1     -10.795   3.164 -11.903  1.00  0.00     0.156 A 
ENDROOT
BRANCH   6  10
ATOM     10  C   UNL     1     -12.363   4.762 -14.913  1.00  0.00     0.335 C 
ATOM     11  O   UNL     1     -12.468   4.536 -16.102  1.00  0.00    -0.246 OA
BRANCH  10  12
ATOM     12  O   UNL     1     -13.035   5.792 -14.361  1.00  0.00    -0.478 OA
ATOM     13  H   UNL     1     -13.266   6.527 -14.944  1.00  0.00     0.297 HD
ENDBRANCH  10  12
ENDBRANCH   6  10
BRANCH   7  14
ATOM     14  C   UNL     1      -9.239   1.598  -9.044  1.00  0.00     0.040 A 
ATOM     15  C   UNL     1      -9.155   0.230  -8.781  1.00  0.00     0.034 A 
ATOM     16  C   UNL     1      -8.893   2.517  -8.051  1.00  0.00     0.034 A 
ATOM     17  C   UNL     1      -8.728  -0.207  -7.543  1.00  0.00     0.043 A 
ATOM     18  C   UNL     1      -8.468   2.067  -6.817  1.00  0.00     0.043 A 
ATOM     19  C   UNL     1      -8.386   0.709  -6.562  1.00  0.00     0.041 A 
ATOM     20  Cl  UNL     1      -8.621  -1.908  -7.213  1.00  0.00    -0.084 Cl
ATOM     21  Cl  UNL     1      -8.036   3.208  -5.581  1.00  0.00    -0.084 Cl
ENDBRANCH   7  14
TORSDOF 3
ENDMDL
MODEL 9
REMARK VINA RESULT:    -2.356      4.340      6.027
REMARK INTER + INTRA:          -2.995
REMARK INTER:                  -2.704
REMARK INTRA:                  -0.292
REMARK UNBOUND:                -0.296
REMARK SMILES O=C(O)c1ccc2nc(-c3cc(Cl)cc(Cl)c3)oc2c1
REMARK SMILES IDX 5 1 6 2 20 3 8 4 18 5 4 6 9 7 7 8 19 9 2 10 1 11 3 12 10 14
REMARK SMILES IDX 11 15 17 16 12 17 15 18 14 19 13 20 16 21
REMARK H PARENT 3 13
ROOT
ATOM      1  C   UNL     1     -10.613   2.944 -14.646  1.00  0.00     0.018 A 
ATOM      2  C   UNL     1      -9.803   2.165 -13.875  1.00  0.00     0.033 A 
ATOM      3  C   UNL     1     -11.618   3.907 -12.660  1.00  0.00     0.065 A 
ATOM      4  N   UNL     1      -9.231   1.608 -11.478  1.00  0.00    -0.209 NA
ATOM      5  O   UNL     1     -10.650   2.964 -10.540  1.00  0.00    -0.436 OA
ATOM      6  C   UNL     1     -11.527   3.825 -14.050  1.00  0.00     0.063 A 
ATOM      7  C   UNL     1      -9.689   2.044 -10.331  1.00  0.00     0.227 A 
ATOM      8  C   UNL     1      -9.883   2.238 -12.479  1.00  0.00     0.110 A 
ATOM      9  C   UNL     1     -10.801   3.114 -11.874  1.00  0.00     0.156 A 
ENDROOT
BRANCH   6  10
ATOM     10  C   UNL     1     -12.394   4.667 -14.894  1.00  0.00     0.335 C 
ATOM     11  O   UNL     1     -12.328   4.585 -16.105  1.00  0.00    -0.246 OA
BRANCH  10  12
ATOM     12  O   UNL     1     -13.260   5.528 -14.324  1.00  0.00    -0.478 OA
ATOM     13  H   UNL     1     -13.728   6.135 -14.913  1.00  0.00     0.297 HD
ENDBRANCH  10  12
ENDBRANCH   6  10
BRANCH   7  14
ATOM     14  C   UNL     1      -9.222   1.591  -9.005  1.00  0.00     0.040 A 
ATOM     15  C   UNL     1      -8.863   2.524  -8.032  1.00  0.00     0.034 A 
ATOM     16  C   UNL     1      -9.136   0.226  -8.721  1.00  0.00     0.034 A 
ATOM     17  C   UNL     1      -8.427   2.094  -6.794  1.00  0.00     0.043 A 
ATOM     18  C   UNL     1      -8.699  -0.191  -7.480  1.00  0.00     0.043 A 
ATOM     19  C   UNL     1      -8.345   0.739  -6.519  1.00  0.00     0.041 A 
ATOM     20  Cl  UNL     1      -7.981   3.253  -5.581  1.00  0.00    -0.084 Cl
ATOM     21  Cl  UNL     1      -8.592  -1.888  -7.125  1.00  0.00    -0.084 Cl
ENDBRANCH   7  14
TORSDOF 3
ENDMDL
