MODEL 1
REMARK VINA RESULT:    -5.625      0.000      0.000
REMARK INTER + INTRA:          -8.416
REMARK INTER:                  -7.762
REMARK INTRA:                  -0.654
REMARK UNBOUND:                -0.654
REMARK SMILES Cc1n[nH]c(C)c1CCCOc1cc(C(=O)O)ccc1F
REMARK SMILES IDX 11 1 12 2 14 3 18 4 13 5 19 6 20 7 21 8 15 9 16 10 17 11
REMARK SMILES IDX 10 13 9 14 8 15 7 16 5 17 2 18 4 19 3 20 6 21 1 22
REMARK H PARENT 17 12 4 23
ROOT
ATOM      1  O   UNL     1      -7.264   5.451   1.156  1.00  0.00    -0.490 OA
ENDROOT
BRANCH   1   2
ATOM      2  C   UNL     1      -6.358   4.471   0.898  1.00  0.00     0.155 A 
ATOM      3  C   UNL     1      -5.855   2.209   0.256  1.00  0.00     0.063 A 
ATOM      4  C   UNL     1      -4.489   2.486   0.365  1.00  0.00     0.019 A 
ATOM      5  C   UNL     1      -6.789   3.212   0.525  1.00  0.00     0.065 A 
ATOM      6  C   UNL     1      -4.069   3.747   0.732  1.00  0.00     0.044 A 
ATOM      7  C   UNL     1      -4.997   4.741   0.994  1.00  0.00     0.165 A 
ATOM      8  F   UNL     1      -4.578   5.974   1.352  1.00  0.00    -0.203 F 
BRANCH   3   9
ATOM      9  C   UNL     1      -6.308   0.860  -0.137  1.00  0.00     0.335 C 
ATOM     10  O   UNL     1      -7.091   0.254   0.566  1.00  0.00    -0.246 OA
BRANCH   9  11
ATOM     11  O   UNL     1      -5.859   0.305  -1.279  1.00  0.00    -0.478 OA
ATOM     12  H   UNL     1      -6.395  -0.402  -1.665  1.00  0.00     0.297 HD
ENDBRANCH   9  11
ENDBRANCH   3   9
ENDBRANCH   1   2
BRANCH   1  13
ATOM     13  C   UNL     1      -7.876   5.445   2.449  1.00  0.00     0.230 C 
BRANCH  13  14
ATOM     14  C   UNL     1      -9.309   5.967   2.336  1.00  0.00     0.046 C 
BRANCH  14  15
ATOM     15  C   UNL     1      -9.900   5.549   0.988  1.00  0.00     0.043 C 
BRANCH  15  16
ATOM     16  C   UNL     1     -11.338   5.990   0.911  1.00  0.00    -0.004 A 
ATOM     17  C   UNL     1     -12.413   5.279   1.327  1.00  0.00     0.036 A 
ATOM     18  C   UNL     1     -11.800   7.209   0.402  1.00  0.00     0.063 A 
ATOM     19  N   UNL     1     -13.515   6.020   1.084  1.00  0.00    -0.282 N 
ATOM     20  N   UNL     1     -13.104   7.225   0.499  1.00  0.00    -0.181 NA
ATOM     21  C   UNL     1     -12.383   3.908   1.950  1.00  0.00     0.066 C 
ATOM     22  C   UNL     1     -10.942   8.309  -0.170  1.00  0.00     0.069 C 
ATOM     23  H   UNL     1     -14.429   5.763   1.279  1.00  0.00     0.190 HD
ENDBRANCH  15  16
ENDBRANCH  14  15
ENDBRANCH  13  14
ENDBRANCH   1  13
TORSDOF 7
ENDMDL
MODEL 2
REMARK VINA RESULT:    -5.608      2.125      3.717
REMARK INTER + INTRA:          -8.393
REMARK INTER:                  -7.737
REMARK INTRA:                  -0.656
REMARK UNBOUND:                -0.654
REMARK SMILES Cc1n[nH]c(C)c1CCCOc1cc(C(=O)O)ccc1F
REMARK SMILES IDX 11 1 12 2 14 3 18 4 13 5 19 6 20 7 21 8 15 9 16 10 17 11
REMARK SMILES IDX 10 13 9 14 8 15 7 16 5 17 2 18 4 19 3 20 6 21 1 22
REMARK H PARENT 17 12 4 23
ROOT
ATOM      1  O   UNL     1      -7.985   3.511  -1.369  1.00  0.00    -0.490 OA
ENDROOT
BRANCH   1   2
ATOM      2  C   UNL     1      -6.848   3.409  -0.631  1.00  0.00     0.155 A 
ATOM      3  C   UNL     1      -5.068   4.439   0.615  1.00  0.00     0.063 A 
ATOM      4  C   UNL     1      -4.532   3.177   0.885  1.00  0.00     0.019 A 
ATOM      5  C   UNL     1      -6.232   4.548  -0.147  1.00  0.00     0.065 A 
ATOM      6  C   UNL     1      -5.156   2.045   0.404  1.00  0.00     0.044 A 
ATOM      7  C   UNL     1      -6.314   2.156  -0.348  1.00  0.00     0.165 A 
ATOM      8  F   UNL     1      -6.921   1.044  -0.816  1.00  0.00    -0.203 F 
BRANCH   3   9
ATOM      9  C   UNL     1      -4.402   5.652   1.129  1.00  0.00     0.335 C 
ATOM     10  O   UNL     1      -4.518   6.705   0.538  1.00  0.00    -0.246 OA
BRANCH   9  11
ATOM     11  O   UNL     1      -3.670   5.590   2.259  1.00  0.00    -0.478 OA
ATOM     12  H   UNL     1      -3.565   6.411   2.760  1.00  0.00     0.297 HD
ENDBRANCH   9  11
ENDBRANCH   3   9
ENDBRANCH   1   2
BRANCH   1  13
ATOM     13  C   UNL     1      -9.215   3.190  -0.715  1.00  0.00     0.230 C 
BRANCH  13  14
ATOM     14  C   UNL     1     -10.161   4.390  -0.792  1.00  0.00     0.046 C 
BRANCH  14  15
ATOM     15  C   UNL     1     -10.181   5.110   0.558  1.00  0.00     0.043 C 
BRANCH  15  16
ATOM     16  C   UNL     1     -11.510   5.797   0.742  1.00  0.00    -0.004 A 
ATOM     17  C   UNL     1     -11.796   7.078   0.415  1.00  0.00     0.036 A 
ATOM     18  C   UNL     1     -12.667   5.220   1.276  1.00  0.00     0.063 A 
ATOM     19  N   UNL     1     -13.087   7.306   0.736  1.00  0.00    -0.282 N 
ATOM     20  N   UNL     1     -13.611   6.126   1.279  1.00  0.00    -0.181 NA
ATOM     21  C   UNL     1     -10.845   8.072  -0.198  1.00  0.00     0.066 C 
ATOM     22  C   UNL     1     -12.800   3.803   1.773  1.00  0.00     0.069 C 
ATOM     23  H   UNL     1     -13.567   8.140   0.614  1.00  0.00     0.190 HD
ENDBRANCH  15  16
ENDBRANCH  14  15
ENDBRANCH  13  14
ENDBRANCH   1  13
TORSDOF 7
ENDMDL
MODEL 3
REMARK VINA RESULT:    -5.572      2.136      3.266
REMARK INTER + INTRA:          -8.343
REMARK INTER:                  -7.652
REMARK INTRA:                  -0.691
REMARK UNBOUND:                -0.654
REMARK SMILES Cc1n[nH]c(C)c1CCCOc1cc(C(=O)O)ccc1F
REMARK SMILES IDX 11 1 12 2 14 3 18 4 13 5 19 6 20 7 21 8 15 9 16 10 17 11
REMARK SMILES IDX 10 13 9 14 8 15 7 16 5 17 2 18 4 19 3 20 6 21 1 22
REMARK H PARENT 17 12 4 23
ROOT
ATOM      1  O   UNL     1      -8.046   3.512  -1.283  1.00  0.00    -0.490 OA
ENDROOT
BRANCH   1   2
ATOM      2  C   UNL     1      -6.892   3.415  -0.572  1.00  0.00     0.155 A 
ATOM      3  C   UNL     1      -5.090   4.453   0.635  1.00  0.00     0.063 A 
ATOM      4  C   UNL     1      -4.540   3.194   0.889  1.00  0.00     0.019 A 
ATOM      5  C   UNL     1      -6.273   4.557  -0.100  1.00  0.00     0.065 A 
ATOM      6  C   UNL     1      -5.168   2.060   0.419  1.00  0.00     0.044 A 
ATOM      7  C   UNL     1      -6.343   2.165  -0.305  1.00  0.00     0.165 A 
ATOM      8  F   UNL     1      -6.954   1.050  -0.763  1.00  0.00    -0.203 F 
BRANCH   3   9
ATOM      9  C   UNL     1      -4.421   5.669   1.137  1.00  0.00     0.335 C 
ATOM     10  O   UNL     1      -4.589   6.732   0.574  1.00  0.00    -0.246 OA
BRANCH   9  11
ATOM     11  O   UNL     1      -3.628   5.601   2.225  1.00  0.00    -0.478 OA
ATOM     12  H   UNL     1      -3.338   6.440   2.611  1.00  0.00     0.297 HD
ENDBRANCH   9  11
ENDBRANCH   3   9
ENDBRANCH   1   2
BRANCH   1  13
ATOM     13  C   UNL     1      -9.267   3.290  -0.573  1.00  0.00     0.230 C 
BRANCH  13  14
ATOM     14  C   UNL     1     -10.136   4.547  -0.649  1.00  0.00     0.046 C 
BRANCH  14  15
ATOM     15  C   UNL     1     -10.310   5.133   0.754  1.00  0.00     0.043 C 
BRANCH  15  16
ATOM     16  C   UNL     1     -11.740   5.569   0.943  1.00  0.00    -0.004 A 
ATOM     17  C   UNL     1     -12.746   4.809   1.434  1.00  0.00     0.036 A 
ATOM     18  C   UNL     1     -12.260   6.834   0.648  1.00  0.00     0.063 A 
ATOM     19  N   UNL     1     -13.865   5.564   1.443  1.00  0.00    -0.282 N 
ATOM     20  N   UNL     1     -13.535   6.830   0.941  1.00  0.00    -0.181 NA
ATOM     21  C   UNL     1     -12.637   3.378   1.890  1.00  0.00     0.066 C 
ATOM     22  C   UNL     1     -11.488   7.996   0.078  1.00  0.00     0.069 C 
ATOM     23  H   UNL     1     -14.742   5.281   1.744  1.00  0.00     0.190 HD
ENDBRANCH  15  16
ENDBRANCH  14  15
ENDBRANCH  13  14
ENDBRANCH   1  13
TORSDOF 7
ENDMDL
MODEL 4
REMARK VINA RESULT:    -5.570      0.584      1.854
REMARK INTER + INTRA:          -8.340
REMARK INTER:                  -7.691
REMARK INTRA:                  -0.649
REMARK UNBOUND:                -0.654
REMARK SMILES Cc1n[nH]c(C)c1CCCOc1cc(C(=O)O)ccc1F
REMARK SMILES IDX 11 1 12 2 14 3 18 4 13 5 19 6 20 7 21 8 15 9 16 10 17 11
REMARK SMILES IDX 10 13 9 14 8 15 7 16 5 17 2 18 4 19 3 20 6 21 1 22
REMARK H PARENT 17 12 4 23
ROOT
ATOM      1  O   UNL     1      -7.237   4.856   2.685  1.00  0.00    -0.490 OA
ENDROOT
BRANCH   1   2
ATOM      2  C   UNL     1      -6.408   4.178   1.847  1.00  0.00     0.155 A 
ATOM      3  C   UNL     1      -5.930   2.248   0.495  1.00  0.00     0.063 A 
ATOM      4  C   UNL     1      -4.705   2.813   0.130  1.00  0.00     0.019 A 
ATOM      5  C   UNL     1      -6.781   2.940   1.359  1.00  0.00     0.065 A 
ATOM      6  C   UNL     1      -4.344   4.051   0.617  1.00  0.00     0.044 A 
ATOM      7  C   UNL     1      -5.193   4.738   1.470  1.00  0.00     0.165 A 
ATOM      8  F   UNL     1      -4.833   5.951   1.944  1.00  0.00    -0.203 F 
BRANCH   3   9
ATOM      9  C   UNL     1      -6.319   0.923  -0.025  1.00  0.00     0.335 C 
ATOM     10  O   UNL     1      -7.086   0.224   0.605  1.00  0.00    -0.246 OA
BRANCH   9  11
ATOM     11  O   UNL     1      -5.828   0.492  -1.204  1.00  0.00    -0.478 OA
ATOM     12  H   UNL     1      -5.078   0.979  -1.572  1.00  0.00     0.297 HD
ENDBRANCH   9  11
ENDBRANCH   3   9
ENDBRANCH   1   2
BRANCH   1  13
ATOM     13  C   UNL     1      -8.030   5.898   2.110  1.00  0.00     0.230 C 
BRANCH  13  14
ATOM     14  C   UNL     1      -9.510   5.523   2.206  1.00  0.00     0.046 C 
BRANCH  14  15
ATOM     15  C   UNL     1     -10.107   5.436   0.799  1.00  0.00     0.043 C 
BRANCH  15  16
ATOM     16  C   UNL     1     -11.461   6.097   0.785  1.00  0.00    -0.004 A 
ATOM     17  C   UNL     1     -11.728   7.355   0.366  1.00  0.00     0.036 A 
ATOM     18  C   UNL     1     -12.665   5.515   1.197  1.00  0.00     0.063 A 
ATOM     19  N   UNL     1     -13.053   7.565   0.514  1.00  0.00    -0.282 N 
ATOM     20  N   UNL     1     -13.619   6.397   1.041  1.00  0.00    -0.181 NA
ATOM     21  C   UNL     1     -10.727   8.345  -0.169  1.00  0.00     0.066 C 
ATOM     22  C   UNL     1     -12.832   4.118   1.738  1.00  0.00     0.069 C 
ATOM     23  H   UNL     1     -13.530   8.381   0.295  1.00  0.00     0.190 HD
ENDBRANCH  15  16
ENDBRANCH  14  15
ENDBRANCH  13  14
ENDBRANCH   1  13
TORSDOF 7
ENDMDL
MODEL 5
REMARK VINA RESULT:    -4.971      2.138      2.969
REMARK INTER + INTRA:          -7.514
REMARK INTER:                  -6.870
REMARK INTRA:                  -0.644
REMARK UNBOUND:                -0.654
REMARK SMILES Cc1n[nH]c(C)c1CCCOc1cc(C(=O)O)ccc1F
REMARK SMILES IDX 11 1 12 2 14 3 18 4 13 5 19 6 20 7 21 8 15 9 16 10 17 11
REMARK SMILES IDX 10 13 9 14 8 15 7 16 5 17 2 18 4 19 3 20 6 21 1 22
REMARK H PARENT 17 12 4 23
ROOT
ATOM      1  O   UNL     1      -7.987   4.428   2.473  1.00  0.00    -0.490 OA
ENDROOT
BRANCH   1   2
ATOM      2  C   UNL     1      -6.843   4.046   1.844  1.00  0.00     0.155 A 
ATOM      3  C   UNL     1      -4.664   4.570   0.975  1.00  0.00     0.063 A 
ATOM      4  C   UNL     1      -4.510   3.242   0.568  1.00  0.00     0.019 A 
ATOM      5  C   UNL     1      -5.839   4.968   1.615  1.00  0.00     0.065 A 
ATOM      6  C   UNL     1      -5.515   2.328   0.806  1.00  0.00     0.044 A 
ATOM      7  C   UNL     1      -6.678   2.724   1.447  1.00  0.00     0.165 A 
ATOM      8  F   UNL     1      -7.659   1.824   1.677  1.00  0.00    -0.203 F 
BRANCH   3   9
ATOM      9  C   UNL     1      -3.590   5.551   0.722  1.00  0.00     0.335 C 
ATOM     10  O   UNL     1      -2.608   5.226   0.086  1.00  0.00    -0.246 OA
BRANCH   9  11
ATOM     11  O   UNL     1      -3.703   6.809   1.191  1.00  0.00    -0.478 OA
ATOM     12  H   UNL     1      -4.392   7.364   0.800  1.00  0.00     0.297 HD
ENDBRANCH   9  11
ENDBRANCH   3   9
ENDBRANCH   1   2
BRANCH   1  13
ATOM     13  C   UNL     1      -8.057   5.783   2.924  1.00  0.00     0.230 C 
BRANCH  13  14
ATOM     14  C   UNL     1      -9.418   6.374   2.551  1.00  0.00     0.046 C 
BRANCH  14  15
ATOM     15  C   UNL     1      -9.900   5.757   1.237  1.00  0.00     0.043 C 
BRANCH  15  16
ATOM     16  C   UNL     1     -11.366   6.049   1.051  1.00  0.00    -0.004 A 
ATOM     17  C   UNL     1     -12.389   5.225   1.377  1.00  0.00     0.036 A 
ATOM     18  C   UNL     1     -11.911   7.221   0.517  1.00  0.00     0.063 A 
ATOM     19  N   UNL     1     -13.540   5.852   1.055  1.00  0.00    -0.282 N 
ATOM     20  N   UNL     1     -13.214   7.102   0.512  1.00  0.00    -0.181 NA
ATOM     21  C   UNL     1     -12.266   3.855   1.991  1.00  0.00     0.066 C 
ATOM     22  C   UNL     1     -11.131   8.412   0.021  1.00  0.00     0.069 C 
ATOM     23  H   UNL     1     -14.436   5.499   1.176  1.00  0.00     0.190 HD
ENDBRANCH  15  16
ENDBRANCH  14  15
ENDBRANCH  13  14
ENDBRANCH   1  13
TORSDOF 7
ENDMDL
MODEL 6
REMARK VINA RESULT:    -4.649      3.776      6.648
REMARK INTER + INTRA:          -7.069
REMARK INTER:                  -6.261
REMARK INTRA:                  -0.808
REMARK UNBOUND:                -0.654
REMARK SMILES Cc1n[nH]c(C)c1CCCOc1cc(C(=O)O)ccc1F
REMARK SMILES IDX 11 1 12 2 14 3 18 4 13 5 19 6 20 7 21 8 15 9 16 10 17 11
REMARK SMILES IDX 10 13 9 14 8 15 7 16 5 17 2 18 4 19 3 20 6 21 1 22
REMARK H PARENT 17 12 4 23
ROOT
ATOM      1  O   UNL     1      -8.570   5.625   0.533  1.00  0.00    -0.490 OA
ENDROOT
BRANCH   1   2
ATOM      2  C   UNL     1      -9.917   5.697   0.702  1.00  0.00     0.155 A 
ATOM      3  C   UNL     1     -11.982   4.717   1.448  1.00  0.00     0.063 A 
ATOM      4  C   UNL     1     -12.668   5.866   1.047  1.00  0.00     0.019 A 
ATOM      5  C   UNL     1     -10.599   4.638   1.272  1.00  0.00     0.065 A 
ATOM      6  C   UNL     1     -11.978   6.920   0.485  1.00  0.00     0.044 A 
ATOM      7  C   UNL     1     -10.606   6.841   0.316  1.00  0.00     0.165 A 
ATOM      8  F   UNL     1      -9.936   7.877  -0.236  1.00  0.00    -0.203 F 
BRANCH   3   9
ATOM      9  C   UNL     1     -12.718   3.588   2.051  1.00  0.00     0.335 C 
ATOM     10  O   UNL     1     -13.118   2.681   1.350  1.00  0.00    -0.246 OA
BRANCH   9  11
ATOM     11  O   UNL     1     -12.939   3.561   3.380  1.00  0.00    -0.478 OA
ATOM     12  H   UNL     1     -13.861   3.524   3.671  1.00  0.00     0.297 HD
ENDBRANCH   9  11
ENDBRANCH   3   9
ENDBRANCH   1   2
BRANCH   1  13
ATOM     13  C   UNL     1      -7.808   5.082   1.614  1.00  0.00     0.230 C 
BRANCH  13  14
ATOM     14  C   UNL     1      -6.330   5.037   1.224  1.00  0.00     0.046 C 
BRANCH  14  15
ATOM     15  C   UNL     1      -6.204   4.652  -0.252  1.00  0.00     0.043 C 
BRANCH  15  16
ATOM     16  C   UNL     1      -6.219   3.152  -0.384  1.00  0.00    -0.004 A 
ATOM     17  C   UNL     1      -5.254   2.305   0.042  1.00  0.00     0.036 A 
ATOM     18  C   UNL     1      -7.238   2.387  -0.963  1.00  0.00     0.063 A 
ATOM     19  N   UNL     1      -5.644   1.049  -0.262  1.00  0.00    -0.282 N 
ATOM     20  N   UNL     1      -6.891   1.127  -0.897  1.00  0.00    -0.181 NA
ATOM     21  C   UNL     1      -3.973   2.694   0.733  1.00  0.00     0.066 C 
ATOM     22  C   UNL     1      -8.510   2.923  -1.569  1.00  0.00     0.069 C 
ATOM     23  H   UNL     1      -5.149   0.237  -0.076  1.00  0.00     0.190 HD
ENDBRANCH  15  16
ENDBRANCH  14  15
ENDBRANCH  13  14
ENDBRANCH   1  13
TORSDOF 7
ENDMDL
MODEL 7
REMARK VINA RESULT:    -4.634      3.778      7.112
REMARK INTER + INTRA:          -7.049
REMARK INTER:                  -6.222
REMARK INTRA:                  -0.827
REMARK UNBOUND:                -0.654
REMARK SMILES Cc1n[nH]c(C)c1CCCOc1cc(C(=O)O)ccc1F
REMARK SMILES IDX 11 1 12 2 14 3 18 4 13 5 19 6 20 7 21 8 15 9 16 10 17 11
REMARK SMILES IDX 10 13 9 14 8 15 7 16 5 17 2 18 4 19 3 20 6 21 1 22
REMARK H PARENT 17 12 4 23
ROOT
ATOM      1  O   UNL     1      -9.257   3.691   0.860  1.00  0.00    -0.490 OA
ENDROOT
BRANCH   1   2
ATOM      2  C   UNL     1     -10.285   4.581   0.856  1.00  0.00     0.155 A 
ATOM      3  C   UNL     1     -11.170   6.744   0.292  1.00  0.00     0.063 A 
ATOM      4  C   UNL     1     -12.400   6.381   0.847  1.00  0.00     0.019 A 
ATOM      5  C   UNL     1     -10.111   5.835   0.300  1.00  0.00     0.065 A 
ATOM      6  C   UNL     1     -12.566   5.126   1.394  1.00  0.00     0.044 A 
ATOM      7  C   UNL     1     -11.515   4.224   1.396  1.00  0.00     0.165 A 
ATOM      8  F   UNL     1     -11.684   2.996   1.934  1.00  0.00    -0.203 F 
BRANCH   3   9
ATOM      9  C   UNL     1     -10.990   8.087  -0.295  1.00  0.00     0.335 C 
ATOM     10  O   UNL     1     -10.608   9.007   0.399  1.00  0.00    -0.246 OA
BRANCH   9  11
ATOM     11  O   UNL     1     -11.243   8.289  -1.602  1.00  0.00    -0.478 OA
ATOM     12  H   UNL     1     -11.943   7.754  -2.002  1.00  0.00     0.297 HD
ENDBRANCH   9  11
ENDBRANCH   3   9
ENDBRANCH   1   2
BRANCH   1  13
ATOM     13  C   UNL     1      -8.468   3.606  -0.329  1.00  0.00     0.230 C 
BRANCH  13  14
ATOM     14  C   UNL     1      -7.259   2.704  -0.074  1.00  0.00     0.046 C 
BRANCH  14  15
ATOM     15  C   UNL     1      -6.825   2.834   1.388  1.00  0.00     0.043 C 
BRANCH  15  16
ATOM     16  C   UNL     1      -5.793   3.924   1.512  1.00  0.00    -0.004 A 
ATOM     17  C   UNL     1      -4.539   3.896   1.003  1.00  0.00     0.036 A 
ATOM     18  C   UNL     1      -5.963   5.148   2.167  1.00  0.00     0.063 A 
ATOM     19  N   UNL     1      -3.935   5.057   1.331  1.00  0.00    -0.282 N 
ATOM     20  N   UNL     1      -4.848   5.825   2.065  1.00  0.00    -0.181 NA
ATOM     21  C   UNL     1      -3.927   2.769   0.212  1.00  0.00     0.066 C 
ATOM     22  C   UNL     1      -7.211   5.604   2.879  1.00  0.00     0.069 C 
ATOM     23  H   UNL     1      -3.029   5.315   1.099  1.00  0.00     0.190 HD
ENDBRANCH  15  16
ENDBRANCH  14  15
ENDBRANCH  13  14
ENDBRANCH   1  13
TORSDOF 7
ENDMDL
MODEL 8
REMARK VINA RESULT:    -4.588      3.775      7.128
REMARK INTER + INTRA:          -6.986
REMARK INTER:                  -6.142
REMARK INTRA:                  -0.844
REMARK UNBOUND:                -0.654
REMARK SMILES Cc1n[nH]c(C)c1CCCOc1cc(C(=O)O)ccc1F
REMARK SMILES IDX 11 1 12 2 14 3 18 4 13 5 19 6 20 7 21 8 15 9 16 10 17 11
REMARK SMILES IDX 10 13 9 14 8 15 7 16 5 17 2 18 4 19 3 20 6 21 1 22
REMARK H PARENT 17 12 4 23
ROOT
ATOM      1  O   UNL     1      -9.269   3.701   0.882  1.00  0.00    -0.490 OA
ENDROOT
BRANCH   1   2
ATOM      2  C   UNL     1     -10.291   4.598   0.859  1.00  0.00     0.155 A 
ATOM      3  C   UNL     1     -11.159   6.759   0.260  1.00  0.00     0.063 A 
ATOM      4  C   UNL     1     -12.394   6.411   0.814  1.00  0.00     0.019 A 
ATOM      5  C   UNL     1     -10.106   5.842   0.286  1.00  0.00     0.065 A 
ATOM      6  C   UNL     1     -12.571   5.165   1.377  1.00  0.00     0.044 A 
ATOM      7  C   UNL     1     -11.526   4.256   1.398  1.00  0.00     0.165 A 
ATOM      8  F   UNL     1     -11.706   3.037   1.952  1.00  0.00    -0.203 F 
BRANCH   3   9
ATOM      9  C   UNL     1     -10.967   8.091  -0.345  1.00  0.00     0.335 C 
ATOM     10  O   UNL     1     -10.573   9.016   0.336  1.00  0.00    -0.246 OA
BRANCH   9  11
ATOM     11  O   UNL     1     -11.223   8.280  -1.654  1.00  0.00    -0.478 OA
ATOM     12  H   UNL     1     -11.929   7.746  -2.045  1.00  0.00     0.297 HD
ENDBRANCH   9  11
ENDBRANCH   3   9
ENDBRANCH   1   2
BRANCH   1  13
ATOM     13  C   UNL     1      -8.496   3.567  -0.314  1.00  0.00     0.230 C 
BRANCH  13  14
ATOM     14  C   UNL     1      -7.283   2.677  -0.039  1.00  0.00     0.046 C 
BRANCH  14  15
ATOM     15  C   UNL     1      -6.835   2.859   1.412  1.00  0.00     0.043 C 
BRANCH  15  16
ATOM     16  C   UNL     1      -5.809   3.959   1.488  1.00  0.00    -0.004 A 
ATOM     17  C   UNL     1      -5.968   5.156   2.099  1.00  0.00     0.036 A 
ATOM     18  C   UNL     1      -4.520   3.922   0.944  1.00  0.00     0.063 A 
ATOM     19  N   UNL     1      -4.823   5.854   1.942  1.00  0.00    -0.282 N 
ATOM     20  N   UNL     1      -3.931   5.060   1.210  1.00  0.00    -0.181 NA
ATOM     21  C   UNL     1      -7.201   5.625   2.826  1.00  0.00     0.066 C 
ATOM     22  C   UNL     1      -3.919   2.774   0.174  1.00  0.00     0.069 C 
ATOM     23  H   UNL     1      -4.650   6.748   2.276  1.00  0.00     0.190 HD
ENDBRANCH  15  16
ENDBRANCH  14  15
ENDBRANCH  13  14
ENDBRANCH   1  13
TORSDOF 7
ENDMDL
MODEL 9
REMARK VINA RESULT:    -4.337      4.156      7.222
REMARK INTER + INTRA:          -6.639
REMARK INTER:                  -6.123
REMARK INTRA:                  -0.516
REMARK UNBOUND:                -0.654
REMARK SMILES Cc1n[nH]c(C)c1CCCOc1cc(C(=O)O)ccc1F
REMARK SMILES IDX 11 1 12 2 14 3 18 4 13 5 19 6 20 7 21 8 15 9 16 10 17 11
REMARK SMILES IDX 10 13 9 14 8 15 7 16 5 17 2 18 4 19 3 20 6 21 1 22
REMARK H PARENT 17 12 4 23
ROOT
ATOM      1  O   UNL     1      -9.008   5.840   0.730  1.00  0.00    -0.490 OA
ENDROOT
BRANCH   1   2
ATOM      2  C   UNL     1     -10.362   5.922   0.820  1.00  0.00     0.155 A 
ATOM      3  C   UNL     1     -12.480   4.943   1.403  1.00  0.00     0.063 A 
ATOM      4  C   UNL     1     -13.127   6.115   1.004  1.00  0.00     0.019 A 
ATOM      5  C   UNL     1     -11.089   4.852   1.307  1.00  0.00     0.065 A 
ATOM      6  C   UNL     1     -12.393   7.180   0.525  1.00  0.00     0.044 A 
ATOM      7  C   UNL     1     -11.014   7.089   0.436  1.00  0.00     0.165 A 
ATOM      8  F   UNL     1     -10.300   8.136  -0.035  1.00  0.00    -0.203 F 
BRANCH   3   9
ATOM      9  C   UNL     1     -13.262   3.802   1.917  1.00  0.00     0.335 C 
ATOM     10  O   UNL     1     -12.705   2.898   2.504  1.00  0.00    -0.246 OA
BRANCH   9  11
ATOM     11  O   UNL     1     -14.598   3.767   1.739  1.00  0.00    -0.478 OA
ATOM     12  H   UNL     1     -15.124   3.362   2.442  1.00  0.00     0.297 HD
ENDBRANCH   9  11
ENDBRANCH   3   9
ENDBRANCH   1   2
BRANCH   1  13
ATOM     13  C   UNL     1      -8.303   5.440   1.908  1.00  0.00     0.230 C 
BRANCH  13  14
ATOM     14  C   UNL     1      -7.711   4.046   1.698  1.00  0.00     0.046 C 
BRANCH  14  15
ATOM     15  C   UNL     1      -7.091   3.959   0.302  1.00  0.00     0.043 C 
BRANCH  15  16
ATOM     16  C   UNL     1      -5.730   3.320   0.394  1.00  0.00    -0.004 A 
ATOM     17  C   UNL     1      -4.574   3.951   0.706  1.00  0.00     0.036 A 
ATOM     18  C   UNL     1      -5.438   1.969   0.178  1.00  0.00     0.063 A 
ATOM     19  N   UNL     1      -3.585   3.033   0.682  1.00  0.00    -0.282 N 
ATOM     20  N   UNL     1      -4.152   1.797   0.344  1.00  0.00    -0.181 NA
ATOM     21  C   UNL     1      -4.419   5.415   1.024  1.00  0.00     0.066 C 
ATOM     22  C   UNL     1      -6.432   0.899  -0.194  1.00  0.00     0.069 C 
ATOM     23  H   UNL     1      -2.647   3.199   0.865  1.00  0.00     0.190 HD
ENDBRANCH  15  16
ENDBRANCH  14  15
ENDBRANCH  13  14
ENDBRANCH   1  13
TORSDOF 7
ENDMDL
