MODEL 1
REMARK VINA RESULT:    -4.411      0.000      0.000
REMARK INTER + INTRA:          -5.352
REMARK INTER:                  -5.056
REMARK INTRA:                  -0.296
REMARK UNBOUND:                -0.296
REMARK SMILES O=C(O)c1ccc2nc(-c3cc(Cl)cc(Cl)c3)oc2c1
REMARK SMILES IDX 5 1 6 2 20 3 8 4 18 5 4 6 9 7 7 8 19 9 2 10 1 11 3 12 10 14
REMARK SMILES IDX 11 15 17 16 12 17 15 18 14 19 13 20 16 21
REMARK H PARENT 3 13
ROOT
ATOM      1  C   UNL     1     -12.911   6.126   1.067  1.00  0.00     0.018 A 
ATOM      2  C   UNL     1     -12.143   5.012   1.222  1.00  0.00     0.033 A 
ATOM      3  C   UNL     1     -10.988   7.369   0.268  1.00  0.00     0.065 A 
ATOM      4  N   UNL     1      -9.789   4.134   0.955  1.00  0.00    -0.209 NA
ATOM      5  O   UNL     1      -8.896   5.975   0.217  1.00  0.00    -0.436 OA
ATOM      6  C   UNL     1     -12.346   7.316   0.587  1.00  0.00     0.063 A 
ATOM      7  C   UNL     1      -8.676   4.688   0.544  1.00  0.00     0.227 A 
ATOM      8  C   UNL     1     -10.780   5.051   0.907  1.00  0.00     0.110 A 
ATOM      9  C   UNL     1     -10.204   6.242   0.430  1.00  0.00     0.156 A 
ENDROOT
BRANCH   6  10
ATOM     10  C   UNL     1     -13.188   8.514   0.417  1.00  0.00     0.335 C 
ATOM     11  O   UNL     1     -12.678   9.581   0.140  1.00  0.00    -0.246 OA
BRANCH  10  12
ATOM     12  O   UNL     1     -14.524   8.427   0.570  1.00  0.00    -0.478 OA
ATOM     13  H   UNL     1     -14.906   8.852   1.350  1.00  0.00     0.297 HD
ENDBRANCH  10  12
ENDBRANCH   6  10
BRANCH   7  14
ATOM     14  C   UNL     1      -7.371   4.001   0.454  1.00  0.00     0.040 A 
ATOM     15  C   UNL     1      -7.317   2.624   0.240  1.00  0.00     0.034 A 
ATOM     16  C   UNL     1      -6.186   4.729   0.585  1.00  0.00     0.034 A 
ATOM     17  C   UNL     1      -6.094   1.988   0.156  1.00  0.00     0.043 A 
ATOM     18  C   UNL     1      -4.969   4.082   0.499  1.00  0.00     0.043 A 
ATOM     19  C   UNL     1      -4.923   2.715   0.287  1.00  0.00     0.041 A 
ATOM     20  Cl  UNL     1      -6.024   0.274  -0.111  1.00  0.00    -0.084 Cl
ATOM     21  Cl  UNL     1      -3.495   4.985   0.661  1.00  0.00    -0.084 Cl
ENDBRANCH   7  14
TORSDOF 3
ENDMDL
MODEL 2
REMARK VINA RESULT:    -4.411      1.718      2.397
REMARK INTER + INTRA:          -5.351
REMARK INTER:                  -5.056
REMARK INTRA:                  -0.296
REMARK UNBOUND:                -0.296
REMARK SMILES O=C(O)c1ccc2nc(-c3cc(Cl)cc(Cl)c3)oc2c1
REMARK SMILES IDX 5 1 6 2 20 3 8 4 18 5 4 6 9 7 7 8 19 9 2 10 1 11 3 12 10 14
REMARK SMILES IDX 11 15 17 16 12 17 15 18 14 19 13 20 16 21
REMARK H PARENT 3 13
ROOT
ATOM      1  C   UNL     1     -12.900   6.360   0.879  1.00  0.00     0.018 A 
ATOM      2  C   UNL     1     -11.599   6.659   0.604  1.00  0.00     0.033 A 
ATOM      3  C   UNL     1     -12.269   4.116   1.546  1.00  0.00     0.065 A 
ATOM      4  N   UNL     1      -9.265   5.692   0.613  1.00  0.00    -0.209 NA
ATOM      5  O   UNL     1      -9.796   3.712   1.343  1.00  0.00    -0.436 OA
ATOM      6  C   UNL     1     -13.251   5.088   1.354  1.00  0.00     0.063 A 
ATOM      7  C   UNL     1      -8.793   4.515   0.941  1.00  0.00     0.227 A 
ATOM      8  C   UNL     1     -10.604   5.692   0.793  1.00  0.00     0.110 A 
ATOM      9  C   UNL     1     -10.948   4.413   1.265  1.00  0.00     0.156 A 
ENDROOT
BRANCH   6  10
ATOM     10  C   UNL     1     -14.661   4.779   1.653  1.00  0.00     0.335 C 
ATOM     11  O   UNL     1     -14.978   3.655   1.991  1.00  0.00    -0.246 OA
BRANCH  10  12
ATOM     12  O   UNL     1     -15.600   5.741   1.551  1.00  0.00    -0.478 OA
ATOM     13  H   UNL     1     -16.514   5.451   1.433  1.00  0.00     0.297 HD
ENDBRANCH  10  12
ENDBRANCH   6  10
BRANCH   7  14
ATOM     14  C   UNL     1      -7.368   4.127   0.879  1.00  0.00     0.040 A 
ATOM     15  C   UNL     1      -7.013   2.799   0.642  1.00  0.00     0.034 A 
ATOM     16  C   UNL     1      -6.372   5.089   1.059  1.00  0.00     0.034 A 
ATOM     17  C   UNL     1      -5.680   2.443   0.584  1.00  0.00     0.043 A 
ATOM     18  C   UNL     1      -5.043   4.721   0.998  1.00  0.00     0.043 A 
ATOM     19  C   UNL     1      -4.697   3.402   0.763  1.00  0.00     0.041 A 
ATOM     20  Cl  UNL     1      -5.236   0.791   0.288  1.00  0.00    -0.084 Cl
ATOM     21  Cl  UNL     1      -3.802   5.916   1.221  1.00  0.00    -0.084 Cl
ENDBRANCH   7  14
TORSDOF 3
ENDMDL
MODEL 3
REMARK VINA RESULT:    -4.405      0.048      2.020
REMARK INTER + INTRA:          -5.345
REMARK INTER:                  -5.049
REMARK INTRA:                  -0.296
REMARK UNBOUND:                -0.296
REMARK SMILES O=C(O)c1ccc2nc(-c3cc(Cl)cc(Cl)c3)oc2c1
REMARK SMILES IDX 5 1 6 2 20 3 8 4 18 5 4 6 9 7 7 8 19 9 2 10 1 11 3 12 10 14
REMARK SMILES IDX 11 15 17 16 12 17 15 18 14 19 13 20 16 21
REMARK H PARENT 3 13
ROOT
ATOM      1  C   UNL     1     -12.934   6.129   1.054  1.00  0.00     0.018 A 
ATOM      2  C   UNL     1     -12.161   5.017   1.206  1.00  0.00     0.033 A 
ATOM      3  C   UNL     1     -11.010   7.392   0.290  1.00  0.00     0.065 A 
ATOM      4  N   UNL     1      -9.799   4.156   0.954  1.00  0.00    -0.209 NA
ATOM      5  O   UNL     1      -8.909   6.011   0.246  1.00  0.00    -0.436 OA
ATOM      6  C   UNL     1     -12.371   7.327   0.594  1.00  0.00     0.063 A 
ATOM      7  C   UNL     1      -8.685   4.722   0.561  1.00  0.00     0.227 A 
ATOM      8  C   UNL     1     -10.794   5.068   0.905  1.00  0.00     0.110 A 
ATOM      9  C   UNL     1     -10.221   6.267   0.447  1.00  0.00     0.156 A 
ENDROOT
BRANCH   6  10
ATOM     10  C   UNL     1     -13.219   8.522   0.427  1.00  0.00     0.335 C 
ATOM     11  O   UNL     1     -12.713   9.591   0.151  1.00  0.00    -0.246 OA
BRANCH  10  12
ATOM     12  O   UNL     1     -14.554   8.428   0.583  1.00  0.00    -0.478 OA
ATOM     13  H   UNL     1     -15.099   8.564  -0.204  1.00  0.00     0.297 HD
ENDBRANCH  10  12
ENDBRANCH   6  10
BRANCH   7  14
ATOM     14  C   UNL     1      -7.374   4.044   0.478  1.00  0.00     0.040 A 
ATOM     15  C   UNL     1      -6.196   4.776   0.627  1.00  0.00     0.034 A 
ATOM     16  C   UNL     1      -7.311   2.668   0.250  1.00  0.00     0.034 A 
ATOM     17  C   UNL     1      -4.974   4.136   0.549  1.00  0.00     0.043 A 
ATOM     18  C   UNL     1      -6.084   2.039   0.174  1.00  0.00     0.043 A 
ATOM     19  C   UNL     1      -4.918   2.771   0.322  1.00  0.00     0.041 A 
ATOM     20  Cl  UNL     1      -3.507   5.044   0.734  1.00  0.00    -0.084 Cl
ATOM     21  Cl  UNL     1      -6.003   0.328  -0.109  1.00  0.00    -0.084 Cl
ENDBRANCH   7  14
TORSDOF 3
ENDMDL
MODEL 4
REMARK VINA RESULT:    -4.396      1.734      3.131
REMARK INTER + INTRA:          -5.334
REMARK INTER:                  -5.038
REMARK INTRA:                  -0.296
REMARK UNBOUND:                -0.296
REMARK SMILES O=C(O)c1ccc2nc(-c3cc(Cl)cc(Cl)c3)oc2c1
REMARK SMILES IDX 5 1 6 2 20 3 8 4 18 5 4 6 9 7 7 8 19 9 2 10 1 11 3 12 10 14
REMARK SMILES IDX 11 15 17 16 12 17 15 18 14 19 13 20 16 21
REMARK H PARENT 3 13
ROOT
ATOM      1  C   UNL     1     -12.899   6.338   0.902  1.00  0.00     0.018 A 
ATOM      2  C   UNL     1     -11.599   6.648   0.639  1.00  0.00     0.033 A 
ATOM      3  C   UNL     1     -12.259   4.086   1.537  1.00  0.00     0.065 A 
ATOM      4  N   UNL     1      -9.260   5.693   0.643  1.00  0.00    -0.209 NA
ATOM      5  O   UNL     1      -9.783   3.699   1.338  1.00  0.00    -0.436 OA
ATOM      6  C   UNL     1     -13.246   5.057   1.355  1.00  0.00     0.063 A 
ATOM      7  C   UNL     1      -8.782   4.514   0.955  1.00  0.00     0.227 A 
ATOM      8  C   UNL     1     -10.599   5.684   0.817  1.00  0.00     0.110 A 
ATOM      9  C   UNL     1     -10.939   4.396   1.266  1.00  0.00     0.156 A 
ENDROOT
BRANCH   6  10
ATOM     10  C   UNL     1     -14.655   4.735   1.642  1.00  0.00     0.335 C 
ATOM     11  O   UNL     1     -14.960   3.617   2.009  1.00  0.00    -0.246 OA
BRANCH  10  12
ATOM     12  O   UNL     1     -15.606   5.679   1.498  1.00  0.00    -0.478 OA
ATOM     13  H   UNL     1     -16.391   5.438   0.989  1.00  0.00     0.297 HD
ENDBRANCH  10  12
ENDBRANCH   6  10
BRANCH   7  14
ATOM     14  C   UNL     1      -7.355   4.135   0.894  1.00  0.00     0.040 A 
ATOM     15  C   UNL     1      -6.365   5.103   1.059  1.00  0.00     0.034 A 
ATOM     16  C   UNL     1      -6.993   2.805   0.669  1.00  0.00     0.034 A 
ATOM     17  C   UNL     1      -5.033   4.742   1.001  1.00  0.00     0.043 A 
ATOM     18  C   UNL     1      -5.658   2.456   0.614  1.00  0.00     0.043 A 
ATOM     19  C   UNL     1      -4.680   3.422   0.778  1.00  0.00     0.041 A 
ATOM     20  Cl  UNL     1      -3.799   5.945   1.208  1.00  0.00    -0.084 Cl
ATOM     21  Cl  UNL     1      -5.206   0.803   0.334  1.00  0.00    -0.084 Cl
ENDBRANCH   7  14
TORSDOF 3
ENDMDL
MODEL 5
REMARK VINA RESULT:    -4.389      3.665      5.453
REMARK INTER + INTRA:          -5.326
REMARK INTER:                  -5.042
REMARK INTRA:                  -0.284
REMARK UNBOUND:                -0.296
REMARK SMILES O=C(O)c1ccc2nc(-c3cc(Cl)cc(Cl)c3)oc2c1
REMARK SMILES IDX 5 1 6 2 20 3 8 4 18 5 4 6 9 7 7 8 19 9 2 10 1 11 3 12 10 14
REMARK SMILES IDX 11 15 17 16 12 17 15 18 14 19 13 20 16 21
REMARK H PARENT 3 13
ROOT
ATOM      1  C   UNL     1     -14.381  11.488  -1.471  1.00  0.00     0.018 A 
ATOM      2  C   UNL     1     -14.336  10.525  -0.508  1.00  0.00     0.033 A 
ATOM      3  C   UNL     1     -12.446  10.519  -2.566  1.00  0.00     0.065 A 
ATOM      4  N   UNL     1     -13.050   8.482   0.239  1.00  0.00    -0.209 NA
ATOM      5  O   UNL     1     -11.579   8.488  -1.365  1.00  0.00    -0.436 OA
ATOM      6  C   UNL     1     -13.441  11.497  -2.511  1.00  0.00     0.063 A 
ATOM      7  C   UNL     1     -12.003   7.864  -0.249  1.00  0.00     0.227 A 
ATOM      8  C   UNL     1     -13.343   9.538  -0.551  1.00  0.00     0.110 A 
ATOM      9  C   UNL     1     -12.394   9.543  -1.588  1.00  0.00     0.156 A 
ENDROOT
BRANCH   6  10
ATOM     10  C   UNL     1     -13.504  12.540  -3.551  1.00  0.00     0.335 C 
ATOM     11  O   UNL     1     -14.242  12.402  -4.506  1.00  0.00    -0.246 OA
BRANCH  10  12
ATOM     12  O   UNL     1     -12.742  13.647  -3.442  1.00  0.00    -0.478 OA
ATOM     13  H   UNL     1     -12.765  14.115  -2.597  1.00  0.00     0.297 HD
ENDBRANCH  10  12
ENDBRANCH   6  10
BRANCH   7  14
ATOM     14  C   UNL     1     -11.381   6.660   0.338  1.00  0.00     0.040 A 
ATOM     15  C   UNL     1     -12.165   5.723   1.013  1.00  0.00     0.034 A 
ATOM     16  C   UNL     1     -10.004   6.456   0.222  1.00  0.00     0.034 A 
ATOM     17  C   UNL     1     -11.577   4.600   1.559  1.00  0.00     0.043 A 
ATOM     18  C   UNL     1      -9.428   5.328   0.772  1.00  0.00     0.043 A 
ATOM     19  C   UNL     1     -10.211   4.403   1.440  1.00  0.00     0.041 A 
ATOM     20  Cl  UNL     1     -12.550   3.433   2.398  1.00  0.00    -0.084 Cl
ATOM     21  Cl  UNL     1      -7.717   5.072   0.628  1.00  0.00    -0.084 Cl
ENDBRANCH   7  14
TORSDOF 3
ENDMDL
MODEL 6
REMARK VINA RESULT:    -4.375      3.671      5.686
REMARK INTER + INTRA:          -5.310
REMARK INTER:                  -5.026
REMARK INTRA:                  -0.284
REMARK UNBOUND:                -0.296
REMARK SMILES O=C(O)c1ccc2nc(-c3cc(Cl)cc(Cl)c3)oc2c1
REMARK SMILES IDX 5 1 6 2 20 3 8 4 18 5 4 6 9 7 7 8 19 9 2 10 1 11 3 12 10 14
REMARK SMILES IDX 11 15 17 16 12 17 15 18 14 19 13 20 16 21
REMARK H PARENT 3 13
ROOT
ATOM      1  C   UNL     1     -14.386  11.488  -1.478  1.00  0.00     0.018 A 
ATOM      2  C   UNL     1     -14.339  10.525  -0.516  1.00  0.00     0.033 A 
ATOM      3  C   UNL     1     -12.450  10.523  -2.573  1.00  0.00     0.065 A 
ATOM      4  N   UNL     1     -13.050   8.485   0.231  1.00  0.00    -0.209 NA
ATOM      5  O   UNL     1     -11.579   8.493  -1.372  1.00  0.00    -0.436 OA
ATOM      6  C   UNL     1     -13.446  11.499  -2.518  1.00  0.00     0.063 A 
ATOM      7  C   UNL     1     -12.002   7.868  -0.257  1.00  0.00     0.227 A 
ATOM      8  C   UNL     1     -13.345   9.540  -0.559  1.00  0.00     0.110 A 
ATOM      9  C   UNL     1     -12.396   9.547  -1.596  1.00  0.00     0.156 A 
ENDROOT
BRANCH   6  10
ATOM     10  C   UNL     1     -13.511  12.543  -3.557  1.00  0.00     0.335 C 
ATOM     11  O   UNL     1     -14.218  12.386  -4.532  1.00  0.00    -0.246 OA
BRANCH  10  12
ATOM     12  O   UNL     1     -12.785  13.671  -3.426  1.00  0.00    -0.478 OA
ATOM     13  H   UNL     1     -12.304  13.790  -2.596  1.00  0.00     0.297 HD
ENDBRANCH  10  12
ENDBRANCH   6  10
BRANCH   7  14
ATOM     14  C   UNL     1     -11.377   6.665   0.330  1.00  0.00     0.040 A 
ATOM     15  C   UNL     1     -10.006   6.449   0.192  1.00  0.00     0.034 A 
ATOM     16  C   UNL     1     -12.158   5.740   1.026  1.00  0.00     0.034 A 
ATOM     17  C   UNL     1      -9.427   5.323   0.744  1.00  0.00     0.043 A 
ATOM     18  C   UNL     1     -11.568   4.618   1.574  1.00  0.00     0.043 A 
ATOM     19  C   UNL     1     -10.207   4.409   1.433  1.00  0.00     0.041 A 
ATOM     20  Cl  UNL     1      -7.721   5.052   0.574  1.00  0.00    -0.084 Cl
ATOM     21  Cl  UNL     1     -12.537   3.465   2.439  1.00  0.00    -0.084 Cl
ENDBRANCH   7  14
TORSDOF 3
ENDMDL
MODEL 7
REMARK VINA RESULT:    -4.300      3.931      7.592
REMARK INTER + INTRA:          -5.224
REMARK INTER:                  -4.926
REMARK INTRA:                  -0.298
REMARK UNBOUND:                -0.296
REMARK SMILES O=C(O)c1ccc2nc(-c3cc(Cl)cc(Cl)c3)oc2c1
REMARK SMILES IDX 5 1 6 2 20 3 8 4 18 5 4 6 9 7 7 8 19 9 2 10 1 11 3 12 10 14
REMARK SMILES IDX 11 15 17 16 12 17 15 18 14 19 13 20 16 21
REMARK H PARENT 3 13
ROOT
ATOM      1  C   UNL     1      -4.755   4.158   0.303  1.00  0.00     0.018 A 
ATOM      2  C   UNL     1      -5.689   5.148   0.221  1.00  0.00     0.033 A 
ATOM      3  C   UNL     1      -6.476   2.551   0.883  1.00  0.00     0.065 A 
ATOM      4  N   UNL     1      -8.160   5.612   0.467  1.00  0.00    -0.209 NA
ATOM      5  O   UNL     1      -8.764   3.588   0.987  1.00  0.00    -0.436 OA
ATOM      6  C   UNL     1      -5.136   2.850   0.632  1.00  0.00     0.063 A 
ATOM      7  C   UNL     1      -9.180   4.850   0.773  1.00  0.00     0.227 A 
ATOM      8  C   UNL     1      -7.036   4.863   0.470  1.00  0.00     0.110 A 
ATOM      9  C   UNL     1      -7.425   3.554   0.806  1.00  0.00     0.156 A 
ENDROOT
BRANCH   6  10
ATOM     10  C   UNL     1      -4.118   1.786   0.711  1.00  0.00     0.335 C 
ATOM     11  O   UNL     1      -2.942   2.061   0.584  1.00  0.00    -0.246 OA
BRANCH  10  12
ATOM     12  O   UNL     1      -4.493   0.509   0.924  1.00  0.00    -0.478 OA
ATOM     13  H   UNL     1      -4.207   0.100   1.752  1.00  0.00     0.297 HD
ENDBRANCH  10  12
ENDBRANCH   6  10
BRANCH   7  14
ATOM     14  C   UNL     1     -10.581   5.310   0.870  1.00  0.00     0.040 A 
ATOM     15  C   UNL     1     -11.572   4.446   1.339  1.00  0.00     0.034 A 
ATOM     16  C   UNL     1     -10.919   6.611   0.492  1.00  0.00     0.034 A 
ATOM     17  C   UNL     1     -12.879   4.882   1.429  1.00  0.00     0.043 A 
ATOM     18  C   UNL     1     -12.230   7.035   0.587  1.00  0.00     0.043 A 
ATOM     19  C   UNL     1     -13.207   6.173   1.052  1.00  0.00     0.041 A 
ATOM     20  Cl  UNL     1     -14.113   3.809   2.012  1.00  0.00    -0.084 Cl
ATOM     21  Cl  UNL     1     -12.652   8.653   0.118  1.00  0.00    -0.084 Cl
ENDBRANCH   7  14
TORSDOF 3
ENDMDL
MODEL 8
REMARK VINA RESULT:    -4.292      3.931      7.825
REMARK INTER + INTRA:          -5.215
REMARK INTER:                  -4.917
REMARK INTRA:                  -0.298
REMARK UNBOUND:                -0.296
REMARK SMILES O=C(O)c1ccc2nc(-c3cc(Cl)cc(Cl)c3)oc2c1
REMARK SMILES IDX 5 1 6 2 20 3 8 4 18 5 4 6 9 7 7 8 19 9 2 10 1 11 3 12 10 14
REMARK SMILES IDX 11 15 17 16 12 17 15 18 14 19 13 20 16 21
REMARK H PARENT 3 13
ROOT
ATOM      1  C   UNL     1      -4.711   4.128   0.299  1.00  0.00     0.018 A 
ATOM      2  C   UNL     1      -5.644   5.117   0.205  1.00  0.00     0.033 A 
ATOM      3  C   UNL     1      -6.430   2.531   0.913  1.00  0.00     0.065 A 
ATOM      4  N   UNL     1      -8.114   5.586   0.454  1.00  0.00    -0.209 NA
ATOM      5  O   UNL     1      -8.718   3.570   1.010  1.00  0.00    -0.436 OA
ATOM      6  C   UNL     1      -5.091   2.825   0.651  1.00  0.00     0.063 A 
ATOM      7  C   UNL     1      -9.134   4.829   0.777  1.00  0.00     0.227 A 
ATOM      8  C   UNL     1      -6.991   4.836   0.465  1.00  0.00     0.110 A 
ATOM      9  C   UNL     1      -7.379   3.533   0.824  1.00  0.00     0.156 A 
ENDROOT
BRANCH   6  10
ATOM     10  C   UNL     1      -4.074   1.762   0.744  1.00  0.00     0.335 C 
ATOM     11  O   UNL     1      -2.896   2.037   0.628  1.00  0.00    -0.246 OA
BRANCH  10  12
ATOM     12  O   UNL     1      -4.449   0.485   0.956  1.00  0.00    -0.478 OA
ATOM     13  H   UNL     1      -3.745  -0.171   1.041  1.00  0.00     0.297 HD
ENDBRANCH  10  12
ENDBRANCH   6  10
BRANCH   7  14
ATOM     14  C   UNL     1     -10.534   5.291   0.873  1.00  0.00     0.040 A 
ATOM     15  C   UNL     1     -10.873   6.588   0.485  1.00  0.00     0.034 A 
ATOM     16  C   UNL     1     -11.524   4.431   1.354  1.00  0.00     0.034 A 
ATOM     17  C   UNL     1     -12.184   7.013   0.576  1.00  0.00     0.043 A 
ATOM     18  C   UNL     1     -12.831   4.868   1.440  1.00  0.00     0.043 A 
ATOM     19  C   UNL     1     -13.160   6.156   1.054  1.00  0.00     0.041 A 
ATOM     20  Cl  UNL     1     -12.607   8.626   0.094  1.00  0.00    -0.084 Cl
ATOM     21  Cl  UNL     1     -14.063   3.800   2.038  1.00  0.00    -0.084 Cl
ENDBRANCH   7  14
TORSDOF 3
ENDMDL
MODEL 9
REMARK VINA RESULT:    -4.092      3.968      7.689
REMARK INTER + INTRA:          -4.986
REMARK INTER:                  -4.700
REMARK INTRA:                  -0.286
REMARK UNBOUND:                -0.296
REMARK SMILES O=C(O)c1ccc2nc(-c3cc(Cl)cc(Cl)c3)oc2c1
REMARK SMILES IDX 5 1 6 2 20 3 8 4 18 5 4 6 9 7 7 8 19 9 2 10 1 11 3 12 10 14
REMARK SMILES IDX 11 15 17 16 12 17 15 18 14 19 13 20 16 21
REMARK H PARENT 3 13
ROOT
ATOM      1  C   UNL     1      -6.023   2.768   1.501  1.00  0.00     0.018 A 
ATOM      2  C   UNL     1      -6.660   3.905   1.899  1.00  0.00     0.033 A 
ATOM      3  C   UNL     1      -7.644   2.453  -0.275  1.00  0.00     0.065 A 
ATOM      4  N   UNL     1      -8.630   5.399   1.377  1.00  0.00    -0.209 NA
ATOM      5  O   UNL     1      -9.393   4.259  -0.312  1.00  0.00    -0.436 OA
ATOM      6  C   UNL     1      -6.504   2.030   0.411  1.00  0.00     0.063 A 
ATOM      7  C   UNL     1      -9.568   5.345   0.465  1.00  0.00     0.227 A 
ATOM      8  C   UNL     1      -7.805   4.341   1.221  1.00  0.00     0.110 A 
ATOM      9  C   UNL     1      -8.296   3.604   0.129  1.00  0.00     0.156 A 
ENDROOT
BRANCH   6  10
ATOM     10  C   UNL     1      -5.803   0.805  -0.015  1.00  0.00     0.335 C 
ATOM     11  O   UNL     1      -4.981   0.290   0.717  1.00  0.00    -0.246 OA
BRANCH  10  12
ATOM     12  O   UNL     1      -6.071   0.257  -1.216  1.00  0.00    -0.478 OA
ATOM     13  H   UNL     1      -5.333   0.169  -1.834  1.00  0.00     0.297 HD
ENDBRANCH  10  12
ENDBRANCH   6  10
BRANCH   7  14
ATOM     14  C   UNL     1     -10.659   6.329   0.313  1.00  0.00     0.040 A 
ATOM     15  C   UNL     1     -10.430   7.532  -0.356  1.00  0.00     0.034 A 
ATOM     16  C   UNL     1     -11.924   6.060   0.840  1.00  0.00     0.034 A 
ATOM     17  C   UNL     1     -11.454   8.448  -0.495  1.00  0.00     0.043 A 
ATOM     18  C   UNL     1     -12.940   6.984   0.694  1.00  0.00     0.043 A 
ATOM     19  C   UNL     1     -12.706   8.175   0.029  1.00  0.00     0.041 A 
ATOM     20  Cl  UNL     1     -11.171   9.945  -1.328  1.00  0.00    -0.084 Cl
ATOM     21  Cl  UNL     1     -14.514   6.651   1.347  1.00  0.00    -0.084 Cl
ENDBRANCH   7  14
TORSDOF 3
ENDMDL
