MODEL 1
REMARK VINA RESULT:    -5.690      0.000      0.000
REMARK INTER + INTRA:          -8.410
REMARK INTER:                  -7.853
REMARK INTRA:                  -0.558
REMARK UNBOUND:                -0.558
REMARK SMILES Cc1n[nH]c(C)c1CCCOc1cc(C(=O)O)ccc1F
REMARK SMILES IDX 11 1 12 2 14 3 18 4 13 5 19 6 20 7 21 8 15 9 16 10 17 11
REMARK SMILES IDX 10 13 9 14 8 15 7 16 5 17 2 18 4 19 3 20 6 21 1 22
REMARK H PARENT 17 12 4 23
ROOT
ATOM      1  O   UNL     1      -9.508  -1.514   0.326  1.00  0.00    -0.490 OA
ENDROOT
BRANCH   1   2
ATOM      2  C   UNL     1      -8.393  -0.910  -0.164  1.00  0.00     0.155 A 
ATOM      3  C   UNL     1      -6.921  -0.418  -2.000  1.00  0.00     0.063 A 
ATOM      4  C   UNL     1      -6.114   0.339  -1.146  1.00  0.00     0.019 A 
ATOM      5  C   UNL     1      -8.064  -1.043  -1.500  1.00  0.00     0.065 A 
ATOM      6  C   UNL     1      -6.453   0.471   0.184  1.00  0.00     0.044 A 
ATOM      7  C   UNL     1      -7.591  -0.146   0.677  1.00  0.00     0.165 A 
ATOM      8  F   UNL     1      -7.917  -0.013   1.981  1.00  0.00    -0.203 F 
BRANCH   3   9
ATOM      9  C   UNL     1      -6.561  -0.561  -3.425  1.00  0.00     0.335 C 
ATOM     10  O   UNL     1      -7.061  -1.443  -4.092  1.00  0.00    -0.246 OA
BRANCH   9  11
ATOM     11  O   UNL     1      -5.683   0.293  -3.987  1.00  0.00    -0.478 OA
ATOM     12  H   UNL     1      -5.999   0.818  -4.736  1.00  0.00     0.297 HD
ENDBRANCH   9  11
ENDBRANCH   3   9
ENDBRANCH   1   2
BRANCH   1  13
ATOM     13  C   UNL     1     -10.583  -0.661   0.729  1.00  0.00     0.230 C 
BRANCH  13  14
ATOM     14  C   UNL     1     -11.789  -0.897  -0.182  1.00  0.00     0.046 C 
BRANCH  14  15
ATOM     15  C   UNL     1     -11.843   0.199  -1.249  1.00  0.00     0.043 C 
BRANCH  15  16
ATOM     16  C   UNL     1     -13.260   0.354  -1.739  1.00  0.00    -0.004 A 
ATOM     17  C   UNL     1     -13.854  -0.388  -2.702  1.00  0.00     0.036 A 
ATOM     18  C   UNL     1     -14.195   1.285  -1.275  1.00  0.00     0.063 A 
ATOM     19  N   UNL     1     -15.118   0.062  -2.847  1.00  0.00    -0.282 N 
ATOM     20  N   UNL     1     -15.307   1.116  -1.943  1.00  0.00    -0.181 NA
ATOM     21  C   UNL     1     -13.219  -1.515  -3.474  1.00  0.00     0.066 C 
ATOM     22  C   UNL     1     -13.957   2.314  -0.200  1.00  0.00     0.069 C 
ATOM     23  H   UNL     1     -15.779  -0.282  -3.468  1.00  0.00     0.190 HD
ENDBRANCH  15  16
ENDBRANCH  14  15
ENDBRANCH  13  14
ENDBRANCH   1  13
TORSDOF 7
ENDMDL
MODEL 2
REMARK VINA RESULT:    -5.685      2.275      3.894
REMARK INTER + INTRA:          -8.404
REMARK INTER:                  -7.818
REMARK INTRA:                  -0.586
REMARK UNBOUND:                -0.558
REMARK SMILES Cc1n[nH]c(C)c1CCCOc1cc(C(=O)O)ccc1F
REMARK SMILES IDX 11 1 12 2 14 3 18 4 13 5 19 6 20 7 21 8 15 9 16 10 17 11
REMARK SMILES IDX 10 13 9 14 8 15 7 16 5 17 2 18 4 19 3 20 6 21 1 22
REMARK H PARENT 17 12 4 23
ROOT
ATOM      1  O   UNL     1      -8.807   1.710  -2.907  1.00  0.00    -0.490 OA
ENDROOT
BRANCH   1   2
ATOM      2  C   UNL     1      -7.964   1.074  -2.052  1.00  0.00     0.155 A 
ATOM      3  C   UNL     1      -7.274   0.540   0.189  1.00  0.00     0.063 A 
ATOM      4  C   UNL     1      -6.235  -0.243  -0.322  1.00  0.00     0.019 A 
ATOM      5  C   UNL     1      -8.139   1.199  -0.687  1.00  0.00     0.065 A 
ATOM      6  C   UNL     1      -6.071  -0.367  -1.685  1.00  0.00     0.044 A 
ATOM      7  C   UNL     1      -6.934   0.284  -2.552  1.00  0.00     0.165 A 
ATOM      8  F   UNL     1      -6.768   0.159  -3.887  1.00  0.00    -0.203 F 
BRANCH   3   9
ATOM      9  C   UNL     1      -7.452   0.674   1.648  1.00  0.00     0.335 C 
ATOM     10  O   UNL     1      -8.100   1.596   2.098  1.00  0.00    -0.246 OA
BRANCH   9  11
ATOM     11  O   UNL     1      -6.900  -0.231   2.480  1.00  0.00    -0.478 OA
ATOM     12  H   UNL     1      -6.135  -0.723   2.149  1.00  0.00     0.297 HD
ENDBRANCH   9  11
ENDBRANCH   3   9
ENDBRANCH   1   2
BRANCH   1  13
ATOM     13  C   UNL     1      -9.740   0.897  -3.623  1.00  0.00     0.230 C 
BRANCH  13  14
ATOM     14  C   UNL     1     -11.164   1.257  -3.195  1.00  0.00     0.046 C 
BRANCH  14  15
ATOM     15  C   UNL     1     -11.706   0.170  -2.264  1.00  0.00     0.043 C 
BRANCH  15  16
ATOM     16  C   UNL     1     -13.208   0.122  -2.368  1.00  0.00    -0.004 A 
ATOM     17  C   UNL     1     -14.078   0.930  -1.718  1.00  0.00     0.036 A 
ATOM     18  C   UNL     1     -13.951  -0.762  -3.158  1.00  0.00     0.063 A 
ATOM     19  N   UNL     1     -15.326   0.566  -2.080  1.00  0.00    -0.282 N 
ATOM     20  N   UNL     1     -15.220  -0.501  -2.981  1.00  0.00    -0.181 NA
ATOM     21  C   UNL     1     -13.717   2.038  -0.764  1.00  0.00     0.066 C 
ATOM     22  C   UNL     1     -13.385  -1.838  -4.050  1.00  0.00     0.069 C 
ATOM     23  H   UNL     1     -16.151   0.971  -1.770  1.00  0.00     0.190 HD
ENDBRANCH  15  16
ENDBRANCH  14  15
ENDBRANCH  13  14
ENDBRANCH   1  13
TORSDOF 7
ENDMDL
MODEL 3
REMARK VINA RESULT:    -5.645      0.251      1.777
REMARK INTER + INTRA:          -8.348
REMARK INTER:                  -7.741
REMARK INTRA:                  -0.607
REMARK UNBOUND:                -0.558
REMARK SMILES Cc1n[nH]c(C)c1CCCOc1cc(C(=O)O)ccc1F
REMARK SMILES IDX 11 1 12 2 14 3 18 4 13 5 19 6 20 7 21 8 15 9 16 10 17 11
REMARK SMILES IDX 10 13 9 14 8 15 7 16 5 17 2 18 4 19 3 20 6 21 1 22
REMARK H PARENT 17 12 4 23
ROOT
ATOM      1  O   UNL     1      -9.577  -1.447   0.271  1.00  0.00    -0.490 OA
ENDROOT
BRANCH   1   2
ATOM      2  C   UNL     1      -8.439  -0.870  -0.198  1.00  0.00     0.155 A 
ATOM      3  C   UNL     1      -6.922  -0.413  -2.006  1.00  0.00     0.063 A 
ATOM      4  C   UNL     1      -6.115   0.327  -1.138  1.00  0.00     0.019 A 
ATOM      5  C   UNL     1      -8.089  -1.012  -1.527  1.00  0.00     0.065 A 
ATOM      6  C   UNL     1      -6.476   0.468   0.185  1.00  0.00     0.044 A 
ATOM      7  C   UNL     1      -7.637  -0.122   0.657  1.00  0.00     0.165 A 
ATOM      8  F   UNL     1      -7.985   0.020   1.955  1.00  0.00    -0.203 F 
BRANCH   3   9
ATOM      9  C   UNL     1      -6.539  -0.567  -3.424  1.00  0.00     0.335 C 
ATOM     10  O   UNL     1      -6.995  -1.480  -4.081  1.00  0.00    -0.246 OA
BRANCH   9  11
ATOM     11  O   UNL     1      -5.687   0.311  -3.989  1.00  0.00    -0.478 OA
ATOM     12  H   UNL     1      -5.834   0.528  -4.921  1.00  0.00     0.297 HD
ENDBRANCH   9  11
ENDBRANCH   3   9
ENDBRANCH   1   2
BRANCH   1  13
ATOM     13  C   UNL     1     -10.675  -0.577   0.559  1.00  0.00     0.230 C 
BRANCH  13  14
ATOM     14  C   UNL     1     -11.822  -0.866  -0.410  1.00  0.00     0.046 C 
BRANCH  14  15
ATOM     15  C   UNL     1     -11.966   0.300  -1.391  1.00  0.00     0.043 C 
BRANCH  15  16
ATOM     16  C   UNL     1     -13.426   0.538  -1.678  1.00  0.00    -0.004 A 
ATOM     17  C   UNL     1     -14.206   1.486  -1.108  1.00  0.00     0.036 A 
ATOM     18  C   UNL     1     -14.214  -0.177  -2.587  1.00  0.00     0.063 A 
ATOM     19  N   UNL     1     -15.444   1.370  -1.632  1.00  0.00    -0.282 N 
ATOM     20  N   UNL     1     -15.425   0.316  -2.554  1.00  0.00    -0.181 NA
ATOM     21  C   UNL     1     -13.769   2.490  -0.074  1.00  0.00     0.066 C 
ATOM     22  C   UNL     1     -13.750  -1.326  -3.445  1.00  0.00     0.069 C 
ATOM     23  H   UNL     1     -16.212   1.918  -1.408  1.00  0.00     0.190 HD
ENDBRANCH  15  16
ENDBRANCH  14  15
ENDBRANCH  13  14
ENDBRANCH   1  13
TORSDOF 7
ENDMDL
MODEL 4
REMARK VINA RESULT:    -5.635      2.278      3.467
REMARK INTER + INTRA:          -8.335
REMARK INTER:                  -7.712
REMARK INTRA:                  -0.623
REMARK UNBOUND:                -0.558
REMARK SMILES Cc1n[nH]c(C)c1CCCOc1cc(C(=O)O)ccc1F
REMARK SMILES IDX 11 1 12 2 14 3 18 4 13 5 19 6 20 7 21 8 15 9 16 10 17 11
REMARK SMILES IDX 10 13 9 14 8 15 7 16 5 17 2 18 4 19 3 20 6 21 1 22
REMARK H PARENT 17 12 4 23
ROOT
ATOM      1  O   UNL     1      -8.868   1.696  -2.931  1.00  0.00    -0.490 OA
ENDROOT
BRANCH   1   2
ATOM      2  C   UNL     1      -8.025   1.056  -2.079  1.00  0.00     0.155 A 
ATOM      3  C   UNL     1      -7.320   0.531   0.159  1.00  0.00     0.063 A 
ATOM      4  C   UNL     1      -6.296  -0.270  -0.355  1.00  0.00     0.019 A 
ATOM      5  C   UNL     1      -8.185   1.194  -0.713  1.00  0.00     0.065 A 
ATOM      6  C   UNL     1      -6.148  -0.407  -1.719  1.00  0.00     0.044 A 
ATOM      7  C   UNL     1      -7.010   0.248  -2.582  1.00  0.00     0.165 A 
ATOM      8  F   UNL     1      -6.859   0.110  -3.918  1.00  0.00    -0.203 F 
BRANCH   3   9
ATOM      9  C   UNL     1      -7.482   0.679   1.619  1.00  0.00     0.335 C 
ATOM     10  O   UNL     1      -8.114   1.613   2.068  1.00  0.00    -0.246 OA
BRANCH   9  11
ATOM     11  O   UNL     1      -6.932  -0.226   2.453  1.00  0.00    -0.478 OA
ATOM     12  H   UNL     1      -5.969  -0.315   2.432  1.00  0.00     0.297 HD
ENDBRANCH   9  11
ENDBRANCH   3   9
ENDBRANCH   1   2
BRANCH   1  13
ATOM     13  C   UNL     1      -9.825   0.891  -3.624  1.00  0.00     0.230 C 
BRANCH  13  14
ATOM     14  C   UNL     1     -11.236   1.285  -3.185  1.00  0.00     0.046 C 
BRANCH  14  15
ATOM     15  C   UNL     1     -11.790   0.222  -2.234  1.00  0.00     0.043 C 
BRANCH  15  16
ATOM     16  C   UNL     1     -13.283   0.117  -2.412  1.00  0.00    -0.004 A 
ATOM     17  C   UNL     1     -13.930  -0.766  -3.207  1.00  0.00     0.036 A 
ATOM     18  C   UNL     1     -14.245   0.911  -1.779  1.00  0.00     0.063 A 
ATOM     19  N   UNL     1     -15.254  -0.535  -3.087  1.00  0.00    -0.282 N 
ATOM     20  N   UNL     1     -15.426   0.526  -2.188  1.00  0.00    -0.181 NA
ATOM     21  C   UNL     1     -13.287  -1.819  -4.072  1.00  0.00     0.066 C 
ATOM     22  C   UNL     1     -13.968   2.026  -0.803  1.00  0.00     0.069 C 
ATOM     23  H   UNL     1     -15.961  -1.017  -3.543  1.00  0.00     0.190 HD
ENDBRANCH  15  16
ENDBRANCH  14  15
ENDBRANCH  13  14
ENDBRANCH   1  13
TORSDOF 7
ENDMDL
MODEL 5
REMARK VINA RESULT:    -4.799      3.927      6.979
REMARK INTER + INTRA:          -7.180
REMARK INTER:                  -6.350
REMARK INTRA:                  -0.830
REMARK UNBOUND:                -0.558
REMARK SMILES Cc1n[nH]c(C)c1CCCOc1cc(C(=O)O)ccc1F
REMARK SMILES IDX 11 1 12 2 14 3 18 4 13 5 19 6 20 7 21 8 15 9 16 10 17 11
REMARK SMILES IDX 10 13 9 14 8 15 7 16 5 17 2 18 4 19 3 20 6 21 1 22
REMARK H PARENT 17 12 4 23
ROOT
ATOM      1  O   UNL     1     -10.524  -0.468  -2.502  1.00  0.00    -0.490 OA
ENDROOT
BRANCH   1   2
ATOM      2  C   UNL     1     -11.840  -0.154  -2.368  1.00  0.00     0.155 A 
ATOM      3  C   UNL     1     -13.571   1.231  -1.436  1.00  0.00     0.063 A 
ATOM      4  C   UNL     1     -14.533   0.479  -2.116  1.00  0.00     0.019 A 
ATOM      5  C   UNL     1     -12.219   0.907  -1.567  1.00  0.00     0.065 A 
ATOM      6  C   UNL     1     -14.145  -0.574  -2.918  1.00  0.00     0.044 A 
ATOM      7  C   UNL     1     -12.803  -0.889  -3.050  1.00  0.00     0.165 A 
ATOM      8  F   UNL     1     -12.429  -1.922  -3.837  1.00  0.00    -0.203 F 
BRANCH   3   9
ATOM      9  C   UNL     1     -13.983   2.359  -0.577  1.00  0.00     0.335 C 
ATOM     10  O   UNL     1     -14.192   2.178   0.605  1.00  0.00    -0.246 OA
BRANCH   9  11
ATOM     11  O   UNL     1     -14.121   3.591  -1.105  1.00  0.00    -0.478 OA
ATOM     12  H   UNL     1     -14.651   4.226  -0.604  1.00  0.00     0.297 HD
ENDBRANCH   9  11
ENDBRANCH   3   9
ENDBRANCH   1   2
BRANCH   1  13
ATOM     13  C   UNL     1      -9.611   0.619  -2.671  1.00  0.00     0.230 C 
BRANCH  13  14
ATOM     14  C   UNL     1      -8.176   0.100  -2.564  1.00  0.00     0.046 C 
BRANCH  14  15
ATOM     15  C   UNL     1      -8.130  -1.073  -1.582  1.00  0.00     0.043 C 
BRANCH  15  16
ATOM     16  C   UNL     1      -7.821  -0.560  -0.200  1.00  0.00    -0.004 A 
ATOM     17  C   UNL     1      -6.661   0.012   0.197  1.00  0.00     0.036 A 
ATOM     18  C   UNL     1      -8.686  -0.586   0.899  1.00  0.00     0.063 A 
ATOM     19  N   UNL     1      -6.785   0.331   1.503  1.00  0.00    -0.282 N 
ATOM     20  N   UNL     1      -8.064  -0.058   1.922  1.00  0.00    -0.181 NA
ATOM     21  C   UNL     1      -5.448   0.250  -0.664  1.00  0.00     0.066 C 
ATOM     22  C   UNL     1     -10.089  -1.137   0.908  1.00  0.00     0.069 C 
ATOM     23  H   UNL     1      -6.108   0.754   2.053  1.00  0.00     0.190 HD
ENDBRANCH  15  16
ENDBRANCH  14  15
ENDBRANCH  13  14
ENDBRANCH   1  13
TORSDOF 7
ENDMDL
MODEL 6
REMARK VINA RESULT:    -4.751      3.763      6.515
REMARK INTER + INTRA:          -7.114
REMARK INTER:                  -6.284
REMARK INTRA:                  -0.830
REMARK UNBOUND:                -0.558
REMARK SMILES Cc1n[nH]c(C)c1CCCOc1cc(C(=O)O)ccc1F
REMARK SMILES IDX 11 1 12 2 14 3 18 4 13 5 19 6 20 7 21 8 15 9 16 10 17 11
REMARK SMILES IDX 10 13 9 14 8 15 7 16 5 17 2 18 4 19 3 20 6 21 1 22
REMARK H PARENT 17 12 4 23
ROOT
ATOM      1  O   UNL     1     -10.778   0.970  -0.741  1.00  0.00    -0.490 OA
ENDROOT
BRANCH   1   2
ATOM      2  C   UNL     1     -11.989   0.698  -1.295  1.00  0.00     0.155 A 
ATOM      3  C   UNL     1     -13.371  -0.633  -2.746  1.00  0.00     0.063 A 
ATOM      4  C   UNL     1     -14.476   0.154  -2.409  1.00  0.00     0.019 A 
ATOM      5  C   UNL     1     -12.124  -0.353  -2.182  1.00  0.00     0.065 A 
ATOM      6  C   UNL     1     -14.333   1.197  -1.519  1.00  0.00     0.044 A 
ATOM      7  C   UNL     1     -13.096   1.469  -0.957  1.00  0.00     0.165 A 
ATOM      8  F   UNL     1     -12.964   2.493  -0.086  1.00  0.00    -0.203 F 
BRANCH   3   9
ATOM      9  C   UNL     1     -13.520  -1.750  -3.698  1.00  0.00     0.335 C 
ATOM     10  O   UNL     1     -13.257  -1.588  -4.872  1.00  0.00    -0.246 OA
BRANCH   9  11
ATOM     11  O   UNL     1     -13.942  -2.954  -3.262  1.00  0.00    -0.478 OA
ATOM     12  H   UNL     1     -14.097  -3.047  -2.312  1.00  0.00     0.297 HD
ENDBRANCH   9  11
ENDBRANCH   3   9
ENDBRANCH   1   2
BRANCH   1  13
ATOM     13  C   UNL     1     -10.007  -0.146  -0.288  1.00  0.00     0.230 C 
BRANCH  13  14
ATOM     14  C   UNL     1      -8.638   0.341   0.190  1.00  0.00     0.046 C 
BRANCH  14  15
ATOM     15  C   UNL     1      -8.082   1.359  -0.809  1.00  0.00     0.043 C 
BRANCH  15  16
ATOM     16  C   UNL     1      -7.425   0.633  -1.954  1.00  0.00    -0.004 A 
ATOM     17  C   UNL     1      -7.851   0.622  -3.239  1.00  0.00     0.036 A 
ATOM     18  C   UNL     1      -6.265  -0.145  -1.879  1.00  0.00     0.063 A 
ATOM     19  N   UNL     1      -6.994  -0.140  -3.950  1.00  0.00    -0.282 N 
ATOM     20  N   UNL     1      -6.009  -0.614  -3.073  1.00  0.00    -0.181 NA
ATOM     21  C   UNL     1      -9.063   1.335  -3.778  1.00  0.00     0.066 C 
ATOM     22  C   UNL     1      -5.456  -0.407  -0.634  1.00  0.00     0.069 C 
ATOM     23  H   UNL     1      -7.050  -0.328  -4.900  1.00  0.00     0.190 HD
ENDBRANCH  15  16
ENDBRANCH  14  15
ENDBRANCH  13  14
ENDBRANCH   1  13
TORSDOF 7
ENDMDL
MODEL 7
REMARK VINA RESULT:    -4.409      3.854      6.728
REMARK INTER + INTRA:          -6.642
REMARK INTER:                  -6.225
REMARK INTRA:                  -0.417
REMARK UNBOUND:                -0.558
REMARK SMILES Cc1n[nH]c(C)c1CCCOc1cc(C(=O)O)ccc1F
REMARK SMILES IDX 11 1 12 2 14 3 18 4 13 5 19 6 20 7 21 8 15 9 16 10 17 11
REMARK SMILES IDX 10 13 9 14 8 15 7 16 5 17 2 18 4 19 3 20 6 21 1 22
REMARK H PARENT 17 12 4 23
ROOT
ATOM      1  O   UNL     1     -10.272  -0.597  -2.474  1.00  0.00    -0.490 OA
ENDROOT
BRANCH   1   2
ATOM      2  C   UNL     1     -11.589  -0.272  -2.380  1.00  0.00     0.155 A 
ATOM      3  C   UNL     1     -13.878  -0.629  -3.026  1.00  0.00     0.063 A 
ATOM      4  C   UNL     1     -14.276   0.399  -2.167  1.00  0.00     0.019 A 
ATOM      5  C   UNL     1     -12.526  -0.961  -3.129  1.00  0.00     0.065 A 
ATOM      6  C   UNL     1     -13.336   1.076  -1.420  1.00  0.00     0.044 A 
ATOM      7  C   UNL     1     -11.995   0.742  -1.520  1.00  0.00     0.165 A 
ATOM      8  F   UNL     1     -11.079   1.409  -0.785  1.00  0.00    -0.203 F 
BRANCH   3   9
ATOM      9  C   UNL     1     -14.882  -1.356  -3.826  1.00  0.00     0.335 C 
ATOM     10  O   UNL     1     -14.550  -2.314  -4.493  1.00  0.00    -0.246 OA
BRANCH   9  11
ATOM     11  O   UNL     1     -16.170  -0.960  -3.811  1.00  0.00    -0.478 OA
ATOM     12  H   UNL     1     -16.391  -0.163  -4.313  1.00  0.00     0.297 HD
ENDBRANCH   9  11
ENDBRANCH   3   9
ENDBRANCH   1   2
BRANCH   1  13
ATOM     13  C   UNL     1      -9.348   0.483  -2.626  1.00  0.00     0.230 C 
BRANCH  13  14
ATOM     14  C   UNL     1      -7.918  -0.051  -2.520  1.00  0.00     0.046 C 
BRANCH  14  15
ATOM     15  C   UNL     1      -7.849  -1.105  -1.413  1.00  0.00     0.043 C 
BRANCH  15  16
ATOM     16  C   UNL     1      -7.650  -0.425  -0.083  1.00  0.00    -0.004 A 
ATOM     17  C   UNL     1      -6.557   0.278   0.296  1.00  0.00     0.036 A 
ATOM     18  C   UNL     1      -8.564  -0.403   0.975  1.00  0.00     0.063 A 
ATOM     19  N   UNL     1      -6.770   0.723   1.553  1.00  0.00    -0.282 N 
ATOM     20  N   UNL     1      -8.036   0.279   1.959  1.00  0.00    -0.181 NA
ATOM     21  C   UNL     1      -5.325   0.521  -0.535  1.00  0.00     0.066 C 
ATOM     22  C   UNL     1      -9.920  -1.062   0.986  1.00  0.00     0.069 C 
ATOM     23  H   UNL     1      -6.156   1.256   2.081  1.00  0.00     0.190 HD
ENDBRANCH  15  16
ENDBRANCH  14  15
ENDBRANCH  13  14
ENDBRANCH   1  13
TORSDOF 7
ENDMDL
MODEL 8
REMARK VINA RESULT:    -4.378      4.042      7.104
REMARK INTER + INTRA:          -6.599
REMARK INTER:                  -5.695
REMARK INTRA:                  -0.904
REMARK UNBOUND:                -0.558
REMARK SMILES Cc1n[nH]c(C)c1CCCOc1cc(C(=O)O)ccc1F
REMARK SMILES IDX 11 1 12 2 14 3 18 4 13 5 19 6 20 7 21 8 15 9 16 10 17 11
REMARK SMILES IDX 10 13 9 14 8 15 7 16 5 17 2 18 4 19 3 20 6 21 1 22
REMARK H PARENT 17 12 4 23
ROOT
ATOM      1  O   UNL     1     -10.705   0.717  -0.730  1.00  0.00    -0.490 OA
ENDROOT
BRANCH   1   2
ATOM      2  C   UNL     1     -11.981   0.657  -1.195  1.00  0.00     0.155 A 
ATOM      3  C   UNL     1     -14.249   1.457  -1.178  1.00  0.00     0.063 A 
ATOM      4  C   UNL     1     -14.580   0.525  -2.165  1.00  0.00     0.019 A 
ATOM      5  C   UNL     1     -12.940   1.518  -0.695  1.00  0.00     0.065 A 
ATOM      6  C   UNL     1     -13.615  -0.326  -2.662  1.00  0.00     0.044 A 
ATOM      7  C   UNL     1     -12.317  -0.260  -2.185  1.00  0.00     0.165 A 
ATOM      8  F   UNL     1     -11.376  -1.096  -2.676  1.00  0.00    -0.203 F 
BRANCH   3   9
ATOM      9  C   UNL     1     -15.279   2.369  -0.644  1.00  0.00     0.335 C 
ATOM     10  O   UNL     1     -16.423   1.985  -0.518  1.00  0.00    -0.246 OA
BRANCH   9  11
ATOM     11  O   UNL     1     -14.947   3.626  -0.292  1.00  0.00    -0.478 OA
ATOM     12  H   UNL     1     -15.592   4.120   0.235  1.00  0.00     0.297 HD
ENDBRANCH   9  11
ENDBRANCH   3   9
ENDBRANCH   1   2
BRANCH   1  13
ATOM     13  C   UNL     1     -10.257  -0.374   0.079  1.00  0.00     0.230 C 
BRANCH  13  14
ATOM     14  C   UNL     1      -8.741  -0.520  -0.056  1.00  0.00     0.046 C 
BRANCH  14  15
ATOM     15  C   UNL     1      -8.156   0.764  -0.650  1.00  0.00     0.043 C 
BRANCH  15  16
ATOM     16  C   UNL     1      -7.380   0.432  -1.898  1.00  0.00    -0.004 A 
ATOM     17  C   UNL     1      -6.161  -0.155  -1.946  1.00  0.00     0.036 A 
ATOM     18  C   UNL     1      -7.794   0.670  -3.213  1.00  0.00     0.063 A 
ATOM     19  N   UNL     1      -5.814  -0.277  -3.245  1.00  0.00    -0.282 N 
ATOM     20  N   UNL     1      -6.854   0.252  -4.021  1.00  0.00    -0.181 NA
ATOM     21  C   UNL     1      -5.340  -0.593  -0.762  1.00  0.00     0.066 C 
ATOM     22  C   UNL     1      -9.095   1.310  -3.628  1.00  0.00     0.069 C 
ATOM     23  H   UNL     1      -4.990  -0.662  -3.581  1.00  0.00     0.190 HD
ENDBRANCH  15  16
ENDBRANCH  14  15
ENDBRANCH  13  14
ENDBRANCH   1  13
TORSDOF 7
ENDMDL
MODEL 9
REMARK VINA RESULT:    -4.363      3.837      6.628
REMARK INTER + INTRA:          -6.579
REMARK INTER:                  -5.841
REMARK INTRA:                  -0.738
REMARK UNBOUND:                -0.558
REMARK SMILES Cc1n[nH]c(C)c1CCCOc1cc(C(=O)O)ccc1F
REMARK SMILES IDX 11 1 12 2 14 3 18 4 13 5 19 6 20 7 21 8 15 9 16 10 17 11
REMARK SMILES IDX 10 13 9 14 8 15 7 16 5 17 2 18 4 19 3 20 6 21 1 22
REMARK H PARENT 17 12 4 23
ROOT
ATOM      1  O   UNL     1     -10.513   0.836  -1.853  1.00  0.00    -0.490 OA
ENDROOT
BRANCH   1   2
ATOM      2  C   UNL     1     -11.795   0.465  -2.112  1.00  0.00     0.155 A 
ATOM      3  C   UNL     1     -13.367  -1.013  -3.175  1.00  0.00     0.063 A 
ATOM      4  C   UNL     1     -14.422  -0.282  -2.622  1.00  0.00     0.019 A 
ATOM      5  C   UNL     1     -12.049  -0.632  -2.914  1.00  0.00     0.065 A 
ATOM      6  C   UNL     1     -14.159   0.807  -1.818  1.00  0.00     0.044 A 
ATOM      7  C   UNL     1     -12.851   1.180  -1.558  1.00  0.00     0.165 A 
ATOM      8  F   UNL     1     -12.601   2.248  -0.769  1.00  0.00    -0.203 F 
BRANCH   3   9
ATOM      9  C   UNL     1     -13.644  -2.180  -4.035  1.00  0.00     0.335 C 
ATOM     10  O   UNL     1     -12.729  -2.863  -4.445  1.00  0.00    -0.246 OA
BRANCH   9  11
ATOM     11  O   UNL     1     -14.915  -2.490  -4.360  1.00  0.00    -0.478 OA
ATOM     12  H   UNL     1     -15.050  -2.989  -5.177  1.00  0.00     0.297 HD
ENDBRANCH   9  11
ENDBRANCH   3   9
ENDBRANCH   1   2
BRANCH   1  13
ATOM     13  C   UNL     1      -9.606   0.851  -2.957  1.00  0.00     0.230 C 
BRANCH  13  14
ATOM     14  C   UNL     1      -8.192   0.545  -2.460  1.00  0.00     0.046 C 
BRANCH  14  15
ATOM     15  C   UNL     1      -8.218  -0.717  -1.596  1.00  0.00     0.043 C 
BRANCH  15  16
ATOM     16  C   UNL     1      -7.877  -0.360  -0.172  1.00  0.00    -0.004 A 
ATOM     17  C   UNL     1      -8.693  -0.489   0.899  1.00  0.00     0.036 A 
ATOM     18  C   UNL     1      -6.657   0.158   0.277  1.00  0.00     0.063 A 
ATOM     19  N   UNL     1      -8.017  -0.062   1.986  1.00  0.00    -0.282 N 
ATOM     20  N   UNL     1      -6.742   0.344   1.569  1.00  0.00    -0.181 NA
ATOM     21  C   UNL     1     -10.104  -1.016   0.881  1.00  0.00     0.066 C 
ATOM     22  C   UNL     1      -5.456   0.462  -0.582  1.00  0.00     0.069 C 
ATOM     23  H   UNL     1      -8.354  -0.039   2.895  1.00  0.00     0.190 HD
ENDBRANCH  15  16
ENDBRANCH  14  15
ENDBRANCH  13  14
ENDBRANCH   1  13
TORSDOF 7
ENDMDL
