MODEL 1
REMARK VINA RESULT:    -4.292      0.000      0.000
REMARK INTER + INTRA:          -5.215
REMARK INTER:                  -4.920
REMARK INTRA:                  -0.295
REMARK UNBOUND:                -0.295
REMARK SMILES O=C(O)c1ccc2nc(-c3cc(Cl)cc(Cl)c3)oc2c1
REMARK SMILES IDX 5 1 6 2 20 3 8 4 18 5 4 6 9 7 7 8 19 9 2 10 1 11 3 12 10 14
REMARK SMILES IDX 11 15 17 16 12 17 15 18 14 19 13 20 16 21
REMARK H PARENT 3 13
ROOT
ATOM      1  C   UNL     1     -14.911   0.256  -2.509  1.00  0.00     0.018 A 
ATOM      2  C   UNL     1     -13.923   0.787  -1.734  1.00  0.00     0.033 A 
ATOM      3  C   UNL     1     -13.328  -1.281  -3.515  1.00  0.00     0.065 A 
ATOM      4  N   UNL     1     -11.457   0.612  -1.215  1.00  0.00    -0.209 NA
ATOM      5  O   UNL     1     -11.001  -0.996  -2.608  1.00  0.00    -0.436 OA
ATOM      6  C   UNL     1     -14.628  -0.783  -3.406  1.00  0.00     0.063 A 
ATOM      7  C   UNL     1     -10.504  -0.158  -1.678  1.00  0.00     0.227 A 
ATOM      8  C   UNL     1     -12.615   0.297  -1.833  1.00  0.00     0.110 A 
ATOM      9  C   UNL     1     -12.322  -0.742  -2.734  1.00  0.00     0.156 A 
ENDROOT
BRANCH   6  10
ATOM     10  C   UNL     1     -15.705  -1.354  -4.234  1.00  0.00     0.335 C 
ATOM     11  O   UNL     1     -15.439  -2.146  -5.116  1.00  0.00    -0.246 OA
BRANCH  10  12
ATOM     12  O   UNL     1     -16.986  -0.995  -4.015  1.00  0.00    -0.478 OA
ATOM     13  H   UNL     1     -17.550  -1.636  -3.562  1.00  0.00     0.297 HD
ENDBRANCH  10  12
ENDBRANCH   6  10
BRANCH   7  14
ATOM     14  C   UNL     1      -9.092  -0.113  -1.244  1.00  0.00     0.040 A 
ATOM     15  C   UNL     1      -8.772   0.257   0.062  1.00  0.00     0.034 A 
ATOM     16  C   UNL     1      -8.073  -0.440  -2.141  1.00  0.00     0.034 A 
ATOM     17  C   UNL     1      -7.451   0.296   0.462  1.00  0.00     0.043 A 
ATOM     18  C   UNL     1      -6.756  -0.397  -1.730  1.00  0.00     0.043 A 
ATOM     19  C   UNL     1      -6.445  -0.030  -0.432  1.00  0.00     0.041 A 
ATOM     20  Cl  UNL     1      -7.050   0.755   2.087  1.00  0.00    -0.084 Cl
ATOM     21  Cl  UNL     1      -5.487  -0.804  -2.844  1.00  0.00    -0.084 Cl
ENDBRANCH   7  14
TORSDOF 3
ENDMDL
MODEL 2
REMARK VINA RESULT:    -4.288      0.014      2.019
REMARK INTER + INTRA:          -5.210
REMARK INTER:                  -4.915
REMARK INTRA:                  -0.295
REMARK UNBOUND:                -0.295
REMARK SMILES O=C(O)c1ccc2nc(-c3cc(Cl)cc(Cl)c3)oc2c1
REMARK SMILES IDX 5 1 6 2 20 3 8 4 18 5 4 6 9 7 7 8 19 9 2 10 1 11 3 12 10 14
REMARK SMILES IDX 11 15 17 16 12 17 15 18 14 19 13 20 16 21
REMARK H PARENT 3 13
ROOT
ATOM      1  C   UNL     1     -14.910   0.252  -2.517  1.00  0.00     0.018 A 
ATOM      2  C   UNL     1     -13.923   0.788  -1.745  1.00  0.00     0.033 A 
ATOM      3  C   UNL     1     -13.326  -1.294  -3.508  1.00  0.00     0.065 A 
ATOM      4  N   UNL     1     -11.458   0.616  -1.220  1.00  0.00    -0.209 NA
ATOM      5  O   UNL     1     -11.000  -1.003  -2.599  1.00  0.00    -0.436 OA
ATOM      6  C   UNL     1     -14.626  -0.795  -3.405  1.00  0.00     0.063 A 
ATOM      7  C   UNL     1     -10.505  -0.159  -1.675  1.00  0.00     0.227 A 
ATOM      8  C   UNL     1     -12.615   0.297  -1.838  1.00  0.00     0.110 A 
ATOM      9  C   UNL     1     -12.322  -0.750  -2.730  1.00  0.00     0.156 A 
ENDROOT
BRANCH   6  10
ATOM     10  C   UNL     1     -15.703  -1.371  -4.231  1.00  0.00     0.335 C 
ATOM     11  O   UNL     1     -15.436  -2.172  -5.104  1.00  0.00    -0.246 OA
BRANCH  10  12
ATOM     12  O   UNL     1     -16.983  -1.007  -4.019  1.00  0.00    -0.478 OA
ATOM     13  H   UNL     1     -17.590  -1.082  -4.767  1.00  0.00     0.297 HD
ENDBRANCH  10  12
ENDBRANCH   6  10
BRANCH   7  14
ATOM     14  C   UNL     1      -9.094  -0.111  -1.239  1.00  0.00     0.040 A 
ATOM     15  C   UNL     1      -8.073  -0.442  -2.131  1.00  0.00     0.034 A 
ATOM     16  C   UNL     1      -8.777   0.264   0.068  1.00  0.00     0.034 A 
ATOM     17  C   UNL     1      -6.756  -0.395  -1.718  1.00  0.00     0.043 A 
ATOM     18  C   UNL     1      -7.457   0.308   0.469  1.00  0.00     0.043 A 
ATOM     19  C   UNL     1      -6.449  -0.022  -0.420  1.00  0.00     0.041 A 
ATOM     20  Cl  UNL     1      -5.484  -0.806  -2.825  1.00  0.00    -0.084 Cl
ATOM     21  Cl  UNL     1      -7.060   0.775   2.094  1.00  0.00    -0.084 Cl
ENDBRANCH   7  14
TORSDOF 3
ENDMDL
MODEL 3
REMARK VINA RESULT:    -4.285      1.880      2.574
REMARK INTER + INTRA:          -5.207
REMARK INTER:                  -4.911
REMARK INTRA:                  -0.296
REMARK UNBOUND:                -0.295
REMARK SMILES O=C(O)c1ccc2nc(-c3cc(Cl)cc(Cl)c3)oc2c1
REMARK SMILES IDX 5 1 6 2 20 3 8 4 18 5 4 6 9 7 7 8 19 9 2 10 1 11 3 12 10 14
REMARK SMILES IDX 11 15 17 16 12 17 15 18 14 19 13 20 16 21
REMARK H PARENT 3 13
ROOT
ATOM      1  C   UNL     1     -14.915   0.273  -2.351  1.00  0.00     0.018 A 
ATOM      2  C   UNL     1     -13.740  -0.303  -2.732  1.00  0.00     0.033 A 
ATOM      3  C   UNL     1     -13.738   1.692  -0.776  1.00  0.00     0.065 A 
ATOM      4  N   UNL     1     -11.250  -0.269  -2.306  1.00  0.00    -0.209 NA
ATOM      5  O   UNL     1     -11.258   1.282  -0.780  1.00  0.00    -0.436 OA
ATOM      6  C   UNL     1     -14.930   1.276  -1.372  1.00  0.00     0.063 A 
ATOM      7  C   UNL     1     -10.497   0.433  -1.496  1.00  0.00     0.227 A 
ATOM      8  C   UNL     1     -12.537   0.105  -2.142  1.00  0.00     0.110 A 
ATOM      9  C   UNL     1     -12.544   1.107  -1.156  1.00  0.00     0.156 A 
ENDROOT
BRANCH   6  10
ATOM     10  C   UNL     1     -16.207   1.896  -0.973  1.00  0.00     0.335 C 
ATOM     11  O   UNL     1     -16.257   2.602   0.014  1.00  0.00    -0.246 OA
BRANCH  10  12
ATOM     12  O   UNL     1     -17.319   1.677  -1.702  1.00  0.00    -0.478 OA
ATOM     13  H   UNL     1     -17.248   1.795  -2.659  1.00  0.00     0.297 HD
ENDBRANCH  10  12
ENDBRANCH   6  10
BRANCH   7  14
ATOM     14  C   UNL     1      -9.029   0.310  -1.386  1.00  0.00     0.040 A 
ATOM     15  C   UNL     1      -8.389   0.604  -0.181  1.00  0.00     0.034 A 
ATOM     16  C   UNL     1      -8.275  -0.100  -2.487  1.00  0.00     0.034 A 
ATOM     17  C   UNL     1      -7.017   0.486  -0.083  1.00  0.00     0.043 A 
ATOM     18  C   UNL     1      -6.904  -0.214  -2.378  1.00  0.00     0.043 A 
ATOM     19  C   UNL     1      -6.275   0.079  -1.180  1.00  0.00     0.041 A 
ATOM     20  Cl  UNL     1      -6.219   0.851   1.415  1.00  0.00    -0.084 Cl
ATOM     21  Cl  UNL     1      -5.965  -0.725  -3.746  1.00  0.00    -0.084 Cl
ENDBRANCH   7  14
TORSDOF 3
ENDMDL
MODEL 4
REMARK VINA RESULT:    -4.285      1.883      3.256
REMARK INTER + INTRA:          -5.206
REMARK INTER:                  -4.911
REMARK INTRA:                  -0.295
REMARK UNBOUND:                -0.295
REMARK SMILES O=C(O)c1ccc2nc(-c3cc(Cl)cc(Cl)c3)oc2c1
REMARK SMILES IDX 5 1 6 2 20 3 8 4 18 5 4 6 9 7 7 8 19 9 2 10 1 11 3 12 10 14
REMARK SMILES IDX 11 15 17 16 12 17 15 18 14 19 13 20 16 21
REMARK H PARENT 3 13
ROOT
ATOM      1  C   UNL     1     -14.913   0.279  -2.341  1.00  0.00     0.018 A 
ATOM      2  C   UNL     1     -13.738  -0.300  -2.719  1.00  0.00     0.033 A 
ATOM      3  C   UNL     1     -13.734   1.702  -0.772  1.00  0.00     0.065 A 
ATOM      4  N   UNL     1     -11.248  -0.268  -2.294  1.00  0.00    -0.209 NA
ATOM      5  O   UNL     1     -11.254   1.289  -0.774  1.00  0.00    -0.436 OA
ATOM      6  C   UNL     1     -14.926   1.286  -1.366  1.00  0.00     0.063 A 
ATOM      7  C   UNL     1     -10.494   0.436  -1.487  1.00  0.00     0.227 A 
ATOM      8  C   UNL     1     -12.535   0.108  -2.131  1.00  0.00     0.110 A 
ATOM      9  C   UNL     1     -12.540   1.115  -1.149  1.00  0.00     0.156 A 
ENDROOT
BRANCH   6  10
ATOM     10  C   UNL     1     -16.202   1.909  -0.970  1.00  0.00     0.335 C 
ATOM     11  O   UNL     1     -16.252   2.614   0.018  1.00  0.00    -0.246 OA
BRANCH  10  12
ATOM     12  O   UNL     1     -17.313   1.696  -1.702  1.00  0.00    -0.478 OA
ATOM     13  H   UNL     1     -18.162   1.782  -1.248  1.00  0.00     0.297 HD
ENDBRANCH  10  12
ENDBRANCH   6  10
BRANCH   7  14
ATOM     14  C   UNL     1      -9.026   0.312  -1.376  1.00  0.00     0.040 A 
ATOM     15  C   UNL     1      -8.272  -0.100  -2.476  1.00  0.00     0.034 A 
ATOM     16  C   UNL     1      -8.388   0.605  -0.169  1.00  0.00     0.034 A 
ATOM     17  C   UNL     1      -6.900  -0.213  -2.366  1.00  0.00     0.043 A 
ATOM     18  C   UNL     1      -7.016   0.488  -0.071  1.00  0.00     0.043 A 
ATOM     19  C   UNL     1      -6.273   0.079  -1.166  1.00  0.00     0.041 A 
ATOM     20  Cl  UNL     1      -5.960  -0.724  -3.733  1.00  0.00    -0.084 Cl
ATOM     21  Cl  UNL     1      -6.220   0.851   1.428  1.00  0.00    -0.084 Cl
ENDBRANCH   7  14
TORSDOF 3
ENDMDL
MODEL 5
REMARK VINA RESULT:    -4.116      3.951      7.821
REMARK INTER + INTRA:          -5.013
REMARK INTER:                  -4.716
REMARK INTRA:                  -0.298
REMARK UNBOUND:                -0.295
REMARK SMILES O=C(O)c1ccc2nc(-c3cc(Cl)cc(Cl)c3)oc2c1
REMARK SMILES IDX 5 1 6 2 20 3 8 4 18 5 4 6 9 7 7 8 19 9 2 10 1 11 3 12 10 14
REMARK SMILES IDX 11 15 17 16 12 17 15 18 14 19 13 20 16 21
REMARK H PARENT 3 13
ROOT
ATOM      1  C   UNL     1      -6.559  -0.559  -1.809  1.00  0.00     0.018 A 
ATOM      2  C   UNL     1      -7.691  -0.880  -2.497  1.00  0.00     0.033 A 
ATOM      3  C   UNL     1      -7.856   0.768  -0.247  1.00  0.00     0.065 A 
ATOM      4  N   UNL     1     -10.191  -0.522  -2.540  1.00  0.00    -0.209 NA
ATOM      5  O   UNL     1     -10.311   0.765  -0.790  1.00  0.00    -0.436 OA
ATOM      6  C   UNL     1      -6.626   0.266  -0.677  1.00  0.00     0.063 A 
ATOM      7  C   UNL     1     -11.005   0.160  -1.773  1.00  0.00     0.227 A 
ATOM      8  C   UNL     1      -8.931  -0.383  -2.077  1.00  0.00     0.110 A 
ATOM      9  C   UNL     1      -9.006   0.448  -0.945  1.00  0.00     0.156 A 
ENDROOT
BRANCH   6  10
ATOM     10  C   UNL     1      -5.396   0.602   0.062  1.00  0.00     0.335 C 
ATOM     11  O   UNL     1      -4.320   0.202  -0.336  1.00  0.00    -0.246 OA
BRANCH  10  12
ATOM     12  O   UNL     1      -5.464   1.352   1.180  1.00  0.00    -0.478 OA
ATOM     13  H   UNL     1      -6.258   1.890   1.300  1.00  0.00     0.297 HD
ENDBRANCH  10  12
ENDBRANCH   6  10
BRANCH   7  14
ATOM     14  C   UNL     1     -12.467   0.253  -1.960  1.00  0.00     0.040 A 
ATOM     15  C   UNL     1     -13.112  -0.584  -2.871  1.00  0.00     0.034 A 
ATOM     16  C   UNL     1     -13.210   1.179  -1.225  1.00  0.00     0.034 A 
ATOM     17  C   UNL     1     -14.480  -0.493  -3.040  1.00  0.00     0.043 A 
ATOM     18  C   UNL     1     -14.576   1.260  -1.403  1.00  0.00     0.043 A 
ATOM     19  C   UNL     1     -15.210   0.427  -2.309  1.00  0.00     0.041 A 
ATOM     20  Cl  UNL     1     -15.284  -1.534  -4.173  1.00  0.00    -0.084 Cl
ATOM     21  Cl  UNL     1     -15.502   2.412  -0.490  1.00  0.00    -0.084 Cl
ENDBRANCH   7  14
TORSDOF 3
ENDMDL
MODEL 6
REMARK VINA RESULT:    -4.113      3.952      7.598
REMARK INTER + INTRA:          -5.009
REMARK INTER:                  -4.712
REMARK INTRA:                  -0.298
REMARK UNBOUND:                -0.295
REMARK SMILES O=C(O)c1ccc2nc(-c3cc(Cl)cc(Cl)c3)oc2c1
REMARK SMILES IDX 5 1 6 2 20 3 8 4 18 5 4 6 9 7 7 8 19 9 2 10 1 11 3 12 10 14
REMARK SMILES IDX 11 15 17 16 12 17 15 18 14 19 13 20 16 21
REMARK H PARENT 3 13
ROOT
ATOM      1  C   UNL     1      -6.562  -0.556  -1.806  1.00  0.00     0.018 A 
ATOM      2  C   UNL     1      -7.694  -0.877  -2.493  1.00  0.00     0.033 A 
ATOM      3  C   UNL     1      -7.857   0.772  -0.245  1.00  0.00     0.065 A 
ATOM      4  N   UNL     1     -10.194  -0.517  -2.536  1.00  0.00    -0.209 NA
ATOM      5  O   UNL     1     -10.312   0.771  -0.786  1.00  0.00    -0.436 OA
ATOM      6  C   UNL     1      -6.628   0.269  -0.675  1.00  0.00     0.063 A 
ATOM      7  C   UNL     1     -11.006   0.166  -1.768  1.00  0.00     0.227 A 
ATOM      8  C   UNL     1      -8.933  -0.379  -2.073  1.00  0.00     0.110 A 
ATOM      9  C   UNL     1      -9.007   0.453  -0.942  1.00  0.00     0.156 A 
ENDROOT
BRANCH   6  10
ATOM     10  C   UNL     1      -5.397   0.604   0.064  1.00  0.00     0.335 C 
ATOM     11  O   UNL     1      -4.321   0.206  -0.336  1.00  0.00    -0.246 OA
BRANCH  10  12
ATOM     12  O   UNL     1      -5.464   1.351   1.183  1.00  0.00    -0.478 OA
ATOM     13  H   UNL     1      -6.311   1.774   1.379  1.00  0.00     0.297 HD
ENDBRANCH  10  12
ENDBRANCH   6  10
BRANCH   7  14
ATOM     14  C   UNL     1     -12.469   0.260  -1.954  1.00  0.00     0.040 A 
ATOM     15  C   UNL     1     -13.211   1.189  -1.223  1.00  0.00     0.034 A 
ATOM     16  C   UNL     1     -13.115  -0.582  -2.862  1.00  0.00     0.034 A 
ATOM     17  C   UNL     1     -14.578   1.273  -1.403  1.00  0.00     0.043 A 
ATOM     18  C   UNL     1     -14.482  -0.489  -3.032  1.00  0.00     0.043 A 
ATOM     19  C   UNL     1     -15.212   0.435  -2.304  1.00  0.00     0.041 A 
ATOM     20  Cl  UNL     1     -15.502   2.428  -0.495  1.00  0.00    -0.084 Cl
ATOM     21  Cl  UNL     1     -15.287  -1.534  -4.161  1.00  0.00    -0.084 Cl
ENDBRANCH   7  14
TORSDOF 3
ENDMDL
MODEL 7
REMARK VINA RESULT:    -4.073      3.316      4.951
REMARK INTER + INTRA:          -4.963
REMARK INTER:                  -4.679
REMARK INTRA:                  -0.284
REMARK UNBOUND:                -0.295
REMARK SMILES O=C(O)c1ccc2nc(-c3cc(Cl)cc(Cl)c3)oc2c1
REMARK SMILES IDX 5 1 6 2 20 3 8 4 18 5 4 6 9 7 7 8 19 9 2 10 1 11 3 12 10 14
REMARK SMILES IDX 11 15 17 16 12 17 15 18 14 19 13 20 16 21
REMARK H PARENT 3 13
ROOT
ATOM      1  C   UNL     1     -17.350  -3.616  -5.576  1.00  0.00     0.018 A 
ATOM      2  C   UNL     1     -16.973  -2.357  -5.214  1.00  0.00     0.033 A 
ATOM      3  C   UNL     1     -15.456  -4.552  -4.386  1.00  0.00     0.065 A 
ATOM      4  N   UNL     1     -15.219  -1.072  -3.928  1.00  0.00    -0.209 NA
ATOM      5  O   UNL     1     -14.040  -2.786  -3.292  1.00  0.00    -0.436 OA
ATOM      6  C   UNL     1     -16.600  -4.727  -5.167  1.00  0.00     0.063 A 
ATOM      7  C   UNL     1     -14.160  -1.446  -3.254  1.00  0.00     0.227 A 
ATOM      8  C   UNL     1     -15.827  -2.167  -4.431  1.00  0.00     0.110 A 
ATOM      9  C   UNL     1     -15.067  -3.276  -4.021  1.00  0.00     0.156 A 
ENDROOT
BRANCH   6  10
ATOM     10  C   UNL     1     -17.021  -6.084  -5.560  1.00  0.00     0.335 C 
ATOM     11  O   UNL     1     -17.349  -6.888  -4.710  1.00  0.00    -0.246 OA
BRANCH  10  12
ATOM     12  O   UNL     1     -17.042  -6.433  -6.862  1.00  0.00    -0.478 OA
ATOM     13  H   UNL     1     -16.958  -5.720  -7.509  1.00  0.00     0.297 HD
ENDBRANCH  10  12
ENDBRANCH   6  10
BRANCH   7  14
ATOM     14  C   UNL     1     -13.234  -0.530  -2.555  1.00  0.00     0.040 A 
ATOM     15  C   UNL     1     -13.735   0.529  -1.797  1.00  0.00     0.034 A 
ATOM     16  C   UNL     1     -11.854  -0.722  -2.651  1.00  0.00     0.034 A 
ATOM     17  C   UNL     1     -12.865   1.380  -1.145  1.00  0.00     0.043 A 
ATOM     18  C   UNL     1     -10.994   0.136  -1.995  1.00  0.00     0.043 A 
ATOM     19  C   UNL     1     -11.497   1.185  -1.244  1.00  0.00     0.041 A 
ATOM     20  Cl  UNL     1     -13.485   2.698  -0.201  1.00  0.00    -0.084 Cl
ATOM     21  Cl  UNL     1      -9.278  -0.100  -2.113  1.00  0.00    -0.084 Cl
ENDBRANCH   7  14
TORSDOF 3
ENDMDL
MODEL 8
REMARK VINA RESULT:    -3.964      4.047      7.170
REMARK INTER + INTRA:          -4.839
REMARK INTER:                  -4.552
REMARK INTRA:                  -0.287
REMARK UNBOUND:                -0.295
REMARK SMILES O=C(O)c1ccc2nc(-c3cc(Cl)cc(Cl)c3)oc2c1
REMARK SMILES IDX 5 1 6 2 20 3 8 4 18 5 4 6 9 7 7 8 19 9 2 10 1 11 3 12 10 14
REMARK SMILES IDX 11 15 17 16 12 17 15 18 14 19 13 20 16 21
REMARK H PARENT 3 13
ROOT
ATOM      1  C   UNL     1      -7.481  -1.165  -1.307  1.00  0.00     0.018 A 
ATOM      2  C   UNL     1      -8.658  -1.093  -0.623  1.00  0.00     0.033 A 
ATOM      3  C   UNL     1      -8.373   0.276  -3.042  1.00  0.00     0.065 A 
ATOM      4  N   UNL     1     -10.972  -0.081  -0.698  1.00  0.00    -0.209 NA
ATOM      5  O   UNL     1     -10.743   0.978  -2.584  1.00  0.00    -0.436 OA
ATOM      6  C   UNL     1      -7.322  -0.482  -2.521  1.00  0.00     0.063 A 
ATOM      7  C   UNL     1     -11.573   0.699  -1.562  1.00  0.00     0.227 A 
ATOM      8  C   UNL     1      -9.719  -0.336  -1.134  1.00  0.00     0.110 A 
ATOM      9  C   UNL     1      -9.570   0.348  -2.354  1.00  0.00     0.156 A 
ENDROOT
BRANCH   6  10
ATOM     10  C   UNL     1      -6.043  -0.562  -3.248  1.00  0.00     0.335 C 
ATOM     11  O   UNL     1      -5.183  -1.338  -2.881  1.00  0.00    -0.246 OA
BRANCH  10  12
ATOM     12  O   UNL     1      -5.825   0.225  -4.320  1.00  0.00    -0.478 OA
ATOM     13  H   UNL     1      -6.338   1.043  -4.376  1.00  0.00     0.297 HD
ENDBRANCH  10  12
ENDBRANCH   6  10
BRANCH   7  14
ATOM     14  C   UNL     1     -12.958   1.197  -1.432  1.00  0.00     0.040 A 
ATOM     15  C   UNL     1     -13.221   2.350  -0.692  1.00  0.00     0.034 A 
ATOM     16  C   UNL     1     -14.008   0.515  -2.049  1.00  0.00     0.034 A 
ATOM     17  C   UNL     1     -14.518   2.812  -0.576  1.00  0.00     0.043 A 
ATOM     18  C   UNL     1     -15.300   0.986  -1.925  1.00  0.00     0.043 A 
ATOM     19  C   UNL     1     -15.555   2.131  -1.190  1.00  0.00     0.041 A 
ATOM     20  Cl  UNL     1     -14.848   4.246   0.344  1.00  0.00    -0.084 Cl
ATOM     21  Cl  UNL     1     -16.608   0.139  -2.692  1.00  0.00    -0.084 Cl
ENDBRANCH   7  14
TORSDOF 3
ENDMDL
MODEL 9
REMARK VINA RESULT:    -3.470      3.326      5.217
REMARK INTER + INTRA:          -4.273
REMARK INTER:                  -3.988
REMARK INTRA:                  -0.285
REMARK UNBOUND:                -0.295
REMARK SMILES O=C(O)c1ccc2nc(-c3cc(Cl)cc(Cl)c3)oc2c1
REMARK SMILES IDX 5 1 6 2 20 3 8 4 18 5 4 6 9 7 7 8 19 9 2 10 1 11 3 12 10 14
REMARK SMILES IDX 11 15 17 16 12 17 15 18 14 19 13 20 16 21
REMARK H PARENT 3 13
ROOT
ATOM      1  C   UNL     1     -17.350  -3.627  -5.580  1.00  0.00     0.018 A 
ATOM      2  C   UNL     1     -16.975  -2.368  -5.215  1.00  0.00     0.033 A 
ATOM      3  C   UNL     1     -15.455  -4.561  -4.389  1.00  0.00     0.065 A 
ATOM      4  N   UNL     1     -15.224  -1.082  -3.927  1.00  0.00    -0.209 NA
ATOM      5  O   UNL     1     -14.043  -2.795  -3.292  1.00  0.00    -0.436 OA
ATOM      6  C   UNL     1     -16.598  -4.737  -5.171  1.00  0.00     0.063 A 
ATOM      7  C   UNL     1     -14.165  -1.455  -3.252  1.00  0.00     0.227 A 
ATOM      8  C   UNL     1     -15.831  -2.177  -4.432  1.00  0.00     0.110 A 
ATOM      9  C   UNL     1     -15.069  -3.286  -4.022  1.00  0.00     0.156 A 
ENDROOT
BRANCH   6  10
ATOM     10  C   UNL     1     -17.017  -6.094  -5.566  1.00  0.00     0.335 C 
ATOM     11  O   UNL     1     -17.076  -6.393  -6.742  1.00  0.00    -0.246 OA
BRANCH  10  12
ATOM     12  O   UNL     1     -17.336  -7.003  -4.623  1.00  0.00    -0.478 OA
ATOM     13  H   UNL     1     -16.916  -7.871  -4.690  1.00  0.00     0.297 HD
ENDBRANCH  10  12
ENDBRANCH   6  10
BRANCH   7  14
ATOM     14  C   UNL     1     -13.241  -0.539  -2.551  1.00  0.00     0.040 A 
ATOM     15  C   UNL     1     -11.862  -0.734  -2.635  1.00  0.00     0.034 A 
ATOM     16  C   UNL     1     -13.746   0.526  -1.801  1.00  0.00     0.034 A 
ATOM     17  C   UNL     1     -11.005   0.126  -1.978  1.00  0.00     0.043 A 
ATOM     18  C   UNL     1     -12.878   1.379  -1.149  1.00  0.00     0.043 A 
ATOM     19  C   UNL     1     -11.511   1.180  -1.236  1.00  0.00     0.041 A 
ATOM     20  Cl  UNL     1      -9.289  -0.115  -2.082  1.00  0.00    -0.084 Cl
ATOM     21  Cl  UNL     1     -13.503   2.703  -0.216  1.00  0.00    -0.084 Cl
ENDBRANCH   7  14
TORSDOF 3
ENDMDL
