MODEL 1
REMARK VINA RESULT:    -4.292      0.000      0.000
REMARK INTER + INTRA:          -6.530
REMARK INTER:                  -5.923
REMARK INTRA:                  -0.607
REMARK UNBOUND:                -0.607
REMARK SMILES Cc1n[nH]c(C)c1CCCOc1cc(C(=O)O)ccc1F
REMARK SMILES IDX 11 1 12 2 14 3 18 4 13 5 19 6 20 7 21 8 15 9 16 10 17 11
REMARK SMILES IDX 10 13 9 14 8 15 7 16 5 17 2 18 4 19 3 20 6 21 1 22
REMARK H PARENT 17 12 4 23
ROOT
ATOM      1  O   UNL     1      -6.731   0.811  -6.104  1.00  0.00    -0.490 OA
ENDROOT
BRANCH   1   2
ATOM      2  C   UNL     1      -5.788   0.238  -5.309  1.00  0.00     0.155 A 
ATOM      3  C   UNL     1      -5.132  -1.462  -3.740  1.00  0.00     0.063 A 
ATOM      4  C   UNL     1      -3.844  -0.923  -3.700  1.00  0.00     0.019 A 
ATOM      5  C   UNL     1      -6.105  -0.873  -4.551  1.00  0.00     0.065 A 
ATOM      6  C   UNL     1      -3.535   0.182  -4.464  1.00  0.00     0.044 A 
ATOM      7  C   UNL     1      -4.500   0.762  -5.272  1.00  0.00     0.165 A 
ATOM      8  F   UNL     1      -4.191   1.845  -6.018  1.00  0.00    -0.203 F 
BRANCH   3   9
ATOM      9  C   UNL     1      -5.466  -2.645  -2.923  1.00  0.00     0.335 C 
ATOM     10  O   UNL     1      -5.401  -2.586  -1.713  1.00  0.00    -0.246 OA
BRANCH   9  11
ATOM     11  O   UNL     1      -5.850  -3.790  -3.522  1.00  0.00    -0.478 OA
ATOM     12  H   UNL     1      -6.798  -3.983  -3.535  1.00  0.00     0.297 HD
ENDBRANCH   9  11
ENDBRANCH   3   9
ENDBRANCH   1   2
BRANCH   1  13
ATOM     13  C   UNL     1      -7.378   1.983  -5.601  1.00  0.00     0.230 C 
BRANCH  13  14
ATOM     14  C   UNL     1      -8.691   2.202  -6.354  1.00  0.00     0.046 C 
BRANCH  14  15
ATOM     15  C   UNL     1      -8.995   0.975  -7.216  1.00  0.00     0.043 C 
BRANCH  15  16
ATOM     16  C   UNL     1     -10.229   1.234  -8.042  1.00  0.00    -0.004 A 
ATOM     17  C   UNL     1     -11.504   0.974  -7.671  1.00  0.00     0.036 A 
ATOM     18  C   UNL     1     -10.259   1.792  -9.324  1.00  0.00     0.063 A 
ATOM     19  N   UNL     1     -12.312   1.347  -8.686  1.00  0.00    -0.282 N 
ATOM     20  N   UNL     1     -11.506   1.854  -9.714  1.00  0.00    -0.181 NA
ATOM     21  C   UNL     1     -11.943   0.375  -6.361  1.00  0.00     0.066 C 
ATOM     22  C   UNL     1      -9.060   2.233 -10.125  1.00  0.00     0.069 C 
ATOM     23  H   UNL     1     -13.279   1.277  -8.701  1.00  0.00     0.190 HD
ENDBRANCH  15  16
ENDBRANCH  14  15
ENDBRANCH  13  14
ENDBRANCH   1  13
TORSDOF 7
ENDMDL
MODEL 2
REMARK VINA RESULT:    -4.238      2.080      3.547
REMARK INTER + INTRA:          -6.455
REMARK INTER:                  -5.791
REMARK INTRA:                  -0.664
REMARK UNBOUND:                -0.607
REMARK SMILES Cc1n[nH]c(C)c1CCCOc1cc(C(=O)O)ccc1F
REMARK SMILES IDX 11 1 12 2 14 3 18 4 13 5 19 6 20 7 21 8 15 9 16 10 17 11
REMARK SMILES IDX 10 13 9 14 8 15 7 16 5 17 2 18 4 19 3 20 6 21 1 22
REMARK H PARENT 17 12 4 23
ROOT
ATOM      1  O   UNL     1      -7.374  -0.641  -5.475  1.00  0.00    -0.490 OA
ENDROOT
BRANCH   1   2
ATOM      2  C   UNL     1      -6.155  -0.619  -4.873  1.00  0.00     0.155 A 
ATOM      3  C   UNL     1      -3.981   0.371  -4.598  1.00  0.00     0.063 A 
ATOM      4  C   UNL     1      -3.673  -0.584  -3.625  1.00  0.00     0.019 A 
ATOM      5  C   UNL     1      -5.230   0.348  -5.221  1.00  0.00     0.065 A 
ATOM      6  C   UNL     1      -4.604  -1.541  -3.281  1.00  0.00     0.044 A 
ATOM      7  C   UNL     1      -5.844  -1.559  -3.897  1.00  0.00     0.165 A 
ATOM      8  F   UNL     1      -6.752  -2.499  -3.554  1.00  0.00    -0.203 F 
BRANCH   3   9
ATOM      9  C   UNL     1      -2.987   1.397  -4.969  1.00  0.00     0.335 C 
ATOM     10  O   UNL     1      -1.924   1.067  -5.453  1.00  0.00    -0.246 OA
BRANCH   9  11
ATOM     11  O   UNL     1      -3.262   2.702  -4.776  1.00  0.00    -0.478 OA
ATOM     12  H   UNL     1      -3.405   3.243  -5.565  1.00  0.00     0.297 HD
ENDBRANCH   9  11
ENDBRANCH   3   9
ENDBRANCH   1   2
BRANCH   1  13
ATOM     13  C   UNL     1      -7.459  -1.292  -6.745  1.00  0.00     0.230 C 
BRANCH  13  14
ATOM     14  C   UNL     1      -8.755  -0.878  -7.444  1.00  0.00     0.046 C 
BRANCH  14  15
ATOM     15  C   UNL     1      -9.149   0.531  -6.994  1.00  0.00     0.043 C 
BRANCH  15  16
ATOM     16  C   UNL     1     -10.326   1.006  -7.805  1.00  0.00    -0.004 A 
ATOM     17  C   UNL     1     -10.268   1.621  -9.009  1.00  0.00     0.036 A 
ATOM     18  C   UNL     1     -11.674   0.885  -7.450  1.00  0.00     0.063 A 
ATOM     19  N   UNL     1     -11.533   1.885  -9.399  1.00  0.00    -0.282 N 
ATOM     20  N   UNL     1     -12.398   1.417  -8.400  1.00  0.00    -0.181 NA
ATOM     21  C   UNL     1      -9.015   1.951  -9.778  1.00  0.00     0.066 C 
ATOM     22  C   UNL     1     -12.201   0.259  -6.183  1.00  0.00     0.069 C 
ATOM     23  H   UNL     1     -11.797   2.323 -10.223  1.00  0.00     0.190 HD
ENDBRANCH  15  16
ENDBRANCH  14  15
ENDBRANCH  13  14
ENDBRANCH   1  13
TORSDOF 7
ENDMDL
MODEL 3
REMARK VINA RESULT:    -4.128      0.171      1.776
REMARK INTER + INTRA:          -6.304
REMARK INTER:                  -5.655
REMARK INTRA:                  -0.649
REMARK UNBOUND:                -0.607
REMARK SMILES Cc1n[nH]c(C)c1CCCOc1cc(C(=O)O)ccc1F
REMARK SMILES IDX 11 1 12 2 14 3 18 4 13 5 19 6 20 7 21 8 15 9 16 10 17 11
REMARK SMILES IDX 10 13 9 14 8 15 7 16 5 17 2 18 4 19 3 20 6 21 1 22
REMARK H PARENT 17 12 4 23
ROOT
ATOM      1  O   UNL     1      -6.671   0.762  -6.143  1.00  0.00    -0.490 OA
ENDROOT
BRANCH   1   2
ATOM      2  C   UNL     1      -5.734   0.206  -5.329  1.00  0.00     0.155 A 
ATOM      3  C   UNL     1      -5.085  -1.472  -3.734  1.00  0.00     0.063 A 
ATOM      4  C   UNL     1      -3.803  -0.920  -3.681  1.00  0.00     0.019 A 
ATOM      5  C   UNL     1      -6.052  -0.901  -4.565  1.00  0.00     0.065 A 
ATOM      6  C   UNL     1      -3.493   0.181  -4.451  1.00  0.00     0.044 A 
ATOM      7  C   UNL     1      -4.452   0.742  -5.279  1.00  0.00     0.165 A 
ATOM      8  F   UNL     1      -4.143   1.821  -6.031  1.00  0.00    -0.203 F 
BRANCH   3   9
ATOM      9  C   UNL     1      -5.420  -2.650  -2.910  1.00  0.00     0.335 C 
ATOM     10  O   UNL     1      -5.309  -2.599  -1.702  1.00  0.00    -0.246 OA
BRANCH   9  11
ATOM     11  O   UNL     1      -5.853  -3.782  -3.499  1.00  0.00    -0.478 OA
ATOM     12  H   UNL     1      -6.769  -3.792  -3.811  1.00  0.00     0.297 HD
ENDBRANCH   9  11
ENDBRANCH   3   9
ENDBRANCH   1   2
BRANCH   1  13
ATOM     13  C   UNL     1      -7.607   1.657  -5.538  1.00  0.00     0.230 C 
BRANCH  13  14
ATOM     14  C   UNL     1      -8.628   2.108  -6.583  1.00  0.00     0.046 C 
BRANCH  14  15
ATOM     15  C   UNL     1      -9.052   0.909  -7.434  1.00  0.00     0.043 C 
BRANCH  15  16
ATOM     16  C   UNL     1     -10.275   1.269  -8.237  1.00  0.00    -0.004 A 
ATOM     17  C   UNL     1     -10.284   1.881  -9.444  1.00  0.00     0.036 A 
ATOM     18  C   UNL     1     -11.603   1.024  -7.870  1.00  0.00     0.063 A 
ATOM     19  N   UNL     1     -11.571   2.024  -9.824  1.00  0.00    -0.282 N 
ATOM     20  N   UNL     1     -12.380   1.482  -8.817  1.00  0.00    -0.181 NA
ATOM     21  C   UNL     1      -9.073   2.323 -10.224  1.00  0.00     0.066 C 
ATOM     22  C   UNL     1     -12.059   0.358  -6.597  1.00  0.00     0.069 C 
ATOM     23  H   UNL     1     -11.881   2.431 -10.648  1.00  0.00     0.190 HD
ENDBRANCH  15  16
ENDBRANCH  14  15
ENDBRANCH  13  14
ENDBRANCH   1  13
TORSDOF 7
ENDMDL
MODEL 4
REMARK VINA RESULT:    -4.087      2.722      4.162
REMARK INTER + INTRA:          -6.247
REMARK INTER:                  -5.652
REMARK INTRA:                  -0.595
REMARK UNBOUND:                -0.607
REMARK SMILES Cc1n[nH]c(C)c1CCCOc1cc(C(=O)O)ccc1F
REMARK SMILES IDX 11 1 12 2 14 3 18 4 13 5 19 6 20 7 21 8 15 9 16 10 17 11
REMARK SMILES IDX 10 13 9 14 8 15 7 16 5 17 2 18 4 19 3 20 6 21 1 22
REMARK H PARENT 17 12 4 23
ROOT
ATOM      1  O   UNL     1      -9.455   1.573  -7.550  1.00  0.00    -0.490 OA
ENDROOT
BRANCH   1   2
ATOM      2  C   UNL     1      -8.439   1.233  -6.713  1.00  0.00     0.155 A 
ATOM      3  C   UNL     1      -6.953  -0.422  -5.798  1.00  0.00     0.063 A 
ATOM      4  C   UNL     1      -6.355   0.560  -5.003  1.00  0.00     0.019 A 
ATOM      5  C   UNL     1      -8.000  -0.077  -6.655  1.00  0.00     0.065 A 
ATOM      6  C   UNL     1      -6.796   1.865  -5.072  1.00  0.00     0.044 A 
ATOM      7  C   UNL     1      -7.832   2.206  -5.927  1.00  0.00     0.165 A 
ATOM      8  F   UNL     1      -8.259   3.486  -5.990  1.00  0.00    -0.203 F 
BRANCH   3   9
ATOM      9  C   UNL     1      -6.484  -1.819  -5.727  1.00  0.00     0.335 C 
ATOM     10  O   UNL     1      -6.065  -2.267  -4.679  1.00  0.00    -0.246 OA
BRANCH   9  11
ATOM     11  O   UNL     1      -6.526  -2.600  -6.825  1.00  0.00    -0.478 OA
ATOM     12  H   UNL     1      -6.870  -3.498  -6.712  1.00  0.00     0.297 HD
ENDBRANCH   9  11
ENDBRANCH   3   9
ENDBRANCH   1   2
BRANCH   1  13
ATOM     13  C   UNL     1      -9.253   1.335  -8.945  1.00  0.00     0.230 C 
BRANCH  13  14
ATOM     14  C   UNL     1     -10.285   2.127  -9.751  1.00  0.00     0.046 C 
BRANCH  14  15
ATOM     15  C   UNL     1      -9.566   3.001 -10.781  1.00  0.00     0.043 C 
BRANCH  15  16
ATOM     16  C   UNL     1     -10.303   2.942 -12.093  1.00  0.00    -0.004 A 
ATOM     17  C   UNL     1     -10.029   2.109 -13.124  1.00  0.00     0.036 A 
ATOM     18  C   UNL     1     -11.396   3.735 -12.460  1.00  0.00     0.063 A 
ATOM     19  N   UNL     1     -10.913   2.370 -14.110  1.00  0.00    -0.282 N 
ATOM     20  N   UNL     1     -11.758   3.397 -13.671  1.00  0.00    -0.181 NA
ATOM     21  C   UNL     1      -8.934   1.075 -13.163  1.00  0.00     0.066 C 
ATOM     22  C   UNL     1     -12.038   4.802 -11.611  1.00  0.00     0.069 C 
ATOM     23  H   UNL     1     -10.955   1.925 -14.971  1.00  0.00     0.190 HD
ENDBRANCH  15  16
ENDBRANCH  14  15
ENDBRANCH  13  14
ENDBRANCH   1  13
TORSDOF 7
ENDMDL
MODEL 5
REMARK VINA RESULT:    -4.075      2.116      3.070
REMARK INTER + INTRA:          -6.231
REMARK INTER:                  -5.755
REMARK INTRA:                  -0.476
REMARK UNBOUND:                -0.607
REMARK SMILES Cc1n[nH]c(C)c1CCCOc1cc(C(=O)O)ccc1F
REMARK SMILES IDX 11 1 12 2 14 3 18 4 13 5 19 6 20 7 21 8 15 9 16 10 17 11
REMARK SMILES IDX 10 13 9 14 8 15 7 16 5 17 2 18 4 19 3 20 6 21 1 22
REMARK H PARENT 17 12 4 23
ROOT
ATOM      1  O   UNL     1      -6.535  -1.692  -6.544  1.00  0.00    -0.490 OA
ENDROOT
BRANCH   1   2
ATOM      2  C   UNL     1      -5.697  -1.284  -5.554  1.00  0.00     0.155 A 
ATOM      3  C   UNL     1      -3.975   0.191  -4.752  1.00  0.00     0.063 A 
ATOM      4  C   UNL     1      -4.001  -0.458  -3.515  1.00  0.00     0.019 A 
ATOM      5  C   UNL     1      -4.830  -0.229  -5.773  1.00  0.00     0.065 A 
ATOM      6  C   UNL     1      -4.873  -1.505  -3.304  1.00  0.00     0.044 A 
ATOM      7  C   UNL     1      -5.724  -1.917  -4.316  1.00  0.00     0.165 A 
ATOM      8  F   UNL     1      -6.576  -2.943  -4.103  1.00  0.00    -0.203 F 
BRANCH   3   9
ATOM      9  C   UNL     1      -3.043   1.312  -4.982  1.00  0.00     0.335 C 
ATOM     10  O   UNL     1      -1.931   1.098  -5.418  1.00  0.00    -0.246 OA
BRANCH   9  11
ATOM     11  O   UNL     1      -3.430   2.575  -4.712  1.00  0.00    -0.478 OA
ATOM     12  H   UNL     1      -4.370   2.777  -4.813  1.00  0.00     0.297 HD
ENDBRANCH   9  11
ENDBRANCH   3   9
ENDBRANCH   1   2
BRANCH   1  13
ATOM     13  C   UNL     1      -7.884  -1.222  -6.487  1.00  0.00     0.230 C 
BRANCH  13  14
ATOM     14  C   UNL     1      -8.092  -0.144  -7.552  1.00  0.00     0.046 C 
BRANCH  14  15
ATOM     15  C   UNL     1      -8.903   1.010  -6.958  1.00  0.00     0.043 C 
BRANCH  15  16
ATOM     16  C   UNL     1     -10.166   1.202  -7.757  1.00  0.00    -0.004 A 
ATOM     17  C   UNL     1     -11.419   0.894  -7.351  1.00  0.00     0.036 A 
ATOM     18  C   UNL     1     -10.250   1.736  -9.047  1.00  0.00     0.063 A 
ATOM     19  N   UNL     1     -12.266   1.215  -8.351  1.00  0.00    -0.282 N 
ATOM     20  N   UNL     1     -11.508   1.738  -9.407  1.00  0.00    -0.181 NA
ATOM     21  C   UNL     1     -11.801   0.299  -6.020  1.00  0.00     0.066 C 
ATOM     22  C   UNL     1      -9.091   2.214  -9.883  1.00  0.00     0.069 C 
ATOM     23  H   UNL     1     -13.230   1.103  -8.341  1.00  0.00     0.190 HD
ENDBRANCH  15  16
ENDBRANCH  14  15
ENDBRANCH  13  14
ENDBRANCH   1  13
TORSDOF 7
ENDMDL
MODEL 6
REMARK VINA RESULT:    -3.965      4.616      8.560
REMARK INTER + INTRA:          -6.078
REMARK INTER:                  -5.767
REMARK INTRA:                  -0.311
REMARK UNBOUND:                -0.607
REMARK SMILES Cc1n[nH]c(C)c1CCCOc1cc(C(=O)O)ccc1F
REMARK SMILES IDX 11 1 12 2 14 3 18 4 13 5 19 6 20 7 21 8 15 9 16 10 17 11
REMARK SMILES IDX 10 13 9 14 8 15 7 16 5 17 2 18 4 19 3 20 6 21 1 22
REMARK H PARENT 17 12 4 23
ROOT
ATOM      1  O   UNL     1      -8.755   2.067  -9.646  1.00  0.00    -0.490 OA
ENDROOT
BRANCH   1   2
ATOM      2  C   UNL     1      -9.464   2.354 -10.771  1.00  0.00     0.155 A 
ATOM      3  C   UNL     1     -11.291   3.477 -11.857  1.00  0.00     0.063 A 
ATOM      4  C   UNL     1     -10.893   2.934 -13.081  1.00  0.00     0.019 A 
ATOM      5  C   UNL     1     -10.569   3.182 -10.699  1.00  0.00     0.065 A 
ATOM      6  C   UNL     1      -9.786   2.113 -13.143  1.00  0.00     0.044 A 
ATOM      7  C   UNL     1      -9.068   1.825 -11.995  1.00  0.00     0.165 A 
ATOM      8  F   UNL     1      -7.985   1.021 -12.062  1.00  0.00    -0.203 F 
BRANCH   3   9
ATOM      9  C   UNL     1     -12.475   4.356 -11.787  1.00  0.00     0.335 C 
ATOM     10  O   UNL     1     -12.589   5.285 -12.561  1.00  0.00    -0.246 OA
BRANCH   9  11
ATOM     11  O   UNL     1     -13.433   4.124 -10.868  1.00  0.00    -0.478 OA
ATOM     12  H   UNL     1     -13.868   3.260 -10.895  1.00  0.00     0.297 HD
ENDBRANCH   9  11
ENDBRANCH   3   9
ENDBRANCH   1   2
BRANCH   1  13
ATOM     13  C   UNL     1      -9.459   1.419  -8.583  1.00  0.00     0.230 C 
BRANCH  13  14
ATOM     14  C   UNL     1      -8.558   0.357  -7.950  1.00  0.00     0.046 C 
BRANCH  14  15
ATOM     15  C   UNL     1      -8.586   0.507  -6.428  1.00  0.00     0.043 C 
BRANCH  15  16
ATOM     16  C   UNL     1      -7.207   0.260  -5.873  1.00  0.00    -0.004 A 
ATOM     17  C   UNL     1      -6.437   1.164  -5.222  1.00  0.00     0.036 A 
ATOM     18  C   UNL     1      -6.497  -0.944  -5.935  1.00  0.00     0.063 A 
ATOM     19  N   UNL     1      -5.280   0.554  -4.889  1.00  0.00    -0.282 N 
ATOM     20  N   UNL     1      -5.340  -0.767  -5.351  1.00  0.00    -0.181 NA
ATOM     21  C   UNL     1      -6.807   2.593  -4.922  1.00  0.00     0.066 C 
ATOM     22  C   UNL     1      -6.979  -2.221  -6.574  1.00  0.00     0.069 C 
ATOM     23  H   UNL     1      -4.537   0.959  -4.415  1.00  0.00     0.190 HD
ENDBRANCH  15  16
ENDBRANCH  14  15
ENDBRANCH  13  14
ENDBRANCH   1  13
TORSDOF 7
ENDMDL
MODEL 7
REMARK VINA RESULT:    -3.919      4.415      8.305
REMARK INTER + INTRA:          -6.015
REMARK INTER:                  -5.331
REMARK INTRA:                  -0.684
REMARK UNBOUND:                -0.607
REMARK SMILES Cc1n[nH]c(C)c1CCCOc1cc(C(=O)O)ccc1F
REMARK SMILES IDX 11 1 12 2 14 3 18 4 13 5 19 6 20 7 21 8 15 9 16 10 17 11
REMARK SMILES IDX 10 13 9 14 8 15 7 16 5 17 2 18 4 19 3 20 6 21 1 22
REMARK H PARENT 17 12 4 23
ROOT
ATOM      1  O   UNL     1      -9.030   1.741  -9.045  1.00  0.00    -0.490 OA
ENDROOT
BRANCH   1   2
ATOM      2  C   UNL     1      -9.527   2.115 -10.254  1.00  0.00     0.155 A 
ATOM      3  C   UNL     1     -11.204   3.230 -11.567  1.00  0.00     0.063 A 
ATOM      4  C   UNL     1     -10.520   2.877 -12.734  1.00  0.00     0.019 A 
ATOM      5  C   UNL     1     -10.699   2.844 -10.324  1.00  0.00     0.065 A 
ATOM      6  C   UNL     1      -9.348   2.154 -12.653  1.00  0.00     0.044 A 
ATOM      7  C   UNL     1      -8.847   1.777 -11.419  1.00  0.00     0.165 A 
ATOM      8  F   UNL     1      -7.698   1.069 -11.347  1.00  0.00    -0.203 F 
BRANCH   3   9
ATOM      9  C   UNL     1     -12.458   4.004 -11.650  1.00  0.00     0.335 C 
ATOM     10  O   UNL     1     -12.622   4.802 -12.550  1.00  0.00    -0.246 OA
BRANCH   9  11
ATOM     11  O   UNL     1     -13.424   3.820 -10.729  1.00  0.00    -0.478 OA
ATOM     12  H   UNL     1     -13.153   3.824  -9.800  1.00  0.00     0.297 HD
ENDBRANCH   9  11
ENDBRANCH   3   9
ENDBRANCH   1   2
BRANCH   1  13
ATOM     13  C   UNL     1      -9.958   1.201  -8.100  1.00  0.00     0.230 C 
BRANCH  13  14
ATOM     14  C   UNL     1      -9.204   0.735  -6.854  1.00  0.00     0.046 C 
BRANCH  14  15
ATOM     15  C   UNL     1      -7.703   0.699  -7.150  1.00  0.00     0.043 C 
BRANCH  15  16
ATOM     16  C   UNL     1      -6.961   0.210  -5.933  1.00  0.00    -0.004 A 
ATOM     17  C   UNL     1      -6.606  -1.071  -5.678  1.00  0.00     0.036 A 
ATOM     18  C   UNL     1      -6.513   1.000  -4.870  1.00  0.00     0.063 A 
ATOM     19  N   UNL     1      -5.962  -1.091  -4.493  1.00  0.00    -0.282 N 
ATOM     20  N   UNL     1      -5.920   0.221  -4.003  1.00  0.00    -0.181 NA
ATOM     21  C   UNL     1      -6.881  -2.261  -6.560  1.00  0.00     0.066 C 
ATOM     22  C   UNL     1      -6.692   2.491  -4.739  1.00  0.00     0.069 C 
ATOM     23  H   UNL     1      -5.594  -1.875  -4.057  1.00  0.00     0.190 HD
ENDBRANCH  15  16
ENDBRANCH  14  15
ENDBRANCH  13  14
ENDBRANCH   1  13
TORSDOF 7
ENDMDL
MODEL 8
REMARK VINA RESULT:    -3.899      7.938     10.366
REMARK INTER + INTRA:          -5.987
REMARK INTER:                  -4.895
REMARK INTRA:                  -1.092
REMARK UNBOUND:                -0.607
REMARK SMILES Cc1n[nH]c(C)c1CCCOc1cc(C(=O)O)ccc1F
REMARK SMILES IDX 11 1 12 2 14 3 18 4 13 5 19 6 20 7 21 8 15 9 16 10 17 11
REMARK SMILES IDX 10 13 9 14 8 15 7 16 5 17 2 18 4 19 3 20 6 21 1 22
REMARK H PARENT 17 12 4 23
ROOT
ATOM      1  O   UNL     1     -11.234   2.564 -11.383  1.00  0.00    -0.490 OA
ENDROOT
BRANCH   1   2
ATOM      2  C   UNL     1     -11.828   3.713 -11.802  1.00  0.00     0.155 A 
ATOM      3  C   UNL     1     -11.808   6.105 -12.046  1.00  0.00     0.063 A 
ATOM      4  C   UNL     1     -13.055   6.048 -12.675  1.00  0.00     0.019 A 
ATOM      5  C   UNL     1     -11.197   4.928 -11.609  1.00  0.00     0.065 A 
ATOM      6  C   UNL     1     -13.674   4.831 -12.868  1.00  0.00     0.044 A 
ATOM      7  C   UNL     1     -13.064   3.664 -12.439  1.00  0.00     0.165 A 
ATOM      8  F   UNL     1     -13.676   2.475 -12.631  1.00  0.00    -0.203 F 
BRANCH   3   9
ATOM      9  C   UNL     1     -11.143   7.406 -11.838  1.00  0.00     0.335 C 
ATOM     10  O   UNL     1     -11.783   8.435 -11.913  1.00  0.00    -0.246 OA
BRANCH   9  11
ATOM     11  O   UNL     1      -9.825   7.451 -11.560  1.00  0.00    -0.478 OA
ATOM     12  H   UNL     1      -9.239   7.771 -12.260  1.00  0.00     0.297 HD
ENDBRANCH   9  11
ENDBRANCH   3   9
ENDBRANCH   1   2
BRANCH   1  13
ATOM     13  C   UNL     1      -9.807   2.566 -11.296  1.00  0.00     0.230 C 
BRANCH  13  14
ATOM     14  C   UNL     1      -9.237   1.532 -12.268  1.00  0.00     0.046 C 
BRANCH  14  15
ATOM     15  C   UNL     1      -9.044   2.176 -13.643  1.00  0.00     0.043 C 
BRANCH  15  16
ATOM     16  C   UNL     1     -10.050   1.608 -14.610  1.00  0.00    -0.004 A 
ATOM     17  C   UNL     1     -10.900   2.322 -15.385  1.00  0.00     0.036 A 
ATOM     18  C   UNL     1     -10.268   0.251 -14.869  1.00  0.00     0.063 A 
ATOM     19  N   UNL     1     -11.633   1.447 -16.105  1.00  0.00    -0.282 N 
ATOM     20  N   UNL     1     -11.221   0.153 -15.760  1.00  0.00    -0.181 NA
ATOM     21  C   UNL     1     -11.007   3.823 -15.436  1.00  0.00     0.066 C 
ATOM     22  C   UNL     1      -9.538  -0.900 -14.225  1.00  0.00     0.069 C 
ATOM     23  H   UNL     1     -12.324   1.673 -16.747  1.00  0.00     0.190 HD
ENDBRANCH  15  16
ENDBRANCH  14  15
ENDBRANCH  13  14
ENDBRANCH   1  13
TORSDOF 7
ENDMDL
MODEL 9
REMARK VINA RESULT:    -3.840      3.203      4.499
REMARK INTER + INTRA:          -5.906
REMARK INTER:                  -5.535
REMARK INTRA:                  -0.371
REMARK UNBOUND:                -0.607
REMARK SMILES Cc1n[nH]c(C)c1CCCOc1cc(C(=O)O)ccc1F
REMARK SMILES IDX 11 1 12 2 14 3 18 4 13 5 19 6 20 7 21 8 15 9 16 10 17 11
REMARK SMILES IDX 10 13 9 14 8 15 7 16 5 17 2 18 4 19 3 20 6 21 1 22
REMARK H PARENT 17 12 4 23
ROOT
ATOM      1  O   UNL     1      -9.594   0.381  -7.798  1.00  0.00    -0.490 OA
ENDROOT
BRANCH   1   2
ATOM      2  C   UNL     1      -8.498   0.065  -7.058  1.00  0.00     0.155 A 
ATOM      3  C   UNL     1      -6.709   0.721  -5.591  1.00  0.00     0.063 A 
ATOM      4  C   UNL     1      -6.268  -0.604  -5.543  1.00  0.00     0.019 A 
ATOM      5  C   UNL     1      -7.831   1.051  -6.354  1.00  0.00     0.065 A 
ATOM      6  C   UNL     1      -6.943  -1.581  -6.243  1.00  0.00     0.044 A 
ATOM      7  C   UNL     1      -8.058  -1.253  -6.996  1.00  0.00     0.165 A 
ATOM      8  F   UNL     1      -8.715  -2.215  -7.679  1.00  0.00    -0.203 F 
BRANCH   3   9
ATOM      9  C   UNL     1      -5.989   1.770  -4.842  1.00  0.00     0.335 C 
ATOM     10  O   UNL     1      -4.776   1.765  -4.804  1.00  0.00    -0.246 OA
BRANCH   9  11
ATOM     11  O   UNL     1      -6.679   2.737  -4.206  1.00  0.00    -0.478 OA
ATOM     12  H   UNL     1      -7.469   2.464  -3.717  1.00  0.00     0.297 HD
ENDBRANCH   9  11
ENDBRANCH   3   9
ENDBRANCH   1   2
BRANCH   1  13
ATOM     13  C   UNL     1      -9.591   1.653  -8.451  1.00  0.00     0.230 C 
BRANCH  13  14
ATOM     14  C   UNL     1      -9.525   1.448  -9.965  1.00  0.00     0.046 C 
BRANCH  14  15
ATOM     15  C   UNL     1      -9.376   2.804 -10.657  1.00  0.00     0.043 C 
BRANCH  15  16
ATOM     16  C   UNL     1     -10.182   2.811 -11.930  1.00  0.00    -0.004 A 
ATOM     17  C   UNL     1     -11.258   3.591 -12.187  1.00  0.00     0.036 A 
ATOM     18  C   UNL     1      -9.947   2.018 -13.058  1.00  0.00     0.063 A 
ATOM     19  N   UNL     1     -11.693   3.296 -13.430  1.00  0.00    -0.282 N 
ATOM     20  N   UNL     1     -10.856   2.302 -13.955  1.00  0.00    -0.181 NA
ATOM     21  C   UNL     1     -11.863   4.605 -11.252  1.00  0.00     0.066 C 
ATOM     22  C   UNL     1      -8.844   1.001 -13.209  1.00  0.00     0.069 C 
ATOM     23  H   UNL     1     -12.451   3.700 -13.880  1.00  0.00     0.190 HD
ENDBRANCH  15  16
ENDBRANCH  14  15
ENDBRANCH  13  14
ENDBRANCH   1  13
TORSDOF 7
ENDMDL
