MODEL 1
REMARK VINA RESULT:    -5.778      0.000      0.000
REMARK INTER + INTRA:          -8.547
REMARK INTER:                  -7.973
REMARK INTRA:                  -0.574
REMARK UNBOUND:                -0.574
REMARK SMILES Cc1n[nH]c(C)c1CCCOc1cc(C(=O)O)ccc1F
REMARK SMILES IDX 11 1 12 2 14 3 18 4 13 5 19 6 20 7 21 8 15 9 16 10 17 11
REMARK SMILES IDX 10 13 9 14 8 15 7 16 5 17 2 18 4 19 3 20 6 21 1 22
REMARK H PARENT 17 12 4 23
ROOT
ATOM      1  O   UNL     1       9.434   6.980  -1.931  1.00  0.00    -0.490 OA
ENDROOT
BRANCH   1   2
ATOM      2  C   UNL     1       8.824   5.872  -1.432  1.00  0.00     0.155 A 
ATOM      3  C   UNL     1       8.669   3.480  -1.242  1.00  0.00     0.063 A 
ATOM      4  C   UNL     1       7.568   3.623  -0.392  1.00  0.00     0.019 A 
ATOM      5  C   UNL     1       9.295   4.615  -1.761  1.00  0.00     0.065 A 
ATOM      6  C   UNL     1       7.109   4.881  -0.064  1.00  0.00     0.044 A 
ATOM      7  C   UNL     1       7.735   6.005  -0.577  1.00  0.00     0.165 A 
ATOM      8  F   UNL     1       7.280   7.235  -0.251  1.00  0.00    -0.203 F 
BRANCH   3   9
ATOM      9  C   UNL     1       9.163   2.135  -1.594  1.00  0.00     0.335 C 
ATOM     10  O   UNL     1       9.826   1.975  -2.599  1.00  0.00    -0.246 OA
BRANCH   9  11
ATOM     11  O   UNL     1       8.883   1.085  -0.797  1.00  0.00    -0.478 OA
ATOM     12  H   UNL     1       8.000   0.697  -0.876  1.00  0.00     0.297 HD
ENDBRANCH   9  11
ENDBRANCH   3   9
ENDBRANCH   1   2
BRANCH   1  13
ATOM     13  C   UNL     1      10.169   7.787  -1.008  1.00  0.00     0.230 C 
BRANCH  13  14
ATOM     14  C   UNL     1      11.646   7.799  -1.405  1.00  0.00     0.046 C 
BRANCH  14  15
ATOM     15  C   UNL     1      12.420   6.821  -0.517  1.00  0.00     0.043 C 
BRANCH  15  16
ATOM     16  C   UNL     1      13.856   7.264  -0.414  1.00  0.00    -0.004 A 
ATOM     17  C   UNL     1      14.842   6.981  -1.297  1.00  0.00     0.036 A 
ATOM     18  C   UNL     1      14.405   8.046   0.607  1.00  0.00     0.063 A 
ATOM     19  N   UNL     1      15.976   7.558  -0.847  1.00  0.00    -0.282 N 
ATOM     20  N   UNL     1      15.677   8.217   0.353  1.00  0.00    -0.181 NA
ATOM     21  C   UNL     1      14.699   6.168  -2.557  1.00  0.00     0.066 C 
ATOM     22  C   UNL     1      13.663   8.589   1.801  1.00  0.00     0.069 C 
ATOM     23  H   UNL     1      16.844   7.521  -1.277  1.00  0.00     0.190 HD
ENDBRANCH  15  16
ENDBRANCH  14  15
ENDBRANCH  13  14
ENDBRANCH   1  13
TORSDOF 7
ENDMDL
MODEL 2
REMARK VINA RESULT:    -5.741      0.234      1.779
REMARK INTER + INTRA:          -8.496
REMARK INTER:                  -7.854
REMARK INTRA:                  -0.643
REMARK UNBOUND:                -0.574
REMARK SMILES Cc1n[nH]c(C)c1CCCOc1cc(C(=O)O)ccc1F
REMARK SMILES IDX 11 1 12 2 14 3 18 4 13 5 19 6 20 7 21 8 15 9 16 10 17 11
REMARK SMILES IDX 10 13 9 14 8 15 7 16 5 17 2 18 4 19 3 20 6 21 1 22
REMARK H PARENT 17 12 4 23
ROOT
ATOM      1  O   UNL     1       9.597   6.914  -1.829  1.00  0.00    -0.490 OA
ENDROOT
BRANCH   1   2
ATOM      2  C   UNL     1       8.919   5.820  -1.389  1.00  0.00     0.155 A 
ATOM      3  C   UNL     1       8.675   3.432  -1.249  1.00  0.00     0.063 A 
ATOM      4  C   UNL     1       7.525   3.598  -0.473  1.00  0.00     0.019 A 
ATOM      5  C   UNL     1       9.371   4.553  -1.707  1.00  0.00     0.065 A 
ATOM      6  C   UNL     1       7.085   4.866  -0.157  1.00  0.00     0.044 A 
ATOM      7  C   UNL     1       7.780   5.977  -0.607  1.00  0.00     0.165 A 
ATOM      8  F   UNL     1       7.344   7.216  -0.294  1.00  0.00    -0.203 F 
BRANCH   3   9
ATOM      9  C   UNL     1       9.149   2.076  -1.590  1.00  0.00     0.335 C 
ATOM     10  O   UNL     1       9.792   1.894  -2.603  1.00  0.00    -0.246 OA
BRANCH   9  11
ATOM     11  O   UNL     1       8.873   1.041  -0.772  1.00  0.00    -0.478 OA
ATOM     12  H   UNL     1       9.322   0.204  -0.955  1.00  0.00     0.297 HD
ENDBRANCH   9  11
ENDBRANCH   3   9
ENDBRANCH   1   2
BRANCH   1  13
ATOM     13  C   UNL     1      10.399   7.608  -0.870  1.00  0.00     0.230 C 
BRANCH  13  14
ATOM     14  C   UNL     1      11.850   7.646  -1.352  1.00  0.00     0.046 C 
BRANCH  14  15
ATOM     15  C   UNL     1      12.708   6.746  -0.459  1.00  0.00     0.043 C 
BRANCH  15  16
ATOM     16  C   UNL     1      14.078   7.352  -0.302  1.00  0.00    -0.004 A 
ATOM     17  C   UNL     1      14.477   8.171   0.699  1.00  0.00     0.036 A 
ATOM     18  C   UNL     1      15.165   7.163  -1.162  1.00  0.00     0.063 A 
ATOM     19  N   UNL     1      15.768   8.494   0.476  1.00  0.00    -0.282 N 
ATOM     20  N   UNL     1      16.177   7.852  -0.700  1.00  0.00    -0.181 NA
ATOM     21  C   UNL     1      13.630   8.639   1.854  1.00  0.00     0.066 C 
ATOM     22  C   UNL     1      15.167   6.320  -2.411  1.00  0.00     0.069 C 
ATOM     23  H   UNL     1      16.316   9.069   1.032  1.00  0.00     0.190 HD
ENDBRANCH  15  16
ENDBRANCH  14  15
ENDBRANCH  13  14
ENDBRANCH   1  13
TORSDOF 7
ENDMDL
MODEL 3
REMARK VINA RESULT:    -5.726      2.127      3.757
REMARK INTER + INTRA:          -8.475
REMARK INTER:                  -7.841
REMARK INTRA:                  -0.634
REMARK UNBOUND:                -0.574
REMARK SMILES Cc1n[nH]c(C)c1CCCOc1cc(C(=O)O)ccc1F
REMARK SMILES IDX 11 1 12 2 14 3 18 4 13 5 19 6 20 7 21 8 15 9 16 10 17 11
REMARK SMILES IDX 10 13 9 14 8 15 7 16 5 17 2 18 4 19 3 20 6 21 1 22
REMARK H PARENT 17 12 4 23
ROOT
ATOM      1  O   UNL     1      11.053   4.289  -1.006  1.00  0.00    -0.490 OA
ENDROOT
BRANCH   1   2
ATOM      2  C   UNL     1       9.705   4.312  -0.832  1.00  0.00     0.155 A 
ATOM      3  C   UNL     1       7.701   5.477  -0.193  1.00  0.00     0.063 A 
ATOM      4  C   UNL     1       6.948   4.339  -0.493  1.00  0.00     0.019 A 
ATOM      5  C   UNL     1       9.087   5.457  -0.365  1.00  0.00     0.065 A 
ATOM      6  C   UNL     1       7.572   3.204  -0.964  1.00  0.00     0.044 A 
ATOM      7  C   UNL     1       8.946   3.187  -1.139  1.00  0.00     0.165 A 
ATOM      8  F   UNL     1       9.552   2.071  -1.601  1.00  0.00    -0.203 F 
BRANCH   3   9
ATOM      9  C   UNL     1       7.035   6.695   0.311  1.00  0.00     0.335 C 
ATOM     10  O   UNL     1       7.387   7.188   1.363  1.00  0.00    -0.246 OA
BRANCH   9  11
ATOM     11  O   UNL     1       6.041   7.261  -0.400  1.00  0.00    -0.478 OA
ATOM     12  H   UNL     1       5.188   6.805  -0.404  1.00  0.00     0.297 HD
ENDBRANCH   9  11
ENDBRANCH   3   9
ENDBRANCH   1   2
BRANCH   1  13
ATOM     13  C   UNL     1      11.847   3.929   0.127  1.00  0.00     0.230 C 
BRANCH  13  14
ATOM     14  C   UNL     1      13.139   4.748   0.125  1.00  0.00     0.046 C 
BRANCH  14  15
ATOM     15  C   UNL     1      12.910   6.059  -0.631  1.00  0.00     0.043 C 
BRANCH  15  16
ATOM     16  C   UNL     1      14.186   6.860  -0.647  1.00  0.00    -0.004 A 
ATOM     17  C   UNL     1      14.558   7.783   0.270  1.00  0.00     0.036 A 
ATOM     18  C   UNL     1      15.199   6.777  -1.608  1.00  0.00     0.063 A 
ATOM     19  N   UNL     1      15.760   8.271  -0.101  1.00  0.00    -0.282 N 
ATOM     20  N   UNL     1      16.139   7.627  -1.286  1.00  0.00    -0.181 NA
ATOM     21  C   UNL     1      13.771   8.192   1.488  1.00  0.00     0.066 C 
ATOM     22  C   UNL     1      15.200   5.872  -2.814  1.00  0.00     0.069 C 
ATOM     23  H   UNL     1      16.271   8.949   0.368  1.00  0.00     0.190 HD
ENDBRANCH  15  16
ENDBRANCH  14  15
ENDBRANCH  13  14
ENDBRANCH   1  13
TORSDOF 7
ENDMDL
MODEL 4
REMARK VINA RESULT:    -5.659      2.140      3.320
REMARK INTER + INTRA:          -8.382
REMARK INTER:                  -7.736
REMARK INTRA:                  -0.647
REMARK UNBOUND:                -0.574
REMARK SMILES Cc1n[nH]c(C)c1CCCOc1cc(C(=O)O)ccc1F
REMARK SMILES IDX 11 1 12 2 14 3 18 4 13 5 19 6 20 7 21 8 15 9 16 10 17 11
REMARK SMILES IDX 10 13 9 14 8 15 7 16 5 17 2 18 4 19 3 20 6 21 1 22
REMARK H PARENT 17 12 4 23
ROOT
ATOM      1  O   UNL     1      11.167   4.502  -1.023  1.00  0.00    -0.490 OA
ENDROOT
BRANCH   1   2
ATOM      2  C   UNL     1       9.818   4.462  -0.857  1.00  0.00     0.155 A 
ATOM      3  C   UNL     1       7.761   5.533  -0.219  1.00  0.00     0.063 A 
ATOM      4  C   UNL     1       7.061   4.365  -0.534  1.00  0.00     0.019 A 
ATOM      5  C   UNL     1       9.147   5.575  -0.384  1.00  0.00     0.065 A 
ATOM      6  C   UNL     1       7.738   3.262  -1.011  1.00  0.00     0.044 A 
ATOM      7  C   UNL     1       9.112   3.308  -1.178  1.00  0.00     0.165 A 
ATOM      8  F   UNL     1       9.769   2.225  -1.645  1.00  0.00    -0.203 F 
BRANCH   3   9
ATOM      9  C   UNL     1       7.039   6.715   0.291  1.00  0.00     0.335 C 
ATOM     10  O   UNL     1       7.343   7.196   1.363  1.00  0.00    -0.246 OA
BRANCH   9  11
ATOM     11  O   UNL     1       6.047   7.264  -0.437  1.00  0.00    -0.478 OA
ATOM     12  H   UNL     1       5.305   6.689  -0.673  1.00  0.00     0.297 HD
ENDBRANCH   9  11
ENDBRANCH   3   9
ENDBRANCH   1   2
BRANCH   1  13
ATOM     13  C   UNL     1      11.969   4.055   0.074  1.00  0.00     0.230 C 
BRANCH  13  14
ATOM     14  C   UNL     1      13.265   4.865   0.120  1.00  0.00     0.046 C 
BRANCH  14  15
ATOM     15  C   UNL     1      13.090   6.154  -0.686  1.00  0.00     0.043 C 
BRANCH  15  16
ATOM     16  C   UNL     1      14.418   6.855  -0.809  1.00  0.00    -0.004 A 
ATOM     17  C   UNL     1      15.325   6.675  -1.797  1.00  0.00     0.036 A 
ATOM     18  C   UNL     1      14.929   7.812   0.074  1.00  0.00     0.063 A 
ATOM     19  N   UNL     1      16.375   7.484  -1.545  1.00  0.00    -0.282 N 
ATOM     20  N   UNL     1      16.105   8.185  -0.362  1.00  0.00    -0.181 NA
ATOM     21  C   UNL     1      15.187   5.739  -2.970  1.00  0.00     0.066 C 
ATOM     22  C   UNL     1      14.247   8.318   1.320  1.00  0.00     0.069 C 
ATOM     23  H   UNL     1      17.176   7.565  -2.085  1.00  0.00     0.190 HD
ENDBRANCH  15  16
ENDBRANCH  14  15
ENDBRANCH  13  14
ENDBRANCH   1  13
TORSDOF 7
ENDMDL
MODEL 5
REMARK VINA RESULT:    -4.819      3.802      6.554
REMARK INTER + INTRA:          -7.224
REMARK INTER:                  -6.365
REMARK INTRA:                  -0.859
REMARK UNBOUND:                -0.574
REMARK SMILES Cc1n[nH]c(C)c1CCCOc1cc(C(=O)O)ccc1F
REMARK SMILES IDX 11 1 12 2 14 3 18 4 13 5 19 6 20 7 21 8 15 9 16 10 17 11
REMARK SMILES IDX 10 13 9 14 8 15 7 16 5 17 2 18 4 19 3 20 6 21 1 22
REMARK H PARENT 17 12 4 23
ROOT
ATOM      1  O   UNL     1      11.244   6.697   0.236  1.00  0.00    -0.490 OA
ENDROOT
BRANCH   1   2
ATOM      2  C   UNL     1      12.545   6.933  -0.078  1.00  0.00     0.155 A 
ATOM      3  C   UNL     1      14.413   6.675  -1.571  1.00  0.00     0.063 A 
ATOM      4  C   UNL     1      15.204   7.435  -0.706  1.00  0.00     0.019 A 
ATOM      5  C   UNL     1      13.077   6.426  -1.249  1.00  0.00     0.065 A 
ATOM      6  C   UNL     1      14.664   7.941   0.458  1.00  0.00     0.044 A 
ATOM      7  C   UNL     1      13.337   7.697   0.772  1.00  0.00     0.165 A 
ATOM      8  F   UNL     1      12.814   8.196   1.913  1.00  0.00    -0.203 F 
BRANCH   3   9
ATOM      9  C   UNL     1      14.988   6.132  -2.817  1.00  0.00     0.335 C 
ATOM     10  O   UNL     1      15.504   5.033  -2.820  1.00  0.00    -0.246 OA
BRANCH   9  11
ATOM     11  O   UNL     1      14.934   6.854  -3.954  1.00  0.00    -0.478 OA
ATOM     12  H   UNL     1      14.977   6.364  -4.787  1.00  0.00     0.297 HD
ENDBRANCH   9  11
ENDBRANCH   3   9
ENDBRANCH   1   2
BRANCH   1  13
ATOM     13  C   UNL     1      10.299   6.743  -0.836  1.00  0.00     0.230 C 
BRANCH  13  14
ATOM     14  C   UNL     1       8.932   6.279  -0.331  1.00  0.00     0.046 C 
BRANCH  14  15
ATOM     15  C   UNL     1       9.118   5.121   0.653  1.00  0.00     0.043 C 
BRANCH  15  16
ATOM     16  C   UNL     1       9.149   3.819  -0.104  1.00  0.00    -0.004 A 
ATOM     17  C   UNL     1      10.220   3.002  -0.239  1.00  0.00     0.036 A 
ATOM     18  C   UNL     1       8.075   3.236  -0.785  1.00  0.00     0.063 A 
ATOM     19  N   UNL     1       9.839   1.944  -0.985  1.00  0.00    -0.282 N 
ATOM     20  N   UNL     1       8.489   2.116  -1.319  1.00  0.00    -0.181 NA
ATOM     21  C   UNL     1      11.592   3.233   0.340  1.00  0.00     0.066 C 
ATOM     22  C   UNL     1       6.684   3.807  -0.895  1.00  0.00     0.069 C 
ATOM     23  H   UNL     1      10.400   1.197  -1.244  1.00  0.00     0.190 HD
ENDBRANCH  15  16
ENDBRANCH  14  15
ENDBRANCH  13  14
ENDBRANCH   1  13
TORSDOF 7
ENDMDL
MODEL 6
REMARK VINA RESULT:    -4.818      3.932      7.027
REMARK INTER + INTRA:          -7.223
REMARK INTER:                  -6.413
REMARK INTRA:                  -0.810
REMARK UNBOUND:                -0.574
REMARK SMILES Cc1n[nH]c(C)c1CCCOc1cc(C(=O)O)ccc1F
REMARK SMILES IDX 11 1 12 2 14 3 18 4 13 5 19 6 20 7 21 8 15 9 16 10 17 11
REMARK SMILES IDX 10 13 9 14 8 15 7 16 5 17 2 18 4 19 3 20 6 21 1 22
REMARK H PARENT 17 12 4 23
ROOT
ATOM      1  O   UNL     1      11.882   5.291  -1.314  1.00  0.00    -0.490 OA
ENDROOT
BRANCH   1   2
ATOM      2  C   UNL     1      12.926   6.091  -0.968  1.00  0.00     0.155 A 
ATOM      3  C   UNL     1      13.959   7.628   0.565  1.00  0.00     0.063 A 
ATOM      4  C   UNL     1      15.074   7.710  -0.274  1.00  0.00     0.019 A 
ATOM      5  C   UNL     1      12.883   6.812   0.210  1.00  0.00     0.065 A 
ATOM      6  C   UNL     1      15.110   6.982  -1.445  1.00  0.00     0.044 A 
ATOM      7  C   UNL     1      14.043   6.169  -1.792  1.00  0.00     0.165 A 
ATOM      8  F   UNL     1      14.085   5.458  -2.940  1.00  0.00    -0.203 F 
BRANCH   3   9
ATOM      9  C   UNL     1      13.917   8.406   1.819  1.00  0.00     0.335 C 
ATOM     10  O   UNL     1      13.382   9.495   1.840  1.00  0.00    -0.246 OA
BRANCH   9  11
ATOM     11  O   UNL     1      14.468   7.904   2.941  1.00  0.00    -0.478 OA
ATOM     12  H   UNL     1      13.888   7.397   3.526  1.00  0.00     0.297 HD
ENDBRANCH   9  11
ENDBRANCH   3   9
ENDBRANCH   1   2
BRANCH   1  13
ATOM     13  C   UNL     1      11.317   4.479  -0.282  1.00  0.00     0.230 C 
BRANCH  13  14
ATOM     14  C   UNL     1      10.094   3.740  -0.828  1.00  0.00     0.046 C 
BRANCH  14  15
ATOM     15  C   UNL     1       9.377   4.626  -1.850  1.00  0.00     0.043 C 
BRANCH  15  16
ATOM     16  C   UNL     1       8.376   5.502  -1.143  1.00  0.00    -0.004 A 
ATOM     17  C   UNL     1       7.248   5.083  -0.524  1.00  0.00     0.036 A 
ATOM     18  C   UNL     1       8.452   6.892  -1.004  1.00  0.00     0.063 A 
ATOM     19  N   UNL     1       6.628   6.170  -0.018  1.00  0.00    -0.282 N 
ATOM     20  N   UNL     1       7.402   7.294  -0.336  1.00  0.00    -0.181 NA
ATOM     21  C   UNL     1       6.769   3.658  -0.419  1.00  0.00     0.066 C 
ATOM     22  C   UNL     1       9.549   7.775  -1.542  1.00  0.00     0.069 C 
ATOM     23  H   UNL     1       5.795   6.172   0.478  1.00  0.00     0.190 HD
ENDBRANCH  15  16
ENDBRANCH  14  15
ENDBRANCH  13  14
ENDBRANCH   1  13
TORSDOF 7
ENDMDL
MODEL 7
REMARK VINA RESULT:    -4.726      3.898      7.038
REMARK INTER + INTRA:          -7.095
REMARK INTER:                  -6.252
REMARK INTRA:                  -0.843
REMARK UNBOUND:                -0.574
REMARK SMILES Cc1n[nH]c(C)c1CCCOc1cc(C(=O)O)ccc1F
REMARK SMILES IDX 11 1 12 2 14 3 18 4 13 5 19 6 20 7 21 8 15 9 16 10 17 11
REMARK SMILES IDX 10 13 9 14 8 15 7 16 5 17 2 18 4 19 3 20 6 21 1 22
REMARK H PARENT 17 12 4 23
ROOT
ATOM      1  O   UNL     1      11.834   5.222  -1.409  1.00  0.00    -0.490 OA
ENDROOT
BRANCH   1   2
ATOM      2  C   UNL     1      12.881   6.020  -1.068  1.00  0.00     0.155 A 
ATOM      3  C   UNL     1      13.924   7.557   0.459  1.00  0.00     0.063 A 
ATOM      4  C   UNL     1      15.034   7.636  -0.386  1.00  0.00     0.019 A 
ATOM      5  C   UNL     1      12.845   6.742   0.110  1.00  0.00     0.065 A 
ATOM      6  C   UNL     1      15.064   6.907  -1.556  1.00  0.00     0.044 A 
ATOM      7  C   UNL     1      13.994   6.096  -1.897  1.00  0.00     0.165 A 
ATOM      8  F   UNL     1      14.030   5.384  -3.045  1.00  0.00    -0.203 F 
BRANCH   3   9
ATOM      9  C   UNL     1      13.889   8.336   1.712  1.00  0.00     0.335 C 
ATOM     10  O   UNL     1      14.314   7.851   2.741  1.00  0.00    -0.246 OA
BRANCH   9  11
ATOM     11  O   UNL     1      13.392   9.588   1.713  1.00  0.00    -0.478 OA
ATOM     12  H   UNL     1      12.526   9.717   2.125  1.00  0.00     0.297 HD
ENDBRANCH   9  11
ENDBRANCH   3   9
ENDBRANCH   1   2
BRANCH   1  13
ATOM     13  C   UNL     1      11.213   4.481  -0.355  1.00  0.00     0.230 C 
BRANCH  13  14
ATOM     14  C   UNL     1       9.980   3.757  -0.899  1.00  0.00     0.046 C 
BRANCH  14  15
ATOM     15  C   UNL     1       9.192   4.704  -1.807  1.00  0.00     0.043 C 
BRANCH  15  16
ATOM     16  C   UNL     1       8.286   5.568  -0.968  1.00  0.00    -0.004 A 
ATOM     17  C   UNL     1       8.397   6.906  -0.796  1.00  0.00     0.036 A 
ATOM     18  C   UNL     1       7.178   5.130  -0.235  1.00  0.00     0.063 A 
ATOM     19  N   UNL     1       7.398   7.299   0.022  1.00  0.00    -0.282 N 
ATOM     20  N   UNL     1       6.650   6.165   0.364  1.00  0.00    -0.181 NA
ATOM     21  C   UNL     1       9.446   7.796  -1.409  1.00  0.00     0.066 C 
ATOM     22  C   UNL     1       6.686   3.708  -0.142  1.00  0.00     0.069 C 
ATOM     23  H   UNL     1       7.229   8.206   0.321  1.00  0.00     0.190 HD
ENDBRANCH  15  16
ENDBRANCH  14  15
ENDBRANCH  13  14
ENDBRANCH   1  13
TORSDOF 7
ENDMDL
MODEL 8
REMARK VINA RESULT:    -4.495      3.976      7.006
REMARK INTER + INTRA:          -6.776
REMARK INTER:                  -5.891
REMARK INTRA:                  -0.886
REMARK UNBOUND:                -0.574
REMARK SMILES Cc1n[nH]c(C)c1CCCOc1cc(C(=O)O)ccc1F
REMARK SMILES IDX 11 1 12 2 14 3 18 4 13 5 19 6 20 7 21 8 15 9 16 10 17 11
REMARK SMILES IDX 10 13 9 14 8 15 7 16 5 17 2 18 4 19 3 20 6 21 1 22
REMARK H PARENT 17 12 4 23
ROOT
ATOM      1  O   UNL     1      11.396   6.360  -1.278  1.00  0.00    -0.490 OA
ENDROOT
BRANCH   1   2
ATOM      2  C   UNL     1      12.576   6.834  -0.797  1.00  0.00     0.155 A 
ATOM      3  C   UNL     1      13.838   7.923   0.936  1.00  0.00     0.063 A 
ATOM      4  C   UNL     1      14.999   7.787   0.171  1.00  0.00     0.019 A 
ATOM      5  C   UNL     1      12.623   7.442   0.444  1.00  0.00     0.065 A 
ATOM      6  C   UNL     1      14.944   7.174  -1.063  1.00  0.00     0.044 A 
ATOM      7  C   UNL     1      13.738   6.693  -1.547  1.00  0.00     0.165 A 
ATOM      8  F   UNL     1      13.691   6.094  -2.757  1.00  0.00    -0.203 F 
BRANCH   3   9
ATOM      9  C   UNL     1      13.894   8.578   2.258  1.00  0.00     0.335 C 
ATOM     10  O   UNL     1      12.868   8.813   2.863  1.00  0.00    -0.246 OA
BRANCH   9  11
ATOM     11  O   UNL     1      15.085   8.909   2.795  1.00  0.00    -0.478 OA
ATOM     12  H   UNL     1      15.725   8.194   2.917  1.00  0.00     0.297 HD
ENDBRANCH   9  11
ENDBRANCH   3   9
ENDBRANCH   1   2
BRANCH   1  13
ATOM     13  C   UNL     1      10.232   7.155  -1.040  1.00  0.00     0.230 C 
BRANCH  13  14
ATOM     14  C   UNL     1       8.997   6.254  -1.009  1.00  0.00     0.046 C 
BRANCH  14  15
ATOM     15  C   UNL     1       9.087   5.305   0.187  1.00  0.00     0.043 C 
BRANCH  15  16
ATOM     16  C   UNL     1       9.108   3.880  -0.301  1.00  0.00    -0.004 A 
ATOM     17  C   UNL     1       8.060   3.203  -0.827  1.00  0.00     0.036 A 
ATOM     18  C   UNL     1      10.214   3.024  -0.297  1.00  0.00     0.063 A 
ATOM     19  N   UNL     1       8.488   1.961  -1.139  1.00  0.00    -0.282 N 
ATOM     20  N   UNL     1       9.842   1.872  -0.792  1.00  0.00    -0.181 NA
ATOM     21  C   UNL     1       6.667   3.739  -1.029  1.00  0.00     0.066 C 
ATOM     22  C   UNL     1      11.595   3.367   0.203  1.00  0.00     0.069 C 
ATOM     23  H   UNL     1       7.952   1.255  -1.531  1.00  0.00     0.190 HD
ENDBRANCH  15  16
ENDBRANCH  14  15
ENDBRANCH  13  14
ENDBRANCH   1  13
TORSDOF 7
ENDMDL
MODEL 9
REMARK VINA RESULT:    -4.474      3.820      6.742
REMARK INTER + INTRA:          -6.748
REMARK INTER:                  -6.156
REMARK INTRA:                  -0.592
REMARK UNBOUND:                -0.574
REMARK SMILES Cc1n[nH]c(C)c1CCCOc1cc(C(=O)O)ccc1F
REMARK SMILES IDX 11 1 12 2 14 3 18 4 13 5 19 6 20 7 21 8 15 9 16 10 17 11
REMARK SMILES IDX 10 13 9 14 8 15 7 16 5 17 2 18 4 19 3 20 6 21 1 22
REMARK H PARENT 17 12 4 23
ROOT
ATOM      1  O   UNL     1      11.511   5.237  -1.392  1.00  0.00    -0.490 OA
ENDROOT
BRANCH   1   2
ATOM      2  C   UNL     1      12.583   5.991  -1.032  1.00  0.00     0.155 A 
ATOM      3  C   UNL     1      14.823   6.766  -1.442  1.00  0.00     0.063 A 
ATOM      4  C   UNL     1      14.760   7.547  -0.285  1.00  0.00     0.019 A 
ATOM      5  C   UNL     1      13.725   5.986  -1.812  1.00  0.00     0.065 A 
ATOM      6  C   UNL     1      13.615   7.550   0.483  1.00  0.00     0.044 A 
ATOM      7  C   UNL     1      12.526   6.780   0.112  1.00  0.00     0.165 A 
ATOM      8  F   UNL     1      11.407   6.788   0.869  1.00  0.00    -0.203 F 
BRANCH   3   9
ATOM      9  C   UNL     1      16.047   6.760  -2.267  1.00  0.00     0.335 C 
ATOM     10  O   UNL     1      17.025   7.382  -1.907  1.00  0.00    -0.246 OA
BRANCH   9  11
ATOM     11  O   UNL     1      16.080   6.058  -3.417  1.00  0.00    -0.478 OA
ATOM     12  H   UNL     1      15.230   5.790  -3.793  1.00  0.00     0.297 HD
ENDBRANCH   9  11
ENDBRANCH   3   9
ENDBRANCH   1   2
BRANCH   1  13
ATOM     13  C   UNL     1      11.065   4.254  -0.454  1.00  0.00     0.230 C 
BRANCH  13  14
ATOM     14  C   UNL     1       9.748   3.647  -0.940  1.00  0.00     0.046 C 
BRANCH  14  15
ATOM     15  C   UNL     1       9.007   4.665  -1.810  1.00  0.00     0.043 C 
BRANCH  15  16
ATOM     16  C   UNL     1       8.144   5.538  -0.937  1.00  0.00    -0.004 A 
ATOM     17  C   UNL     1       8.263   6.877  -0.785  1.00  0.00     0.036 A 
ATOM     18  C   UNL     1       7.073   5.109  -0.145  1.00  0.00     0.063 A 
ATOM     19  N   UNL     1       7.306   7.280   0.078  1.00  0.00    -0.282 N 
ATOM     20  N   UNL     1       6.575   6.151   0.469  1.00  0.00    -0.181 NA
ATOM     21  C   UNL     1       9.281   7.760  -1.458  1.00  0.00     0.066 C 
ATOM     22  C   UNL     1       6.586   3.688  -0.012  1.00  0.00     0.069 C 
ATOM     23  H   UNL     1       7.153   8.190   0.375  1.00  0.00     0.190 HD
ENDBRANCH  15  16
ENDBRANCH  14  15
ENDBRANCH  13  14
ENDBRANCH   1  13
TORSDOF 7
ENDMDL
