MODEL 1
REMARK VINA RESULT:    -4.316      0.000      0.000
REMARK INTER + INTRA:          -5.230
REMARK INTER:                  -4.946
REMARK INTRA:                  -0.284
REMARK UNBOUND:                -0.284
REMARK SMILES O=C(O)c1ccc2nc(-c3cc(Cl)cc(Cl)c3)oc2c1
REMARK SMILES IDX 5 1 6 2 20 3 8 4 18 5 4 6 9 7 7 8 19 9 2 10 1 11 3 12 10 14
REMARK SMILES IDX 11 15 17 16 12 17 15 18 14 19 13 20 16 21
REMARK H PARENT 3 13
ROOT
ATOM      1  C   UNL     1      15.619   7.494  -0.798  1.00  0.00     0.018 A 
ATOM      2  C   UNL     1      14.434   7.520  -0.126  1.00  0.00     0.033 A 
ATOM      3  C   UNL     1      14.663   6.024  -2.473  1.00  0.00     0.065 A 
ATOM      4  N   UNL     1      12.069   6.634  -0.177  1.00  0.00    -0.209 NA
ATOM      5  O   UNL     1      12.257   5.467  -2.003  1.00  0.00    -0.436 OA
ATOM      6  C   UNL     1      15.749   6.749  -1.979  1.00  0.00     0.063 A 
ATOM      7  C   UNL     1      11.434   5.844  -1.007  1.00  0.00     0.227 A 
ATOM      8  C   UNL     1      13.337   6.798  -0.611  1.00  0.00     0.110 A 
ATOM      9  C   UNL     1      13.460   6.044  -1.791  1.00  0.00     0.156 A 
ENDROOT
BRANCH   6  10
ATOM     10  C   UNL     1      17.034   6.733  -2.700  1.00  0.00     0.335 C 
ATOM     11  O   UNL     1      17.917   5.976  -2.350  1.00  0.00    -0.246 OA
BRANCH  10  12
ATOM     12  O   UNL     1      17.229   7.558  -3.748  1.00  0.00    -0.478 OA
ATOM     13  H   UNL     1      17.513   7.153  -4.579  1.00  0.00     0.297 HD
ENDBRANCH  10  12
ENDBRANCH   6  10
BRANCH   7  14
ATOM     14  C   UNL     1      10.023   5.428  -0.869  1.00  0.00     0.040 A 
ATOM     15  C   UNL     1       9.093   6.288  -0.283  1.00  0.00     0.034 A 
ATOM     16  C   UNL     1       9.615   4.173  -1.323  1.00  0.00     0.034 A 
ATOM     17  C   UNL     1       7.775   5.894  -0.158  1.00  0.00     0.043 A 
ATOM     18  C   UNL     1       8.295   3.790  -1.192  1.00  0.00     0.043 A 
ATOM     19  C   UNL     1       7.377   4.648  -0.610  1.00  0.00     0.041 A 
ATOM     20  Cl  UNL     1       6.616   6.962   0.570  1.00  0.00    -0.084 Cl
ATOM     21  Cl  UNL     1       7.785   2.229  -1.757  1.00  0.00    -0.084 Cl
ENDBRANCH   7  14
TORSDOF 3
ENDMDL
MODEL 2
REMARK VINA RESULT:    -4.315      0.004      2.019
REMARK INTER + INTRA:          -5.229
REMARK INTER:                  -4.945
REMARK INTRA:                  -0.284
REMARK UNBOUND:                -0.284
REMARK SMILES O=C(O)c1ccc2nc(-c3cc(Cl)cc(Cl)c3)oc2c1
REMARK SMILES IDX 5 1 6 2 20 3 8 4 18 5 4 6 9 7 7 8 19 9 2 10 1 11 3 12 10 14
REMARK SMILES IDX 11 15 17 16 12 17 15 18 14 19 13 20 16 21
REMARK H PARENT 3 13
ROOT
ATOM      1  C   UNL     1      15.617   7.495  -0.795  1.00  0.00     0.018 A 
ATOM      2  C   UNL     1      14.432   7.521  -0.123  1.00  0.00     0.033 A 
ATOM      3  C   UNL     1      14.663   6.026  -2.471  1.00  0.00     0.065 A 
ATOM      4  N   UNL     1      12.067   6.633  -0.175  1.00  0.00    -0.209 NA
ATOM      5  O   UNL     1      12.257   5.467  -2.002  1.00  0.00    -0.436 OA
ATOM      6  C   UNL     1      15.748   6.751  -1.976  1.00  0.00     0.063 A 
ATOM      7  C   UNL     1      11.433   5.844  -1.006  1.00  0.00     0.227 A 
ATOM      8  C   UNL     1      13.335   6.798  -0.609  1.00  0.00     0.110 A 
ATOM      9  C   UNL     1      13.460   6.045  -1.790  1.00  0.00     0.156 A 
ENDROOT
BRANCH   6  10
ATOM     10  C   UNL     1      17.033   6.735  -2.697  1.00  0.00     0.335 C 
ATOM     11  O   UNL     1      17.920   5.985  -2.341  1.00  0.00    -0.246 OA
BRANCH  10  12
ATOM     12  O   UNL     1      17.225   7.553  -3.750  1.00  0.00    -0.478 OA
ATOM     13  H   UNL     1      16.605   7.474  -4.487  1.00  0.00     0.297 HD
ENDBRANCH  10  12
ENDBRANCH   6  10
BRANCH   7  14
ATOM     14  C   UNL     1      10.022   5.428  -0.869  1.00  0.00     0.040 A 
ATOM     15  C   UNL     1       9.613   4.173  -1.324  1.00  0.00     0.034 A 
ATOM     16  C   UNL     1       9.091   6.289  -0.283  1.00  0.00     0.034 A 
ATOM     17  C   UNL     1       8.293   3.790  -1.191  1.00  0.00     0.043 A 
ATOM     18  C   UNL     1       7.775   5.894  -0.157  1.00  0.00     0.043 A 
ATOM     19  C   UNL     1       7.376   4.649  -0.610  1.00  0.00     0.041 A 
ATOM     20  Cl  UNL     1       7.783   2.230  -1.756  1.00  0.00    -0.084 Cl
ATOM     21  Cl  UNL     1       6.616   6.964   0.571  1.00  0.00    -0.084 Cl
ENDBRANCH   7  14
TORSDOF 3
ENDMDL
MODEL 3
REMARK VINA RESULT:    -4.313      2.412      3.590
REMARK INTER + INTRA:          -5.228
REMARK INTER:                  -4.943
REMARK INTRA:                  -0.284
REMARK UNBOUND:                -0.284
REMARK SMILES O=C(O)c1ccc2nc(-c3cc(Cl)cc(Cl)c3)oc2c1
REMARK SMILES IDX 5 1 6 2 20 3 8 4 18 5 4 6 9 7 7 8 19 9 2 10 1 11 3 12 10 14
REMARK SMILES IDX 11 15 17 16 12 17 15 18 14 19 13 20 16 21
REMARK H PARENT 3 13
ROOT
ATOM      1  C   UNL     1      15.402   7.984  -0.212  1.00  0.00     0.018 A 
ATOM      2  C   UNL     1      14.660   7.079  -0.910  1.00  0.00     0.033 A 
ATOM      3  C   UNL     1      13.625   8.217   1.422  1.00  0.00     0.065 A 
ATOM      4  N   UNL     1      12.436   5.880  -0.924  1.00  0.00    -0.209 NA
ATOM      5  O   UNL     1      11.635   6.774   0.891  1.00  0.00    -0.436 OA
ATOM      6  C   UNL     1      14.896   8.562   0.961  1.00  0.00     0.063 A 
ATOM      7  C   UNL     1      11.403   5.914  -0.119  1.00  0.00     0.227 A 
ATOM      8  C   UNL     1      13.382   6.724  -0.459  1.00  0.00     0.110 A 
ATOM      9  C   UNL     1      12.866   7.303   0.714  1.00  0.00     0.156 A 
ENDROOT
BRANCH   6  10
ATOM     10  C   UNL     1      15.711   9.535   1.711  1.00  0.00     0.335 C 
ATOM     11  O   UNL     1      15.742  10.698   1.361  1.00  0.00    -0.246 OA
BRANCH  10  12
ATOM     12  O   UNL     1      16.421   9.135   2.784  1.00  0.00    -0.478 OA
ATOM     13  H   UNL     1      15.947   8.638   3.465  1.00  0.00     0.297 HD
ENDBRANCH  10  12
ENDBRANCH   6  10
BRANCH   7  14
ATOM     14  C   UNL     1      10.166   5.125  -0.294  1.00  0.00     0.040 A 
ATOM     15  C   UNL     1      10.215   3.869  -0.900  1.00  0.00     0.034 A 
ATOM     16  C   UNL     1       8.942   5.635   0.146  1.00  0.00     0.034 A 
ATOM     17  C   UNL     1       9.056   3.137  -1.060  1.00  0.00     0.043 A 
ATOM     18  C   UNL     1       7.790   4.893  -0.019  1.00  0.00     0.043 A 
ATOM     19  C   UNL     1       7.846   3.648  -0.622  1.00  0.00     0.041 A 
ATOM     20  Cl  UNL     1       9.115   1.574  -1.813  1.00  0.00    -0.084 Cl
ATOM     21  Cl  UNL     1       6.268   5.524   0.527  1.00  0.00    -0.084 Cl
ENDBRANCH   7  14
TORSDOF 3
ENDMDL
MODEL 4
REMARK VINA RESULT:    -4.304      2.412      3.009
REMARK INTER + INTRA:          -5.217
REMARK INTER:                  -4.933
REMARK INTRA:                  -0.284
REMARK UNBOUND:                -0.284
REMARK SMILES O=C(O)c1ccc2nc(-c3cc(Cl)cc(Cl)c3)oc2c1
REMARK SMILES IDX 5 1 6 2 20 3 8 4 18 5 4 6 9 7 7 8 19 9 2 10 1 11 3 12 10 14
REMARK SMILES IDX 11 15 17 16 12 17 15 18 14 19 13 20 16 21
REMARK H PARENT 3 13
ROOT
ATOM      1  C   UNL     1      15.402   7.983  -0.212  1.00  0.00     0.018 A 
ATOM      2  C   UNL     1      14.659   7.079  -0.910  1.00  0.00     0.033 A 
ATOM      3  C   UNL     1      13.625   8.217   1.422  1.00  0.00     0.065 A 
ATOM      4  N   UNL     1      12.435   5.880  -0.922  1.00  0.00    -0.209 NA
ATOM      5  O   UNL     1      11.635   6.776   0.892  1.00  0.00    -0.436 OA
ATOM      6  C   UNL     1      14.897   8.562   0.961  1.00  0.00     0.063 A 
ATOM      7  C   UNL     1      11.402   5.915  -0.117  1.00  0.00     0.227 A 
ATOM      8  C   UNL     1      13.382   6.724  -0.458  1.00  0.00     0.110 A 
ATOM      9  C   UNL     1      12.866   7.303   0.715  1.00  0.00     0.156 A 
ENDROOT
BRANCH   6  10
ATOM     10  C   UNL     1      15.712   9.535   1.711  1.00  0.00     0.335 C 
ATOM     11  O   UNL     1      15.745  10.698   1.360  1.00  0.00    -0.246 OA
BRANCH  10  12
ATOM     12  O   UNL     1      16.422   9.135   2.785  1.00  0.00    -0.478 OA
ATOM     13  H   UNL     1      16.821   8.256   2.744  1.00  0.00     0.297 HD
ENDBRANCH  10  12
ENDBRANCH   6  10
BRANCH   7  14
ATOM     14  C   UNL     1      10.165   5.127  -0.292  1.00  0.00     0.040 A 
ATOM     15  C   UNL     1       8.942   5.635   0.149  1.00  0.00     0.034 A 
ATOM     16  C   UNL     1      10.215   3.870  -0.897  1.00  0.00     0.034 A 
ATOM     17  C   UNL     1       7.789   4.893  -0.019  1.00  0.00     0.043 A 
ATOM     18  C   UNL     1       9.056   3.138  -1.059  1.00  0.00     0.043 A 
ATOM     19  C   UNL     1       7.846   3.647  -0.620  1.00  0.00     0.041 A 
ATOM     20  Cl  UNL     1       6.267   5.523   0.528  1.00  0.00    -0.084 Cl
ATOM     21  Cl  UNL     1       9.116   1.575  -1.812  1.00  0.00    -0.084 Cl
ENDBRANCH   7  14
TORSDOF 3
ENDMDL
MODEL 5
REMARK VINA RESULT:    -4.212      3.773      7.627
REMARK INTER + INTRA:          -5.111
REMARK INTER:                  -4.814
REMARK INTRA:                  -0.298
REMARK UNBOUND:                -0.284
REMARK SMILES O=C(O)c1ccc2nc(-c3cc(Cl)cc(Cl)c3)oc2c1
REMARK SMILES IDX 5 1 6 2 20 3 8 4 18 5 4 6 9 7 7 8 19 9 2 10 1 11 3 12 10 14
REMARK SMILES IDX 11 15 17 16 12 17 15 18 14 19 13 20 16 21
REMARK H PARENT 3 13
ROOT
ATOM      1  C   UNL     1       7.353   4.949   0.077  1.00  0.00     0.018 A 
ATOM      2  C   UNL     1       8.253   5.847   0.569  1.00  0.00     0.033 A 
ATOM      3  C   UNL     1       9.039   4.037  -1.409  1.00  0.00     0.065 A 
ATOM      4  N   UNL     1      10.652   6.612   0.364  1.00  0.00    -0.209 NA
ATOM      5  O   UNL     1      11.254   5.203  -1.180  1.00  0.00    -0.436 OA
ATOM      6  C   UNL     1       7.733   4.033  -0.914  1.00  0.00     0.063 A 
ATOM      7  C   UNL     1      11.649   6.216  -0.387  1.00  0.00     0.227 A 
ATOM      8  C   UNL     1       9.565   5.862   0.081  1.00  0.00     0.110 A 
ATOM      9  C   UNL     1       9.953   4.950  -0.917  1.00  0.00     0.156 A 
ENDROOT
BRANCH   6  10
ATOM     10  C   UNL     1       6.753   3.063  -1.434  1.00  0.00     0.335 C 
ATOM     11  O   UNL     1       5.592   3.125  -1.083  1.00  0.00    -0.246 OA
BRANCH  10  12
ATOM     12  O   UNL     1       7.145   2.105  -2.298  1.00  0.00    -0.478 OA
ATOM     13  H   UNL     1       6.531   1.876  -3.008  1.00  0.00     0.297 HD
ENDBRANCH  10  12
ENDBRANCH   6  10
BRANCH   7  14
ATOM     14  C   UNL     1      13.008   6.797  -0.365  1.00  0.00     0.040 A 
ATOM     15  C   UNL     1      13.926   6.471  -1.364  1.00  0.00     0.034 A 
ATOM     16  C   UNL     1      13.378   7.675   0.655  1.00  0.00     0.034 A 
ATOM     17  C   UNL     1      15.193   7.018  -1.339  1.00  0.00     0.043 A 
ATOM     18  C   UNL     1      14.648   8.216   0.669  1.00  0.00     0.043 A 
ATOM     19  C   UNL     1      15.554   7.888  -0.324  1.00  0.00     0.041 A 
ATOM     20  Cl  UNL     1      16.337   6.614  -2.581  1.00  0.00    -0.084 Cl
ATOM     21  Cl  UNL     1      15.111   9.308   1.938  1.00  0.00    -0.084 Cl
ENDBRANCH   7  14
TORSDOF 3
ENDMDL
MODEL 6
REMARK VINA RESULT:    -4.209      3.772      7.398
REMARK INTER + INTRA:          -5.108
REMARK INTER:                  -4.811
REMARK INTRA:                  -0.298
REMARK UNBOUND:                -0.284
REMARK SMILES O=C(O)c1ccc2nc(-c3cc(Cl)cc(Cl)c3)oc2c1
REMARK SMILES IDX 5 1 6 2 20 3 8 4 18 5 4 6 9 7 7 8 19 9 2 10 1 11 3 12 10 14
REMARK SMILES IDX 11 15 17 16 12 17 15 18 14 19 13 20 16 21
REMARK H PARENT 3 13
ROOT
ATOM      1  C   UNL     1       7.353   4.948   0.078  1.00  0.00     0.018 A 
ATOM      2  C   UNL     1       8.254   5.845   0.568  1.00  0.00     0.033 A 
ATOM      3  C   UNL     1       9.035   4.036  -1.411  1.00  0.00     0.065 A 
ATOM      4  N   UNL     1      10.653   6.609   0.360  1.00  0.00    -0.209 NA
ATOM      5  O   UNL     1      11.252   5.200  -1.185  1.00  0.00    -0.436 OA
ATOM      6  C   UNL     1       7.731   4.033  -0.914  1.00  0.00     0.063 A 
ATOM      7  C   UNL     1      11.649   6.213  -0.392  1.00  0.00     0.227 A 
ATOM      8  C   UNL     1       9.565   5.860   0.079  1.00  0.00     0.110 A 
ATOM      9  C   UNL     1       9.951   4.948  -0.919  1.00  0.00     0.156 A 
ENDROOT
BRANCH   6  10
ATOM     10  C   UNL     1       6.749   3.063  -1.432  1.00  0.00     0.335 C 
ATOM     11  O   UNL     1       5.588   3.127  -1.080  1.00  0.00    -0.246 OA
BRANCH  10  12
ATOM     12  O   UNL     1       7.139   2.104  -2.296  1.00  0.00    -0.478 OA
ATOM     13  H   UNL     1       8.000   2.219  -2.719  1.00  0.00     0.297 HD
ENDBRANCH  10  12
ENDBRANCH   6  10
BRANCH   7  14
ATOM     14  C   UNL     1      13.008   6.793  -0.372  1.00  0.00     0.040 A 
ATOM     15  C   UNL     1      13.381   7.670   0.647  1.00  0.00     0.034 A 
ATOM     16  C   UNL     1      13.923   6.466  -1.375  1.00  0.00     0.034 A 
ATOM     17  C   UNL     1      14.653   8.208   0.659  1.00  0.00     0.043 A 
ATOM     18  C   UNL     1      15.192   7.011  -1.351  1.00  0.00     0.043 A 
ATOM     19  C   UNL     1      15.556   7.880  -0.338  1.00  0.00     0.041 A 
ATOM     20  Cl  UNL     1      15.120   9.299   1.926  1.00  0.00    -0.084 Cl
ATOM     21  Cl  UNL     1      16.332   6.605  -2.597  1.00  0.00    -0.084 Cl
ENDBRANCH   7  14
TORSDOF 3
ENDMDL
MODEL 7
REMARK VINA RESULT:    -4.122      5.426      6.886
REMARK INTER + INTRA:          -5.008
REMARK INTER:                  -4.722
REMARK INTRA:                  -0.286
REMARK UNBOUND:                -0.284
REMARK SMILES O=C(O)c1ccc2nc(-c3cc(Cl)cc(Cl)c3)oc2c1
REMARK SMILES IDX 5 1 6 2 20 3 8 4 18 5 4 6 9 7 7 8 19 9 2 10 1 11 3 12 10 14
REMARK SMILES IDX 11 15 17 16 12 17 15 18 14 19 13 20 16 21
REMARK H PARENT 3 13
ROOT
ATOM      1  C   UNL     1      17.627  10.731   4.008  1.00  0.00     0.018 A 
ATOM      2  C   UNL     1      17.382  10.422   2.704  1.00  0.00     0.033 A 
ATOM      3  C   UNL     1      15.792   9.312   4.714  1.00  0.00     0.065 A 
ATOM      4  N   UNL     1      15.862   9.072   1.205  1.00  0.00    -0.209 NA
ATOM      5  O   UNL     1      14.624   8.216   2.776  1.00  0.00    -0.436 OA
ATOM      6  C   UNL     1      16.839  10.180   5.028  1.00  0.00     0.063 A 
ATOM      7  C   UNL     1      14.848   8.280   1.450  1.00  0.00     0.227 A 
ATOM      8  C   UNL     1      16.335   9.553   2.375  1.00  0.00     0.110 A 
ATOM      9  C   UNL     1      15.537   9.000   3.391  1.00  0.00     0.156 A 
ENDROOT
BRANCH   6  10
ATOM     10  C   UNL     1      17.117  10.517   6.436  1.00  0.00     0.335 C 
ATOM     11  O   UNL     1      18.143  10.132   6.961  1.00  0.00    -0.246 OA
BRANCH  10  12
ATOM     12  O   UNL     1      16.233  11.250   7.142  1.00  0.00    -0.478 OA
ATOM     13  H   UNL     1      15.421  10.808   7.423  1.00  0.00     0.297 HD
ENDBRANCH  10  12
ENDBRANCH   6  10
BRANCH   7  14
ATOM     14  C   UNL     1      14.065   7.563   0.422  1.00  0.00     0.040 A 
ATOM     15  C   UNL     1      14.675   7.153  -0.764  1.00  0.00     0.034 A 
ATOM     16  C   UNL     1      12.711   7.294   0.634  1.00  0.00     0.034 A 
ATOM     17  C   UNL     1      13.938   6.483  -1.721  1.00  0.00     0.043 A 
ATOM     18  C   UNL     1      11.985   6.624  -0.330  1.00  0.00     0.043 A 
ATOM     19  C   UNL     1      12.596   6.219  -1.505  1.00  0.00     0.041 A 
ATOM     20  Cl  UNL     1      14.695   5.971  -3.197  1.00  0.00    -0.084 Cl
ATOM     21  Cl  UNL     1      10.301   6.288  -0.069  1.00  0.00    -0.084 Cl
ENDBRANCH   7  14
TORSDOF 3
ENDMDL
MODEL 8
REMARK VINA RESULT:    -4.099      5.407      6.751
REMARK INTER + INTRA:          -4.983
REMARK INTER:                  -4.698
REMARK INTRA:                  -0.284
REMARK UNBOUND:                -0.284
REMARK SMILES O=C(O)c1ccc2nc(-c3cc(Cl)cc(Cl)c3)oc2c1
REMARK SMILES IDX 5 1 6 2 20 3 8 4 18 5 4 6 9 7 7 8 19 9 2 10 1 11 3 12 10 14
REMARK SMILES IDX 11 15 17 16 12 17 15 18 14 19 13 20 16 21
REMARK H PARENT 3 13
ROOT
ATOM      1  C   UNL     1      17.601  10.720   4.008  1.00  0.00     0.018 A 
ATOM      2  C   UNL     1      17.358  10.417   2.702  1.00  0.00     0.033 A 
ATOM      3  C   UNL     1      15.773   9.288   4.706  1.00  0.00     0.065 A 
ATOM      4  N   UNL     1      15.844   9.067   1.196  1.00  0.00    -0.209 NA
ATOM      5  O   UNL     1      14.611   8.196   2.762  1.00  0.00    -0.436 OA
ATOM      6  C   UNL     1      16.816  10.160   5.025  1.00  0.00     0.063 A 
ATOM      7  C   UNL     1      14.834   8.269   1.436  1.00  0.00     0.227 A 
ATOM      8  C   UNL     1      16.315   9.544   2.368  1.00  0.00     0.110 A 
ATOM      9  C   UNL     1      15.519   8.982   3.381  1.00  0.00     0.156 A 
ENDROOT
BRANCH   6  10
ATOM     10  C   UNL     1      17.092  10.491   6.434  1.00  0.00     0.335 C 
ATOM     11  O   UNL     1      16.426  11.333   7.003  1.00  0.00    -0.246 OA
BRANCH  10  12
ATOM     12  O   UNL     1      18.085   9.860   7.093  1.00  0.00    -0.478 OA
ATOM     13  H   UNL     1      18.001   8.903   7.202  1.00  0.00     0.297 HD
ENDBRANCH  10  12
ENDBRANCH   6  10
BRANCH   7  14
ATOM     14  C   UNL     1      14.055   7.553   0.404  1.00  0.00     0.040 A 
ATOM     15  C   UNL     1      12.700   7.288   0.607  1.00  0.00     0.034 A 
ATOM     16  C   UNL     1      14.673   7.139  -0.778  1.00  0.00     0.034 A 
ATOM     17  C   UNL     1      11.977   6.621  -0.362  1.00  0.00     0.043 A 
ATOM     18  C   UNL     1      13.940   6.472  -1.739  1.00  0.00     0.043 A 
ATOM     19  C   UNL     1      12.596   6.213  -1.532  1.00  0.00     0.041 A 
ATOM     20  Cl  UNL     1      10.292   6.290  -0.112  1.00  0.00    -0.084 Cl
ATOM     21  Cl  UNL     1      14.705   5.957  -3.209  1.00  0.00    -0.084 Cl
ENDBRANCH   7  14
TORSDOF 3
ENDMDL
MODEL 9
REMARK VINA RESULT:    -4.021      4.060      7.315
REMARK INTER + INTRA:          -4.892
REMARK INTER:                  -4.606
REMARK INTRA:                  -0.287
REMARK UNBOUND:                -0.284
REMARK SMILES O=C(O)c1ccc2nc(-c3cc(Cl)cc(Cl)c3)oc2c1
REMARK SMILES IDX 5 1 6 2 20 3 8 4 18 5 4 6 9 7 7 8 19 9 2 10 1 11 3 12 10 14
REMARK SMILES IDX 11 15 17 16 12 17 15 18 14 19 13 20 16 21
REMARK H PARENT 3 13
ROOT
ATOM      1  C   UNL     1       8.738   4.386  -2.102  1.00  0.00     0.018 A 
ATOM      2  C   UNL     1       9.335   5.604  -1.966  1.00  0.00     0.033 A 
ATOM      3  C   UNL     1      10.450   3.366  -0.721  1.00  0.00     0.065 A 
ATOM      4  N   UNL     1      11.301   6.775  -0.897  1.00  0.00    -0.209 NA
ATOM      5  O   UNL     1      12.166   5.026   0.066  1.00  0.00    -0.436 OA
ATOM      6  C   UNL     1       9.285   3.255  -1.481  1.00  0.00     0.063 A 
ATOM      7  C   UNL     1      12.285   6.351  -0.142  1.00  0.00     0.227 A 
ATOM      8  C   UNL     1      10.504   5.730  -1.206  1.00  0.00     0.110 A 
ATOM      9  C   UNL     1      11.061   4.599  -0.584  1.00  0.00     0.156 A 
ENDROOT
BRANCH   6  10
ATOM     10  C   UNL     1       8.627   1.944  -1.631  1.00  0.00     0.335 C 
ATOM     11  O   UNL     1       7.710   1.811  -2.417  1.00  0.00    -0.246 OA
BRANCH  10  12
ATOM     12  O   UNL     1       9.041   0.894  -0.895  1.00  0.00    -0.478 OA
ATOM     13  H   UNL     1       9.901   0.512  -1.118  1.00  0.00     0.297 HD
ENDBRANCH  10  12
ENDBRANCH   6  10
BRANCH   7  14
ATOM     14  C   UNL     1      13.365   7.202   0.399  1.00  0.00     0.040 A 
ATOM     15  C   UNL     1      14.537   7.397  -0.332  1.00  0.00     0.034 A 
ATOM     16  C   UNL     1      13.216   7.814   1.645  1.00  0.00     0.034 A 
ATOM     17  C   UNL     1      15.542   8.195   0.179  1.00  0.00     0.043 A 
ATOM     18  C   UNL     1      14.228   8.609   2.146  1.00  0.00     0.043 A 
ATOM     19  C   UNL     1      15.388   8.798   1.415  1.00  0.00     0.041 A 
ATOM     20  Cl  UNL     1      17.000   8.439  -0.730  1.00  0.00    -0.084 Cl
ATOM     21  Cl  UNL     1      14.045   9.370   3.695  1.00  0.00    -0.084 Cl
ENDBRANCH   7  14
TORSDOF 3
ENDMDL
