MODEL 1
REMARK VINA RESULT:    -4.451      0.000      0.000
REMARK INTER + INTRA:          -5.383
REMARK INTER:                  -5.101
REMARK INTRA:                  -0.281
REMARK UNBOUND:                -0.281
REMARK SMILES O=C(O)c1ccc2nc(-c3cc(Cl)cc(Cl)c3)oc2c1
REMARK SMILES IDX 5 1 6 2 20 3 8 4 18 5 4 6 9 7 7 8 19 9 2 10 1 11 3 12 10 14
REMARK SMILES IDX 11 15 17 16 12 17 15 18 14 19 13 20 16 21
REMARK H PARENT 3 13
ROOT
ATOM      1  C   UNL     1      -9.547  14.175  -2.668  1.00  0.00     0.018 A 
ATOM      2  C   UNL     1      -8.826  13.988  -1.527  1.00  0.00     0.033 A 
ATOM      3  C   UNL     1      -9.518  11.790  -3.106  1.00  0.00     0.065 A 
ATOM      4  N   UNL     1      -7.732  12.210  -0.104  1.00  0.00    -0.209 NA
ATOM      5  O   UNL     1      -8.270  10.504  -1.342  1.00  0.00    -0.436 OA
ATOM      6  C   UNL     1      -9.903  13.081  -3.470  1.00  0.00     0.063 A 
ATOM      7  C   UNL     1      -7.640  10.909  -0.223  1.00  0.00     0.227 A 
ATOM      8  C   UNL     1      -8.433  12.698  -1.150  1.00  0.00     0.110 A 
ATOM      9  C   UNL     1      -8.782  11.596  -1.951  1.00  0.00     0.156 A 
ENDROOT
BRANCH   6  10
ATOM     10  C   UNL     1     -10.689  13.295  -4.699  1.00  0.00     0.335 C 
ATOM     11  O   UNL     1     -11.903  13.287  -4.653  1.00  0.00    -0.246 OA
BRANCH  10  12
ATOM     12  O   UNL     1     -10.060  13.498  -5.874  1.00  0.00    -0.478 OA
ATOM     13  H   UNL     1      -9.374  12.864  -6.120  1.00  0.00     0.297 HD
ENDBRANCH  10  12
ENDBRANCH   6  10
BRANCH   7  14
ATOM     14  C   UNL     1      -6.945  10.018   0.729  1.00  0.00     0.040 A 
ATOM     15  C   UNL     1      -7.133  10.177   2.102  1.00  0.00     0.034 A 
ATOM     16  C   UNL     1      -6.096   9.015   0.258  1.00  0.00     0.034 A 
ATOM     17  C   UNL     1      -6.482   9.341   2.987  1.00  0.00     0.043 A 
ATOM     18  C   UNL     1      -5.451   8.185   1.152  1.00  0.00     0.043 A 
ATOM     19  C   UNL     1      -5.642   8.347   2.513  1.00  0.00     0.041 A 
ATOM     20  Cl  UNL     1      -6.715   9.535   4.696  1.00  0.00    -0.084 Cl
ATOM     21  Cl  UNL     1      -4.395   6.936   0.568  1.00  0.00    -0.084 Cl
ENDBRANCH   7  14
TORSDOF 3
ENDMDL
MODEL 2
REMARK VINA RESULT:    -4.449      5.416      8.190
REMARK INTER + INTRA:          -5.381
REMARK INTER:                  -5.099
REMARK INTRA:                  -0.281
REMARK UNBOUND:                -0.281
REMARK SMILES O=C(O)c1ccc2nc(-c3cc(Cl)cc(Cl)c3)oc2c1
REMARK SMILES IDX 5 1 6 2 20 3 8 4 18 5 4 6 9 7 7 8 19 9 2 10 1 11 3 12 10 14
REMARK SMILES IDX 11 15 17 16 12 17 15 18 14 19 13 20 16 21
REMARK H PARENT 3 13
ROOT
ATOM      1  C   UNL     1      -9.155  13.207   7.208  1.00  0.00     0.018 A 
ATOM      2  C   UNL     1      -9.397  12.674   5.977  1.00  0.00     0.033 A 
ATOM      3  C   UNL     1      -6.947  12.204   7.233  1.00  0.00     0.065 A 
ATOM      4  N   UNL     1      -8.371  11.249   4.162  1.00  0.00    -0.209 NA
ATOM      5  O   UNL     1      -6.467  10.883   5.149  1.00  0.00    -0.436 OA
ATOM      6  C   UNL     1      -7.929  12.981   7.850  1.00  0.00     0.063 A 
ATOM      7  C   UNL     1      -7.210  10.652   4.050  1.00  0.00     0.227 A 
ATOM      8  C   UNL     1      -8.421  11.893   5.347  1.00  0.00     0.110 A 
ATOM      9  C   UNL     1      -7.191  11.658   5.987  1.00  0.00     0.156 A 
ENDROOT
BRANCH   6  10
ATOM     10  C   UNL     1      -7.676  13.567   9.179  1.00  0.00     0.335 C 
ATOM     11  O   UNL     1      -7.183  14.674   9.270  1.00  0.00    -0.246 OA
BRANCH  10  12
ATOM     12  O   UNL     1      -7.989  12.875  10.292  1.00  0.00    -0.478 OA
ATOM     13  H   UNL     1      -8.372  13.374  11.026  1.00  0.00     0.297 HD
ENDBRANCH  10  12
ENDBRANCH   6  10
BRANCH   7  14
ATOM     14  C   UNL     1      -6.780   9.846   2.889  1.00  0.00     0.040 A 
ATOM     15  C   UNL     1      -7.006  10.307   1.592  1.00  0.00     0.034 A 
ATOM     16  C   UNL     1      -6.147   8.617   3.086  1.00  0.00     0.034 A 
ATOM     17  C   UNL     1      -6.601   9.549   0.511  1.00  0.00     0.043 A 
ATOM     18  C   UNL     1      -5.747   7.868   1.998  1.00  0.00     0.043 A 
ATOM     19  C   UNL     1      -5.974   8.331   0.714  1.00  0.00     0.041 A 
ATOM     20  Cl  UNL     1      -6.881  10.122  -1.103  1.00  0.00    -0.084 Cl
ATOM     21  Cl  UNL     1      -4.959   6.339   2.241  1.00  0.00    -0.084 Cl
ENDBRANCH   7  14
TORSDOF 3
ENDMDL
MODEL 3
REMARK VINA RESULT:    -4.449      5.417      8.193
REMARK INTER + INTRA:          -5.381
REMARK INTER:                  -5.099
REMARK INTRA:                  -0.281
REMARK UNBOUND:                -0.281
REMARK SMILES O=C(O)c1ccc2nc(-c3cc(Cl)cc(Cl)c3)oc2c1
REMARK SMILES IDX 5 1 6 2 20 3 8 4 18 5 4 6 9 7 7 8 19 9 2 10 1 11 3 12 10 14
REMARK SMILES IDX 11 15 17 16 12 17 15 18 14 19 13 20 16 21
REMARK H PARENT 3 13
ROOT
ATOM      1  C   UNL     1      -9.152  13.199   7.206  1.00  0.00     0.018 A 
ATOM      2  C   UNL     1      -9.395  12.665   5.976  1.00  0.00     0.033 A 
ATOM      3  C   UNL     1      -6.942  12.201   7.229  1.00  0.00     0.065 A 
ATOM      4  N   UNL     1      -8.368  11.240   4.160  1.00  0.00    -0.209 NA
ATOM      5  O   UNL     1      -6.462  10.880   5.145  1.00  0.00    -0.436 OA
ATOM      6  C   UNL     1      -7.925  12.977   7.847  1.00  0.00     0.063 A 
ATOM      7  C   UNL     1      -7.206  10.646   4.048  1.00  0.00     0.227 A 
ATOM      8  C   UNL     1      -8.418  11.885   5.346  1.00  0.00     0.110 A 
ATOM      9  C   UNL     1      -7.187  11.653   5.983  1.00  0.00     0.156 A 
ENDROOT
BRANCH   6  10
ATOM     10  C   UNL     1      -7.671  13.565   9.174  1.00  0.00     0.335 C 
ATOM     11  O   UNL     1      -7.187  14.675   9.264  1.00  0.00    -0.246 OA
BRANCH  10  12
ATOM     12  O   UNL     1      -7.975  12.870  10.289  1.00  0.00    -0.478 OA
ATOM     13  H   UNL     1      -7.701  11.944  10.318  1.00  0.00     0.297 HD
ENDBRANCH  10  12
ENDBRANCH   6  10
BRANCH   7  14
ATOM     14  C   UNL     1      -6.776   9.840   2.887  1.00  0.00     0.040 A 
ATOM     15  C   UNL     1      -6.143   8.611   3.082  1.00  0.00     0.034 A 
ATOM     16  C   UNL     1      -7.001  10.304   1.589  1.00  0.00     0.034 A 
ATOM     17  C   UNL     1      -5.745   7.862   1.993  1.00  0.00     0.043 A 
ATOM     18  C   UNL     1      -6.598   9.545   0.509  1.00  0.00     0.043 A 
ATOM     19  C   UNL     1      -5.971   8.328   0.709  1.00  0.00     0.041 A 
ATOM     20  Cl  UNL     1      -4.958   6.333   2.234  1.00  0.00    -0.084 Cl
ATOM     21  Cl  UNL     1      -6.877  10.121  -1.106  1.00  0.00    -0.084 Cl
ENDBRANCH   7  14
TORSDOF 3
ENDMDL
MODEL 4
REMARK VINA RESULT:    -4.428      0.080      2.021
REMARK INTER + INTRA:          -5.356
REMARK INTER:                  -5.074
REMARK INTRA:                  -0.282
REMARK UNBOUND:                -0.281
REMARK SMILES O=C(O)c1ccc2nc(-c3cc(Cl)cc(Cl)c3)oc2c1
REMARK SMILES IDX 5 1 6 2 20 3 8 4 18 5 4 6 9 7 7 8 19 9 2 10 1 11 3 12 10 14
REMARK SMILES IDX 11 15 17 16 12 17 15 18 14 19 13 20 16 21
REMARK H PARENT 3 13
ROOT
ATOM      1  C   UNL     1      -9.670  14.149  -2.649  1.00  0.00     0.018 A 
ATOM      2  C   UNL     1      -8.986  13.967  -1.485  1.00  0.00     0.033 A 
ATOM      3  C   UNL     1      -9.496  11.783  -3.150  1.00  0.00     0.065 A 
ATOM      4  N   UNL     1      -7.855  12.208  -0.067  1.00  0.00    -0.209 NA
ATOM      5  O   UNL     1      -8.252  10.513  -1.372  1.00  0.00    -0.436 OA
ATOM      6  C   UNL     1      -9.936  13.062  -3.494  1.00  0.00     0.063 A 
ATOM      7  C   UNL     1      -7.689  10.917  -0.218  1.00  0.00     0.227 A 
ATOM      8  C   UNL     1      -8.539  12.689  -1.127  1.00  0.00     0.110 A 
ATOM      9  C   UNL     1      -8.797  11.594  -1.972  1.00  0.00     0.156 A 
ENDROOT
BRANCH   6  10
ATOM     10  C   UNL     1     -10.683  13.271  -4.748  1.00  0.00     0.335 C 
ATOM     11  O   UNL     1     -11.895  13.193  -4.752  1.00  0.00    -0.246 OA
BRANCH  10  12
ATOM     12  O   UNL     1     -10.021  13.546  -5.889  1.00  0.00    -0.478 OA
ATOM     13  H   UNL     1      -9.609  14.418  -5.958  1.00  0.00     0.297 HD
ENDBRANCH  10  12
ENDBRANCH   6  10
BRANCH   7  14
ATOM     14  C   UNL     1      -6.985  10.037   0.737  1.00  0.00     0.040 A 
ATOM     15  C   UNL     1      -6.143   9.027   0.271  1.00  0.00     0.034 A 
ATOM     16  C   UNL     1      -7.162  10.211   2.111  1.00  0.00     0.034 A 
ATOM     17  C   UNL     1      -5.487   8.208   1.169  1.00  0.00     0.043 A 
ATOM     18  C   UNL     1      -6.502   9.386   2.999  1.00  0.00     0.043 A 
ATOM     19  C   UNL     1      -5.667   8.386   2.530  1.00  0.00     0.041 A 
ATOM     20  Cl  UNL     1      -4.438   6.952   0.590  1.00  0.00    -0.084 Cl
ATOM     21  Cl  UNL     1      -6.720   9.601   4.709  1.00  0.00    -0.084 Cl
ENDBRANCH   7  14
TORSDOF 3
ENDMDL
MODEL 5
REMARK VINA RESULT:    -4.103      5.680      7.441
REMARK INTER + INTRA:          -4.984
REMARK INTER:                  -4.704
REMARK INTRA:                  -0.280
REMARK UNBOUND:                -0.281
REMARK SMILES O=C(O)c1ccc2nc(-c3cc(Cl)cc(Cl)c3)oc2c1
REMARK SMILES IDX 5 1 6 2 20 3 8 4 18 5 4 6 9 7 7 8 19 9 2 10 1 11 3 12 10 14
REMARK SMILES IDX 11 15 17 16 12 17 15 18 14 19 13 20 16 21
REMARK H PARENT 3 13
ROOT
ATOM      1  C   UNL     1      -6.093   8.996   0.460  1.00  0.00     0.018 A 
ATOM      2  C   UNL     1      -6.786  10.098   0.864  1.00  0.00     0.033 A 
ATOM      3  C   UNL     1      -6.022   8.175   2.740  1.00  0.00     0.065 A 
ATOM      4  N   UNL     1      -7.770  11.224   2.900  1.00  0.00    -0.209 NA
ATOM      5  O   UNL     1      -7.167   9.724   4.356  1.00  0.00    -0.436 OA
ATOM      6  C   UNL     1      -5.705   8.022   1.390  1.00  0.00     0.063 A 
ATOM      7  C   UNL     1      -7.801  10.898   4.168  1.00  0.00     0.227 A 
ATOM      8  C   UNL     1      -7.110  10.265   2.215  1.00  0.00     0.110 A 
ATOM      9  C   UNL     1      -6.720   9.295   3.155  1.00  0.00     0.156 A 
ENDROOT
BRANCH   6  10
ATOM     10  C   UNL     1      -4.961   6.831   0.940  1.00  0.00     0.335 C 
ATOM     11  O   UNL     1      -3.807   6.937   0.578  1.00  0.00    -0.246 OA
BRANCH  10  12
ATOM     12  O   UNL     1      -5.562   5.625   0.930  1.00  0.00    -0.478 OA
ATOM     13  H   UNL     1      -6.528   5.615   0.968  1.00  0.00     0.297 HD
ENDBRANCH  10  12
ENDBRANCH   6  10
BRANCH   7  14
ATOM     14  C   UNL     1      -8.436  11.699   5.234  1.00  0.00     0.040 A 
ATOM     15  C   UNL     1      -9.803  11.974   5.184  1.00  0.00     0.034 A 
ATOM     16  C   UNL     1      -7.670  12.186   6.295  1.00  0.00     0.034 A 
ATOM     17  C   UNL     1     -10.391  12.723   6.184  1.00  0.00     0.043 A 
ATOM     18  C   UNL     1      -8.269  12.934   7.289  1.00  0.00     0.043 A 
ATOM     19  C   UNL     1      -9.626  13.203   7.234  1.00  0.00     0.041 A 
ATOM     20  Cl  UNL     1     -12.092  13.065   6.125  1.00  0.00    -0.084 Cl
ATOM     21  Cl  UNL     1      -7.318  13.540   8.609  1.00  0.00    -0.084 Cl
ENDBRANCH   7  14
TORSDOF 3
ENDMDL
MODEL 6
REMARK VINA RESULT:    -4.101      3.845      7.595
REMARK INTER + INTRA:          -4.981
REMARK INTER:                  -4.700
REMARK INTRA:                  -0.281
REMARK UNBOUND:                -0.281
REMARK SMILES O=C(O)c1ccc2nc(-c3cc(Cl)cc(Cl)c3)oc2c1
REMARK SMILES IDX 5 1 6 2 20 3 8 4 18 5 4 6 9 7 7 8 19 9 2 10 1 11 3 12 10 14
REMARK SMILES IDX 11 15 17 16 12 17 15 18 14 19 13 20 16 21
REMARK H PARENT 3 13
ROOT
ATOM      1  C   UNL     1      -6.163   8.620   2.852  1.00  0.00     0.018 A 
ATOM      2  C   UNL     1      -6.953   9.723   2.725  1.00  0.00     0.033 A 
ATOM      3  C   UNL     1      -5.665   8.675   0.479  1.00  0.00     0.065 A 
ATOM      4  N   UNL     1      -7.818  11.399   1.044  1.00  0.00    -0.209 NA
ATOM      5  O   UNL     1      -6.815  10.573  -0.701  1.00  0.00    -0.436 OA
ATOM      6  C   UNL     1      -5.509   8.083   1.734  1.00  0.00     0.063 A 
ATOM      7  C   UNL     1      -7.633  11.540  -0.245  1.00  0.00     0.227 A 
ATOM      8  C   UNL     1      -7.118  10.326   1.472  1.00  0.00     0.110 A 
ATOM      9  C   UNL     1      -6.469   9.791   0.346  1.00  0.00     0.156 A 
ENDROOT
BRANCH   6  10
ATOM     10  C   UNL     1      -4.652   6.893   1.884  1.00  0.00     0.335 C 
ATOM     11  O   UNL     1      -5.135   5.840   2.250  1.00  0.00    -0.246 OA
BRANCH  10  12
ATOM     12  O   UNL     1      -3.333   6.973   1.617  1.00  0.00    -0.478 OA
ATOM     13  H   UNL     1      -2.938   6.235   1.134  1.00  0.00     0.297 HD
ENDBRANCH  10  12
ENDBRANCH   6  10
BRANCH   7  14
ATOM     14  C   UNL     1      -8.236  12.604  -1.075  1.00  0.00     0.040 A 
ATOM     15  C   UNL     1      -9.101  12.273  -2.119  1.00  0.00     0.034 A 
ATOM     16  C   UNL     1      -7.940  13.944  -0.819  1.00  0.00     0.034 A 
ATOM     17  C   UNL     1      -9.661  13.272  -2.891  1.00  0.00     0.043 A 
ATOM     18  C   UNL     1      -8.507  14.934  -1.597  1.00  0.00     0.043 A 
ATOM     19  C   UNL     1      -9.364  14.599  -2.631  1.00  0.00     0.041 A 
ATOM     20  Cl  UNL     1     -10.738  12.863  -4.189  1.00  0.00    -0.084 Cl
ATOM     21  Cl  UNL     1      -8.141  16.601  -1.280  1.00  0.00    -0.084 Cl
ENDBRANCH   7  14
TORSDOF 3
ENDMDL
MODEL 7
REMARK VINA RESULT:    -4.100      3.845      7.447
REMARK INTER + INTRA:          -4.980
REMARK INTER:                  -4.699
REMARK INTRA:                  -0.281
REMARK UNBOUND:                -0.281
REMARK SMILES O=C(O)c1ccc2nc(-c3cc(Cl)cc(Cl)c3)oc2c1
REMARK SMILES IDX 5 1 6 2 20 3 8 4 18 5 4 6 9 7 7 8 19 9 2 10 1 11 3 12 10 14
REMARK SMILES IDX 11 15 17 16 12 17 15 18 14 19 13 20 16 21
REMARK H PARENT 3 13
ROOT
ATOM      1  C   UNL     1      -6.161   8.615   2.844  1.00  0.00     0.018 A 
ATOM      2  C   UNL     1      -6.954   9.716   2.721  1.00  0.00     0.033 A 
ATOM      3  C   UNL     1      -5.659   8.681   0.473  1.00  0.00     0.065 A 
ATOM      4  N   UNL     1      -7.822  11.396   1.045  1.00  0.00    -0.209 NA
ATOM      5  O   UNL     1      -6.814  10.580  -0.702  1.00  0.00    -0.436 OA
ATOM      6  C   UNL     1      -5.503   8.085   1.725  1.00  0.00     0.063 A 
ATOM      7  C   UNL     1      -7.636  11.543  -0.243  1.00  0.00     0.227 A 
ATOM      8  C   UNL     1      -7.119  10.324   1.470  1.00  0.00     0.110 A 
ATOM      9  C   UNL     1      -6.467   9.795   0.342  1.00  0.00     0.156 A 
ENDROOT
BRANCH   6  10
ATOM     10  C   UNL     1      -4.643   6.897   1.872  1.00  0.00     0.335 C 
ATOM     11  O   UNL     1      -5.118   5.848   2.259  1.00  0.00    -0.246 OA
BRANCH  10  12
ATOM     12  O   UNL     1      -3.330   6.975   1.579  1.00  0.00    -0.478 OA
ATOM     13  H   UNL     1      -3.095   7.122   0.653  1.00  0.00     0.297 HD
ENDBRANCH  10  12
ENDBRANCH   6  10
BRANCH   7  14
ATOM     14  C   UNL     1      -8.240  12.608  -1.070  1.00  0.00     0.040 A 
ATOM     15  C   UNL     1      -7.951  13.948  -0.809  1.00  0.00     0.034 A 
ATOM     16  C   UNL     1      -9.104  12.277  -2.116  1.00  0.00     0.034 A 
ATOM     17  C   UNL     1      -8.518  14.938  -1.586  1.00  0.00     0.043 A 
ATOM     18  C   UNL     1      -9.665  13.276  -2.886  1.00  0.00     0.043 A 
ATOM     19  C   UNL     1      -9.374  14.604  -2.621  1.00  0.00     0.041 A 
ATOM     20  Cl  UNL     1      -8.159  16.606  -1.263  1.00  0.00    -0.084 Cl
ATOM     21  Cl  UNL     1     -10.740  12.867  -4.187  1.00  0.00    -0.084 Cl
ENDBRANCH   7  14
TORSDOF 3
ENDMDL
MODEL 8
REMARK VINA RESULT:    -4.097      5.720      7.468
REMARK INTER + INTRA:          -4.977
REMARK INTER:                  -4.698
REMARK INTRA:                  -0.279
REMARK UNBOUND:                -0.281
REMARK SMILES O=C(O)c1ccc2nc(-c3cc(Cl)cc(Cl)c3)oc2c1
REMARK SMILES IDX 5 1 6 2 20 3 8 4 18 5 4 6 9 7 7 8 19 9 2 10 1 11 3 12 10 14
REMARK SMILES IDX 11 15 17 16 12 17 15 18 14 19 13 20 16 21
REMARK H PARENT 3 13
ROOT
ATOM      1  C   UNL     1      -6.065   8.956   0.503  1.00  0.00     0.018 A 
ATOM      2  C   UNL     1      -6.749  10.067   0.897  1.00  0.00     0.033 A 
ATOM      3  C   UNL     1      -6.033   8.137   2.785  1.00  0.00     0.065 A 
ATOM      4  N   UNL     1      -7.744  11.208   2.920  1.00  0.00    -0.209 NA
ATOM      5  O   UNL     1      -7.178   9.702   4.385  1.00  0.00    -0.436 OA
ATOM      6  C   UNL     1      -5.701   7.977   1.439  1.00  0.00     0.063 A 
ATOM      7  C   UNL     1      -7.794  10.883   4.188  1.00  0.00     0.227 A 
ATOM      8  C   UNL     1      -7.088  10.239   2.245  1.00  0.00     0.110 A 
ATOM      9  C   UNL     1      -6.722   9.265   3.190  1.00  0.00     0.156 A 
ENDROOT
BRANCH   6  10
ATOM     10  C   UNL     1      -4.967   6.777   1.000  1.00  0.00     0.335 C 
ATOM     11  O   UNL     1      -3.792   6.858   0.702  1.00  0.00    -0.246 OA
BRANCH  10  12
ATOM     12  O   UNL     1      -5.599   5.589   0.927  1.00  0.00    -0.478 OA
ATOM     13  H   UNL     1      -6.333   5.519   0.302  1.00  0.00     0.297 HD
ENDBRANCH  10  12
ENDBRANCH   6  10
BRANCH   7  14
ATOM     14  C   UNL     1      -8.432  11.694   5.245  1.00  0.00     0.040 A 
ATOM     15  C   UNL     1      -7.669  12.195   6.301  1.00  0.00     0.034 A 
ATOM     16  C   UNL     1      -9.801  11.962   5.192  1.00  0.00     0.034 A 
ATOM     17  C   UNL     1      -8.271  12.953   7.285  1.00  0.00     0.043 A 
ATOM     18  C   UNL     1     -10.392  12.721   6.183  1.00  0.00     0.043 A 
ATOM     19  C   UNL     1      -9.630  13.215   7.227  1.00  0.00     0.041 A 
ATOM     20  Cl  UNL     1      -7.325  13.578   8.599  1.00  0.00    -0.084 Cl
ATOM     21  Cl  UNL     1     -12.095  13.055   6.119  1.00  0.00    -0.084 Cl
ENDBRANCH   7  14
TORSDOF 3
ENDMDL
MODEL 9
REMARK VINA RESULT:    -4.011      4.916      8.748
REMARK INTER + INTRA:          -4.878
REMARK INTER:                  -4.581
REMARK INTRA:                  -0.298
REMARK UNBOUND:                -0.281
REMARK SMILES O=C(O)c1ccc2nc(-c3cc(Cl)cc(Cl)c3)oc2c1
REMARK SMILES IDX 5 1 6 2 20 3 8 4 18 5 4 6 9 7 7 8 19 9 2 10 1 11 3 12 10 14
REMARK SMILES IDX 11 15 17 16 12 17 15 18 14 19 13 20 16 21
REMARK H PARENT 3 13
ROOT
ATOM      1  C   UNL     1      -3.316   3.838   2.138  1.00  0.00     0.018 A 
ATOM      2  C   UNL     1      -4.096   4.718   2.826  1.00  0.00     0.033 A 
ATOM      3  C   UNL     1      -3.449   5.232   0.158  1.00  0.00     0.065 A 
ATOM      4  N   UNL     1      -5.344   6.904   2.605  1.00  0.00    -0.209 NA
ATOM      5  O   UNL     1      -4.840   7.294   0.524  1.00  0.00    -0.436 OA
ATOM      6  C   UNL     1      -2.981   4.083   0.799  1.00  0.00     0.063 A 
ATOM      7  C   UNL     1      -5.498   7.742   1.610  1.00  0.00     0.227 A 
ATOM      8  C   UNL     1      -4.572   5.874   2.195  1.00  0.00     0.110 A 
ATOM      9  C   UNL     1      -4.245   6.125   0.851  1.00  0.00     0.156 A 
ENDROOT
BRANCH   6  10
ATOM     10  C   UNL     1      -2.131   3.127   0.067  1.00  0.00     0.335 C 
ATOM     11  O   UNL     1      -1.779   2.094   0.601  1.00  0.00    -0.246 OA
BRANCH  10  12
ATOM     12  O   UNL     1      -1.743   3.398  -1.195  1.00  0.00    -0.478 OA
ATOM     13  H   UNL     1      -0.811   3.617  -1.331  1.00  0.00     0.297 HD
ENDBRANCH  10  12
ENDBRANCH   6  10
BRANCH   7  14
ATOM     14  C   UNL     1      -6.280   8.994   1.670  1.00  0.00     0.040 A 
ATOM     15  C   UNL     1      -6.553   9.708   0.503  1.00  0.00     0.034 A 
ATOM     16  C   UNL     1      -6.749   9.468   2.897  1.00  0.00     0.034 A 
ATOM     17  C   UNL     1      -7.286  10.877   0.566  1.00  0.00     0.043 A 
ATOM     18  C   UNL     1      -7.480  10.638   2.948  1.00  0.00     0.043 A 
ATOM     19  C   UNL     1      -7.747  11.341   1.786  1.00  0.00     0.041 A 
ATOM     20  Cl  UNL     1      -7.627  11.766  -0.885  1.00  0.00    -0.084 Cl
ATOM     21  Cl  UNL     1      -8.064  11.229   4.473  1.00  0.00    -0.084 Cl
ENDBRANCH   7  14
TORSDOF 3
ENDMDL
