MODEL 1
REMARK VINA RESULT:    -5.457      0.000      0.000
REMARK INTER + INTRA:          -8.139
REMARK INTER:                  -7.531
REMARK INTRA:                  -0.609
REMARK UNBOUND:                -0.609
REMARK SMILES Cc1n[nH]c(C)c1CCCOc1cc(C(=O)O)ccc1F
REMARK SMILES IDX 11 1 12 2 14 3 18 4 13 5 19 6 20 7 21 8 15 9 16 10 17 11
REMARK SMILES IDX 10 13 9 14 8 15 7 16 5 17 2 18 4 19 3 20 6 21 1 22
REMARK H PARENT 17 12 4 23
ROOT
ATOM      1  O   UNL     1      -5.379   5.935   2.384  1.00  0.00    -0.490 OA
ENDROOT
BRANCH   1   2
ATOM      2  C   UNL     1      -4.372   5.215   1.821  1.00  0.00     0.155 A 
ATOM      3  C   UNL     1      -2.562   5.034   0.249  1.00  0.00     0.063 A 
ATOM      4  C   UNL     1      -2.314   3.731   0.691  1.00  0.00     0.019 A 
ATOM      5  C   UNL     1      -3.598   5.774   0.821  1.00  0.00     0.065 A 
ATOM      6  C   UNL     1      -3.087   3.185   1.693  1.00  0.00     0.044 A 
ATOM      7  C   UNL     1      -4.112   3.923   2.262  1.00  0.00     0.165 A 
ATOM      8  F   UNL     1      -4.866   3.381   3.244  1.00  0.00    -0.203 F 
BRANCH   3   9
ATOM      9  C   UNL     1      -1.735   5.622  -0.823  1.00  0.00     0.335 C 
ATOM     10  O   UNL     1      -2.258   6.025  -1.842  1.00  0.00    -0.246 OA
BRANCH   9  11
ATOM     11  O   UNL     1      -0.400   5.718  -0.668  1.00  0.00    -0.478 OA
ATOM     12  H   UNL     1      -0.072   6.447  -0.122  1.00  0.00     0.297 HD
ENDBRANCH   9  11
ENDBRANCH   3   9
ENDBRANCH   1   2
BRANCH   1  13
ATOM     13  C   UNL     1      -6.662   5.855   1.758  1.00  0.00     0.230 C 
BRANCH  13  14
ATOM     14  C   UNL     1      -7.320   7.236   1.766  1.00  0.00     0.046 C 
BRANCH  14  15
ATOM     15  C   UNL     1      -6.250   8.309   1.979  1.00  0.00     0.043 C 
BRANCH  15  16
ATOM     16  C   UNL     1      -6.906   9.661   2.082  1.00  0.00    -0.004 A 
ATOM     17  C   UNL     1      -7.201  10.484   1.048  1.00  0.00     0.036 A 
ATOM     18  C   UNL     1      -7.326  10.286   3.261  1.00  0.00     0.063 A 
ATOM     19  N   UNL     1      -7.780  11.593   1.557  1.00  0.00    -0.282 N 
ATOM     20  N   UNL     1      -7.843  11.446   2.949  1.00  0.00    -0.181 NA
ATOM     21  C   UNL     1      -6.930  10.212  -0.408  1.00  0.00     0.066 C 
ATOM     22  C   UNL     1      -7.194   9.723   4.654  1.00  0.00     0.069 C 
ATOM     23  H   UNL     1      -8.095  12.356   1.049  1.00  0.00     0.190 HD
ENDBRANCH  15  16
ENDBRANCH  14  15
ENDBRANCH  13  14
ENDBRANCH   1  13
TORSDOF 7
ENDMDL
MODEL 2
REMARK VINA RESULT:    -5.424      1.994      3.738
REMARK INTER + INTRA:          -8.093
REMARK INTER:                  -7.517
REMARK INTRA:                  -0.576
REMARK UNBOUND:                -0.609
REMARK SMILES Cc1n[nH]c(C)c1CCCOc1cc(C(=O)O)ccc1F
REMARK SMILES IDX 11 1 12 2 14 3 18 4 13 5 19 6 20 7 21 8 15 9 16 10 17 11
REMARK SMILES IDX 10 13 9 14 8 15 7 16 5 17 2 18 4 19 3 20 6 21 1 22
REMARK H PARENT 17 12 4 23
ROOT
ATOM      1  O   UNL     1      -3.833   7.168   0.381  1.00  0.00    -0.490 OA
ENDROOT
BRANCH   1   2
ATOM      2  C   UNL     1      -3.520   5.885   0.703  1.00  0.00     0.155 A 
ATOM      3  C   UNL     1      -3.903   3.909   2.018  1.00  0.00     0.063 A 
ATOM      4  C   UNL     1      -2.870   3.259   1.337  1.00  0.00     0.019 A 
ATOM      5  C   UNL     1      -4.225   5.229   1.694  1.00  0.00     0.065 A 
ATOM      6  C   UNL     1      -2.177   3.920   0.345  1.00  0.00     0.044 A 
ATOM      7  C   UNL     1      -2.500   5.227   0.022  1.00  0.00     0.165 A 
ATOM      8  F   UNL     1      -1.817   5.869  -0.951  1.00  0.00    -0.203 F 
BRANCH   3   9
ATOM      9  C   UNL     1      -4.648   3.204   3.080  1.00  0.00     0.335 C 
ATOM     10  O   UNL     1      -4.698   3.671   4.200  1.00  0.00    -0.246 OA
BRANCH   9  11
ATOM     11  O   UNL     1      -5.279   2.046   2.805  1.00  0.00    -0.478 OA
ATOM     12  H   UNL     1      -5.473   1.861   1.875  1.00  0.00     0.297 HD
ENDBRANCH   9  11
ENDBRANCH   3   9
ENDBRANCH   1   2
BRANCH   1  13
ATOM     13  C   UNL     1      -3.188   8.201   1.130  1.00  0.00     0.230 C 
BRANCH  13  14
ATOM     14  C   UNL     1      -4.201   9.297   1.464  1.00  0.00     0.046 C 
BRANCH  14  15
ATOM     15  C   UNL     1      -5.618   8.774   1.217  1.00  0.00     0.043 C 
BRANCH  15  16
ATOM     16  C   UNL     1      -6.609   9.891   1.422  1.00  0.00    -0.004 A 
ATOM     17  C   UNL     1      -7.117  10.296   2.610  1.00  0.00     0.036 A 
ATOM     18  C   UNL     1      -7.161  10.696   0.421  1.00  0.00     0.063 A 
ATOM     19  N   UNL     1      -7.966  11.316   2.367  1.00  0.00    -0.282 N 
ATOM     20  N   UNL     1      -7.980  11.546   0.985  1.00  0.00    -0.181 NA
ATOM     21  C   UNL     1      -6.793   9.712   3.960  1.00  0.00     0.066 C 
ATOM     22  C   UNL     1      -6.873  10.593  -1.055  1.00  0.00     0.069 C 
ATOM     23  H   UNL     1      -8.477  11.804   3.031  1.00  0.00     0.190 HD
ENDBRANCH  15  16
ENDBRANCH  14  15
ENDBRANCH  13  14
ENDBRANCH   1  13
TORSDOF 7
ENDMDL
MODEL 3
REMARK VINA RESULT:    -5.409      0.165      1.772
REMARK INTER + INTRA:          -8.072
REMARK INTER:                  -7.417
REMARK INTRA:                  -0.656
REMARK UNBOUND:                -0.609
REMARK SMILES Cc1n[nH]c(C)c1CCCOc1cc(C(=O)O)ccc1F
REMARK SMILES IDX 11 1 12 2 14 3 18 4 13 5 19 6 20 7 21 8 15 9 16 10 17 11
REMARK SMILES IDX 10 13 9 14 8 15 7 16 5 17 2 18 4 19 3 20 6 21 1 22
REMARK H PARENT 17 12 4 23
ROOT
ATOM      1  O   UNL     1      -5.434   5.960   2.352  1.00  0.00    -0.490 OA
ENDROOT
BRANCH   1   2
ATOM      2  C   UNL     1      -4.416   5.239   1.810  1.00  0.00     0.155 A 
ATOM      3  C   UNL     1      -2.584   5.048   0.265  1.00  0.00     0.063 A 
ATOM      4  C   UNL     1      -2.336   3.751   0.725  1.00  0.00     0.019 A 
ATOM      5  C   UNL     1      -3.631   5.790   0.815  1.00  0.00     0.065 A 
ATOM      6  C   UNL     1      -3.122   3.212   1.722  1.00  0.00     0.044 A 
ATOM      7  C   UNL     1      -4.157   3.952   2.269  1.00  0.00     0.165 A 
ATOM      8  F   UNL     1      -4.922   3.418   3.246  1.00  0.00    -0.203 F 
BRANCH   3   9
ATOM      9  C   UNL     1      -1.745   5.628  -0.802  1.00  0.00     0.335 C 
ATOM     10  O   UNL     1      -2.254   6.009  -1.835  1.00  0.00    -0.246 OA
BRANCH   9  11
ATOM     11  O   UNL     1      -0.414   5.742  -0.625  1.00  0.00    -0.478 OA
ATOM     12  H   UNL     1      -0.105   6.472  -0.071  1.00  0.00     0.297 HD
ENDBRANCH   9  11
ENDBRANCH   3   9
ENDBRANCH   1   2
BRANCH   1  13
ATOM     13  C   UNL     1      -6.682   5.946   1.654  1.00  0.00     0.230 C 
BRANCH  13  14
ATOM     14  C   UNL     1      -7.368   7.304   1.811  1.00  0.00     0.046 C 
BRANCH  14  15
ATOM     15  C   UNL     1      -6.310   8.391   2.008  1.00  0.00     0.043 C 
BRANCH  15  16
ATOM     16  C   UNL     1      -6.987   9.717   2.237  1.00  0.00    -0.004 A 
ATOM     17  C   UNL     1      -7.360  10.225   3.435  1.00  0.00     0.036 A 
ATOM     18  C   UNL     1      -7.336  10.645   1.250  1.00  0.00     0.063 A 
ATOM     19  N   UNL     1      -7.930  11.428   3.213  1.00  0.00    -0.282 N 
ATOM     20  N   UNL     1      -7.907  11.667   1.833  1.00  0.00    -0.181 NA
ATOM     21  C   UNL     1      -7.171   9.565   4.776  1.00  0.00     0.066 C 
ATOM     22  C   UNL     1      -7.105  10.488  -0.232  1.00  0.00     0.069 C 
ATOM     23  H   UNL     1      -8.293  12.021   3.889  1.00  0.00     0.190 HD
ENDBRANCH  15  16
ENDBRANCH  14  15
ENDBRANCH  13  14
ENDBRANCH   1  13
TORSDOF 7
ENDMDL
MODEL 4
REMARK VINA RESULT:    -4.663      3.750      7.091
REMARK INTER + INTRA:          -7.044
REMARK INTER:                  -6.219
REMARK INTRA:                  -0.825
REMARK UNBOUND:                -0.609
REMARK SMILES Cc1n[nH]c(C)c1CCCOc1cc(C(=O)O)ccc1F
REMARK SMILES IDX 11 1 12 2 14 3 18 4 13 5 19 6 20 7 21 8 15 9 16 10 17 11
REMARK SMILES IDX 10 13 9 14 8 15 7 16 5 17 2 18 4 19 3 20 6 21 1 22
REMARK H PARENT 17 12 4 23
ROOT
ATOM      1  O   UNL     1      -5.043   7.810   0.488  1.00  0.00    -0.490 OA
ENDROOT
BRANCH   1   2
ATOM      2  C   UNL     1      -5.834   8.767   1.043  1.00  0.00     0.155 A 
ATOM      3  C   UNL     1      -6.796   9.814   2.982  1.00  0.00     0.063 A 
ATOM      4  C   UNL     1      -7.446  10.736   2.157  1.00  0.00     0.019 A 
ATOM      5  C   UNL     1      -5.987   8.826   2.416  1.00  0.00     0.065 A 
ATOM      6  C   UNL     1      -7.282  10.672   0.790  1.00  0.00     0.044 A 
ATOM      7  C   UNL     1      -6.475   9.695   0.230  1.00  0.00     0.165 A 
ATOM      8  F   UNL     1      -6.319   9.638  -1.111  1.00  0.00    -0.203 F 
BRANCH   3   9
ATOM      9  C   UNL     1      -6.969   9.879   4.447  1.00  0.00     0.335 C 
ATOM     10  O   UNL     1      -6.226  10.568   5.116  1.00  0.00    -0.246 OA
BRANCH   9  11
ATOM     11  O   UNL     1      -7.956   9.179   5.040  1.00  0.00    -0.478 OA
ATOM     12  H   UNL     1      -7.692   8.519   5.697  1.00  0.00     0.297 HD
ENDBRANCH   9  11
ENDBRANCH   3   9
ENDBRANCH   1   2
BRANCH   1  13
ATOM     13  C   UNL     1      -3.803   7.533   1.144  1.00  0.00     0.230 C 
BRANCH  13  14
ATOM     14  C   UNL     1      -3.128   6.336   0.472  1.00  0.00     0.046 C 
BRANCH  14  15
ATOM     15  C   UNL     1      -4.195   5.334   0.024  1.00  0.00     0.043 C 
BRANCH  15  16
ATOM     16  C   UNL     1      -4.488   4.374   1.148  1.00  0.00    -0.004 A 
ATOM     17  C   UNL     1      -3.630   3.461   1.659  1.00  0.00     0.036 A 
ATOM     18  C   UNL     1      -5.692   4.275   1.852  1.00  0.00     0.063 A 
ATOM     19  N   UNL     1      -4.271   2.802   2.647  1.00  0.00    -0.282 N 
ATOM     20  N   UNL     1      -5.566   3.328   2.746  1.00  0.00    -0.181 NA
ATOM     21  C   UNL     1      -2.213   3.222   1.206  1.00  0.00     0.066 C 
ATOM     22  C   UNL     1      -6.927   5.106   1.614  1.00  0.00     0.069 C 
ATOM     23  H   UNL     1      -3.901   2.089   3.191  1.00  0.00     0.190 HD
ENDBRANCH  15  16
ENDBRANCH  14  15
ENDBRANCH  13  14
ENDBRANCH   1  13
TORSDOF 7
ENDMDL
MODEL 5
REMARK VINA RESULT:    -4.657      3.744      6.585
REMARK INTER + INTRA:          -7.035
REMARK INTER:                  -6.199
REMARK INTRA:                  -0.836
REMARK UNBOUND:                -0.609
REMARK SMILES Cc1n[nH]c(C)c1CCCOc1cc(C(=O)O)ccc1F
REMARK SMILES IDX 11 1 12 2 14 3 18 4 13 5 19 6 20 7 21 8 15 9 16 10 17 11
REMARK SMILES IDX 10 13 9 14 8 15 7 16 5 17 2 18 4 19 3 20 6 21 1 22
REMARK H PARENT 17 12 4 23
ROOT
ATOM      1  O   UNL     1      -5.441   7.300   2.543  1.00  0.00    -0.490 OA
ENDROOT
BRANCH   1   2
ATOM      2  C   UNL     1      -6.083   8.460   2.241  1.00  0.00     0.155 A 
ATOM      3  C   UNL     1      -6.884  10.041   0.616  1.00  0.00     0.063 A 
ATOM      4  C   UNL     1      -7.407  10.828   1.645  1.00  0.00     0.019 A 
ATOM      5  C   UNL     1      -6.219   8.851   0.922  1.00  0.00     0.065 A 
ATOM      6  C   UNL     1      -7.270  10.427   2.957  1.00  0.00     0.044 A 
ATOM      7  C   UNL     1      -6.615   9.244   3.258  1.00  0.00     0.165 A 
ATOM      8  F   UNL     1      -6.485   8.856   4.546  1.00  0.00    -0.203 F 
BRANCH   3   9
ATOM      9  C   UNL     1      -7.028  10.468  -0.790  1.00  0.00     0.335 C 
ATOM     10  O   UNL     1      -6.155  11.125  -1.318  1.00  0.00    -0.246 OA
BRANCH   9  11
ATOM     11  O   UNL     1      -8.127  10.122  -1.489  1.00  0.00    -0.478 OA
ATOM     12  H   UNL     1      -8.562  10.820  -1.999  1.00  0.00     0.297 HD
ENDBRANCH   9  11
ENDBRANCH   3   9
ENDBRANCH   1   2
BRANCH   1  13
ATOM     13  C   UNL     1      -5.774   6.151   1.760  1.00  0.00     0.230 C 
BRANCH  13  14
ATOM     14  C   UNL     1      -4.865   4.986   2.152  1.00  0.00     0.046 C 
BRANCH  14  15
ATOM     15  C   UNL     1      -3.466   5.517   2.474  1.00  0.00     0.043 C 
BRANCH  15  16
ATOM     16  C   UNL     1      -2.653   5.595   1.208  1.00  0.00    -0.004 A 
ATOM     17  C   UNL     1      -2.197   6.726   0.623  1.00  0.00     0.036 A 
ATOM     18  C   UNL     1      -2.232   4.509   0.432  1.00  0.00     0.063 A 
ATOM     19  N   UNL     1      -1.516   6.370  -0.487  1.00  0.00    -0.282 N 
ATOM     20  N   UNL     1      -1.556   4.974  -0.587  1.00  0.00    -0.181 NA
ATOM     21  C   UNL     1      -2.410   8.132   1.122  1.00  0.00     0.066 C 
ATOM     22  C   UNL     1      -2.518   3.057   0.715  1.00  0.00     0.069 C 
ATOM     23  H   UNL     1      -1.078   6.975  -1.106  1.00  0.00     0.190 HD
ENDBRANCH  15  16
ENDBRANCH  14  15
ENDBRANCH  13  14
ENDBRANCH   1  13
TORSDOF 7
ENDMDL
MODEL 6
REMARK VINA RESULT:    -4.636      3.707      5.100
REMARK INTER + INTRA:          -7.007
REMARK INTER:                  -6.422
REMARK INTRA:                  -0.585
REMARK UNBOUND:                -0.609
REMARK SMILES Cc1n[nH]c(C)c1CCCOc1cc(C(=O)O)ccc1F
REMARK SMILES IDX 11 1 12 2 14 3 18 4 13 5 19 6 20 7 21 8 15 9 16 10 17 11
REMARK SMILES IDX 10 13 9 14 8 15 7 16 5 17 2 18 4 19 3 20 6 21 1 22
REMARK H PARENT 17 12 4 23
ROOT
ATOM      1  O   UNL     1      -6.879  10.105   1.009  1.00  0.00    -0.490 OA
ENDROOT
BRANCH   1   2
ATOM      2  C   UNL     1      -6.006   9.092   1.256  1.00  0.00     0.155 A 
ATOM      3  C   UNL     1      -3.756   8.248   1.333  1.00  0.00     0.063 A 
ATOM      4  C   UNL     1      -4.239   7.013   1.777  1.00  0.00     0.019 A 
ATOM      5  C   UNL     1      -4.650   9.289   1.074  1.00  0.00     0.065 A 
ATOM      6  C   UNL     1      -5.593   6.829   1.962  1.00  0.00     0.044 A 
ATOM      7  C   UNL     1      -6.477   7.864   1.708  1.00  0.00     0.165 A 
ATOM      8  F   UNL     1      -7.803   7.677   1.892  1.00  0.00    -0.203 F 
BRANCH   3   9
ATOM      9  C   UNL     1      -2.308   8.449   1.135  1.00  0.00     0.335 C 
ATOM     10  O   UNL     1      -1.563   7.491   1.083  1.00  0.00    -0.246 OA
BRANCH   9  11
ATOM     11  O   UNL     1      -1.813   9.695   1.004  1.00  0.00    -0.478 OA
ATOM     12  H   UNL     1      -1.021   9.798   0.457  1.00  0.00     0.297 HD
ENDBRANCH   9  11
ENDBRANCH   3   9
ENDBRANCH   1   2
BRANCH   1  13
ATOM     13  C   UNL     1      -7.328  10.260  -0.339  1.00  0.00     0.230 C 
BRANCH  13  14
ATOM     14  C   UNL     1      -7.061  11.692  -0.804  1.00  0.00     0.046 C 
BRANCH  14  15
ATOM     15  C   UNL     1      -8.252  12.579  -0.433  1.00  0.00     0.043 C 
BRANCH  15  16
ATOM     16  C   UNL     1      -8.671  13.388  -1.633  1.00  0.00    -0.004 A 
ATOM     17  C   UNL     1      -9.471  12.964  -2.639  1.00  0.00     0.036 A 
ATOM     18  C   UNL     1      -8.306  14.711  -1.902  1.00  0.00     0.063 A 
ATOM     19  N   UNL     1      -9.603  13.981  -3.516  1.00  0.00    -0.282 N 
ATOM     20  N   UNL     1      -8.858  15.066  -3.034  1.00  0.00    -0.181 NA
ATOM     21  C   UNL     1     -10.102  11.602  -2.757  1.00  0.00     0.066 C 
ATOM     22  C   UNL     1      -7.420  15.576  -1.042  1.00  0.00     0.069 C 
ATOM     23  H   UNL     1     -10.120  13.964  -4.336  1.00  0.00     0.190 HD
ENDBRANCH  15  16
ENDBRANCH  14  15
ENDBRANCH  13  14
ENDBRANCH   1  13
TORSDOF 7
ENDMDL
MODEL 7
REMARK VINA RESULT:    -4.615      3.668      5.358
REMARK INTER + INTRA:          -6.978
REMARK INTER:                  -6.393
REMARK INTRA:                  -0.585
REMARK UNBOUND:                -0.609
REMARK SMILES Cc1n[nH]c(C)c1CCCOc1cc(C(=O)O)ccc1F
REMARK SMILES IDX 11 1 12 2 14 3 18 4 13 5 19 6 20 7 21 8 15 9 16 10 17 11
REMARK SMILES IDX 10 13 9 14 8 15 7 16 5 17 2 18 4 19 3 20 6 21 1 22
REMARK H PARENT 17 12 4 23
ROOT
ATOM      1  O   UNL     1      -6.920   9.772   2.565  1.00  0.00    -0.490 OA
ENDROOT
BRANCH   1   2
ATOM      2  C   UNL     1      -6.295   8.669   2.073  1.00  0.00     0.155 A 
ATOM      3  C   UNL     1      -6.284   6.312   1.599  1.00  0.00     0.063 A 
ATOM      4  C   UNL     1      -5.004   6.432   1.052  1.00  0.00     0.019 A 
ATOM      5  C   UNL     1      -6.928   7.441   2.111  1.00  0.00     0.065 A 
ATOM      6  C   UNL     1      -4.384   7.662   1.013  1.00  0.00     0.044 A 
ATOM      7  C   UNL     1      -5.026   8.782   1.516  1.00  0.00     0.165 A 
ATOM      8  F   UNL     1      -4.412   9.985   1.474  1.00  0.00    -0.203 F 
BRANCH   3   9
ATOM      9  C   UNL     1      -6.952   4.996   1.643  1.00  0.00     0.335 C 
ATOM     10  O   UNL     1      -6.300   3.980   1.513  1.00  0.00    -0.246 OA
BRANCH   9  11
ATOM     11  O   UNL     1      -8.284   4.923   1.832  1.00  0.00    -0.478 OA
ATOM     12  H   UNL     1      -8.624   4.120   2.252  1.00  0.00     0.297 HD
ENDBRANCH   9  11
ENDBRANCH   3   9
ENDBRANCH   1   2
BRANCH   1  13
ATOM     13  C   UNL     1      -6.727  10.062   3.952  1.00  0.00     0.230 C 
BRANCH  13  14
ATOM     14  C   UNL     1      -8.086  10.282   4.620  1.00  0.00     0.046 C 
BRANCH  14  15
ATOM     15  C   UNL     1      -8.461  11.763   4.535  1.00  0.00     0.043 C 
BRANCH  15  16
ATOM     16  C   UNL     1      -8.874  12.256   5.898  1.00  0.00    -0.004 A 
ATOM     17  C   UNL     1     -10.145  12.390   6.345  1.00  0.00     0.036 A 
ATOM     18  C   UNL     1      -8.013  12.649   6.927  1.00  0.00     0.063 A 
ATOM     19  N   UNL     1     -10.089  12.858   7.610  1.00  0.00    -0.282 N 
ATOM     20  N   UNL     1      -8.739  13.017   7.951  1.00  0.00    -0.181 NA
ATOM     21  C   UNL     1     -11.397  12.073   5.570  1.00  0.00     0.066 C 
ATOM     22  C   UNL     1      -6.506  12.660   6.863  1.00  0.00     0.069 C 
ATOM     23  H   UNL     1     -10.848  13.051   8.181  1.00  0.00     0.190 HD
ENDBRANCH  15  16
ENDBRANCH  14  15
ENDBRANCH  13  14
ENDBRANCH   1  13
TORSDOF 7
ENDMDL
MODEL 8
REMARK VINA RESULT:    -4.559      3.729      5.509
REMARK INTER + INTRA:          -6.900
REMARK INTER:                  -6.253
REMARK INTRA:                  -0.646
REMARK UNBOUND:                -0.609
REMARK SMILES Cc1n[nH]c(C)c1CCCOc1cc(C(=O)O)ccc1F
REMARK SMILES IDX 11 1 12 2 14 3 18 4 13 5 19 6 20 7 21 8 15 9 16 10 17 11
REMARK SMILES IDX 10 13 9 14 8 15 7 16 5 17 2 18 4 19 3 20 6 21 1 22
REMARK H PARENT 17 12 4 23
ROOT
ATOM      1  O   UNL     1      -6.784   9.852   1.028  1.00  0.00    -0.490 OA
ENDROOT
BRANCH   1   2
ATOM      2  C   UNL     1      -6.041   8.732   1.239  1.00  0.00     0.155 A 
ATOM      3  C   UNL     1      -5.898   6.358   1.591  1.00  0.00     0.063 A 
ATOM      4  C   UNL     1      -4.506   6.456   1.660  1.00  0.00     0.019 A 
ATOM      5  C   UNL     1      -6.664   7.506   1.379  1.00  0.00     0.065 A 
ATOM      6  C   UNL     1      -3.893   7.683   1.514  1.00  0.00     0.044 A 
ATOM      7  C   UNL     1      -4.655   8.819   1.299  1.00  0.00     0.165 A 
ATOM      8  F   UNL     1      -4.048  10.018   1.156  1.00  0.00    -0.203 F 
BRANCH   3   9
ATOM      9  C   UNL     1      -6.557   5.046   1.746  1.00  0.00     0.335 C 
ATOM     10  O   UNL     1      -5.902   4.070   2.050  1.00  0.00    -0.246 OA
BRANCH   9  11
ATOM     11  O   UNL     1      -7.886   4.934   1.558  1.00  0.00    -0.478 OA
ATOM     12  H   UNL     1      -8.347   4.257   2.073  1.00  0.00     0.297 HD
ENDBRANCH   9  11
ENDBRANCH   3   9
ENDBRANCH   1   2
BRANCH   1  13
ATOM     13  C   UNL     1      -7.273  10.064  -0.298  1.00  0.00     0.230 C 
BRANCH  13  14
ATOM     14  C   UNL     1      -6.982  11.505  -0.723  1.00  0.00     0.046 C 
BRANCH  14  15
ATOM     15  C   UNL     1      -8.157  12.401  -0.328  1.00  0.00     0.043 C 
BRANCH  15  16
ATOM     16  C   UNL     1      -8.589  13.219  -1.517  1.00  0.00    -0.004 A 
ATOM     17  C   UNL     1      -8.238  14.501  -1.772  1.00  0.00     0.036 A 
ATOM     18  C   UNL     1      -9.419  12.786  -2.556  1.00  0.00     0.063 A 
ATOM     19  N   UNL     1      -8.830  14.868  -2.928  1.00  0.00    -0.282 N 
ATOM     20  N   UNL     1      -9.569  13.775  -3.399  1.00  0.00    -0.181 NA
ATOM     21  C   UNL     1      -7.346  15.363  -0.918  1.00  0.00     0.066 C 
ATOM     22  C   UNL     1     -10.042  11.419  -2.679  1.00  0.00     0.069 C 
ATOM     23  H   UNL     1      -8.757  15.735  -3.356  1.00  0.00     0.190 HD
ENDBRANCH  15  16
ENDBRANCH  14  15
ENDBRANCH  13  14
ENDBRANCH   1  13
TORSDOF 7
ENDMDL
MODEL 9
REMARK VINA RESULT:    -4.460      9.023     11.313
REMARK INTER + INTRA:          -6.764
REMARK INTER:                  -4.949
REMARK INTRA:                  -1.815
REMARK UNBOUND:                -0.609
REMARK SMILES Cc1n[nH]c(C)c1CCCOc1cc(C(=O)O)ccc1F
REMARK SMILES IDX 11 1 12 2 14 3 18 4 13 5 19 6 20 7 21 8 15 9 16 10 17 11
REMARK SMILES IDX 10 13 9 14 8 15 7 16 5 17 2 18 4 19 3 20 6 21 1 22
REMARK H PARENT 17 12 4 23
ROOT
ATOM      1  O   UNL     1      -8.978  16.785   6.647  1.00  0.00    -0.490 OA
ENDROOT
BRANCH   1   2
ATOM      2  C   UNL     1      -9.649  15.673   6.245  1.00  0.00     0.155 A 
ATOM      3  C   UNL     1     -10.205  14.072   4.539  1.00  0.00     0.063 A 
ATOM      4  C   UNL     1     -11.023  13.394   5.447  1.00  0.00     0.019 A 
ATOM      5  C   UNL     1      -9.518  15.217   4.947  1.00  0.00     0.065 A 
ATOM      6  C   UNL     1     -11.143  13.853   6.742  1.00  0.00     0.044 A 
ATOM      7  C   UNL     1     -10.456  14.986   7.145  1.00  0.00     0.165 A 
ATOM      8  F   UNL     1     -10.579  15.431   8.416  1.00  0.00    -0.203 F 
BRANCH   3   9
ATOM      9  C   UNL     1     -10.074  13.584   3.153  1.00  0.00     0.335 C 
ATOM     10  O   UNL     1      -9.098  12.939   2.826  1.00  0.00    -0.246 OA
BRANCH   9  11
ATOM     11  O   UNL     1     -11.040  13.847   2.252  1.00  0.00    -0.478 OA
ATOM     12  H   UNL     1     -11.955  13.702   2.533  1.00  0.00     0.297 HD
ENDBRANCH   9  11
ENDBRANCH   3   9
ENDBRANCH   1   2
BRANCH   1  13
ATOM     13  C   UNL     1      -7.549  16.722   6.628  1.00  0.00     0.230 C 
BRANCH  13  14
ATOM     14  C   UNL     1      -7.012  16.925   8.046  1.00  0.00     0.046 C 
BRANCH  14  15
ATOM     15  C   UNL     1      -6.092  15.759   8.415  1.00  0.00     0.043 C 
BRANCH  15  16
ATOM     16  C   UNL     1      -6.923  14.550   8.755  1.00  0.00    -0.004 A 
ATOM     17  C   UNL     1      -7.764  14.432   9.808  1.00  0.00     0.036 A 
ATOM     18  C   UNL     1      -6.966  13.351   8.034  1.00  0.00     0.063 A 
ATOM     19  N   UNL     1      -8.315  13.201   9.760  1.00  0.00    -0.282 N 
ATOM     20  N   UNL     1      -7.795  12.540   8.639  1.00  0.00    -0.181 NA
ATOM     21  C   UNL     1      -8.037  15.487  10.849  1.00  0.00     0.066 C 
ATOM     22  C   UNL     1      -6.184  13.043   6.783  1.00  0.00     0.069 C 
ATOM     23  H   UNL     1      -8.957  12.838  10.390  1.00  0.00     0.190 HD
ENDBRANCH  15  16
ENDBRANCH  14  15
ENDBRANCH  13  14
ENDBRANCH   1  13
TORSDOF 7
ENDMDL
