MODEL 1
REMARK VINA RESULT:    -4.302      0.000      0.000
REMARK INTER + INTRA:          -5.213
REMARK INTER:                  -4.931
REMARK INTRA:                  -0.282
REMARK UNBOUND:                -0.282
REMARK SMILES O=C(O)c1ccc2nc(-c3cc(Cl)cc(Cl)c3)oc2c1
REMARK SMILES IDX 5 1 6 2 20 3 8 4 18 5 4 6 9 7 7 8 19 9 2 10 1 11 3 12 10 14
REMARK SMILES IDX 11 15 17 16 12 17 15 18 14 19 13 20 16 21
REMARK H PARENT 3 13
ROOT
ATOM      1  C   UNL     1      -3.476 -18.310   0.428  1.00  0.00     0.018 A 
ATOM      2  C   UNL     1      -3.338 -17.604   1.585  1.00  0.00     0.033 A 
ATOM      3  C   UNL     1      -2.687 -16.409  -0.854  1.00  0.00     0.065 A 
ATOM      4  N   UNL     1      -2.639 -15.356   2.502  1.00  0.00    -0.209 NA
ATOM      5  O   UNL     1      -2.139 -14.431   0.597  1.00  0.00    -0.436 OA
ATOM      6  C   UNL     1      -3.152 -17.725  -0.804  1.00  0.00     0.063 A 
ATOM      7  C   UNL     1      -2.203 -14.260   1.931  1.00  0.00     0.227 A 
ATOM      8  C   UNL     1      -2.873 -16.283   1.549  1.00  0.00     0.110 A 
ATOM      9  C   UNL     1      -2.551 -15.687   0.317  1.00  0.00     0.156 A 
ENDROOT
BRANCH   6  10
ATOM     10  C   UNL     1      -3.299 -18.501  -2.048  1.00  0.00     0.335 C 
ATOM     11  O   UNL     1      -2.371 -19.166  -2.463  1.00  0.00    -0.246 OA
BRANCH  10  12
ATOM     12  O   UNL     1      -4.463 -18.472  -2.727  1.00  0.00    -0.478 OA
ATOM     13  H   UNL     1      -4.867 -17.605  -2.870  1.00  0.00     0.297 HD
ENDBRANCH  10  12
ENDBRANCH   6  10
BRANCH   7  14
ATOM     14  C   UNL     1      -1.838 -13.020   2.646  1.00  0.00     0.040 A 
ATOM     15  C   UNL     1      -1.113 -13.085   3.837  1.00  0.00     0.034 A 
ATOM     16  C   UNL     1      -2.217 -11.778   2.134  1.00  0.00     0.034 A 
ATOM     17  C   UNL     1      -0.773 -11.923   4.500  1.00  0.00     0.043 A 
ATOM     18  C   UNL     1      -1.872 -10.623   2.806  1.00  0.00     0.043 A 
ATOM     19  C   UNL     1      -1.152 -10.694   3.986  1.00  0.00     0.041 A 
ATOM     20  Cl  UNL     1       0.129 -12.001   5.980  1.00  0.00    -0.084 Cl
ATOM     21  Cl  UNL     1      -2.343  -9.077   2.170  1.00  0.00    -0.084 Cl
ENDBRANCH   7  14
TORSDOF 3
ENDMDL
MODEL 2
REMARK VINA RESULT:    -4.302      0.021      2.020
REMARK INTER + INTRA:          -5.212
REMARK INTER:                  -4.930
REMARK INTRA:                  -0.282
REMARK UNBOUND:                -0.282
REMARK SMILES O=C(O)c1ccc2nc(-c3cc(Cl)cc(Cl)c3)oc2c1
REMARK SMILES IDX 5 1 6 2 20 3 8 4 18 5 4 6 9 7 7 8 19 9 2 10 1 11 3 12 10 14
REMARK SMILES IDX 11 15 17 16 12 17 15 18 14 19 13 20 16 21
REMARK H PARENT 3 13
ROOT
ATOM      1  C   UNL     1      -3.462 -18.331   0.419  1.00  0.00     0.018 A 
ATOM      2  C   UNL     1      -3.322 -17.626   1.576  1.00  0.00     0.033 A 
ATOM      3  C   UNL     1      -2.691 -16.424  -0.866  1.00  0.00     0.065 A 
ATOM      4  N   UNL     1      -2.630 -15.375   2.492  1.00  0.00    -0.209 NA
ATOM      5  O   UNL     1      -2.146 -14.444   0.586  1.00  0.00    -0.436 OA
ATOM      6  C   UNL     1      -3.148 -17.742  -0.814  1.00  0.00     0.063 A 
ATOM      7  C   UNL     1      -2.204 -14.276   1.920  1.00  0.00     0.227 A 
ATOM      8  C   UNL     1      -2.865 -16.302   1.539  1.00  0.00     0.110 A 
ATOM      9  C   UNL     1      -2.552 -15.703   0.306  1.00  0.00     0.156 A 
ENDROOT
BRANCH   6  10
ATOM     10  C   UNL     1      -3.298 -18.517  -2.059  1.00  0.00     0.335 C 
ATOM     11  O   UNL     1      -2.368 -19.177  -2.479  1.00  0.00    -0.246 OA
BRANCH  10  12
ATOM     12  O   UNL     1      -4.465 -18.493  -2.732  1.00  0.00    -0.478 OA
ATOM     13  H   UNL     1      -5.248 -18.814  -2.265  1.00  0.00     0.297 HD
ENDBRANCH  10  12
ENDBRANCH   6  10
BRANCH   7  14
ATOM     14  C   UNL     1      -1.842 -13.035   2.635  1.00  0.00     0.040 A 
ATOM     15  C   UNL     1      -2.223 -11.794   2.124  1.00  0.00     0.034 A 
ATOM     16  C   UNL     1      -1.115 -13.100   3.826  1.00  0.00     0.034 A 
ATOM     17  C   UNL     1      -1.882 -10.638   2.797  1.00  0.00     0.043 A 
ATOM     18  C   UNL     1      -0.780 -11.937   4.490  1.00  0.00     0.043 A 
ATOM     19  C   UNL     1      -1.161 -10.709   3.977  1.00  0.00     0.041 A 
ATOM     20  Cl  UNL     1      -2.356  -9.093   2.163  1.00  0.00    -0.084 Cl
ATOM     21  Cl  UNL     1       0.123 -12.015   5.971  1.00  0.00    -0.084 Cl
ENDBRANCH   7  14
TORSDOF 3
ENDMDL
MODEL 3
REMARK VINA RESULT:    -4.285      5.432      8.216
REMARK INTER + INTRA:          -5.193
REMARK INTER:                  -4.911
REMARK INTRA:                  -0.282
REMARK UNBOUND:                -0.282
REMARK SMILES O=C(O)c1ccc2nc(-c3cc(Cl)cc(Cl)c3)oc2c1
REMARK SMILES IDX 5 1 6 2 20 3 8 4 18 5 4 6 9 7 7 8 19 9 2 10 1 11 3 12 10 14
REMARK SMILES IDX 11 15 17 16 12 17 15 18 14 19 13 20 16 21
REMARK H PARENT 3 13
ROOT
ATOM      1  C   UNL     1       1.205 -16.101   8.853  1.00  0.00     0.018 A 
ATOM      2  C   UNL     1       1.020 -16.006   7.506  1.00  0.00     0.033 A 
ATOM      3  C   UNL     1       0.234 -13.901   9.165  1.00  0.00     0.065 A 
ATOM      4  N   UNL     1       0.136 -14.481   5.697  1.00  0.00    -0.209 NA
ATOM      5  O   UNL     1      -0.468 -12.843   6.996  1.00  0.00    -0.436 OA
ATOM      6  C   UNL     1       0.814 -15.054   9.699  1.00  0.00     0.063 A 
ATOM      7  C   UNL     1      -0.402 -13.287   5.726  1.00  0.00     0.227 A 
ATOM      8  C   UNL     1       0.440 -14.856   6.958  1.00  0.00     0.110 A 
ATOM      9  C   UNL     1       0.049 -13.799   7.799  1.00  0.00     0.156 A 
ENDROOT
BRANCH   6  10
ATOM     10  C   UNL     1       1.014 -15.170  11.155  1.00  0.00     0.335 C 
ATOM     11  O   UNL     1       0.152 -15.674  11.847  1.00  0.00    -0.246 OA
BRANCH  10  12
ATOM     12  O   UNL     1       2.151 -14.717  11.718  1.00  0.00    -0.478 OA
ATOM     13  H   UNL     1       2.401 -15.097  12.571  1.00  0.00     0.297 HD
ENDBRANCH  10  12
ENDBRANCH   6  10
BRANCH   7  14
ATOM     14  C   UNL     1      -0.867 -12.538   4.540  1.00  0.00     0.040 A 
ATOM     15  C   UNL     1      -1.538 -13.200   3.512  1.00  0.00     0.034 A 
ATOM     16  C   UNL     1      -0.635 -11.164   4.444  1.00  0.00     0.034 A 
ATOM     17  C   UNL     1      -1.971 -12.495   2.407  1.00  0.00     0.043 A 
ATOM     18  C   UNL     1      -1.073 -10.470   3.335  1.00  0.00     0.043 A 
ATOM     19  C   UNL     1      -1.738 -11.133   2.318  1.00  0.00     0.041 A 
ATOM     20  Cl  UNL     1      -2.807 -13.316   1.126  1.00  0.00    -0.084 Cl
ATOM     21  Cl  UNL     1      -0.786  -8.761   3.213  1.00  0.00    -0.084 Cl
ENDBRANCH   7  14
TORSDOF 3
ENDMDL
MODEL 4
REMARK VINA RESULT:    -4.277      5.433      8.218
REMARK INTER + INTRA:          -5.184
REMARK INTER:                  -4.901
REMARK INTRA:                  -0.283
REMARK UNBOUND:                -0.282
REMARK SMILES O=C(O)c1ccc2nc(-c3cc(Cl)cc(Cl)c3)oc2c1
REMARK SMILES IDX 5 1 6 2 20 3 8 4 18 5 4 6 9 7 7 8 19 9 2 10 1 11 3 12 10 14
REMARK SMILES IDX 11 15 17 16 12 17 15 18 14 19 13 20 16 21
REMARK H PARENT 3 13
ROOT
ATOM      1  C   UNL     1       1.202 -16.110   8.851  1.00  0.00     0.018 A 
ATOM      2  C   UNL     1       1.013 -16.016   7.505  1.00  0.00     0.033 A 
ATOM      3  C   UNL     1       0.241 -13.906   9.164  1.00  0.00     0.065 A 
ATOM      4  N   UNL     1       0.131 -14.488   5.697  1.00  0.00    -0.209 NA
ATOM      5  O   UNL     1      -0.463 -12.847   6.996  1.00  0.00    -0.436 OA
ATOM      6  C   UNL     1       0.817 -15.060   9.697  1.00  0.00     0.063 A 
ATOM      7  C   UNL     1      -0.402 -13.292   5.726  1.00  0.00     0.227 A 
ATOM      8  C   UNL     1       0.437 -14.863   6.957  1.00  0.00     0.110 A 
ATOM      9  C   UNL     1       0.053 -13.804   7.798  1.00  0.00     0.156 A 
ENDROOT
BRANCH   6  10
ATOM     10  C   UNL     1       1.020 -15.176  11.153  1.00  0.00     0.335 C 
ATOM     11  O   UNL     1       0.154 -15.666  11.849  1.00  0.00    -0.246 OA
BRANCH  10  12
ATOM     12  O   UNL     1       2.166 -14.738  11.711  1.00  0.00    -0.478 OA
ATOM     13  H   UNL     1       2.827 -14.360  11.116  1.00  0.00     0.297 HD
ENDBRANCH  10  12
ENDBRANCH   6  10
BRANCH   7  14
ATOM     14  C   UNL     1      -0.867 -12.542   4.541  1.00  0.00     0.040 A 
ATOM     15  C   UNL     1      -0.642 -11.168   4.448  1.00  0.00     0.034 A 
ATOM     16  C   UNL     1      -1.534 -13.206   3.509  1.00  0.00     0.034 A 
ATOM     17  C   UNL     1      -1.078 -10.473   3.337  1.00  0.00     0.043 A 
ATOM     18  C   UNL     1      -1.965 -12.501   2.404  1.00  0.00     0.043 A 
ATOM     19  C   UNL     1      -1.739 -11.138   2.318  1.00  0.00     0.041 A 
ATOM     20  Cl  UNL     1      -0.800  -8.764   3.219  1.00  0.00    -0.084 Cl
ATOM     21  Cl  UNL     1      -2.794 -13.325   1.120  1.00  0.00    -0.084 Cl
ENDBRANCH   7  14
TORSDOF 3
ENDMDL
MODEL 5
REMARK VINA RESULT:    -3.981      3.841      7.592
REMARK INTER + INTRA:          -4.845
REMARK INTER:                  -4.565
REMARK INTRA:                  -0.280
REMARK UNBOUND:                -0.282
REMARK SMILES O=C(O)c1ccc2nc(-c3cc(Cl)cc(Cl)c3)oc2c1
REMARK SMILES IDX 5 1 6 2 20 3 8 4 18 5 4 6 9 7 7 8 19 9 2 10 1 11 3 12 10 14
REMARK SMILES IDX 11 15 17 16 12 17 15 18 14 19 13 20 16 21
REMARK H PARENT 3 13
ROOT
ATOM      1  C   UNL     1      -0.768 -11.071   4.165  1.00  0.00     0.018 A 
ATOM      2  C   UNL     1      -0.767 -12.432   4.229  1.00  0.00     0.033 A 
ATOM      3  C   UNL     1      -2.312 -11.137   2.296  1.00  0.00     0.065 A 
ATOM      4  N   UNL     1      -1.733 -14.501   3.147  1.00  0.00    -0.209 NA
ATOM      5  O   UNL     1      -2.930 -13.485   1.641  1.00  0.00    -0.436 OA
ATOM      6  C   UNL     1      -1.540 -10.407   3.201  1.00  0.00     0.063 A 
ATOM      7  C   UNL     1      -2.560 -14.676   2.147  1.00  0.00     0.227 A 
ATOM      8  C   UNL     1      -1.536 -13.177   3.326  1.00  0.00     0.110 A 
ATOM      9  C   UNL     1      -2.309 -12.519   2.354  1.00  0.00     0.156 A 
ENDROOT
BRANCH   6  10
ATOM     10  C   UNL     1      -1.539  -8.934   3.146  1.00  0.00     0.335 C 
ATOM     11  O   UNL     1      -0.537  -8.340   2.797  1.00  0.00    -0.246 OA
BRANCH  10  12
ATOM     12  O   UNL     1      -2.647  -8.245   3.482  1.00  0.00    -0.478 OA
ATOM     13  H   UNL     1      -2.884  -8.225   4.419  1.00  0.00     0.297 HD
ENDBRANCH  10  12
ENDBRANCH   6  10
BRANCH   7  14
ATOM     14  C   UNL     1      -3.020 -15.989   1.648  1.00  0.00     0.040 A 
ATOM     15  C   UNL     1      -2.728 -16.384   0.341  1.00  0.00     0.034 A 
ATOM     16  C   UNL     1      -3.748 -16.839   2.481  1.00  0.00     0.034 A 
ATOM     17  C   UNL     1      -3.159 -17.612  -0.119  1.00  0.00     0.043 A 
ATOM     18  C   UNL     1      -4.174 -18.065   2.010  1.00  0.00     0.043 A 
ATOM     19  C   UNL     1      -3.881 -18.451   0.713  1.00  0.00     0.041 A 
ATOM     20  Cl  UNL     1      -2.796 -18.105  -1.743  1.00  0.00    -0.084 Cl
ATOM     21  Cl  UNL     1      -5.080 -19.125   3.045  1.00  0.00    -0.084 Cl
ENDBRANCH   7  14
TORSDOF 3
ENDMDL
MODEL 6
REMARK VINA RESULT:    -3.979      3.842      7.448
REMARK INTER + INTRA:          -4.842
REMARK INTER:                  -4.562
REMARK INTRA:                  -0.280
REMARK UNBOUND:                -0.282
REMARK SMILES O=C(O)c1ccc2nc(-c3cc(Cl)cc(Cl)c3)oc2c1
REMARK SMILES IDX 5 1 6 2 20 3 8 4 18 5 4 6 9 7 7 8 19 9 2 10 1 11 3 12 10 14
REMARK SMILES IDX 11 15 17 16 12 17 15 18 14 19 13 20 16 21
REMARK H PARENT 3 13
ROOT
ATOM      1  C   UNL     1      -0.765 -11.070   4.168  1.00  0.00     0.018 A 
ATOM      2  C   UNL     1      -0.762 -12.431   4.230  1.00  0.00     0.033 A 
ATOM      3  C   UNL     1      -2.314 -11.135   2.303  1.00  0.00     0.065 A 
ATOM      4  N   UNL     1      -1.730 -14.499   3.149  1.00  0.00    -0.209 NA
ATOM      5  O   UNL     1      -2.932 -13.482   1.648  1.00  0.00    -0.436 OA
ATOM      6  C   UNL     1      -1.540 -10.405   3.208  1.00  0.00     0.063 A 
ATOM      7  C   UNL     1      -2.560 -14.674   2.151  1.00  0.00     0.227 A 
ATOM      8  C   UNL     1      -1.533 -13.175   3.329  1.00  0.00     0.110 A 
ATOM      9  C   UNL     1      -2.310 -12.516   2.360  1.00  0.00     0.156 A 
ENDROOT
BRANCH   6  10
ATOM     10  C   UNL     1      -1.540  -8.932   3.154  1.00  0.00     0.335 C 
ATOM     11  O   UNL     1      -0.517  -8.334   2.886  1.00  0.00    -0.246 OA
BRANCH  10  12
ATOM     12  O   UNL     1      -2.675  -8.248   3.402  1.00  0.00    -0.478 OA
ATOM     13  H   UNL     1      -2.591  -7.428   3.907  1.00  0.00     0.297 HD
ENDBRANCH  10  12
ENDBRANCH   6  10
BRANCH   7  14
ATOM     14  C   UNL     1      -3.020 -15.986   1.652  1.00  0.00     0.040 A 
ATOM     15  C   UNL     1      -3.748 -16.838   2.484  1.00  0.00     0.034 A 
ATOM     16  C   UNL     1      -2.727 -16.380   0.344  1.00  0.00     0.034 A 
ATOM     17  C   UNL     1      -4.175 -18.062   2.011  1.00  0.00     0.043 A 
ATOM     18  C   UNL     1      -3.160 -17.607  -0.117  1.00  0.00     0.043 A 
ATOM     19  C   UNL     1      -3.881 -18.447   0.714  1.00  0.00     0.041 A 
ATOM     20  Cl  UNL     1      -5.082 -19.122   3.044  1.00  0.00    -0.084 Cl
ATOM     21  Cl  UNL     1      -2.796 -18.099  -1.742  1.00  0.00    -0.084 Cl
ENDBRANCH   7  14
TORSDOF 3
ENDMDL
MODEL 7
REMARK VINA RESULT:    -3.976      5.661      7.464
REMARK INTER + INTRA:          -4.839
REMARK INTER:                  -4.550
REMARK INTRA:                  -0.290
REMARK UNBOUND:                -0.282
REMARK SMILES O=C(O)c1ccc2nc(-c3cc(Cl)cc(Cl)c3)oc2c1
REMARK SMILES IDX 5 1 6 2 20 3 8 4 18 5 4 6 9 7 7 8 19 9 2 10 1 11 3 12 10 14
REMARK SMILES IDX 11 15 17 16 12 17 15 18 14 19 13 20 16 21
REMARK H PARENT 3 13
ROOT
ATOM      1  C   UNL     1      -2.088 -11.556   2.328  1.00  0.00     0.018 A 
ATOM      2  C   UNL     1      -1.958 -12.798   2.874  1.00  0.00     0.033 A 
ATOM      3  C   UNL     1      -0.586 -10.641   3.998  1.00  0.00     0.065 A 
ATOM      4  N   UNL     1      -0.824 -14.072   4.737  1.00  0.00    -0.209 NA
ATOM      5  O   UNL     1       0.238 -12.385   5.610  1.00  0.00    -0.436 OA
ATOM      6  C   UNL     1      -1.404 -10.464   2.881  1.00  0.00     0.063 A 
ATOM      7  C   UNL     1      -0.005 -13.707   5.692  1.00  0.00     0.227 A 
ATOM      8  C   UNL     1      -1.142 -12.990   3.995  1.00  0.00     0.110 A 
ATOM      9  C   UNL     1      -0.456 -11.898   4.557  1.00  0.00     0.156 A 
ENDROOT
BRANCH   6  10
ATOM     10  C   UNL     1      -1.547  -9.126   2.278  1.00  0.00     0.335 C 
ATOM     11  O   UNL     1      -0.930  -8.185   2.736  1.00  0.00    -0.246 OA
BRANCH  10  12
ATOM     12  O   UNL     1      -2.363  -8.946   1.221  1.00  0.00    -0.478 OA
ATOM     13  H   UNL     1      -3.299  -9.149   1.349  1.00  0.00     0.297 HD
ENDBRANCH  10  12
ENDBRANCH   6  10
BRANCH   7  14
ATOM     14  C   UNL     1       0.566 -14.613   6.711  1.00  0.00     0.040 A 
ATOM     15  C   UNL     1       1.391 -15.670   6.325  1.00  0.00     0.034 A 
ATOM     16  C   UNL     1       0.281 -14.414   8.063  1.00  0.00     0.034 A 
ATOM     17  C   UNL     1       1.922 -16.512   7.282  1.00  0.00     0.043 A 
ATOM     18  C   UNL     1       0.818 -15.263   9.010  1.00  0.00     0.043 A 
ATOM     19  C   UNL     1       1.636 -16.310   8.621  1.00  0.00     0.041 A 
ATOM     20  Cl  UNL     1       2.950 -17.827   6.804  1.00  0.00    -0.084 Cl
ATOM     21  Cl  UNL     1       0.465 -15.018  10.693  1.00  0.00    -0.084 Cl
ENDBRANCH   7  14
TORSDOF 3
ENDMDL
MODEL 8
REMARK VINA RESULT:    -3.972      5.659      7.459
REMARK INTER + INTRA:          -4.834
REMARK INTER:                  -4.545
REMARK INTRA:                  -0.289
REMARK UNBOUND:                -0.282
REMARK SMILES O=C(O)c1ccc2nc(-c3cc(Cl)cc(Cl)c3)oc2c1
REMARK SMILES IDX 5 1 6 2 20 3 8 4 18 5 4 6 9 7 7 8 19 9 2 10 1 11 3 12 10 14
REMARK SMILES IDX 11 15 17 16 12 17 15 18 14 19 13 20 16 21
REMARK H PARENT 3 13
ROOT
ATOM      1  C   UNL     1      -2.086 -11.559   2.326  1.00  0.00     0.018 A 
ATOM      2  C   UNL     1      -1.954 -12.801   2.871  1.00  0.00     0.033 A 
ATOM      3  C   UNL     1      -0.590 -10.641   4.000  1.00  0.00     0.065 A 
ATOM      4  N   UNL     1      -0.821 -14.073   4.736  1.00  0.00    -0.209 NA
ATOM      5  O   UNL     1       0.234 -12.385   5.613  1.00  0.00    -0.436 OA
ATOM      6  C   UNL     1      -1.406 -10.466   2.881  1.00  0.00     0.063 A 
ATOM      7  C   UNL     1      -0.006 -13.707   5.694  1.00  0.00     0.227 A 
ATOM      8  C   UNL     1      -1.140 -12.991   3.994  1.00  0.00     0.110 A 
ATOM      9  C   UNL     1      -0.459 -11.899   4.559  1.00  0.00     0.156 A 
ENDROOT
BRANCH   6  10
ATOM     10  C   UNL     1      -1.551  -9.128   2.279  1.00  0.00     0.335 C 
ATOM     11  O   UNL     1      -0.943  -8.184   2.744  1.00  0.00    -0.246 OA
BRANCH  10  12
ATOM     12  O   UNL     1      -2.357  -8.951   1.214  1.00  0.00    -0.478 OA
ATOM     13  H   UNL     1      -2.331  -9.628   0.526  1.00  0.00     0.297 HD
ENDBRANCH  10  12
ENDBRANCH   6  10
BRANCH   7  14
ATOM     14  C   UNL     1       0.565 -14.612   6.713  1.00  0.00     0.040 A 
ATOM     15  C   UNL     1       0.281 -14.414   8.065  1.00  0.00     0.034 A 
ATOM     16  C   UNL     1       1.392 -15.669   6.327  1.00  0.00     0.034 A 
ATOM     17  C   UNL     1       0.817 -15.264   9.012  1.00  0.00     0.043 A 
ATOM     18  C   UNL     1       1.921 -16.512   7.283  1.00  0.00     0.043 A 
ATOM     19  C   UNL     1       1.636 -16.310   8.622  1.00  0.00     0.041 A 
ATOM     20  Cl  UNL     1       0.464 -15.020  10.694  1.00  0.00    -0.084 Cl
ATOM     21  Cl  UNL     1       2.950 -17.827   6.805  1.00  0.00    -0.084 Cl
ENDBRANCH   7  14
TORSDOF 3
ENDMDL
MODEL 9
REMARK VINA RESULT:    -3.412      6.573      8.762
REMARK INTER + INTRA:          -4.192
REMARK INTER:                  -3.903
REMARK INTRA:                  -0.289
REMARK UNBOUND:                -0.282
REMARK SMILES O=C(O)c1ccc2nc(-c3cc(Cl)cc(Cl)c3)oc2c1
REMARK SMILES IDX 5 1 6 2 20 3 8 4 18 5 4 6 9 7 7 8 19 9 2 10 1 11 3 12 10 14
REMARK SMILES IDX 11 15 17 16 12 17 15 18 14 19 13 20 16 21
REMARK H PARENT 3 13
ROOT
ATOM      1  C   UNL     1       1.851 -17.986   7.548  1.00  0.00     0.018 A 
ATOM      2  C   UNL     1       1.528 -17.698   6.256  1.00  0.00     0.033 A 
ATOM      3  C   UNL     1      -0.355 -18.922   7.917  1.00  0.00     0.065 A 
ATOM      4  N   UNL     1      -0.342 -17.855   4.565  1.00  0.00    -0.209 NA
ATOM      5  O   UNL     1      -1.804 -18.804   5.866  1.00  0.00    -0.436 OA
ATOM      6  C   UNL     1       0.918 -18.602   8.393  1.00  0.00     0.063 A 
ATOM      7  C   UNL     1      -1.562 -18.326   4.631  1.00  0.00     0.227 A 
ATOM      8  C   UNL     1       0.255 -18.013   5.766  1.00  0.00     0.110 A 
ATOM      9  C   UNL     1      -0.689 -18.627   6.608  1.00  0.00     0.156 A 
ENDROOT
BRANCH   6  10
ATOM     10  C   UNL     1       1.281 -18.914   9.787  1.00  0.00     0.335 C 
ATOM     11  O   UNL     1       0.454 -18.801  10.670  1.00  0.00    -0.246 OA
BRANCH  10  12
ATOM     12  O   UNL     1       2.530 -19.325  10.083  1.00  0.00    -0.478 OA
ATOM     13  H   UNL     1       2.728 -20.262   9.951  1.00  0.00     0.297 HD
ENDBRANCH  10  12
ENDBRANCH   6  10
BRANCH   7  14
ATOM     14  C   UNL     1      -2.530 -18.331   3.514  1.00  0.00     0.040 A 
ATOM     15  C   UNL     1      -2.119 -18.695   2.232  1.00  0.00     0.034 A 
ATOM     16  C   UNL     1      -3.860 -17.970   3.739  1.00  0.00     0.034 A 
ATOM     17  C   UNL     1      -3.028 -18.699   1.193  1.00  0.00     0.043 A 
ATOM     18  C   UNL     1      -4.760 -17.978   2.692  1.00  0.00     0.043 A 
ATOM     19  C   UNL     1      -4.346 -18.340   1.422  1.00  0.00     0.041 A 
ATOM     20  Cl  UNL     1      -2.519 -19.153  -0.403  1.00  0.00    -0.084 Cl
ATOM     21  Cl  UNL     1      -6.415 -17.530   2.969  1.00  0.00    -0.084 Cl
ENDBRANCH   7  14
TORSDOF 3
ENDMDL
