MODEL 1
REMARK VINA RESULT:    -5.350      0.000      0.000
REMARK INTER + INTRA:          -7.878
REMARK INTER:                  -7.384
REMARK INTRA:                  -0.495
REMARK UNBOUND:                -0.495
REMARK SMILES Cc1n[nH]c(C)c1CCCOc1cc(C(=O)O)ccc1F
REMARK SMILES IDX 11 1 12 2 14 3 18 4 13 5 19 6 20 7 21 8 15 9 16 10 17 11
REMARK SMILES IDX 10 13 9 14 8 15 7 16 5 17 2 18 4 19 3 20 6 21 1 22
REMARK H PARENT 17 12 4 23
ROOT
ATOM      1  O   UNL     1       1.854   0.338   7.264  1.00  0.00    -0.490 OA
ENDROOT
BRANCH   1   2
ATOM      2  C   UNL     1       1.926   0.828   5.998  1.00  0.00     0.155 A 
ATOM      3  C   UNL     1       1.219   2.404   4.325  1.00  0.00     0.063 A 
ATOM      4  C   UNL     1       2.096   1.819   3.408  1.00  0.00     0.019 A 
ATOM      5  C   UNL     1       1.138   1.901   5.625  1.00  0.00     0.065 A 
ATOM      6  C   UNL     1       2.883   0.753   3.791  1.00  0.00     0.044 A 
ATOM      7  C   UNL     1       2.805   0.259   5.082  1.00  0.00     0.165 A 
ATOM      8  F   UNL     1       3.578  -0.786   5.451  1.00  0.00    -0.203 F 
BRANCH   3   9
ATOM      9  C   UNL     1       0.376   3.545   3.919  1.00  0.00     0.335 C 
ATOM     10  O   UNL     1      -0.594   3.850   4.582  1.00  0.00    -0.246 OA
BRANCH   9  11
ATOM     11  O   UNL     1       0.687   4.253   2.815  1.00  0.00    -0.478 OA
ATOM     12  H   UNL     1       0.891   5.190   2.937  1.00  0.00     0.297 HD
ENDBRANCH   9  11
ENDBRANCH   3   9
ENDBRANCH   1   2
BRANCH   1  13
ATOM     13  C   UNL     1       3.009   0.504   8.090  1.00  0.00     0.230 C 
BRANCH  13  14
ATOM     14  C   UNL     1       2.688   1.478   9.225  1.00  0.00     0.046 C 
BRANCH  14  15
ATOM     15  C   UNL     1       3.234   2.865   8.876  1.00  0.00     0.043 C 
BRANCH  15  16
ATOM     16  C   UNL     1       3.480   3.642  10.144  1.00  0.00    -0.004 A 
ATOM     17  C   UNL     1       2.543   4.287  10.877  1.00  0.00     0.036 A 
ATOM     18  C   UNL     1       4.716   3.819  10.774  1.00  0.00     0.063 A 
ATOM     19  N   UNL     1       3.165   4.857  11.930  1.00  0.00    -0.282 N 
ATOM     20  N   UNL     1       4.530   4.553  11.841  1.00  0.00    -0.181 NA
ATOM     21  C   UNL     1       1.069   4.356  10.572  1.00  0.00     0.066 C 
ATOM     22  C   UNL     1       6.037   3.269  10.300  1.00  0.00     0.069 C 
ATOM     23  H   UNL     1       2.742   5.386  12.624  1.00  0.00     0.190 HD
ENDBRANCH  15  16
ENDBRANCH  14  15
ENDBRANCH  13  14
ENDBRANCH   1  13
TORSDOF 7
ENDMDL
MODEL 2
REMARK VINA RESULT:    -5.247      2.304      3.916
REMARK INTER + INTRA:          -7.736
REMARK INTER:                  -7.189
REMARK INTRA:                  -0.547
REMARK UNBOUND:                -0.495
REMARK SMILES Cc1n[nH]c(C)c1CCCOc1cc(C(=O)O)ccc1F
REMARK SMILES IDX 11 1 12 2 14 3 18 4 13 5 19 6 20 7 21 8 15 9 16 10 17 11
REMARK SMILES IDX 10 13 9 14 8 15 7 16 5 17 2 18 4 19 3 20 6 21 1 22
REMARK H PARENT 17 12 4 23
ROOT
ATOM      1  O   UNL     1       3.108   4.487   5.475  1.00  0.00    -0.490 OA
ENDROOT
BRANCH   1   2
ATOM      2  C   UNL     1       2.735   3.302   4.921  1.00  0.00     0.155 A 
ATOM      3  C   UNL     1       3.107   0.953   4.571  1.00  0.00     0.063 A 
ATOM      4  C   UNL     1       1.950   0.890   3.789  1.00  0.00     0.019 A 
ATOM      5  C   UNL     1       3.496   2.169   5.137  1.00  0.00     0.065 A 
ATOM      6  C   UNL     1       1.194   2.026   3.585  1.00  0.00     0.044 A 
ATOM      7  C   UNL     1       1.580   3.229   4.151  1.00  0.00     0.165 A 
ATOM      8  F   UNL     1       0.835   4.338   3.947  1.00  0.00    -0.203 F 
BRANCH   3   9
ATOM      9  C   UNL     1       3.918  -0.260   4.792  1.00  0.00     0.335 C 
ATOM     10  O   UNL     1       5.080  -0.162   5.130  1.00  0.00    -0.246 OA
BRANCH   9  11
ATOM     11  O   UNL     1       3.366  -1.479   4.625  1.00  0.00    -0.478 OA
ATOM     12  H   UNL     1       3.781  -2.063   3.975  1.00  0.00     0.297 HD
ENDBRANCH   9  11
ENDBRANCH   3   9
ENDBRANCH   1   2
BRANCH   1  13
ATOM     13  C   UNL     1       2.301   4.986   6.544  1.00  0.00     0.230 C 
BRANCH  13  14
ATOM     14  C   UNL     1       3.107   4.963   7.844  1.00  0.00     0.046 C 
BRANCH  14  15
ATOM     15  C   UNL     1       2.614   3.817   8.730  1.00  0.00     0.043 C 
BRANCH  15  16
ATOM     16  C   UNL     1       2.865   4.156  10.177  1.00  0.00    -0.004 A 
ATOM     17  C   UNL     1       4.046   4.044  10.828  1.00  0.00     0.036 A 
ATOM     18  C   UNL     1       1.919   4.648  11.083  1.00  0.00     0.063 A 
ATOM     19  N   UNL     1       3.853   4.444  12.102  1.00  0.00    -0.282 N 
ATOM     20  N   UNL     1       2.508   4.814  12.239  1.00  0.00    -0.181 NA
ATOM     21  C   UNL     1       5.344   3.560  10.236  1.00  0.00     0.066 C 
ATOM     22  C   UNL     1       0.468   4.925  10.782  1.00  0.00     0.069 C 
ATOM     23  H   UNL     1       4.525   4.471  12.800  1.00  0.00     0.190 HD
ENDBRANCH  15  16
ENDBRANCH  14  15
ENDBRANCH  13  14
ENDBRANCH   1  13
TORSDOF 7
ENDMDL
MODEL 3
REMARK VINA RESULT:    -5.238      2.258      3.456
REMARK INTER + INTRA:          -7.724
REMARK INTER:                  -7.052
REMARK INTRA:                  -0.671
REMARK UNBOUND:                -0.495
REMARK SMILES Cc1n[nH]c(C)c1CCCOc1cc(C(=O)O)ccc1F
REMARK SMILES IDX 11 1 12 2 14 3 18 4 13 5 19 6 20 7 21 8 15 9 16 10 17 11
REMARK SMILES IDX 10 13 9 14 8 15 7 16 5 17 2 18 4 19 3 20 6 21 1 22
REMARK H PARENT 17 12 4 23
ROOT
ATOM      1  O   UNL     1       3.062   4.420   5.510  1.00  0.00    -0.490 OA
ENDROOT
BRANCH   1   2
ATOM      2  C   UNL     1       2.714   3.244   4.922  1.00  0.00     0.155 A 
ATOM      3  C   UNL     1       3.108   0.902   4.543  1.00  0.00     0.063 A 
ATOM      4  C   UNL     1       1.980   0.850   3.720  1.00  0.00     0.019 A 
ATOM      5  C   UNL     1       3.471   2.109   5.145  1.00  0.00     0.065 A 
ATOM      6  C   UNL     1       1.228   1.986   3.509  1.00  0.00     0.044 A 
ATOM      7  C   UNL     1       1.587   3.181   4.110  1.00  0.00     0.165 A 
ATOM      8  F   UNL     1       0.846   4.290   3.899  1.00  0.00    -0.203 F 
BRANCH   3   9
ATOM      9  C   UNL     1       3.915  -0.312   4.772  1.00  0.00     0.335 C 
ATOM     10  O   UNL     1       5.069  -0.215   5.138  1.00  0.00    -0.246 OA
BRANCH   9  11
ATOM     11  O   UNL     1       3.370  -1.529   4.580  1.00  0.00    -0.478 OA
ATOM     12  H   UNL     1       3.964  -2.291   4.634  1.00  0.00     0.297 HD
ENDBRANCH   9  11
ENDBRANCH   3   9
ENDBRANCH   1   2
BRANCH   1  13
ATOM     13  C   UNL     1       2.302   4.824   6.651  1.00  0.00     0.230 C 
BRANCH  13  14
ATOM     14  C   UNL     1       3.219   4.902   7.873  1.00  0.00     0.046 C 
BRANCH  14  15
ATOM     15  C   UNL     1       2.931   3.722   8.803  1.00  0.00     0.043 C 
BRANCH  15  16
ATOM     16  C   UNL     1       3.183   4.133  10.231  1.00  0.00    -0.004 A 
ATOM     17  C   UNL     1       2.260   4.617  11.095  1.00  0.00     0.036 A 
ATOM     18  C   UNL     1       4.411   4.078  10.899  1.00  0.00     0.063 A 
ATOM     19  N   UNL     1       2.884   4.864  12.266  1.00  0.00    -0.282 N 
ATOM     20  N   UNL     1       4.234   4.521  12.117  1.00  0.00    -0.181 NA
ATOM     21  C   UNL     1       0.800   4.838  10.802  1.00  0.00     0.066 C 
ATOM     22  C   UNL     1       5.715   3.600  10.313  1.00  0.00     0.069 C 
ATOM     23  H   UNL     1       2.470   5.217  13.069  1.00  0.00     0.190 HD
ENDBRANCH  15  16
ENDBRANCH  14  15
ENDBRANCH  13  14
ENDBRANCH   1  13
TORSDOF 7
ENDMDL
MODEL 4
REMARK VINA RESULT:    -5.137      0.109      1.771
REMARK INTER + INTRA:          -7.583
REMARK INTER:                  -6.966
REMARK INTRA:                  -0.618
REMARK UNBOUND:                -0.495
REMARK SMILES Cc1n[nH]c(C)c1CCCOc1cc(C(=O)O)ccc1F
REMARK SMILES IDX 11 1 12 2 14 3 18 4 13 5 19 6 20 7 21 8 15 9 16 10 17 11
REMARK SMILES IDX 10 13 9 14 8 15 7 16 5 17 2 18 4 19 3 20 6 21 1 22
REMARK H PARENT 17 12 4 23
ROOT
ATOM      1  O   UNL     1       1.960   0.316   7.203  1.00  0.00    -0.490 OA
ENDROOT
BRANCH   1   2
ATOM      2  C   UNL     1       1.987   0.805   5.934  1.00  0.00     0.155 A 
ATOM      3  C   UNL     1       1.218   2.378   4.286  1.00  0.00     0.063 A 
ATOM      4  C   UNL     1       2.065   1.794   3.340  1.00  0.00     0.019 A 
ATOM      5  C   UNL     1       1.184   1.875   5.588  1.00  0.00     0.065 A 
ATOM      6  C   UNL     1       2.867   0.730   3.696  1.00  0.00     0.044 A 
ATOM      7  C   UNL     1       2.835   0.237   4.989  1.00  0.00     0.165 A 
ATOM      8  F   UNL     1       3.623  -0.806   5.332  1.00  0.00    -0.203 F 
BRANCH   3   9
ATOM      9  C   UNL     1       0.359   3.517   3.908  1.00  0.00     0.335 C 
ATOM     10  O   UNL     1      -0.616   3.791   4.578  1.00  0.00    -0.246 OA
BRANCH   9  11
ATOM     11  O   UNL     1       0.661   4.257   2.824  1.00  0.00    -0.478 OA
ATOM     12  H   UNL     1       1.469   4.787   2.865  1.00  0.00     0.297 HD
ENDBRANCH   9  11
ENDBRANCH   3   9
ENDBRANCH   1   2
BRANCH   1  13
ATOM     13  C   UNL     1       3.066   0.644   8.048  1.00  0.00     0.230 C 
BRANCH  13  14
ATOM     14  C   UNL     1       2.606   1.615   9.136  1.00  0.00     0.046 C 
BRANCH  14  15
ATOM     15  C   UNL     1       3.199   3.000   8.867  1.00  0.00     0.043 C 
BRANCH  15  16
ATOM     16  C   UNL     1       3.488   3.687  10.176  1.00  0.00    -0.004 A 
ATOM     17  C   UNL     1       4.696   3.775  10.779  1.00  0.00     0.036 A 
ATOM     18  C   UNL     1       2.556   4.351  10.981  1.00  0.00     0.063 A 
ATOM     19  N   UNL     1       4.534   4.465  11.928  1.00  0.00    -0.282 N 
ATOM     20  N   UNL     1       3.180   4.812  12.034  1.00  0.00    -0.181 NA
ATOM     21  C   UNL     1       5.991   3.205  10.261  1.00  0.00     0.066 C 
ATOM     22  C   UNL     1       1.085   4.500  10.690  1.00  0.00     0.069 C 
ATOM     23  H   UNL     1       5.230   4.681  12.567  1.00  0.00     0.190 HD
ENDBRANCH  15  16
ENDBRANCH  14  15
ENDBRANCH  13  14
ENDBRANCH   1  13
TORSDOF 7
ENDMDL
MODEL 5
REMARK VINA RESULT:    -4.512      4.925      7.849
REMARK INTER + INTRA:          -6.721
REMARK INTER:                  -6.011
REMARK INTRA:                  -0.710
REMARK UNBOUND:                -0.495
REMARK SMILES Cc1n[nH]c(C)c1CCCOc1cc(C(=O)O)ccc1F
REMARK SMILES IDX 11 1 12 2 14 3 18 4 13 5 19 6 20 7 21 8 15 9 16 10 17 11
REMARK SMILES IDX 10 13 9 14 8 15 7 16 5 17 2 18 4 19 3 20 6 21 1 22
REMARK H PARENT 17 12 4 23
ROOT
ATOM      1  O   UNL     1       1.765   4.603  10.221  1.00  0.00    -0.490 OA
ENDROOT
BRANCH   1   2
ATOM      2  C   UNL     1       1.176   4.901  11.410  1.00  0.00     0.155 A 
ATOM      3  C   UNL     1       1.263   5.928  13.582  1.00  0.00     0.063 A 
ATOM      4  C   UNL     1      -0.048   5.509  13.828  1.00  0.00     0.019 A 
ATOM      5  C   UNL     1       1.872   5.619  12.364  1.00  0.00     0.065 A 
ATOM      6  C   UNL     1      -0.736   4.798  12.868  1.00  0.00     0.044 A 
ATOM      7  C   UNL     1      -0.131   4.497  11.658  1.00  0.00     0.165 A 
ATOM      8  F   UNL     1      -0.810   3.801  10.721  1.00  0.00    -0.203 F 
BRANCH   3   9
ATOM      9  C   UNL     1       2.002   6.689  14.608  1.00  0.00     0.335 C 
ATOM     10  O   UNL     1       1.646   6.649  15.768  1.00  0.00    -0.246 OA
BRANCH   9  11
ATOM     11  O   UNL     1       3.076   7.424  14.258  1.00  0.00    -0.478 OA
ATOM     12  H   UNL     1       3.529   7.905  14.965  1.00  0.00     0.297 HD
ENDBRANCH   9  11
ENDBRANCH   3   9
ENDBRANCH   1   2
BRANCH   1  13
ATOM     13  C   UNL     1       3.035   3.949  10.272  1.00  0.00     0.230 C 
BRANCH  13  14
ATOM     14  C   UNL     1       3.405   3.445   8.876  1.00  0.00     0.046 C 
BRANCH  14  15
ATOM     15  C   UNL     1       2.129   3.211   8.063  1.00  0.00     0.043 C 
BRANCH  15  16
ATOM     16  C   UNL     1       2.487   2.631   6.720  1.00  0.00    -0.004 A 
ATOM     17  C   UNL     1       2.754   3.334   5.594  1.00  0.00     0.036 A 
ATOM     18  C   UNL     1       2.609   1.271   6.416  1.00  0.00     0.063 A 
ATOM     19  N   UNL     1       3.028   2.450   4.612  1.00  0.00    -0.282 N 
ATOM     20  N   UNL     1       2.927   1.161   5.152  1.00  0.00    -0.181 NA
ATOM     21  C   UNL     1       2.746   4.835   5.462  1.00  0.00     0.066 C 
ATOM     22  C   UNL     1       2.399   0.129   7.377  1.00  0.00     0.069 C 
ATOM     23  H   UNL     1       3.255   2.669   3.695  1.00  0.00     0.190 HD
ENDBRANCH  15  16
ENDBRANCH  14  15
ENDBRANCH  13  14
ENDBRANCH   1  13
TORSDOF 7
ENDMDL
MODEL 6
REMARK VINA RESULT:    -4.504      4.977      7.929
REMARK INTER + INTRA:          -6.710
REMARK INTER:                  -6.024
REMARK INTRA:                  -0.686
REMARK UNBOUND:                -0.495
REMARK SMILES Cc1n[nH]c(C)c1CCCOc1cc(C(=O)O)ccc1F
REMARK SMILES IDX 11 1 12 2 14 3 18 4 13 5 19 6 20 7 21 8 15 9 16 10 17 11
REMARK SMILES IDX 10 13 9 14 8 15 7 16 5 17 2 18 4 19 3 20 6 21 1 22
REMARK H PARENT 17 12 4 23
ROOT
ATOM      1  O   UNL     1       1.689   4.706  10.278  1.00  0.00    -0.490 OA
ENDROOT
BRANCH   1   2
ATOM      2  C   UNL     1       1.119   4.973  11.483  1.00  0.00     0.155 A 
ATOM      3  C   UNL     1       1.216   5.996  13.657  1.00  0.00     0.063 A 
ATOM      4  C   UNL     1      -0.067   5.516  13.936  1.00  0.00     0.019 A 
ATOM      5  C   UNL     1       1.807   5.719  12.423  1.00  0.00     0.065 A 
ATOM      6  C   UNL     1      -0.747   4.778  12.990  1.00  0.00     0.044 A 
ATOM      7  C   UNL     1      -0.161   4.510  11.764  1.00  0.00     0.165 A 
ATOM      8  F   UNL     1      -0.833   3.786  10.842  1.00  0.00    -0.203 F 
BRANCH   3   9
ATOM      9  C   UNL     1       1.946   6.786  14.667  1.00  0.00     0.335 C 
ATOM     10  O   UNL     1       1.596   6.760  15.829  1.00  0.00    -0.246 OA
BRANCH   9  11
ATOM     11  O   UNL     1       3.007   7.532  14.300  1.00  0.00    -0.478 OA
ATOM     12  H   UNL     1       3.281   8.235  14.906  1.00  0.00     0.297 HD
ENDBRANCH   9  11
ENDBRANCH   3   9
ENDBRANCH   1   2
BRANCH   1  13
ATOM     13  C   UNL     1       2.843   3.861  10.279  1.00  0.00     0.230 C 
BRANCH  13  14
ATOM     14  C   UNL     1       3.265   3.575   8.837  1.00  0.00     0.046 C 
BRANCH  14  15
ATOM     15  C   UNL     1       2.041   3.161   8.018  1.00  0.00     0.043 C 
BRANCH  15  16
ATOM     16  C   UNL     1       2.488   2.582   6.702  1.00  0.00    -0.004 A 
ATOM     17  C   UNL     1       2.651   1.267   6.424  1.00  0.00     0.036 A 
ATOM     18  C   UNL     1       2.801   3.307   5.547  1.00  0.00     0.063 A 
ATOM     19  N   UNL     1       3.060   1.165   5.142  1.00  0.00    -0.282 N 
ATOM     20  N   UNL     1       3.150   2.460   4.614  1.00  0.00    -0.181 NA
ATOM     21  C   UNL     1       2.418   0.124   7.376  1.00  0.00     0.066 C 
ATOM     22  C   UNL     1       2.755   4.807   5.406  1.00  0.00     0.069 C 
ATOM     23  H   UNL     1       3.257   0.341   4.670  1.00  0.00     0.190 HD
ENDBRANCH  15  16
ENDBRANCH  14  15
ENDBRANCH  13  14
ENDBRANCH   1  13
TORSDOF 7
ENDMDL
MODEL 7
REMARK VINA RESULT:    -4.503      3.772      6.486
REMARK INTER + INTRA:          -6.709
REMARK INTER:                  -5.888
REMARK INTRA:                  -0.820
REMARK UNBOUND:                -0.495
REMARK SMILES Cc1n[nH]c(C)c1CCCOc1cc(C(=O)O)ccc1F
REMARK SMILES IDX 11 1 12 2 14 3 18 4 13 5 19 6 20 7 21 8 15 9 16 10 17 11
REMARK SMILES IDX 10 13 9 14 8 15 7 16 5 17 2 18 4 19 3 20 6 21 1 22
REMARK H PARENT 17 12 4 23
ROOT
ATOM      1  O   UNL     1       3.713   2.442   7.816  1.00  0.00    -0.490 OA
ENDROOT
BRANCH   1   2
ATOM      2  C   UNL     1       3.520   3.119   8.979  1.00  0.00     0.155 A 
ATOM      3  C   UNL     1       2.053   4.218  10.536  1.00  0.00     0.063 A 
ATOM      4  C   UNL     1       3.145   4.491  11.365  1.00  0.00     0.019 A 
ATOM      5  C   UNL     1       2.249   3.528   9.338  1.00  0.00     0.065 A 
ATOM      6  C   UNL     1       4.408   4.074  11.002  1.00  0.00     0.044 A 
ATOM      7  C   UNL     1       4.598   3.385   9.816  1.00  0.00     0.165 A 
ATOM      8  F   UNL     1       5.838   2.978   9.465  1.00  0.00    -0.203 F 
BRANCH   3   9
ATOM      9  C   UNL     1       0.700   4.664  10.922  1.00  0.00     0.335 C 
ATOM     10  O   UNL     1       0.299   5.756  10.578  1.00  0.00    -0.246 OA
BRANCH   9  11
ATOM     11  O   UNL     1      -0.093   3.853  11.651  1.00  0.00    -0.478 OA
ATOM     12  H   UNL     1       0.172   3.687  12.566  1.00  0.00     0.297 HD
ENDBRANCH   9  11
ENDBRANCH   3   9
ENDBRANCH   1   2
BRANCH   1  13
ATOM     13  C   UNL     1       2.768   1.417   7.497  1.00  0.00     0.230 C 
BRANCH  13  14
ATOM     14  C   UNL     1       3.010   0.930   6.067  1.00  0.00     0.046 C 
BRANCH  14  15
ATOM     15  C   UNL     1       3.547   2.084   5.218  1.00  0.00     0.043 C 
BRANCH  15  16
ATOM     16  C   UNL     1       2.398   2.800   4.557  1.00  0.00    -0.004 A 
ATOM     17  C   UNL     1       1.588   2.291   3.600  1.00  0.00     0.036 A 
ATOM     18  C   UNL     1       1.977   4.106   4.828  1.00  0.00     0.063 A 
ATOM     19  N   UNL     1       0.689   3.243   3.273  1.00  0.00    -0.282 N 
ATOM     20  N   UNL     1       0.957   4.375   4.054  1.00  0.00    -0.181 NA
ATOM     21  C   UNL     1       1.672   0.909   3.008  1.00  0.00     0.066 C 
ATOM     22  C   UNL     1       2.598   5.045   5.830  1.00  0.00     0.069 C 
ATOM     23  H   UNL     1      -0.016   3.160   2.613  1.00  0.00     0.190 HD
ENDBRANCH  15  16
ENDBRANCH  14  15
ENDBRANCH  13  14
ENDBRANCH   1  13
TORSDOF 7
ENDMDL
MODEL 8
REMARK VINA RESULT:    -4.494      4.783      8.211
REMARK INTER + INTRA:          -6.697
REMARK INTER:                  -6.070
REMARK INTRA:                  -0.627
REMARK UNBOUND:                -0.495
REMARK SMILES Cc1n[nH]c(C)c1CCCOc1cc(C(=O)O)ccc1F
REMARK SMILES IDX 11 1 12 2 14 3 18 4 13 5 19 6 20 7 21 8 15 9 16 10 17 11
REMARK SMILES IDX 10 13 9 14 8 15 7 16 5 17 2 18 4 19 3 20 6 21 1 22
REMARK H PARENT 17 12 4 23
ROOT
ATOM      1  O   UNL     1       5.054   3.248  10.301  1.00  0.00    -0.490 OA
ENDROOT
BRANCH   1   2
ATOM      2  C   UNL     1       5.920   3.770  11.210  1.00  0.00     0.155 A 
ATOM      3  C   UNL     1       6.526   4.231  13.491  1.00  0.00     0.063 A 
ATOM      4  C   UNL     1       7.709   4.832  13.051  1.00  0.00     0.019 A 
ATOM      5  C   UNL     1       5.631   3.699  12.560  1.00  0.00     0.065 A 
ATOM      6  C   UNL     1       7.991   4.892  11.703  1.00  0.00     0.044 A 
ATOM      7  C   UNL     1       7.105   4.359  10.782  1.00  0.00     0.165 A 
ATOM      8  F   UNL     1       7.387   4.421   9.462  1.00  0.00    -0.203 F 
BRANCH   3   9
ATOM      9  C   UNL     1       6.221   4.165  14.933  1.00  0.00     0.335 C 
ATOM     10  O   UNL     1       7.101   4.344  15.750  1.00  0.00    -0.246 OA
BRANCH   9  11
ATOM     11  O   UNL     1       4.963   3.912  15.344  1.00  0.00    -0.478 OA
ATOM     12  H   UNL     1       4.261   4.471  14.981  1.00  0.00     0.297 HD
ENDBRANCH   9  11
ENDBRANCH   3   9
ENDBRANCH   1   2
BRANCH   1  13
ATOM     13  C   UNL     1       3.868   3.999  10.031  1.00  0.00     0.230 C 
BRANCH  13  14
ATOM     14  C   UNL     1       2.940   3.180   9.131  1.00  0.00     0.046 C 
BRANCH  14  15
ATOM     15  C   UNL     1       3.663   2.844   7.825  1.00  0.00     0.043 C 
BRANCH  15  16
ATOM     16  C   UNL     1       2.650   2.502   6.764  1.00  0.00    -0.004 A 
ATOM     17  C   UNL     1       2.185   3.339   5.807  1.00  0.00     0.036 A 
ATOM     18  C   UNL     1       2.029   1.261   6.588  1.00  0.00     0.063 A 
ATOM     19  N   UNL     1       1.296   2.653   5.057  1.00  0.00    -0.282 N 
ATOM     20  N   UNL     1       1.212   1.352   5.570  1.00  0.00    -0.181 NA
ATOM     21  C   UNL     1       2.588   4.777   5.614  1.00  0.00     0.066 C 
ATOM     22  C   UNL     1       2.253   0.033   7.434  1.00  0.00     0.069 C 
ATOM     23  H   UNL     1       0.802   3.000   4.299  1.00  0.00     0.190 HD
ENDBRANCH  15  16
ENDBRANCH  14  15
ENDBRANCH  13  14
ENDBRANCH   1  13
TORSDOF 7
ENDMDL
MODEL 9
REMARK VINA RESULT:    -4.486      4.785      8.237
REMARK INTER + INTRA:          -6.685
REMARK INTER:                  -6.062
REMARK INTRA:                  -0.623
REMARK UNBOUND:                -0.495
REMARK SMILES Cc1n[nH]c(C)c1CCCOc1cc(C(=O)O)ccc1F
REMARK SMILES IDX 11 1 12 2 14 3 18 4 13 5 19 6 20 7 21 8 15 9 16 10 17 11
REMARK SMILES IDX 10 13 9 14 8 15 7 16 5 17 2 18 4 19 3 20 6 21 1 22
REMARK H PARENT 17 12 4 23
ROOT
ATOM      1  O   UNL     1       5.062   3.232  10.304  1.00  0.00    -0.490 OA
ENDROOT
BRANCH   1   2
ATOM      2  C   UNL     1       5.924   3.762  11.212  1.00  0.00     0.155 A 
ATOM      3  C   UNL     1       6.525   4.232  13.492  1.00  0.00     0.063 A 
ATOM      4  C   UNL     1       7.703   4.842  13.052  1.00  0.00     0.019 A 
ATOM      5  C   UNL     1       5.635   3.691  12.562  1.00  0.00     0.065 A 
ATOM      6  C   UNL     1       7.986   4.902  11.704  1.00  0.00     0.044 A 
ATOM      7  C   UNL     1       7.104   4.361  10.783  1.00  0.00     0.165 A 
ATOM      8  F   UNL     1       7.386   4.423   9.464  1.00  0.00    -0.203 F 
BRANCH   3   9
ATOM      9  C   UNL     1       6.220   4.165  14.935  1.00  0.00     0.335 C 
ATOM     10  O   UNL     1       7.101   4.343  15.751  1.00  0.00    -0.246 OA
BRANCH   9  11
ATOM     11  O   UNL     1       4.961   3.913  15.346  1.00  0.00    -0.478 OA
ATOM     12  H   UNL     1       4.736   2.990  15.529  1.00  0.00     0.297 HD
ENDBRANCH   9  11
ENDBRANCH   3   9
ENDBRANCH   1   2
BRANCH   1  13
ATOM     13  C   UNL     1       3.920   4.019   9.958  1.00  0.00     0.230 C 
BRANCH  13  14
ATOM     14  C   UNL     1       2.969   3.186   9.097  1.00  0.00     0.046 C 
BRANCH  14  15
ATOM     15  C   UNL     1       3.674   2.786   7.799  1.00  0.00     0.043 C 
BRANCH  15  16
ATOM     16  C   UNL     1       2.645   2.467   6.745  1.00  0.00    -0.004 A 
ATOM     17  C   UNL     1       2.018   1.279   6.578  1.00  0.00     0.036 A 
ATOM     18  C   UNL     1       2.165   3.348   5.771  1.00  0.00     0.063 A 
ATOM     19  N   UNL     1       1.176   1.403   5.531  1.00  0.00    -0.282 N 
ATOM     20  N   UNL     1       1.289   2.709   5.038  1.00  0.00    -0.181 NA
ATOM     21  C   UNL     1       2.224   0.042   7.412  1.00  0.00     0.066 C 
ATOM     22  C   UNL     1       2.591   4.782   5.588  1.00  0.00     0.069 C 
ATOM     23  H   UNL     1       0.596   0.709   5.181  1.00  0.00     0.190 HD
ENDBRANCH  15  16
ENDBRANCH  14  15
ENDBRANCH  13  14
ENDBRANCH   1  13
TORSDOF 7
ENDMDL
