MODEL 1
REMARK VINA RESULT:    -5.653      0.000      0.000
REMARK INTER + INTRA:          -8.259
REMARK INTER:                  -7.802
REMARK INTRA:                  -0.458
REMARK UNBOUND:                -0.458
REMARK SMILES Cc1n[nH]c(C)c1CCCOc1cc(C(=O)O)ccc1F
REMARK SMILES IDX 11 1 12 2 14 3 18 4 13 5 19 6 20 7 21 8 15 9 16 10 17 11
REMARK SMILES IDX 10 13 9 14 8 15 7 16 5 17 2 18 4 19 3 20 6 21 1 22
REMARK H PARENT 17 12 4 23
ROOT
ATOM      1  O   UNL     1       4.610   8.409  -1.288  1.00  0.00    -0.490 OA
ENDROOT
BRANCH   1   2
ATOM      2  C   UNL     1       3.632   7.473  -1.419  1.00  0.00     0.155 A 
ATOM      3  C   UNL     1       1.396   6.713  -0.969  1.00  0.00     0.063 A 
ATOM      4  C   UNL     1       1.645   5.554  -1.709  1.00  0.00     0.019 A 
ATOM      5  C   UNL     1       2.399   7.674  -0.827  1.00  0.00     0.065 A 
ATOM      6  C   UNL     1       2.876   5.366  -2.301  1.00  0.00     0.044 A 
ATOM      7  C   UNL     1       3.868   6.322  -2.163  1.00  0.00     0.165 A 
ATOM      8  F   UNL     1       5.072   6.132  -2.746  1.00  0.00    -0.203 F 
BRANCH   3   9
ATOM      9  C   UNL     1       0.079   6.918  -0.334  1.00  0.00     0.335 C 
ATOM     10  O   UNL     1      -0.057   7.769   0.521  1.00  0.00    -0.246 OA
BRANCH   9  11
ATOM     11  O   UNL     1      -0.973   6.164  -0.708  1.00  0.00    -0.478 OA
ATOM     12  H   UNL     1      -1.179   5.394  -0.160  1.00  0.00     0.297 HD
ENDBRANCH   9  11
ENDBRANCH   3   9
ENDBRANCH   1   2
BRANCH   1  13
ATOM     13  C   UNL     1       5.069   9.041  -2.486  1.00  0.00     0.230 C 
BRANCH  13  14
ATOM     14  C   UNL     1       4.665  10.516  -2.470  1.00  0.00     0.046 C 
BRANCH  14  15
ATOM     15  C   UNL     1       3.354  10.695  -3.239  1.00  0.00     0.043 C 
BRANCH  15  16
ATOM     16  C   UNL     1       3.219  12.130  -3.676  1.00  0.00    -0.004 A 
ATOM     17  C   UNL     1       2.752  13.152  -2.922  1.00  0.00     0.036 A 
ATOM     18  C   UNL     1       3.560  12.644  -4.932  1.00  0.00     0.063 A 
ATOM     19  N   UNL     1       2.790  14.271  -3.675  1.00  0.00    -0.282 N 
ATOM     20  N   UNL     1       3.297  13.925  -4.935  1.00  0.00    -0.181 NA
ATOM     21  C   UNL     1       2.276  13.057  -1.496  1.00  0.00     0.066 C 
ATOM     22  C   UNL     1       4.122  11.854  -6.087  1.00  0.00     0.069 C 
ATOM     23  H   UNL     1       2.514  15.157  -3.395  1.00  0.00     0.190 HD
ENDBRANCH  15  16
ENDBRANCH  14  15
ENDBRANCH  13  14
ENDBRANCH   1  13
TORSDOF 7
ENDMDL
MODEL 2
REMARK VINA RESULT:    -5.621      0.197      1.776
REMARK INTER + INTRA:          -8.215
REMARK INTER:                  -7.701
REMARK INTRA:                  -0.514
REMARK UNBOUND:                -0.458
REMARK SMILES Cc1n[nH]c(C)c1CCCOc1cc(C(=O)O)ccc1F
REMARK SMILES IDX 11 1 12 2 14 3 18 4 13 5 19 6 20 7 21 8 15 9 16 10 17 11
REMARK SMILES IDX 10 13 9 14 8 15 7 16 5 17 2 18 4 19 3 20 6 21 1 22
REMARK H PARENT 17 12 4 23
ROOT
ATOM      1  O   UNL     1       4.489   8.449  -1.339  1.00  0.00    -0.490 OA
ENDROOT
BRANCH   1   2
ATOM      2  C   UNL     1       3.542   7.476  -1.410  1.00  0.00     0.155 A 
ATOM      3  C   UNL     1       1.328   6.678  -0.917  1.00  0.00     0.063 A 
ATOM      4  C   UNL     1       1.617   5.480  -1.576  1.00  0.00     0.019 A 
ATOM      5  C   UNL     1       2.300   7.677  -0.837  1.00  0.00     0.065 A 
ATOM      6  C   UNL     1       2.857   5.291  -2.149  1.00  0.00     0.044 A 
ATOM      7  C   UNL     1       3.818   6.285  -2.073  1.00  0.00     0.165 A 
ATOM      8  F   UNL     1       5.031   6.094  -2.637  1.00  0.00    -0.203 F 
BRANCH   3   9
ATOM      9  C   UNL     1       0.002   6.884  -0.303  1.00  0.00     0.335 C 
ATOM     10  O   UNL     1      -0.138   7.705   0.580  1.00  0.00    -0.246 OA
BRANCH   9  11
ATOM     11  O   UNL     1      -1.056   6.165  -0.728  1.00  0.00    -0.478 OA
ATOM     12  H   UNL     1      -1.191   5.298  -0.319  1.00  0.00     0.297 HD
ENDBRANCH   9  11
ENDBRANCH   3   9
ENDBRANCH   1   2
BRANCH   1  13
ATOM     13  C   UNL     1       4.879   9.066  -2.568  1.00  0.00     0.230 C 
BRANCH  13  14
ATOM     14  C   UNL     1       4.512  10.551  -2.531  1.00  0.00     0.046 C 
BRANCH  14  15
ATOM     15  C   UNL     1       3.242  10.784  -3.351  1.00  0.00     0.043 C 
BRANCH  15  16
ATOM     16  C   UNL     1       3.229  12.198  -3.868  1.00  0.00    -0.004 A 
ATOM     17  C   UNL     1       3.584  12.594  -5.113  1.00  0.00     0.036 A 
ATOM     18  C   UNL     1       2.842  13.334  -3.150  1.00  0.00     0.063 A 
ATOM     19  N   UNL     1       3.433  13.934  -5.177  1.00  0.00    -0.282 N 
ATOM     20  N   UNL     1       2.970  14.376  -3.931  1.00  0.00    -0.181 NA
ATOM     21  C   UNL     1       4.061  11.700  -6.227  1.00  0.00     0.066 C 
ATOM     22  C   UNL     1       2.370  13.356  -1.718  1.00  0.00     0.069 C 
ATOM     23  H   UNL     1       3.614  14.492  -5.949  1.00  0.00     0.190 HD
ENDBRANCH  15  16
ENDBRANCH  14  15
ENDBRANCH  13  14
ENDBRANCH   1  13
TORSDOF 7
ENDMDL
MODEL 3
REMARK VINA RESULT:    -5.578      2.297      3.477
REMARK INTER + INTRA:          -8.156
REMARK INTER:                  -7.506
REMARK INTRA:                  -0.650
REMARK UNBOUND:                -0.458
REMARK SMILES Cc1n[nH]c(C)c1CCCOc1cc(C(=O)O)ccc1F
REMARK SMILES IDX 11 1 12 2 14 3 18 4 13 5 19 6 20 7 21 8 15 9 16 10 17 11
REMARK SMILES IDX 10 13 9 14 8 15 7 16 5 17 2 18 4 19 3 20 6 21 1 22
REMARK H PARENT 17 12 4 23
ROOT
ATOM      1  O   UNL     1       0.267   8.369  -3.124  1.00  0.00    -0.490 OA
ENDROOT
BRANCH   1   2
ATOM      2  C   UNL     1       1.018   7.407  -2.525  1.00  0.00     0.155 A 
ATOM      3  C   UNL     1       2.992   6.036  -2.464  1.00  0.00     0.063 A 
ATOM      4  C   UNL     1       2.543   5.447  -1.279  1.00  0.00     0.019 A 
ATOM      5  C   UNL     1       2.221   7.020  -3.085  1.00  0.00     0.065 A 
ATOM      6  C   UNL     1       1.344   5.843  -0.725  1.00  0.00     0.044 A 
ATOM      7  C   UNL     1       0.583   6.824  -1.340  1.00  0.00     0.165 A 
ATOM      8  F   UNL     1      -0.591   7.208  -0.791  1.00  0.00    -0.203 F 
BRANCH   3   9
ATOM      9  C   UNL     1       4.275   5.614  -3.060  1.00  0.00     0.335 C 
ATOM     10  O   UNL     1       4.511   5.853  -4.227  1.00  0.00    -0.246 OA
BRANCH   9  11
ATOM     11  O   UNL     1       5.188   4.970  -2.307  1.00  0.00    -0.478 OA
ATOM     12  H   UNL     1       5.592   4.178  -2.689  1.00  0.00     0.297 HD
ENDBRANCH   9  11
ENDBRANCH   3   9
ENDBRANCH   1   2
BRANCH   1  13
ATOM     13  C   UNL     1       0.328   9.683  -2.564  1.00  0.00     0.230 C 
BRANCH  13  14
ATOM     14  C   UNL     1       1.077  10.610  -3.522  1.00  0.00     0.046 C 
BRANCH  14  15
ATOM     15  C   UNL     1       2.396  11.048  -2.881  1.00  0.00     0.043 C 
BRANCH  15  16
ATOM     16  C   UNL     1       2.652  12.499  -3.196  1.00  0.00    -0.004 A 
ATOM     17  C   UNL     1       2.392  13.549  -2.382  1.00  0.00     0.036 A 
ATOM     18  C   UNL     1       3.206  12.999  -4.380  1.00  0.00     0.063 A 
ATOM     19  N   UNL     1       2.762  14.673  -3.031  1.00  0.00    -0.282 N 
ATOM     20  N   UNL     1       3.266  14.302  -4.284  1.00  0.00    -0.181 NA
ATOM     21  C   UNL     1       1.797  13.475  -1.001  1.00  0.00     0.066 C 
ATOM     22  C   UNL     1       3.646  12.178  -5.565  1.00  0.00     0.069 C 
ATOM     23  H   UNL     1       2.691  15.578  -2.689  1.00  0.00     0.190 HD
ENDBRANCH  15  16
ENDBRANCH  14  15
ENDBRANCH  13  14
ENDBRANCH   1  13
TORSDOF 7
ENDMDL
MODEL 4
REMARK VINA RESULT:    -5.484      2.303      3.811
REMARK INTER + INTRA:          -8.025
REMARK INTER:                  -7.313
REMARK INTRA:                  -0.712
REMARK UNBOUND:                -0.458
REMARK SMILES Cc1n[nH]c(C)c1CCCOc1cc(C(=O)O)ccc1F
REMARK SMILES IDX 11 1 12 2 14 3 18 4 13 5 19 6 20 7 21 8 15 9 16 10 17 11
REMARK SMILES IDX 10 13 9 14 8 15 7 16 5 17 2 18 4 19 3 20 6 21 1 22
REMARK H PARENT 17 12 4 23
ROOT
ATOM      1  O   UNL     1       0.000   8.577  -2.276  1.00  0.00    -0.490 OA
ENDROOT
BRANCH   1   2
ATOM      2  C   UNL     1       0.718   7.495  -1.875  1.00  0.00     0.155 A 
ATOM      3  C   UNL     1       2.586   6.007  -2.160  1.00  0.00     0.063 A 
ATOM      4  C   UNL     1       2.178   5.286  -1.035  1.00  0.00     0.019 A 
ATOM      5  C   UNL     1       1.848   7.117  -2.577  1.00  0.00     0.065 A 
ATOM      6  C   UNL     1       1.053   5.674  -0.338  1.00  0.00     0.044 A 
ATOM      7  C   UNL     1       0.325   6.778  -0.751  1.00  0.00     0.165 A 
ATOM      8  F   UNL     1      -0.776   7.153  -0.063  1.00  0.00    -0.203 F 
BRANCH   3   9
ATOM      9  C   UNL     1       3.790   5.595  -2.908  1.00  0.00     0.335 C 
ATOM     10  O   UNL     1       4.657   6.406  -3.159  1.00  0.00    -0.246 OA
BRANCH   9  11
ATOM     11  O   UNL     1       3.929   4.315  -3.306  1.00  0.00    -0.478 OA
ATOM     12  H   UNL     1       3.672   4.107  -4.215  1.00  0.00     0.297 HD
ENDBRANCH   9  11
ENDBRANCH   3   9
ENDBRANCH   1   2
BRANCH   1  13
ATOM     13  C   UNL     1       0.524   9.335  -3.369  1.00  0.00     0.230 C 
BRANCH  13  14
ATOM     14  C   UNL     1       0.738  10.784  -2.928  1.00  0.00     0.046 C 
BRANCH  14  15
ATOM     15  C   UNL     1       2.229  11.026  -2.677  1.00  0.00     0.043 C 
BRANCH  15  16
ATOM     16  C   UNL     1       2.601  12.407  -3.150  1.00  0.00    -0.004 A 
ATOM     17  C   UNL     1       3.133  12.721  -4.354  1.00  0.00     0.036 A 
ATOM     18  C   UNL     1       2.452  13.593  -2.424  1.00  0.00     0.063 A 
ATOM     19  N   UNL     1       3.320  14.057  -4.386  1.00  0.00    -0.282 N 
ATOM     20  N   UNL     1       2.888  14.582  -3.161  1.00  0.00    -0.181 NA
ATOM     21  C   UNL     1       3.458  11.752  -5.460  1.00  0.00     0.066 C 
ATOM     22  C   UNL     1       1.895  13.711  -1.027  1.00  0.00     0.069 C 
ATOM     23  H   UNL     1       3.688  14.564  -5.126  1.00  0.00     0.190 HD
ENDBRANCH  15  16
ENDBRANCH  14  15
ENDBRANCH  13  14
ENDBRANCH   1  13
TORSDOF 7
ENDMDL
MODEL 5
REMARK VINA RESULT:    -4.821      1.810      2.773
REMARK INTER + INTRA:          -7.110
REMARK INTER:                  -6.433
REMARK INTRA:                  -0.677
REMARK UNBOUND:                -0.458
REMARK SMILES Cc1n[nH]c(C)c1CCCOc1cc(C(=O)O)ccc1F
REMARK SMILES IDX 11 1 12 2 14 3 18 4 13 5 19 6 20 7 21 8 15 9 16 10 17 11
REMARK SMILES IDX 10 13 9 14 8 15 7 16 5 17 2 18 4 19 3 20 6 21 1 22
REMARK H PARENT 17 12 4 23
ROOT
ATOM      1  O   UNL     1       1.230   9.031  -3.603  1.00  0.00    -0.490 OA
ENDROOT
BRANCH   1   2
ATOM      2  C   UNL     1       1.442   7.932  -2.832  1.00  0.00     0.155 A 
ATOM      3  C   UNL     1       0.849   6.553  -0.954  1.00  0.00     0.063 A 
ATOM      4  C   UNL     1       1.888   5.675  -1.275  1.00  0.00     0.019 A 
ATOM      5  C   UNL     1       0.630   7.685  -1.741  1.00  0.00     0.065 A 
ATOM      6  C   UNL     1       2.689   5.926  -2.369  1.00  0.00     0.044 A 
ATOM      7  C   UNL     1       2.467   7.048  -3.150  1.00  0.00     0.165 A 
ATOM      8  F   UNL     1       3.256   7.288  -4.221  1.00  0.00    -0.203 F 
BRANCH   3   9
ATOM      9  C   UNL     1      -0.011   6.286   0.216  1.00  0.00     0.335 C 
ATOM     10  O   UNL     1       0.286   5.410   1.002  1.00  0.00    -0.246 OA
BRANCH   9  11
ATOM     11  O   UNL     1      -1.123   7.021   0.415  1.00  0.00    -0.478 OA
ATOM     12  H   UNL     1      -1.752   7.073  -0.319  1.00  0.00     0.297 HD
ENDBRANCH   9  11
ENDBRANCH   3   9
ENDBRANCH   1   2
BRANCH   1  13
ATOM     13  C   UNL     1       0.103   9.847  -3.273  1.00  0.00     0.230 C 
BRANCH  13  14
ATOM     14  C   UNL     1       0.534  11.314  -3.221  1.00  0.00     0.046 C 
BRANCH  14  15
ATOM     15  C   UNL     1       2.036  11.395  -2.942  1.00  0.00     0.043 C 
BRANCH  15  16
ATOM     16  C   UNL     1       2.589  12.667  -3.530  1.00  0.00    -0.004 A 
ATOM     17  C   UNL     1       3.203  12.788  -4.730  1.00  0.00     0.036 A 
ATOM     18  C   UNL     1       2.554  13.932  -2.935  1.00  0.00     0.063 A 
ATOM     19  N   UNL     1       3.549  14.083  -4.886  1.00  0.00    -0.282 N 
ATOM     20  N   UNL     1       3.135  14.781  -3.743  1.00  0.00    -0.181 NA
ATOM     21  C   UNL     1       3.454  11.677  -5.716  1.00  0.00     0.066 C 
ATOM     22  C   UNL     1       1.959  14.259  -1.589  1.00  0.00     0.069 C 
ATOM     23  H   UNL     1       4.005  14.464  -5.652  1.00  0.00     0.190 HD
ENDBRANCH  15  16
ENDBRANCH  14  15
ENDBRANCH  13  14
ENDBRANCH   1  13
TORSDOF 7
ENDMDL
MODEL 6
REMARK VINA RESULT:    -4.742      3.768      6.487
REMARK INTER + INTRA:          -7.002
REMARK INTER:                  -6.155
REMARK INTRA:                  -0.847
REMARK UNBOUND:                -0.458
REMARK SMILES Cc1n[nH]c(C)c1CCCOc1cc(C(=O)O)ccc1F
REMARK SMILES IDX 11 1 12 2 14 3 18 4 13 5 19 6 20 7 21 8 15 9 16 10 17 11
REMARK SMILES IDX 10 13 9 14 8 15 7 16 5 17 2 18 4 19 3 20 6 21 1 22
REMARK H PARENT 17 12 4 23
ROOT
ATOM      1  O   UNL     1       3.208   9.532  -3.654  1.00  0.00    -0.490 OA
ENDROOT
BRANCH   1   2
ATOM      2  C   UNL     1       3.106  10.888  -3.646  1.00  0.00     0.155 A 
ATOM      3  C   UNL     1       2.622  12.938  -2.487  1.00  0.00     0.063 A 
ATOM      4  C   UNL     1       2.913  13.659  -3.648  1.00  0.00     0.019 A 
ATOM      5  C   UNL     1       2.721  11.545  -2.493  1.00  0.00     0.065 A 
ATOM      6  C   UNL     1       3.301  12.995  -4.792  1.00  0.00     0.044 A 
ATOM      7  C   UNL     1       3.404  11.613  -4.794  1.00  0.00     0.165 A 
ATOM      8  F   UNL     1       3.785  10.969  -5.919  1.00  0.00    -0.203 F 
BRANCH   3   9
ATOM      9  C   UNL     1       2.207  13.646  -1.260  1.00  0.00     0.335 C 
ATOM     10  O   UNL     1       1.030  13.849  -1.045  1.00  0.00    -0.246 OA
BRANCH   9  11
ATOM     11  O   UNL     1       3.135  14.062  -0.376  1.00  0.00    -0.478 OA
ATOM     12  H   UNL     1       3.083  13.699   0.519  1.00  0.00     0.297 HD
ENDBRANCH   9  11
ENDBRANCH   3   9
ENDBRANCH   1   2
BRANCH   1  13
ATOM     13  C   UNL     1       3.775   8.917  -2.494  1.00  0.00     0.230 C 
BRANCH  13  14
ATOM     14  C   UNL     1       3.658   7.397  -2.615  1.00  0.00     0.046 C 
BRANCH  14  15
ATOM     15  C   UNL     1       2.312   7.037  -3.246  1.00  0.00     0.043 C 
BRANCH  15  16
ATOM     16  C   UNL     1       1.264   6.929  -2.169  1.00  0.00    -0.004 A 
ATOM     17  C   UNL     1       0.217   7.767  -1.990  1.00  0.00     0.036 A 
ATOM     18  C   UNL     1       1.198   5.941  -1.181  1.00  0.00     0.063 A 
ATOM     19  N   UNL     1      -0.483   7.329  -0.922  1.00  0.00    -0.282 N 
ATOM     20  N   UNL     1       0.156   6.184  -0.429  1.00  0.00    -0.181 NA
ATOM     21  C   UNL     1      -0.109   8.973  -2.832  1.00  0.00     0.066 C 
ATOM     22  C   UNL     1       2.168   4.801  -1.005  1.00  0.00     0.069 C 
ATOM     23  H   UNL     1      -1.285   7.736  -0.560  1.00  0.00     0.190 HD
ENDBRANCH  15  16
ENDBRANCH  14  15
ENDBRANCH  13  14
ENDBRANCH   1  13
TORSDOF 7
ENDMDL
MODEL 7
REMARK VINA RESULT:    -4.723      3.941      6.993
REMARK INTER + INTRA:          -6.975
REMARK INTER:                  -6.093
REMARK INTRA:                  -0.882
REMARK UNBOUND:                -0.458
REMARK SMILES Cc1n[nH]c(C)c1CCCOc1cc(C(=O)O)ccc1F
REMARK SMILES IDX 11 1 12 2 14 3 18 4 13 5 19 6 20 7 21 8 15 9 16 10 17 11
REMARK SMILES IDX 10 13 9 14 8 15 7 16 5 17 2 18 4 19 3 20 6 21 1 22
REMARK H PARENT 17 12 4 23
ROOT
ATOM      1  O   UNL     1       1.890  10.199  -1.887  1.00  0.00    -0.490 OA
ENDROOT
BRANCH   1   2
ATOM      2  C   UNL     1       2.305  11.282  -2.596  1.00  0.00     0.155 A 
ATOM      3  C   UNL     1       3.178  12.242  -4.621  1.00  0.00     0.063 A 
ATOM      4  C   UNL     1       3.139  13.509  -4.033  1.00  0.00     0.019 A 
ATOM      5  C   UNL     1       2.757  11.127  -3.893  1.00  0.00     0.065 A 
ATOM      6  C   UNL     1       2.681  13.655  -2.741  1.00  0.00     0.044 A 
ATOM      7  C   UNL     1       2.259  12.548  -2.022  1.00  0.00     0.165 A 
ATOM      8  F   UNL     1       1.811  12.698  -0.757  1.00  0.00    -0.203 F 
BRANCH   3   9
ATOM      9  C   UNL     1       3.667  12.082  -6.004  1.00  0.00     0.335 C 
ATOM     10  O   UNL     1       4.852  11.918  -6.214  1.00  0.00    -0.246 OA
BRANCH   9  11
ATOM     11  O   UNL     1       2.798  12.111  -7.034  1.00  0.00    -0.478 OA
ATOM     12  H   UNL     1       2.048  12.717  -6.958  1.00  0.00     0.297 HD
ENDBRANCH   9  11
ENDBRANCH   3   9
ENDBRANCH   1   2
BRANCH   1  13
ATOM     13  C   UNL     1       1.164   9.195  -2.600  1.00  0.00     0.230 C 
BRANCH  13  14
ATOM     14  C   UNL     1       1.022   7.950  -1.723  1.00  0.00     0.046 C 
BRANCH  14  15
ATOM     15  C   UNL     1       2.291   7.766  -0.888  1.00  0.00     0.043 C 
BRANCH  15  16
ATOM     16  C   UNL     1       3.254   6.873  -1.626  1.00  0.00    -0.004 A 
ATOM     17  C   UNL     1       4.443   7.248  -2.154  1.00  0.00     0.036 A 
ATOM     18  C   UNL     1       3.081   5.509  -1.882  1.00  0.00     0.063 A 
ATOM     19  N   UNL     1       4.999   6.161  -2.729  1.00  0.00    -0.282 N 
ATOM     20  N   UNL     1       4.123   5.082  -2.549  1.00  0.00    -0.181 NA
ATOM     21  C   UNL     1       5.038   8.631  -2.107  1.00  0.00     0.066 C 
ATOM     22  C   UNL     1       1.893   4.676  -1.472  1.00  0.00     0.069 C 
ATOM     23  H   UNL     1       5.853   6.132  -3.186  1.00  0.00     0.190 HD
ENDBRANCH  15  16
ENDBRANCH  14  15
ENDBRANCH  13  14
ENDBRANCH   1  13
TORSDOF 7
ENDMDL
MODEL 8
REMARK VINA RESULT:    -4.546      4.742      8.125
REMARK INTER + INTRA:          -6.731
REMARK INTER:                  -6.037
REMARK INTRA:                  -0.693
REMARK UNBOUND:                -0.458
REMARK SMILES Cc1n[nH]c(C)c1CCCOc1cc(C(=O)O)ccc1F
REMARK SMILES IDX 11 1 12 2 14 3 18 4 13 5 19 6 20 7 21 8 15 9 16 10 17 11
REMARK SMILES IDX 10 13 9 14 8 15 7 16 5 17 2 18 4 19 3 20 6 21 1 22
REMARK H PARENT 17 12 4 23
ROOT
ATOM      1  O   UNL     1       3.792  11.970  -4.962  1.00  0.00    -0.490 OA
ENDROOT
BRANCH   1   2
ATOM      2  C   UNL     1       3.841  12.812  -6.029  1.00  0.00     0.155 A 
ATOM      3  C   UNL     1       4.360  14.964  -6.967  1.00  0.00     0.063 A 
ATOM      4  C   UNL     1       3.942  14.513  -8.222  1.00  0.00     0.019 A 
ATOM      5  C   UNL     1       4.306  14.104  -5.868  1.00  0.00     0.065 A 
ATOM      6  C   UNL     1       3.485  13.221  -8.373  1.00  0.00     0.044 A 
ATOM      7  C   UNL     1       3.438  12.368  -7.283  1.00  0.00     0.165 A 
ATOM      8  F   UNL     1       2.989  11.103  -7.438  1.00  0.00    -0.203 F 
BRANCH   3   9
ATOM      9  C   UNL     1       4.850  16.347  -6.802  1.00  0.00     0.335 C 
ATOM     10  O   UNL     1       4.824  17.116  -7.740  1.00  0.00    -0.246 OA
BRANCH   9  11
ATOM     11  O   UNL     1       5.319  16.756  -5.607  1.00  0.00    -0.478 OA
ATOM     12  H   UNL     1       5.914  16.153  -5.139  1.00  0.00     0.297 HD
ENDBRANCH   9  11
ENDBRANCH   3   9
ENDBRANCH   1   2
BRANCH   1  13
ATOM     13  C   UNL     1       2.876  12.301  -3.916  1.00  0.00     0.230 C 
BRANCH  13  14
ATOM     14  C   UNL     1       2.902  11.203  -2.850  1.00  0.00     0.046 C 
BRANCH  14  15
ATOM     15  C   UNL     1       2.896   9.832  -3.530  1.00  0.00     0.043 C 
BRANCH  15  16
ATOM     16  C   UNL     1       2.549   8.771  -2.518  1.00  0.00    -0.004 A 
ATOM     17  C   UNL     1       3.422   8.117  -1.718  1.00  0.00     0.036 A 
ATOM     18  C   UNL     1       1.265   8.292  -2.236  1.00  0.00     0.063 A 
ATOM     19  N   UNL     1       2.717   7.250  -0.961  1.00  0.00    -0.282 N 
ATOM     20  N   UNL     1       1.366   7.376  -1.307  1.00  0.00    -0.181 NA
ATOM     21  C   UNL     1       4.914   8.321  -1.679  1.00  0.00     0.066 C 
ATOM     22  C   UNL     1      -0.013   8.744  -2.896  1.00  0.00     0.069 C 
ATOM     23  H   UNL     1       3.082   6.647  -0.295  1.00  0.00     0.190 HD
ENDBRANCH  15  16
ENDBRANCH  14  15
ENDBRANCH  13  14
ENDBRANCH   1  13
TORSDOF 7
ENDMDL
MODEL 9
REMARK VINA RESULT:    -4.532      4.976      7.886
REMARK INTER + INTRA:          -6.712
REMARK INTER:                  -6.005
REMARK INTRA:                  -0.707
REMARK UNBOUND:                -0.458
REMARK SMILES Cc1n[nH]c(C)c1CCCOc1cc(C(=O)O)ccc1F
REMARK SMILES IDX 11 1 12 2 14 3 18 4 13 5 19 6 20 7 21 8 15 9 16 10 17 11
REMARK SMILES IDX 10 13 9 14 8 15 7 16 5 17 2 18 4 19 3 20 6 21 1 22
REMARK H PARENT 17 12 4 23
ROOT
ATOM      1  O   UNL     1       2.089  12.937  -2.153  1.00  0.00    -0.490 OA
ENDROOT
BRANCH   1   2
ATOM      2  C   UNL     1       2.241  14.211  -1.703  1.00  0.00     0.155 A 
ATOM      3  C   UNL     1       2.205  16.583  -2.097  1.00  0.00     0.063 A 
ATOM      4  C   UNL     1       2.545  16.806  -0.760  1.00  0.00     0.019 A 
ATOM      5  C   UNL     1       2.054  15.276  -2.565  1.00  0.00     0.065 A 
ATOM      6  C   UNL     1       2.723  15.738   0.093  1.00  0.00     0.044 A 
ATOM      7  C   UNL     1       2.568  14.443  -0.371  1.00  0.00     0.165 A 
ATOM      8  F   UNL     1       2.744  13.400   0.470  1.00  0.00    -0.203 F 
BRANCH   3   9
ATOM      9  C   UNL     1       2.013  17.724  -3.013  1.00  0.00     0.335 C 
ATOM     10  O   UNL     1       2.375  18.835  -2.684  1.00  0.00    -0.246 OA
BRANCH   9  11
ATOM     11  O   UNL     1       1.441  17.531  -4.218  1.00  0.00    -0.478 OA
ATOM     12  H   UNL     1       1.223  16.620  -4.460  1.00  0.00     0.297 HD
ENDBRANCH   9  11
ENDBRANCH   3   9
ENDBRANCH   1   2
BRANCH   1  13
ATOM     13  C   UNL     1       2.844  12.564  -3.308  1.00  0.00     0.230 C 
BRANCH  13  14
ATOM     14  C   UNL     1       2.720  11.056  -3.532  1.00  0.00     0.046 C 
BRANCH  14  15
ATOM     15  C   UNL     1       2.450  10.362  -2.195  1.00  0.00     0.043 C 
BRANCH  15  16
ATOM     16  C   UNL     1       2.435   8.869  -2.397  1.00  0.00    -0.004 A 
ATOM     17  C   UNL     1       3.492   8.035  -2.256  1.00  0.00     0.036 A 
ATOM     18  C   UNL     1       1.324   8.098  -2.757  1.00  0.00     0.063 A 
ATOM     19  N   UNL     1       3.067   6.783  -2.524  1.00  0.00    -0.282 N 
ATOM     20  N   UNL     1       1.703   6.849  -2.840  1.00  0.00    -0.181 NA
ATOM     21  C   UNL     1       4.892   8.435  -1.869  1.00  0.00     0.066 C 
ATOM     22  C   UNL     1      -0.066   8.619  -3.017  1.00  0.00     0.069 C 
ATOM     23  H   UNL     1       3.609   5.979  -2.502  1.00  0.00     0.190 HD
ENDBRANCH  15  16
ENDBRANCH  14  15
ENDBRANCH  13  14
ENDBRANCH   1  13
TORSDOF 7
ENDMDL
