MODEL 1
REMARK VINA RESULT:    -3.984      0.000      0.000
REMARK INTER + INTRA:          -4.849
REMARK INTER:                  -4.566
REMARK INTRA:                  -0.283
REMARK UNBOUND:                -0.283
REMARK SMILES O=C(O)c1ccc2nc(-c3cc(Cl)cc(Cl)c3)oc2c1
REMARK SMILES IDX 5 1 6 2 20 3 8 4 18 5 4 6 9 7 7 8 19 9 2 10 1 11 3 12 10 14
REMARK SMILES IDX 11 15 17 16 12 17 15 18 14 19 13 20 16 21
REMARK H PARENT 3 13
ROOT
ATOM      1  C   UNL     1       2.524  18.387  -0.313  1.00  0.00     0.018 A 
ATOM      2  C   UNL     1       2.349  17.672  -1.460  1.00  0.00     0.033 A 
ATOM      3  C   UNL     1       3.076  16.358   0.896  1.00  0.00     0.065 A 
ATOM      4  N   UNL     1       2.434  15.331  -2.407  1.00  0.00    -0.209 NA
ATOM      5  O   UNL     1       2.995  14.315  -0.567  1.00  0.00    -0.436 OA
ATOM      6  C   UNL     1       2.891  17.742   0.877  1.00  0.00     0.063 A 
ATOM      7  C   UNL     1       2.710  14.167  -1.875  1.00  0.00     0.227 A 
ATOM      8  C   UNL     1       2.532  16.284  -1.455  1.00  0.00     0.110 A 
ATOM      9  C   UNL     1       2.895  15.628  -0.265  1.00  0.00     0.156 A 
ENDROOT
BRANCH   6  10
ATOM     10  C   UNL     1       3.083  18.526   2.110  1.00  0.00     0.335 C 
ATOM     11  O   UNL     1       4.115  19.143   2.283  1.00  0.00    -0.246 OA
BRANCH  10  12
ATOM     12  O   UNL     1       2.114  18.559   3.046  1.00  0.00    -0.478 OA
ATOM     13  H   UNL     1       1.540  17.783   3.112  1.00  0.00     0.297 HD
ENDBRANCH  10  12
ENDBRANCH   6  10
BRANCH   7  14
ATOM     14  C   UNL     1       2.708  12.881  -2.602  1.00  0.00     0.040 A 
ATOM     15  C   UNL     1       3.124  12.827  -3.933  1.00  0.00     0.034 A 
ATOM     16  C   UNL     1       2.288  11.714  -1.960  1.00  0.00     0.034 A 
ATOM     17  C   UNL     1       3.120  11.622  -4.607  1.00  0.00     0.043 A 
ATOM     18  C   UNL     1       2.289  10.515  -2.645  1.00  0.00     0.043 A 
ATOM     19  C   UNL     1       2.703  10.469  -3.965  1.00  0.00     0.041 A 
ATOM     20  Cl  UNL     1       3.638  11.553  -6.262  1.00  0.00    -0.084 Cl
ATOM     21  Cl  UNL     1       1.768   9.062  -1.849  1.00  0.00    -0.084 Cl
ENDBRANCH   7  14
TORSDOF 3
ENDMDL
MODEL 2
REMARK VINA RESULT:    -3.983      0.009      2.019
REMARK INTER + INTRA:          -4.849
REMARK INTER:                  -4.565
REMARK INTRA:                  -0.284
REMARK UNBOUND:                -0.283
REMARK SMILES O=C(O)c1ccc2nc(-c3cc(Cl)cc(Cl)c3)oc2c1
REMARK SMILES IDX 5 1 6 2 20 3 8 4 18 5 4 6 9 7 7 8 19 9 2 10 1 11 3 12 10 14
REMARK SMILES IDX 11 15 17 16 12 17 15 18 14 19 13 20 16 21
REMARK H PARENT 3 13
ROOT
ATOM      1  C   UNL     1       2.533  18.394  -0.315  1.00  0.00     0.018 A 
ATOM      2  C   UNL     1       2.360  17.679  -1.462  1.00  0.00     0.033 A 
ATOM      3  C   UNL     1       3.073  16.365   0.897  1.00  0.00     0.065 A 
ATOM      4  N   UNL     1       2.439  15.338  -2.407  1.00  0.00    -0.209 NA
ATOM      5  O   UNL     1       2.990  14.321  -0.564  1.00  0.00    -0.436 OA
ATOM      6  C   UNL     1       2.893  17.749   0.877  1.00  0.00     0.063 A 
ATOM      7  C   UNL     1       2.709  14.173  -1.872  1.00  0.00     0.227 A 
ATOM      8  C   UNL     1       2.538  16.290  -1.455  1.00  0.00     0.110 A 
ATOM      9  C   UNL     1       2.894  15.635  -0.263  1.00  0.00     0.156 A 
ENDROOT
BRANCH   6  10
ATOM     10  C   UNL     1       3.084  18.534   2.110  1.00  0.00     0.335 C 
ATOM     11  O   UNL     1       4.114  19.154   2.282  1.00  0.00    -0.246 OA
BRANCH  10  12
ATOM     12  O   UNL     1       2.116  18.563   3.047  1.00  0.00    -0.478 OA
ATOM     13  H   UNL     1       1.580  19.366   3.100  1.00  0.00     0.297 HD
ENDBRANCH  10  12
ENDBRANCH   6  10
BRANCH   7  14
ATOM     14  C   UNL     1       2.705  12.886  -2.599  1.00  0.00     0.040 A 
ATOM     15  C   UNL     1       2.283  11.720  -1.958  1.00  0.00     0.034 A 
ATOM     16  C   UNL     1       3.124  12.832  -3.930  1.00  0.00     0.034 A 
ATOM     17  C   UNL     1       2.280  10.521  -2.643  1.00  0.00     0.043 A 
ATOM     18  C   UNL     1       3.117  11.627  -4.604  1.00  0.00     0.043 A 
ATOM     19  C   UNL     1       2.697  10.474  -3.963  1.00  0.00     0.041 A 
ATOM     20  Cl  UNL     1       1.755   9.070  -1.849  1.00  0.00    -0.084 Cl
ATOM     21  Cl  UNL     1       3.638  11.558  -6.259  1.00  0.00    -0.084 Cl
ENDBRANCH   7  14
TORSDOF 3
ENDMDL
MODEL 3
REMARK VINA RESULT:    -3.973      5.388      8.182
REMARK INTER + INTRA:          -4.837
REMARK INTER:                  -4.554
REMARK INTRA:                  -0.283
REMARK UNBOUND:                -0.283
REMARK SMILES O=C(O)c1ccc2nc(-c3cc(Cl)cc(Cl)c3)oc2c1
REMARK SMILES IDX 5 1 6 2 20 3 8 4 18 5 4 6 9 7 7 8 19 9 2 10 1 11 3 12 10 14
REMARK SMILES IDX 11 15 17 16 12 17 15 18 14 19 13 20 16 21
REMARK H PARENT 3 13
ROOT
ATOM      1  C   UNL     1       4.287  15.486  -9.432  1.00  0.00     0.018 A 
ATOM      2  C   UNL     1       4.389  15.482  -8.073  1.00  0.00     0.033 A 
ATOM      3  C   UNL     1       3.233  13.302  -9.382  1.00  0.00     0.065 A 
ATOM      4  N   UNL     1       3.879  14.103  -6.018  1.00  0.00    -0.209 NA
ATOM      5  O   UNL     1       2.985  12.407  -7.046  1.00  0.00    -0.436 OA
ATOM      6  C   UNL     1       3.708  14.400 -10.103  1.00  0.00     0.063 A 
ATOM      7  C   UNL     1       3.326  12.928  -5.852  1.00  0.00     0.227 A 
ATOM      8  C   UNL     1       3.917  14.388  -7.338  1.00  0.00     0.110 A 
ATOM      9  C   UNL     1       3.339  13.293  -8.004  1.00  0.00     0.156 A 
ENDROOT
BRANCH   6  10
ATOM     10  C   UNL     1       3.598  14.417 -11.573  1.00  0.00     0.335 C 
ATOM     11  O   UNL     1       2.664  14.983 -12.105  1.00  0.00    -0.246 OA
BRANCH  10  12
ATOM     12  O   UNL     1       4.532  13.804 -12.326  1.00  0.00    -0.478 OA
ATOM     13  H   UNL     1       5.447  13.857 -12.020  1.00  0.00     0.297 HD
ENDBRANCH  10  12
ENDBRANCH   6  10
BRANCH   7  14
ATOM     14  C   UNL     1       3.108  12.271  -4.547  1.00  0.00     0.040 A 
ATOM     15  C   UNL     1       3.237  10.887  -4.428  1.00  0.00     0.034 A 
ATOM     16  C   UNL     1       2.772  13.034  -3.426  1.00  0.00     0.034 A 
ATOM     17  C   UNL     1       3.034  10.279  -3.205  1.00  0.00     0.043 A 
ATOM     18  C   UNL     1       2.571  12.415  -2.209  1.00  0.00     0.043 A 
ATOM     19  C   UNL     1       2.700  11.041  -2.098  1.00  0.00     0.041 A 
ATOM     20  Cl  UNL     1       3.194   8.557  -3.055  1.00  0.00    -0.084 Cl
ATOM     21  Cl  UNL     1       2.152  13.361  -0.814  1.00  0.00    -0.084 Cl
ENDBRANCH   7  14
TORSDOF 3
ENDMDL
MODEL 4
REMARK VINA RESULT:    -3.972      5.387      8.178
REMARK INTER + INTRA:          -4.836
REMARK INTER:                  -4.553
REMARK INTRA:                  -0.284
REMARK UNBOUND:                -0.283
REMARK SMILES O=C(O)c1ccc2nc(-c3cc(Cl)cc(Cl)c3)oc2c1
REMARK SMILES IDX 5 1 6 2 20 3 8 4 18 5 4 6 9 7 7 8 19 9 2 10 1 11 3 12 10 14
REMARK SMILES IDX 11 15 17 16 12 17 15 18 14 19 13 20 16 21
REMARK H PARENT 3 13
ROOT
ATOM      1  C   UNL     1       4.287  15.492  -9.428  1.00  0.00     0.018 A 
ATOM      2  C   UNL     1       4.386  15.490  -8.069  1.00  0.00     0.033 A 
ATOM      3  C   UNL     1       3.238  13.306  -9.379  1.00  0.00     0.065 A 
ATOM      4  N   UNL     1       3.878  14.110  -6.015  1.00  0.00    -0.209 NA
ATOM      5  O   UNL     1       2.990  12.411  -7.043  1.00  0.00    -0.436 OA
ATOM      6  C   UNL     1       3.711  14.404 -10.100  1.00  0.00     0.063 A 
ATOM      7  C   UNL     1       3.327  12.934  -5.849  1.00  0.00     0.227 A 
ATOM      8  C   UNL     1       3.916  14.395  -7.334  1.00  0.00     0.110 A 
ATOM      9  C   UNL     1       3.342  13.298  -8.001  1.00  0.00     0.156 A 
ENDROOT
BRANCH   6  10
ATOM     10  C   UNL     1       3.603  14.421 -11.570  1.00  0.00     0.335 C 
ATOM     11  O   UNL     1       2.686  15.011 -12.105  1.00  0.00    -0.246 OA
BRANCH  10  12
ATOM     12  O   UNL     1       4.521  13.781 -12.321  1.00  0.00    -0.478 OA
ATOM     13  H   UNL     1       5.407  13.688 -11.946  1.00  0.00     0.297 HD
ENDBRANCH  10  12
ENDBRANCH   6  10
BRANCH   7  14
ATOM     14  C   UNL     1       3.109  12.277  -4.543  1.00  0.00     0.040 A 
ATOM     15  C   UNL     1       2.772  13.037  -3.423  1.00  0.00     0.034 A 
ATOM     16  C   UNL     1       3.242  10.891  -4.426  1.00  0.00     0.034 A 
ATOM     17  C   UNL     1       2.569  12.417  -2.206  1.00  0.00     0.043 A 
ATOM     18  C   UNL     1       3.036  10.283  -3.204  1.00  0.00     0.043 A 
ATOM     19  C   UNL     1       2.702  11.043  -2.096  1.00  0.00     0.041 A 
ATOM     20  Cl  UNL     1       2.148  13.361  -0.812  1.00  0.00    -0.084 Cl
ATOM     21  Cl  UNL     1       3.200   8.561  -3.055  1.00  0.00    -0.084 Cl
ENDBRANCH   7  14
TORSDOF 3
ENDMDL
MODEL 5
REMARK VINA RESULT:    -3.915      3.459      5.509
REMARK INTER + INTRA:          -4.771
REMARK INTER:                  -4.475
REMARK INTRA:                  -0.296
REMARK UNBOUND:                -0.283
REMARK SMILES O=C(O)c1ccc2nc(-c3cc(Cl)cc(Cl)c3)oc2c1
REMARK SMILES IDX 5 1 6 2 20 3 8 4 18 5 4 6 9 7 7 8 19 9 2 10 1 11 3 12 10 14
REMARK SMILES IDX 11 15 17 16 12 17 15 18 14 19 13 20 16 21
REMARK H PARENT 3 13
ROOT
ATOM      1  C   UNL     1       2.998  13.880  -3.926  1.00  0.00     0.018 A 
ATOM      2  C   UNL     1       3.223  12.590  -4.305  1.00  0.00     0.033 A 
ATOM      3  C   UNL     1       2.179  13.127  -1.771  1.00  0.00     0.065 A 
ATOM      4  N   UNL     1       3.043  10.197  -3.516  1.00  0.00    -0.209 NA
ATOM      5  O   UNL     1       2.225  10.623  -1.546  1.00  0.00    -0.436 OA
ATOM      6  C   UNL     1       2.476  14.165  -2.656  1.00  0.00     0.063 A 
ATOM      7  C   UNL     1       2.623   9.660  -2.398  1.00  0.00     0.227 A 
ATOM      8  C   UNL     1       2.931  11.540  -3.427  1.00  0.00     0.110 A 
ATOM      9  C   UNL     1       2.402  11.817  -2.154  1.00  0.00     0.156 A 
ENDROOT
BRANCH   6  10
ATOM     10  C   UNL     1       2.241  15.563  -2.254  1.00  0.00     0.335 C 
ATOM     11  O   UNL     1       1.790  15.811  -1.154  1.00  0.00    -0.246 OA
BRANCH  10  12
ATOM     12  O   UNL     1       2.526  16.567  -3.107  1.00  0.00    -0.478 OA
ATOM     13  H   UNL     1       2.702  17.435  -2.721  1.00  0.00     0.297 HD
ENDBRANCH  10  12
ENDBRANCH   6  10
BRANCH   7  14
ATOM     14  C   UNL     1       2.592   8.210  -2.114  1.00  0.00     0.040 A 
ATOM     15  C   UNL     1       1.651   7.690  -1.225  1.00  0.00     0.034 A 
ATOM     16  C   UNL     1       3.505   7.355  -2.735  1.00  0.00     0.034 A 
ATOM     17  C   UNL     1       1.626   6.334  -0.965  1.00  0.00     0.043 A 
ATOM     18  C   UNL     1       3.470   6.001  -2.467  1.00  0.00     0.043 A 
ATOM     19  C   UNL     1       2.534   5.491  -1.584  1.00  0.00     0.041 A 
ATOM     20  Cl  UNL     1       0.456   5.684   0.140  1.00  0.00    -0.084 Cl
ATOM     21  Cl  UNL     1       4.604   4.936  -3.238  1.00  0.00    -0.084 Cl
ENDBRANCH   7  14
TORSDOF 3
ENDMDL
MODEL 6
REMARK VINA RESULT:    -3.915      3.461      5.241
REMARK INTER + INTRA:          -4.771
REMARK INTER:                  -4.475
REMARK INTRA:                  -0.296
REMARK UNBOUND:                -0.283
REMARK SMILES O=C(O)c1ccc2nc(-c3cc(Cl)cc(Cl)c3)oc2c1
REMARK SMILES IDX 5 1 6 2 20 3 8 4 18 5 4 6 9 7 7 8 19 9 2 10 1 11 3 12 10 14
REMARK SMILES IDX 11 15 17 16 12 17 15 18 14 19 13 20 16 21
REMARK H PARENT 3 13
ROOT
ATOM      1  C   UNL     1       2.997  13.877  -3.928  1.00  0.00     0.018 A 
ATOM      2  C   UNL     1       3.223  12.588  -4.307  1.00  0.00     0.033 A 
ATOM      3  C   UNL     1       2.179  13.124  -1.772  1.00  0.00     0.065 A 
ATOM      4  N   UNL     1       3.042  10.194  -3.518  1.00  0.00    -0.209 NA
ATOM      5  O   UNL     1       2.225  10.621  -1.547  1.00  0.00    -0.436 OA
ATOM      6  C   UNL     1       2.476  14.162  -2.658  1.00  0.00     0.063 A 
ATOM      7  C   UNL     1       2.623   9.657  -2.399  1.00  0.00     0.227 A 
ATOM      8  C   UNL     1       2.930  11.537  -3.429  1.00  0.00     0.110 A 
ATOM      9  C   UNL     1       2.402  11.814  -2.156  1.00  0.00     0.156 A 
ENDROOT
BRANCH   6  10
ATOM     10  C   UNL     1       2.241  15.561  -2.256  1.00  0.00     0.335 C 
ATOM     11  O   UNL     1       1.790  15.809  -1.156  1.00  0.00    -0.246 OA
BRANCH  10  12
ATOM     12  O   UNL     1       2.526  16.564  -3.110  1.00  0.00    -0.478 OA
ATOM     13  H   UNL     1       3.239  16.412  -3.745  1.00  0.00     0.297 HD
ENDBRANCH  10  12
ENDBRANCH   6  10
BRANCH   7  14
ATOM     14  C   UNL     1       2.591   8.207  -2.116  1.00  0.00     0.040 A 
ATOM     15  C   UNL     1       3.501   7.351  -2.737  1.00  0.00     0.034 A 
ATOM     16  C   UNL     1       1.649   7.689  -1.225  1.00  0.00     0.034 A 
ATOM     17  C   UNL     1       3.467   5.998  -2.467  1.00  0.00     0.043 A 
ATOM     18  C   UNL     1       1.625   6.333  -0.963  1.00  0.00     0.043 A 
ATOM     19  C   UNL     1       2.531   5.489  -1.583  1.00  0.00     0.041 A 
ATOM     20  Cl  UNL     1       4.599   4.931  -3.238  1.00  0.00    -0.084 Cl
ATOM     21  Cl  UNL     1       0.454   5.686   0.144  1.00  0.00    -0.084 Cl
ENDBRANCH   7  14
TORSDOF 3
ENDMDL
MODEL 7
REMARK VINA RESULT:    -3.878      5.430      6.725
REMARK INTER + INTRA:          -4.728
REMARK INTER:                  -4.444
REMARK INTRA:                  -0.284
REMARK UNBOUND:                -0.283
REMARK SMILES O=C(O)c1ccc2nc(-c3cc(Cl)cc(Cl)c3)oc2c1
REMARK SMILES IDX 5 1 6 2 20 3 8 4 18 5 4 6 9 7 7 8 19 9 2 10 1 11 3 12 10 14
REMARK SMILES IDX 11 15 17 16 12 17 15 18 14 19 13 20 16 21
REMARK H PARENT 3 13
ROOT
ATOM      1  C   UNL     1       3.289  13.820  -4.371  1.00  0.00     0.018 A 
ATOM      2  C   UNL     1       2.827  13.077  -3.325  1.00  0.00     0.033 A 
ATOM      3  C   UNL     1       3.680  11.804  -5.661  1.00  0.00     0.065 A 
ATOM      4  N   UNL     1       2.389  10.704  -2.579  1.00  0.00    -0.209 NA
ATOM      5  O   UNL     1       3.059   9.720  -4.400  1.00  0.00    -0.436 OA
ATOM      6  C   UNL     1       3.718  13.195  -5.550  1.00  0.00     0.063 A 
ATOM      7  C   UNL     1       2.554   9.543  -3.165  1.00  0.00     0.227 A 
ATOM      8  C   UNL     1       2.783  11.681  -3.423  1.00  0.00     0.110 A 
ATOM      9  C   UNL     1       3.217  11.047  -4.601  1.00  0.00     0.156 A 
ENDROOT
BRANCH   6  10
ATOM     10  C   UNL     1       4.210  14.009  -6.676  1.00  0.00     0.335 C 
ATOM     11  O   UNL     1       5.367  14.377  -6.700  1.00  0.00    -0.246 OA
BRANCH  10  12
ATOM     12  O   UNL     1       3.375  14.347  -7.679  1.00  0.00    -0.478 OA
ATOM     13  H   UNL     1       3.586  15.150  -8.175  1.00  0.00     0.297 HD
ENDBRANCH  10  12
ENDBRANCH   6  10
BRANCH   7  14
ATOM     14  C   UNL     1       2.234   8.235  -2.557  1.00  0.00     0.040 A 
ATOM     15  C   UNL     1       2.984   7.106  -2.889  1.00  0.00     0.034 A 
ATOM     16  C   UNL     1       1.179   8.124  -1.649  1.00  0.00     0.034 A 
ATOM     17  C   UNL     1       2.680   5.886  -2.317  1.00  0.00     0.043 A 
ATOM     18  C   UNL     1       0.886   6.899  -1.084  1.00  0.00     0.043 A 
ATOM     19  C   UNL     1       1.633   5.782  -1.417  1.00  0.00     0.041 A 
ATOM     20  Cl  UNL     1       3.612   4.480  -2.728  1.00  0.00    -0.084 Cl
ATOM     21  Cl  UNL     1      -0.425   6.758   0.046  1.00  0.00    -0.084 Cl
ENDBRANCH   7  14
TORSDOF 3
ENDMDL
MODEL 8
REMARK VINA RESULT:    -3.877      5.430      6.869
REMARK INTER + INTRA:          -4.727
REMARK INTER:                  -4.444
REMARK INTRA:                  -0.284
REMARK UNBOUND:                -0.283
REMARK SMILES O=C(O)c1ccc2nc(-c3cc(Cl)cc(Cl)c3)oc2c1
REMARK SMILES IDX 5 1 6 2 20 3 8 4 18 5 4 6 9 7 7 8 19 9 2 10 1 11 3 12 10 14
REMARK SMILES IDX 11 15 17 16 12 17 15 18 14 19 13 20 16 21
REMARK H PARENT 3 13
ROOT
ATOM      1  C   UNL     1       3.289  13.823  -4.372  1.00  0.00     0.018 A 
ATOM      2  C   UNL     1       2.828  13.080  -3.327  1.00  0.00     0.033 A 
ATOM      3  C   UNL     1       3.681  11.807  -5.663  1.00  0.00     0.065 A 
ATOM      4  N   UNL     1       2.390  10.707  -2.581  1.00  0.00    -0.209 NA
ATOM      5  O   UNL     1       3.061   9.723  -4.401  1.00  0.00    -0.436 OA
ATOM      6  C   UNL     1       3.719  13.198  -5.552  1.00  0.00     0.063 A 
ATOM      7  C   UNL     1       2.555   9.547  -3.166  1.00  0.00     0.227 A 
ATOM      8  C   UNL     1       2.784  11.684  -3.425  1.00  0.00     0.110 A 
ATOM      9  C   UNL     1       3.218  11.050  -4.602  1.00  0.00     0.156 A 
ENDROOT
BRANCH   6  10
ATOM     10  C   UNL     1       4.210  14.013  -6.678  1.00  0.00     0.335 C 
ATOM     11  O   UNL     1       5.371  14.371  -6.708  1.00  0.00    -0.246 OA
BRANCH  10  12
ATOM     12  O   UNL     1       3.372  14.361  -7.675  1.00  0.00    -0.478 OA
ATOM     13  H   UNL     1       3.763  14.787  -8.449  1.00  0.00     0.297 HD
ENDBRANCH  10  12
ENDBRANCH   6  10
BRANCH   7  14
ATOM     14  C   UNL     1       2.236   8.238  -2.558  1.00  0.00     0.040 A 
ATOM     15  C   UNL     1       1.183   8.126  -1.649  1.00  0.00     0.034 A 
ATOM     16  C   UNL     1       2.987   7.109  -2.892  1.00  0.00     0.034 A 
ATOM     17  C   UNL     1       0.889   6.900  -1.086  1.00  0.00     0.043 A 
ATOM     18  C   UNL     1       2.683   5.889  -2.322  1.00  0.00     0.043 A 
ATOM     19  C   UNL     1       1.638   5.784  -1.420  1.00  0.00     0.041 A 
ATOM     20  Cl  UNL     1      -0.420   6.757   0.045  1.00  0.00    -0.084 Cl
ATOM     21  Cl  UNL     1       3.616   4.484  -2.735  1.00  0.00    -0.084 Cl
ENDBRANCH   7  14
TORSDOF 3
ENDMDL
MODEL 9
REMARK VINA RESULT:    -3.807      5.104      8.899
REMARK INTER + INTRA:          -4.647
REMARK INTER:                  -4.353
REMARK INTRA:                  -0.294
REMARK UNBOUND:                -0.283
REMARK SMILES O=C(O)c1ccc2nc(-c3cc(Cl)cc(Cl)c3)oc2c1
REMARK SMILES IDX 5 1 6 2 20 3 8 4 18 5 4 6 9 7 7 8 19 9 2 10 1 11 3 12 10 14
REMARK SMILES IDX 11 15 17 16 12 17 15 18 14 19 13 20 16 21
REMARK H PARENT 3 13
ROOT
ATOM      1  C   UNL     1       3.284   5.166  -2.452  1.00  0.00     0.018 A 
ATOM      2  C   UNL     1       3.766   6.225  -3.162  1.00  0.00     0.033 A 
ATOM      3  C   UNL     1       1.825   6.641  -1.196  1.00  0.00     0.065 A 
ATOM      4  N   UNL     1       3.567   8.729  -3.428  1.00  0.00    -0.209 NA
ATOM      5  O   UNL     1       2.059   9.046  -1.892  1.00  0.00    -0.436 OA
ATOM      6  C   UNL     1       2.309   5.359  -1.463  1.00  0.00     0.063 A 
ATOM      7  C   UNL     1       2.834   9.632  -2.825  1.00  0.00     0.227 A 
ATOM      8  C   UNL     1       3.289   7.516  -2.904  1.00  0.00     0.110 A 
ATOM      9  C   UNL     1       2.315   7.719  -1.911  1.00  0.00     0.156 A 
ENDROOT
BRANCH   6  10
ATOM     10  C   UNL     1       1.791   4.206  -0.706  1.00  0.00     0.335 C 
ATOM     11  O   UNL     1       1.384   4.358   0.429  1.00  0.00    -0.246 OA
BRANCH  10  12
ATOM     12  O   UNL     1       1.770   2.982  -1.271  1.00  0.00    -0.478 OA
ATOM     13  H   UNL     1       0.906   2.563  -1.379  1.00  0.00     0.297 HD
ENDBRANCH  10  12
ENDBRANCH   6  10
BRANCH   7  14
ATOM     14  C   UNL     1       2.856  11.079  -3.123  1.00  0.00     0.040 A 
ATOM     15  C   UNL     1       3.309  11.532  -4.362  1.00  0.00     0.034 A 
ATOM     16  C   UNL     1       2.424  11.998  -2.164  1.00  0.00     0.034 A 
ATOM     17  C   UNL     1       3.326  12.886  -4.635  1.00  0.00     0.043 A 
ATOM     18  C   UNL     1       2.446  13.348  -2.449  1.00  0.00     0.043 A 
ATOM     19  C   UNL     1       2.896  13.792  -3.680  1.00  0.00     0.041 A 
ATOM     20  Cl  UNL     1       3.888  13.453  -6.176  1.00  0.00    -0.084 Cl
ATOM     21  Cl  UNL     1       1.909  14.493  -1.259  1.00  0.00    -0.084 Cl
ENDBRANCH   7  14
TORSDOF 3
ENDMDL
