MODEL 1
REMARK VINA RESULT:    -5.671      0.000      0.000
REMARK INTER + INTRA:          -8.369
REMARK INTER:                  -7.826
REMARK INTRA:                  -0.544
REMARK UNBOUND:                -0.544
REMARK SMILES Cc1n[nH]c(C)c1CCCOc1cc(C(=O)O)ccc1F
REMARK SMILES IDX 11 1 12 2 14 3 18 4 13 5 19 6 20 7 21 8 15 9 16 10 17 11
REMARK SMILES IDX 10 13 9 14 8 15 7 16 5 17 2 18 4 19 3 20 6 21 1 22
REMARK H PARENT 17 12 4 23
ROOT
ATOM      1  O   UNL     1      -2.319   8.150  -1.380  1.00  0.00    -0.490 OA
ENDROOT
BRANCH   1   2
ATOM      2  C   UNL     1      -1.317   7.298  -1.724  1.00  0.00     0.155 A 
ATOM      3  C   UNL     1      -0.352   5.724  -3.265  1.00  0.00     0.063 A 
ATOM      4  C   UNL     1       0.745   5.569  -2.414  1.00  0.00     0.019 A 
ATOM      5  C   UNL     1      -1.386   6.594  -2.912  1.00  0.00     0.065 A 
ATOM      6  C   UNL     1       0.808   6.280  -1.233  1.00  0.00     0.044 A 
ATOM      7  C   UNL     1      -0.216   7.146  -0.888  1.00  0.00     0.165 A 
ATOM      8  F   UNL     1      -0.149   7.839   0.270  1.00  0.00    -0.203 F 
BRANCH   3   9
ATOM      9  C   UNL     1      -0.422   4.966  -4.529  1.00  0.00     0.335 C 
ATOM     10  O   UNL     1      -1.491   4.797  -5.079  1.00  0.00    -0.246 OA
BRANCH   9  11
ATOM     11  O   UNL     1       0.703   4.465  -5.077  1.00  0.00    -0.478 OA
ATOM     12  H   UNL     1       0.911   3.539  -4.886  1.00  0.00     0.297 HD
ENDBRANCH   9  11
ENDBRANCH   3   9
ENDBRANCH   1   2
BRANCH   1  13
ATOM     13  C   UNL     1      -2.002   9.543  -1.343  1.00  0.00     0.230 C 
BRANCH  13  14
ATOM     14  C   UNL     1      -2.841  10.284  -2.385  1.00  0.00     0.046 C 
BRANCH  14  15
ATOM     15  C   UNL     1      -2.019  10.474  -3.661  1.00  0.00     0.043 C 
BRANCH  15  16
ATOM     16  C   UNL     1      -2.549  11.656  -4.431  1.00  0.00    -0.004 A 
ATOM     17  C   UNL     1      -3.554  11.631  -5.337  1.00  0.00     0.036 A 
ATOM     18  C   UNL     1      -2.093  12.975  -4.330  1.00  0.00     0.063 A 
ATOM     19  N   UNL     1      -3.724  12.888  -5.798  1.00  0.00    -0.282 N 
ATOM     20  N   UNL     1      -2.792  13.712  -5.154  1.00  0.00    -0.181 NA
ATOM     21  C   UNL     1      -4.342  10.417  -5.755  1.00  0.00     0.066 C 
ATOM     22  C   UNL     1      -0.981  13.460  -3.436  1.00  0.00     0.069 C 
ATOM     23  H   UNL     1      -4.375  13.170  -6.459  1.00  0.00     0.190 HD
ENDBRANCH  15  16
ENDBRANCH  14  15
ENDBRANCH  13  14
ENDBRANCH   1  13
TORSDOF 7
ENDMDL
MODEL 2
REMARK VINA RESULT:    -5.633      0.293      1.786
REMARK INTER + INTRA:          -8.318
REMARK INTER:                  -7.730
REMARK INTRA:                  -0.587
REMARK UNBOUND:                -0.544
REMARK SMILES Cc1n[nH]c(C)c1CCCOc1cc(C(=O)O)ccc1F
REMARK SMILES IDX 11 1 12 2 14 3 18 4 13 5 19 6 20 7 21 8 15 9 16 10 17 11
REMARK SMILES IDX 10 13 9 14 8 15 7 16 5 17 2 18 4 19 3 20 6 21 1 22
REMARK H PARENT 17 12 4 23
ROOT
ATOM      1  O   UNL     1      -2.242   8.226  -1.422  1.00  0.00    -0.490 OA
ENDROOT
BRANCH   1   2
ATOM      2  C   UNL     1      -1.266   7.337  -1.751  1.00  0.00     0.155 A 
ATOM      3  C   UNL     1      -0.338   5.723  -3.272  1.00  0.00     0.063 A 
ATOM      4  C   UNL     1       0.743   5.535  -2.408  1.00  0.00     0.019 A 
ATOM      5  C   UNL     1      -1.345   6.631  -2.936  1.00  0.00     0.065 A 
ATOM      6  C   UNL     1       0.816   6.249  -1.230  1.00  0.00     0.044 A 
ATOM      7  C   UNL     1      -0.181   7.152  -0.901  1.00  0.00     0.165 A 
ATOM      8  F   UNL     1      -0.103   7.849   0.254  1.00  0.00    -0.203 F 
BRANCH   3   9
ATOM      9  C   UNL     1      -0.419   4.961  -4.533  1.00  0.00     0.335 C 
ATOM     10  O   UNL     1      -1.492   4.803  -5.080  1.00  0.00    -0.246 OA
BRANCH   9  11
ATOM     11  O   UNL     1       0.698   4.445  -5.082  1.00  0.00    -0.478 OA
ATOM     12  H   UNL     1       1.302   3.976  -4.489  1.00  0.00     0.297 HD
ENDBRANCH   9  11
ENDBRANCH   3   9
ENDBRANCH   1   2
BRANCH   1  13
ATOM     13  C   UNL     1      -1.932   9.614  -1.572  1.00  0.00     0.230 C 
BRANCH  13  14
ATOM     14  C   UNL     1      -2.768  10.201  -2.711  1.00  0.00     0.046 C 
BRANCH  14  15
ATOM     15  C   UNL     1      -1.842  10.646  -3.845  1.00  0.00     0.043 C 
BRANCH  15  16
ATOM     16  C   UNL     1      -2.343  11.944  -4.424  1.00  0.00    -0.004 A 
ATOM     17  C   UNL     1      -1.829  13.173  -4.185  1.00  0.00     0.036 A 
ATOM     18  C   UNL     1      -3.418  12.091  -5.307  1.00  0.00     0.063 A 
ATOM     19  N   UNL     1      -2.557  14.067  -4.888  1.00  0.00    -0.282 N 
ATOM     20  N   UNL     1      -3.551  13.364  -5.580  1.00  0.00    -0.181 NA
ATOM     21  C   UNL     1      -0.655  13.487  -3.295  1.00  0.00     0.066 C 
ATOM     22  C   UNL     1      -4.281  10.977  -5.842  1.00  0.00     0.069 C 
ATOM     23  H   UNL     1      -2.417  15.026  -4.908  1.00  0.00     0.190 HD
ENDBRANCH  15  16
ENDBRANCH  14  15
ENDBRANCH  13  14
ENDBRANCH   1  13
TORSDOF 7
ENDMDL
MODEL 3
REMARK VINA RESULT:    -5.626      2.156      3.755
REMARK INTER + INTRA:          -8.308
REMARK INTER:                  -7.647
REMARK INTRA:                  -0.661
REMARK UNBOUND:                -0.544
REMARK SMILES Cc1n[nH]c(C)c1CCCOc1cc(C(=O)O)ccc1F
REMARK SMILES IDX 11 1 12 2 14 3 18 4 13 5 19 6 20 7 21 8 15 9 16 10 17 11
REMARK SMILES IDX 10 13 9 14 8 15 7 16 5 17 2 18 4 19 3 20 6 21 1 22
REMARK H PARENT 17 12 4 23
ROOT
ATOM      1  O   UNL     1      -1.112   7.739  -4.563  1.00  0.00    -0.490 OA
ENDROOT
BRANCH   1   2
ATOM      2  C   UNL     1      -0.530   7.012  -3.573  1.00  0.00     0.155 A 
ATOM      3  C   UNL     1       0.347   6.854  -1.340  1.00  0.00     0.063 A 
ATOM      4  C   UNL     1       0.651   5.507  -1.559  1.00  0.00     0.019 A 
ATOM      5  C   UNL     1      -0.246   7.605  -2.356  1.00  0.00     0.065 A 
ATOM      6  C   UNL     1       0.359   4.924  -2.774  1.00  0.00     0.044 A 
ATOM      7  C   UNL     1      -0.234   5.669  -3.779  1.00  0.00     0.165 A 
ATOM      8  F   UNL     1      -0.518   5.092  -4.967  1.00  0.00    -0.203 F 
BRANCH   3   9
ATOM      9  C   UNL     1       0.658   7.481  -0.040  1.00  0.00     0.335 C 
ATOM     10  O   UNL     1       1.347   8.480   0.003  1.00  0.00    -0.246 OA
BRANCH   9  11
ATOM     11  O   UNL     1       0.171   6.949   1.098  1.00  0.00    -0.478 OA
ATOM     12  H   UNL     1      -0.519   7.448   1.556  1.00  0.00     0.297 HD
ENDBRANCH   9  11
ENDBRANCH   3   9
ENDBRANCH   1   2
BRANCH   1  13
ATOM     13  C   UNL     1      -0.266   8.623  -5.303  1.00  0.00     0.230 C 
BRANCH  13  14
ATOM     14  C   UNL     1      -1.065   9.855  -5.729  1.00  0.00     0.046 C 
BRANCH  14  15
ATOM     15  C   UNL     1      -2.045  10.238  -4.618  1.00  0.00     0.043 C 
BRANCH  15  16
ATOM     16  C   UNL     1      -2.687  11.561  -4.946  1.00  0.00    -0.004 A 
ATOM     17  C   UNL     1      -2.237  12.780  -4.567  1.00  0.00     0.036 A 
ATOM     18  C   UNL     1      -3.849  11.747  -5.701  1.00  0.00     0.063 A 
ATOM     19  N   UNL     1      -3.088  13.704  -5.059  1.00  0.00    -0.282 N 
ATOM     20  N   UNL     1      -4.095  13.031  -5.764  1.00  0.00    -0.181 NA
ATOM     21  C   UNL     1      -1.006  13.055  -3.743  1.00  0.00     0.066 C 
ATOM     22  C   UNL     1      -4.683  10.657  -6.325  1.00  0.00     0.069 C 
ATOM     23  H   UNL     1      -3.016  14.664  -4.944  1.00  0.00     0.190 HD
ENDBRANCH  15  16
ENDBRANCH  14  15
ENDBRANCH  13  14
ENDBRANCH   1  13
TORSDOF 7
ENDMDL
MODEL 4
REMARK VINA RESULT:    -5.578      2.183      3.332
REMARK INTER + INTRA:          -8.241
REMARK INTER:                  -7.575
REMARK INTRA:                  -0.666
REMARK UNBOUND:                -0.544
REMARK SMILES Cc1n[nH]c(C)c1CCCOc1cc(C(=O)O)ccc1F
REMARK SMILES IDX 11 1 12 2 14 3 18 4 13 5 19 6 20 7 21 8 15 9 16 10 17 11
REMARK SMILES IDX 10 13 9 14 8 15 7 16 5 17 2 18 4 19 3 20 6 21 1 22
REMARK H PARENT 17 12 4 23
ROOT
ATOM      1  O   UNL     1      -1.108   7.776  -4.562  1.00  0.00    -0.490 OA
ENDROOT
BRANCH   1   2
ATOM      2  C   UNL     1      -0.528   7.039  -3.578  1.00  0.00     0.155 A 
ATOM      3  C   UNL     1       0.351   6.858  -1.347  1.00  0.00     0.063 A 
ATOM      4  C   UNL     1       0.647   5.512  -1.577  1.00  0.00     0.019 A 
ATOM      5  C   UNL     1      -0.240   7.620  -2.358  1.00  0.00     0.065 A 
ATOM      6  C   UNL     1       0.351   4.939  -2.796  1.00  0.00     0.044 A 
ATOM      7  C   UNL     1      -0.240   5.695  -3.795  1.00  0.00     0.165 A 
ATOM      8  F   UNL     1      -0.528   5.128  -4.987  1.00  0.00    -0.203 F 
BRANCH   3   9
ATOM      9  C   UNL     1       0.667   7.474  -0.044  1.00  0.00     0.335 C 
ATOM     10  O   UNL     1       1.349   8.477   0.005  1.00  0.00    -0.246 OA
BRANCH   9  11
ATOM     11  O   UNL     1       0.192   6.927   1.092  1.00  0.00    -0.478 OA
ATOM     12  H   UNL     1      -0.489   7.423   1.568  1.00  0.00     0.297 HD
ENDBRANCH   9  11
ENDBRANCH   3   9
ENDBRANCH   1   2
BRANCH   1  13
ATOM     13  C   UNL     1      -0.252   8.637  -5.317  1.00  0.00     0.230 C 
BRANCH  13  14
ATOM     14  C   UNL     1      -1.034   9.877  -5.753  1.00  0.00     0.046 C 
BRANCH  14  15
ATOM     15  C   UNL     1      -2.089  10.213  -4.696  1.00  0.00     0.043 C 
BRANCH  15  16
ATOM     16  C   UNL     1      -2.840  11.451  -5.111  1.00  0.00    -0.004 A 
ATOM     17  C   UNL     1      -3.977  11.484  -5.845  1.00  0.00     0.036 A 
ATOM     18  C   UNL     1      -2.491  12.769  -4.801  1.00  0.00     0.063 A 
ATOM     19  N   UNL     1      -4.330  12.778  -5.999  1.00  0.00    -0.282 N 
ATOM     20  N   UNL     1      -3.379  13.566  -5.338  1.00  0.00    -0.181 NA
ATOM     21  C   UNL     1      -4.716  10.291  -6.391  1.00  0.00     0.066 C 
ATOM     22  C   UNL     1      -1.290  13.199  -3.996  1.00  0.00     0.069 C 
ATOM     23  H   UNL     1      -5.105  13.104  -6.482  1.00  0.00     0.190 HD
ENDBRANCH  15  16
ENDBRANCH  14  15
ENDBRANCH  13  14
ENDBRANCH   1  13
TORSDOF 7
ENDMDL
MODEL 5
REMARK VINA RESULT:    -4.579      3.796      6.537
REMARK INTER + INTRA:          -6.863
REMARK INTER:                  -6.010
REMARK INTRA:                  -0.852
REMARK UNBOUND:                -0.544
REMARK SMILES Cc1n[nH]c(C)c1CCCOc1cc(C(=O)O)ccc1F
REMARK SMILES IDX 11 1 12 2 14 3 18 4 13 5 19 6 20 7 21 8 15 9 16 10 17 11
REMARK SMILES IDX 10 13 9 14 8 15 7 16 5 17 2 18 4 19 3 20 6 21 1 22
REMARK H PARENT 17 12 4 23
ROOT
ATOM      1  O   UNL     1      -0.875  10.004  -3.021  1.00  0.00    -0.490 OA
ENDROOT
BRANCH   1   2
ATOM      2  C   UNL     1      -1.669  10.809  -3.776  1.00  0.00     0.155 A 
ATOM      3  C   UNL     1      -3.547  11.100  -5.249  1.00  0.00     0.063 A 
ATOM      4  C   UNL     1      -3.286  12.472  -5.304  1.00  0.00     0.019 A 
ATOM      5  C   UNL     1      -2.730  10.270  -4.479  1.00  0.00     0.065 A 
ATOM      6  C   UNL     1      -2.229  13.001  -4.594  1.00  0.00     0.044 A 
ATOM      7  C   UNL     1      -1.423  12.176  -3.827  1.00  0.00     0.165 A 
ATOM      8  F   UNL     1      -0.389  12.701  -3.134  1.00  0.00    -0.203 F 
BRANCH   3   9
ATOM      9  C   UNL     1      -4.678  10.530  -6.007  1.00  0.00     0.335 C 
ATOM     10  O   UNL     1      -4.518  10.162  -7.152  1.00  0.00    -0.246 OA
BRANCH   9  11
ATOM     11  O   UNL     1      -5.887  10.413  -5.424  1.00  0.00    -0.478 OA
ATOM     12  H   UNL     1      -6.185   9.519  -5.206  1.00  0.00     0.297 HD
ENDBRANCH   9  11
ENDBRANCH   3   9
ENDBRANCH   1   2
BRANCH   1  13
ATOM     13  C   UNL     1      -1.526   9.006  -2.230  1.00  0.00     0.230 C 
BRANCH  13  14
ATOM     14  C   UNL     1      -0.476   8.091  -1.598  1.00  0.00     0.046 C 
BRANCH  14  15
ATOM     15  C   UNL     1       0.684   7.893  -2.576  1.00  0.00     0.043 C 
BRANCH  15  16
ATOM     16  C   UNL     1       0.399   6.707  -3.460  1.00  0.00    -0.004 A 
ATOM     17  C   UNL     1       0.162   6.745  -4.792  1.00  0.00     0.036 A 
ATOM     18  C   UNL     1       0.339   5.371  -3.051  1.00  0.00     0.063 A 
ATOM     19  N   UNL     1      -0.047   5.479  -5.210  1.00  0.00    -0.282 N 
ATOM     20  N   UNL     1       0.066   4.635  -4.097  1.00  0.00    -0.181 NA
ATOM     21  C   UNL     1       0.137   7.980  -5.654  1.00  0.00     0.066 C 
ATOM     22  C   UNL     1       0.543   4.867  -1.645  1.00  0.00     0.069 C 
ATOM     23  H   UNL     1      -0.241   5.202  -6.118  1.00  0.00     0.190 HD
ENDBRANCH  15  16
ENDBRANCH  14  15
ENDBRANCH  13  14
ENDBRANCH   1  13
TORSDOF 7
ENDMDL
MODEL 6
REMARK VINA RESULT:    -4.574      3.943      7.027
REMARK INTER + INTRA:          -6.856
REMARK INTER:                  -6.027
REMARK INTRA:                  -0.829
REMARK UNBOUND:                -0.544
REMARK SMILES Cc1n[nH]c(C)c1CCCOc1cc(C(=O)O)ccc1F
REMARK SMILES IDX 11 1 12 2 14 3 18 4 13 5 19 6 20 7 21 8 15 9 16 10 17 11
REMARK SMILES IDX 10 13 9 14 8 15 7 16 5 17 2 18 4 19 3 20 6 21 1 22
REMARK H PARENT 17 12 4 23
ROOT
ATOM      1  O   UNL     1      -2.046   8.805  -4.376  1.00  0.00    -0.490 OA
ENDROOT
BRANCH   1   2
ATOM      2  C   UNL     1      -2.358  10.112  -4.589  1.00  0.00     0.155 A 
ATOM      3  C   UNL     1      -1.854  12.448  -4.327  1.00  0.00     0.063 A 
ATOM      4  C   UNL     1      -3.008  12.774  -5.045  1.00  0.00     0.019 A 
ATOM      5  C   UNL     1      -1.533  11.108  -4.102  1.00  0.00     0.065 A 
ATOM      6  C   UNL     1      -3.821  11.773  -5.533  1.00  0.00     0.044 A 
ATOM      7  C   UNL     1      -3.499  10.444  -5.312  1.00  0.00     0.165 A 
ATOM      8  F   UNL     1      -4.300   9.468  -5.793  1.00  0.00    -0.203 F 
BRANCH   3   9
ATOM      9  C   UNL     1      -0.981  13.517  -3.804  1.00  0.00     0.335 C 
ATOM     10  O   UNL     1      -1.317  14.152  -2.825  1.00  0.00    -0.246 OA
BRANCH   9  11
ATOM     11  O   UNL     1       0.193  13.783  -4.409  1.00  0.00    -0.478 OA
ATOM     12  H   UNL     1       0.462  14.711  -4.457  1.00  0.00     0.297 HD
ENDBRANCH   9  11
ENDBRANCH   3   9
ENDBRANCH   1   2
BRANCH   1  13
ATOM     13  C   UNL     1      -0.679   8.427  -4.556  1.00  0.00     0.230 C 
BRANCH  13  14
ATOM     14  C   UNL     1      -0.504   6.955  -4.179  1.00  0.00     0.046 C 
BRANCH  14  15
ATOM     15  C   UNL     1      -1.426   6.616  -3.005  1.00  0.00     0.043 C 
BRANCH  15  16
ATOM     16  C   UNL     1      -0.710   6.890  -1.708  1.00  0.00    -0.004 A 
ATOM     17  C   UNL     1       0.353   6.205  -1.225  1.00  0.00     0.036 A 
ATOM     18  C   UNL     1      -1.023   7.900  -0.792  1.00  0.00     0.063 A 
ATOM     19  N   UNL     1       0.696   6.758  -0.043  1.00  0.00    -0.282 N 
ATOM     20  N   UNL     1      -0.185   7.818   0.209  1.00  0.00    -0.181 NA
ATOM     21  C   UNL     1       1.031   5.035  -1.889  1.00  0.00     0.066 C 
ATOM     22  C   UNL     1      -2.140   8.903  -0.930  1.00  0.00     0.069 C 
ATOM     23  H   UNL     1       1.424   6.472   0.531  1.00  0.00     0.190 HD
ENDBRANCH  15  16
ENDBRANCH  14  15
ENDBRANCH  13  14
ENDBRANCH   1  13
TORSDOF 7
ENDMDL
MODEL 7
REMARK VINA RESULT:    -4.545      4.727      8.190
REMARK INTER + INTRA:          -6.815
REMARK INTER:                  -6.144
REMARK INTRA:                  -0.671
REMARK UNBOUND:                -0.544
REMARK SMILES Cc1n[nH]c(C)c1CCCOc1cc(C(=O)O)ccc1F
REMARK SMILES IDX 11 1 12 2 14 3 18 4 13 5 19 6 20 7 21 8 15 9 16 10 17 11
REMARK SMILES IDX 10 13 9 14 8 15 7 16 5 17 2 18 4 19 3 20 6 21 1 22
REMARK H PARENT 17 12 4 23
ROOT
ATOM      1  O   UNL     1      -1.578  12.638  -3.651  1.00  0.00    -0.490 OA
ENDROOT
BRANCH   1   2
ATOM      2  C   UNL     1      -1.414  13.948  -3.978  1.00  0.00     0.155 A 
ATOM      3  C   UNL     1      -2.341  16.125  -4.404  1.00  0.00     0.063 A 
ATOM      4  C   UNL     1      -1.056  16.623  -4.636  1.00  0.00     0.019 A 
ATOM      5  C   UNL     1      -2.514  14.779  -4.074  1.00  0.00     0.065 A 
ATOM      6  C   UNL     1       0.036  15.787  -4.531  1.00  0.00     0.044 A 
ATOM      7  C   UNL     1      -0.138  14.453  -4.199  1.00  0.00     0.165 A 
ATOM      8  F   UNL     1       0.936  13.640  -4.098  1.00  0.00    -0.203 F 
BRANCH   3   9
ATOM      9  C   UNL     1      -3.512  17.017  -4.515  1.00  0.00     0.335 C 
ATOM     10  O   UNL     1      -3.365  18.221  -4.465  1.00  0.00    -0.246 OA
BRANCH   9  11
ATOM     11  O   UNL     1      -4.743  16.494  -4.678  1.00  0.00    -0.478 OA
ATOM     12  H   UNL     1      -5.208  16.713  -5.497  1.00  0.00     0.297 HD
ENDBRANCH   9  11
ENDBRANCH   3   9
ENDBRANCH   1   2
BRANCH   1  13
ATOM     13  C   UNL     1      -2.132  11.784  -4.655  1.00  0.00     0.230 C 
BRANCH  13  14
ATOM     14  C   UNL     1      -2.263  10.364  -4.100  1.00  0.00     0.046 C 
BRANCH  14  15
ATOM     15  C   UNL     1      -0.957   9.963  -3.412  1.00  0.00     0.043 C 
BRANCH  15  16
ATOM     16  C   UNL     1      -0.937   8.471  -3.203  1.00  0.00    -0.004 A 
ATOM     17  C   UNL     1      -1.467   7.807  -2.149  1.00  0.00     0.036 A 
ATOM     18  C   UNL     1      -0.372   7.526  -4.066  1.00  0.00     0.063 A 
ATOM     19  N   UNL     1      -1.240   6.490  -2.336  1.00  0.00    -0.282 N 
ATOM     20  N   UNL     1      -0.547   6.340  -3.545  1.00  0.00    -0.181 NA
ATOM     21  C   UNL     1      -2.183   8.427  -0.978  1.00  0.00     0.066 C 
ATOM     22  C   UNL     1       0.328   7.826  -5.367  1.00  0.00     0.069 C 
ATOM     23  H   UNL     1      -1.508   5.774  -1.740  1.00  0.00     0.190 HD
ENDBRANCH  15  16
ENDBRANCH  14  15
ENDBRANCH  13  14
ENDBRANCH   1  13
TORSDOF 7
ENDMDL
MODEL 8
REMARK VINA RESULT:    -4.533      4.956      7.888
REMARK INTER + INTRA:          -6.799
REMARK INTER:                  -6.101
REMARK INTRA:                  -0.698
REMARK UNBOUND:                -0.544
REMARK SMILES Cc1n[nH]c(C)c1CCCOc1cc(C(=O)O)ccc1F
REMARK SMILES IDX 11 1 12 2 14 3 18 4 13 5 19 6 20 7 21 8 15 9 16 10 17 11
REMARK SMILES IDX 10 13 9 14 8 15 7 16 5 17 2 18 4 19 3 20 6 21 1 22
REMARK H PARENT 17 12 4 23
ROOT
ATOM      1  O   UNL     1      -3.578  10.653  -5.770  1.00  0.00    -0.490 OA
ENDROOT
BRANCH   1   2
ATOM      2  C   UNL     1      -4.727  11.180  -6.272  1.00  0.00     0.155 A 
ATOM      3  C   UNL     1      -5.866  12.869  -7.549  1.00  0.00     0.063 A 
ATOM      4  C   UNL     1      -7.084  12.233  -7.296  1.00  0.00     0.019 A 
ATOM      5  C   UNL     1      -4.684  12.334  -7.031  1.00  0.00     0.065 A 
ATOM      6  C   UNL     1      -7.116  11.079  -6.542  1.00  0.00     0.044 A 
ATOM      7  C   UNL     1      -5.942  10.547  -6.034  1.00  0.00     0.165 A 
ATOM      8  F   UNL     1      -5.980   9.416  -5.296  1.00  0.00    -0.203 F 
BRANCH   3   9
ATOM      9  C   UNL     1      -5.828  14.104  -8.356  1.00  0.00     0.335 C 
ATOM     10  O   UNL     1      -6.821  14.472  -8.950  1.00  0.00    -0.246 OA
BRANCH   9  11
ATOM     11  O   UNL     1      -4.693  14.827  -8.427  1.00  0.00    -0.478 OA
ATOM     12  H   UNL     1      -3.877  14.392  -8.146  1.00  0.00     0.297 HD
ENDBRANCH   9  11
ENDBRANCH   3   9
ENDBRANCH   1   2
BRANCH   1  13
ATOM     13  C   UNL     1      -2.917  11.398  -4.744  1.00  0.00     0.230 C 
BRANCH  13  14
ATOM     14  C   UNL     1      -1.719  10.600  -4.227  1.00  0.00     0.046 C 
BRANCH  14  15
ATOM     15  C   UNL     1      -2.094   9.120  -4.133  1.00  0.00     0.043 C 
BRANCH  15  16
ATOM     16  C   UNL     1      -1.024   8.377  -3.375  1.00  0.00    -0.004 A 
ATOM     17  C   UNL     1       0.100   7.840  -3.905  1.00  0.00     0.036 A 
ATOM     18  C   UNL     1      -1.012   8.126  -1.999  1.00  0.00     0.063 A 
ATOM     19  N   UNL     1       0.794   7.264  -2.901  1.00  0.00    -0.282 N 
ATOM     20  N   UNL     1       0.073   7.453  -1.715  1.00  0.00    -0.181 NA
ATOM     21  C   UNL     1       0.504   7.879  -5.356  1.00  0.00     0.066 C 
ATOM     22  C   UNL     1      -2.074   8.547  -1.015  1.00  0.00     0.069 C 
ATOM     23  H   UNL     1       1.641   6.800  -2.986  1.00  0.00     0.190 HD
ENDBRANCH  15  16
ENDBRANCH  14  15
ENDBRANCH  13  14
ENDBRANCH   1  13
TORSDOF 7
ENDMDL
MODEL 9
REMARK VINA RESULT:    -4.528      4.995      7.967
REMARK INTER + INTRA:          -6.792
REMARK INTER:                  -6.135
REMARK INTRA:                  -0.657
REMARK UNBOUND:                -0.544
REMARK SMILES Cc1n[nH]c(C)c1CCCOc1cc(C(=O)O)ccc1F
REMARK SMILES IDX 11 1 12 2 14 3 18 4 13 5 19 6 20 7 21 8 15 9 16 10 17 11
REMARK SMILES IDX 10 13 9 14 8 15 7 16 5 17 2 18 4 19 3 20 6 21 1 22
REMARK H PARENT 17 12 4 23
ROOT
ATOM      1  O   UNL     1      -3.697  10.596  -5.820  1.00  0.00    -0.490 OA
ENDROOT
BRANCH   1   2
ATOM      2  C   UNL     1      -4.816  11.181  -6.324  1.00  0.00     0.155 A 
ATOM      3  C   UNL     1      -5.863  12.920  -7.612  1.00  0.00     0.063 A 
ATOM      4  C   UNL     1      -7.115  12.355  -7.352  1.00  0.00     0.019 A 
ATOM      5  C   UNL     1      -4.712  12.325  -7.092  1.00  0.00     0.065 A 
ATOM      6  C   UNL     1      -7.208  11.210  -6.589  1.00  0.00     0.044 A 
ATOM      7  C   UNL     1      -6.064  10.619  -6.078  1.00  0.00     0.165 A 
ATOM      8  F   UNL     1      -6.163   9.497  -5.332  1.00  0.00    -0.203 F 
BRANCH   3   9
ATOM      9  C   UNL     1      -5.760  14.146  -8.428  1.00  0.00     0.335 C 
ATOM     10  O   UNL     1      -6.667  14.460  -9.171  1.00  0.00    -0.246 OA
BRANCH   9  11
ATOM     11  O   UNL     1      -4.659  14.919  -8.345  1.00  0.00    -0.478 OA
ATOM     12  H   UNL     1      -3.935  14.595  -7.791  1.00  0.00     0.297 HD
ENDBRANCH   9  11
ENDBRANCH   3   9
ENDBRANCH   1   2
BRANCH   1  13
ATOM     13  C   UNL     1      -3.103  11.212  -4.675  1.00  0.00     0.230 C 
BRANCH  13  14
ATOM     14  C   UNL     1      -1.816  10.470  -4.308  1.00  0.00     0.046 C 
BRANCH  14  15
ATOM     15  C   UNL     1      -2.128   8.989  -4.081  1.00  0.00     0.043 C 
BRANCH  15  16
ATOM     16  C   UNL     1      -0.998   8.348  -3.319  1.00  0.00    -0.004 A 
ATOM     17  C   UNL     1      -0.946   8.160  -1.979  1.00  0.00     0.036 A 
ATOM     18  C   UNL     1       0.181   7.835  -3.871  1.00  0.00     0.063 A 
ATOM     19  N   UNL     1       0.227   7.557  -1.693  1.00  0.00    -0.282 N 
ATOM     20  N   UNL     1       0.919   7.367  -2.897  1.00  0.00    -0.181 NA
ATOM     21  C   UNL     1      -2.007   8.554  -0.986  1.00  0.00     0.066 C 
ATOM     22  C   UNL     1       0.544   7.834  -5.334  1.00  0.00     0.069 C 
ATOM     23  H   UNL     1       0.537   7.300  -0.811  1.00  0.00     0.190 HD
ENDBRANCH  15  16
ENDBRANCH  14  15
ENDBRANCH  13  14
ENDBRANCH   1  13
TORSDOF 7
ENDMDL
