MODEL 1
REMARK VINA RESULT:    -5.782      0.000      0.000
REMARK INTER + INTRA:          -8.625
REMARK INTER:                  -7.979
REMARK INTRA:                  -0.646
REMARK UNBOUND:                -0.646
REMARK SMILES Cc1n[nH]c(C)c1CCCOc1cc(C(=O)O)ccc1F
REMARK SMILES IDX 11 1 12 2 14 3 18 4 13 5 19 6 20 7 21 8 15 9 16 10 17 11
REMARK SMILES IDX 10 13 9 14 8 15 7 16 5 17 2 18 4 19 3 20 6 21 1 22
REMARK H PARENT 17 12 4 23
ROOT
ATOM      1  O   UNL     1      -7.415   4.581  -0.814  1.00  0.00    -0.490 OA
ENDROOT
BRANCH   1   2
ATOM      2  C   UNL     1      -6.191   4.005  -0.670  1.00  0.00     0.155 A 
ATOM      3  C   UNL     1      -4.037   3.917   0.394  1.00  0.00     0.063 A 
ATOM      4  C   UNL     1      -3.701   2.808  -0.386  1.00  0.00     0.019 A 
ATOM      5  C   UNL     1      -5.291   4.515   0.246  1.00  0.00     0.065 A 
ATOM      6  C   UNL     1      -4.608   2.303  -1.294  1.00  0.00     0.044 A 
ATOM      7  C   UNL     1      -5.853   2.894  -1.435  1.00  0.00     0.165 A 
ATOM      8  F   UNL     1      -6.737   2.395  -2.326  1.00  0.00    -0.203 F 
BRANCH   3   9
ATOM      9  C   UNL     1      -3.068   4.460   1.367  1.00  0.00     0.335 C 
ATOM     10  O   UNL     1      -2.697   5.612   1.276  1.00  0.00    -0.246 OA
BRANCH   9  11
ATOM     11  O   UNL     1      -2.602   3.677   2.360  1.00  0.00    -0.478 OA
ATOM     12  H   UNL     1      -2.997   3.795   3.235  1.00  0.00     0.297 HD
ENDBRANCH   9  11
ENDBRANCH   3   9
ENDBRANCH   1   2
BRANCH   1  13
ATOM     13  C   UNL     1      -7.527   5.634  -1.774  1.00  0.00     0.230 C 
BRANCH  13  14
ATOM     14  C   UNL     1      -8.682   6.558  -1.383  1.00  0.00     0.046 C 
BRANCH  14  15
ATOM     15  C   UNL     1      -8.719   6.713   0.138  1.00  0.00     0.043 C 
BRANCH  15  16
ATOM     16  C   UNL     1      -9.678   7.814   0.509  1.00  0.00    -0.004 A 
ATOM     17  C   UNL     1      -9.348   9.097   0.786  1.00  0.00     0.036 A 
ATOM     18  C   UNL     1     -11.067   7.693   0.622  1.00  0.00     0.063 A 
ATOM     19  N   UNL     1     -10.488   9.763   1.070  1.00  0.00    -0.282 N 
ATOM     20  N   UNL     1     -11.553   8.858   0.965  1.00  0.00    -0.181 NA
ATOM     21  C   UNL     1      -7.959   9.679   0.777  1.00  0.00     0.066 C 
ATOM     22  C   UNL     1     -11.865   6.434   0.400  1.00  0.00     0.069 C 
ATOM     23  H   UNL     1     -10.557  10.701   1.306  1.00  0.00     0.190 HD
ENDBRANCH  15  16
ENDBRANCH  14  15
ENDBRANCH  13  14
ENDBRANCH   1  13
TORSDOF 7
ENDMDL
MODEL 2
REMARK VINA RESULT:    -5.770      1.971      3.664
REMARK INTER + INTRA:          -8.609
REMARK INTER:                  -7.959
REMARK INTRA:                  -0.650
REMARK UNBOUND:                -0.646
REMARK SMILES Cc1n[nH]c(C)c1CCCOc1cc(C(=O)O)ccc1F
REMARK SMILES IDX 11 1 12 2 14 3 18 4 13 5 19 6 20 7 21 8 15 9 16 10 17 11
REMARK SMILES IDX 10 13 9 14 8 15 7 16 5 17 2 18 4 19 3 20 6 21 1 22
REMARK H PARENT 17 12 4 23
ROOT
ATOM      1  O   UNL     1      -5.947   5.662   0.715  1.00  0.00    -0.490 OA
ENDROOT
BRANCH   1   2
ATOM      2  C   UNL     1      -5.356   4.594   0.115  1.00  0.00     0.155 A 
ATOM      3  C   UNL     1      -5.422   2.792  -1.476  1.00  0.00     0.063 A 
ATOM      4  C   UNL     1      -4.128   2.421  -1.104  1.00  0.00     0.019 A 
ATOM      5  C   UNL     1      -6.034   3.886  -0.859  1.00  0.00     0.065 A 
ATOM      6  C   UNL     1      -3.457   3.137  -0.135  1.00  0.00     0.044 A 
ATOM      7  C   UNL     1      -4.064   4.224   0.472  1.00  0.00     0.165 A 
ATOM      8  F   UNL     1      -3.402   4.922   1.421  1.00  0.00    -0.203 F 
BRANCH   3   9
ATOM      9  C   UNL     1      -6.143   2.028  -2.513  1.00  0.00     0.335 C 
ATOM     10  O   UNL     1      -7.211   1.512  -2.255  1.00  0.00    -0.246 OA
BRANCH   9  11
ATOM     11  O   UNL     1      -5.618   1.910  -3.749  1.00  0.00    -0.478 OA
ATOM     12  H   UNL     1      -5.497   1.013  -4.090  1.00  0.00     0.297 HD
ENDBRANCH   9  11
ENDBRANCH   3   9
ENDBRANCH   1   2
BRANCH   1  13
ATOM     13  C   UNL     1      -6.742   5.398   1.873  1.00  0.00     0.230 C 
BRANCH  13  14
ATOM     14  C   UNL     1      -7.868   6.429   1.964  1.00  0.00     0.046 C 
BRANCH  14  15
ATOM     15  C   UNL     1      -8.348   6.786   0.555  1.00  0.00     0.043 C 
BRANCH  15  16
ATOM     16  C   UNL     1      -9.504   7.747   0.646  1.00  0.00    -0.004 A 
ATOM     17  C   UNL     1     -10.817   7.419   0.603  1.00  0.00     0.036 A 
ATOM     18  C   UNL     1      -9.412   9.134   0.796  1.00  0.00     0.063 A 
ATOM     19  N   UNL     1     -11.529   8.560   0.715  1.00  0.00    -0.282 N 
ATOM     20  N   UNL     1     -10.624   9.624   0.830  1.00  0.00    -0.181 NA
ATOM     21  C   UNL     1     -11.381   6.031   0.457  1.00  0.00     0.066 C 
ATOM     22  C   UNL     1      -8.135   9.930   0.888  1.00  0.00     0.069 C 
ATOM     23  H   UNL     1     -12.496   8.632   0.715  1.00  0.00     0.190 HD
ENDBRANCH  15  16
ENDBRANCH  14  15
ENDBRANCH  13  14
ENDBRANCH   1  13
TORSDOF 7
ENDMDL
MODEL 3
REMARK VINA RESULT:    -5.680      1.989      3.232
REMARK INTER + INTRA:          -8.485
REMARK INTER:                  -7.828
REMARK INTRA:                  -0.657
REMARK UNBOUND:                -0.646
REMARK SMILES Cc1n[nH]c(C)c1CCCOc1cc(C(=O)O)ccc1F
REMARK SMILES IDX 11 1 12 2 14 3 18 4 13 5 19 6 20 7 21 8 15 9 16 10 17 11
REMARK SMILES IDX 10 13 9 14 8 15 7 16 5 17 2 18 4 19 3 20 6 21 1 22
REMARK H PARENT 17 12 4 23
ROOT
ATOM      1  O   UNL     1      -5.920   5.613   0.776  1.00  0.00    -0.490 OA
ENDROOT
BRANCH   1   2
ATOM      2  C   UNL     1      -5.333   4.555   0.155  1.00  0.00     0.155 A 
ATOM      3  C   UNL     1      -5.410   2.778  -1.463  1.00  0.00     0.063 A 
ATOM      4  C   UNL     1      -4.111   2.404  -1.108  1.00  0.00     0.019 A 
ATOM      5  C   UNL     1      -6.018   3.860  -0.824  1.00  0.00     0.065 A 
ATOM      6  C   UNL     1      -3.433   3.107  -0.135  1.00  0.00     0.044 A 
ATOM      7  C   UNL     1      -4.036   4.183   0.494  1.00  0.00     0.165 A 
ATOM      8  F   UNL     1      -3.366   4.868   1.447  1.00  0.00    -0.203 F 
BRANCH   3   9
ATOM      9  C   UNL     1      -6.139   2.028  -2.504  1.00  0.00     0.335 C 
ATOM     10  O   UNL     1      -7.213   1.523  -2.250  1.00  0.00    -0.246 OA
BRANCH   9  11
ATOM     11  O   UNL     1      -5.614   1.908  -3.740  1.00  0.00    -0.478 OA
ATOM     12  H   UNL     1      -6.102   1.366  -4.374  1.00  0.00     0.297 HD
ENDBRANCH   9  11
ENDBRANCH   3   9
ENDBRANCH   1   2
BRANCH   1  13
ATOM     13  C   UNL     1      -6.719   5.327   1.927  1.00  0.00     0.230 C 
BRANCH  13  14
ATOM     14  C   UNL     1      -7.851   6.350   2.027  1.00  0.00     0.046 C 
BRANCH  14  15
ATOM     15  C   UNL     1      -8.300   6.754   0.620  1.00  0.00     0.043 C 
BRANCH  15  16
ATOM     16  C   UNL     1      -9.512   7.644   0.715  1.00  0.00    -0.004 A 
ATOM     17  C   UNL     1      -9.502   8.989   0.865  1.00  0.00     0.036 A 
ATOM     18  C   UNL     1     -10.846   7.227   0.656  1.00  0.00     0.063 A 
ATOM     19  N   UNL     1     -10.785   9.407   0.907  1.00  0.00    -0.282 N 
ATOM     20  N   UNL     1     -11.610   8.282   0.778  1.00  0.00    -0.181 NA
ATOM     21  C   UNL     1      -8.279   9.863   0.968  1.00  0.00     0.066 C 
ATOM     22  C   UNL     1     -11.321   5.806   0.492  1.00  0.00     0.069 C 
ATOM     23  H   UNL     1     -11.083  10.325   1.009  1.00  0.00     0.190 HD
ENDBRANCH  15  16
ENDBRANCH  14  15
ENDBRANCH  13  14
ENDBRANCH   1  13
TORSDOF 7
ENDMDL
MODEL 4
REMARK VINA RESULT:    -5.668      0.691      1.876
REMARK INTER + INTRA:          -8.468
REMARK INTER:                  -7.812
REMARK INTRA:                  -0.655
REMARK UNBOUND:                -0.646
REMARK SMILES Cc1n[nH]c(C)c1CCCOc1cc(C(=O)O)ccc1F
REMARK SMILES IDX 11 1 12 2 14 3 18 4 13 5 19 6 20 7 21 8 15 9 16 10 17 11
REMARK SMILES IDX 10 13 9 14 8 15 7 16 5 17 2 18 4 19 3 20 6 21 1 22
REMARK H PARENT 17 12 4 23
ROOT
ATOM      1  O   UNL     1      -6.484   5.270  -2.115  1.00  0.00    -0.490 OA
ENDROOT
BRANCH   1   2
ATOM      2  C   UNL     1      -5.618   4.431  -1.486  1.00  0.00     0.155 A 
ATOM      3  C   UNL     1      -3.940   4.036   0.191  1.00  0.00     0.063 A 
ATOM      4  C   UNL     1      -3.864   2.698  -0.207  1.00  0.00     0.019 A 
ATOM      5  C   UNL     1      -4.825   4.901  -0.456  1.00  0.00     0.065 A 
ATOM      6  C   UNL     1      -4.664   2.236  -1.230  1.00  0.00     0.044 A 
ATOM      7  C   UNL     1      -5.544   3.096  -1.868  1.00  0.00     0.165 A 
ATOM      8  F   UNL     1      -6.325   2.637  -2.870  1.00  0.00    -0.203 F 
BRANCH   3   9
ATOM      9  C   UNL     1      -3.086   4.533   1.287  1.00  0.00     0.335 C 
ATOM     10  O   UNL     1      -2.722   5.691   1.296  1.00  0.00    -0.246 OA
BRANCH   9  11
ATOM     11  O   UNL     1      -2.715   3.702   2.281  1.00  0.00    -0.478 OA
ATOM     12  H   UNL     1      -3.013   3.926   3.174  1.00  0.00     0.297 HD
ENDBRANCH   9  11
ENDBRANCH   3   9
ENDBRANCH   1   2
BRANCH   1  13
ATOM     13  C   UNL     1      -7.829   5.295  -1.631  1.00  0.00     0.230 C 
BRANCH  13  14
ATOM     14  C   UNL     1      -8.151   6.691  -1.094  1.00  0.00     0.046 C 
BRANCH  14  15
ATOM     15  C   UNL     1      -8.618   6.584   0.359  1.00  0.00     0.043 C 
BRANCH  15  16
ATOM     16  C   UNL     1      -9.836   7.447   0.561  1.00  0.00    -0.004 A 
ATOM     17  C   UNL     1     -11.121   7.022   0.568  1.00  0.00     0.036 A 
ATOM     18  C   UNL     1      -9.839   8.828   0.781  1.00  0.00     0.063 A 
ATOM     19  N   UNL     1     -11.909   8.098   0.778  1.00  0.00    -0.282 N 
ATOM     20  N   UNL     1     -11.081   9.221   0.904  1.00  0.00    -0.181 NA
ATOM     21  C   UNL     1     -11.588   5.603   0.376  1.00  0.00     0.066 C 
ATOM     22  C   UNL     1      -8.621   9.714   0.851  1.00  0.00     0.069 C 
ATOM     23  H   UNL     1     -12.877   8.094   0.831  1.00  0.00     0.190 HD
ENDBRANCH  15  16
ENDBRANCH  14  15
ENDBRANCH  13  14
ENDBRANCH   1  13
TORSDOF 7
ENDMDL
MODEL 5
REMARK VINA RESULT:    -4.903      3.820      7.226
REMARK INTER + INTRA:          -7.412
REMARK INTER:                  -6.588
REMARK INTRA:                  -0.825
REMARK UNBOUND:                -0.646
REMARK SMILES Cc1n[nH]c(C)c1CCCOc1cc(C(=O)O)ccc1F
REMARK SMILES IDX 11 1 12 2 14 3 18 4 13 5 19 6 20 7 21 8 15 9 16 10 17 11
REMARK SMILES IDX 10 13 9 14 8 15 7 16 5 17 2 18 4 19 3 20 6 21 1 22
REMARK H PARENT 17 12 4 23
ROOT
ATOM      1  O   UNL     1      -6.804   6.455   0.323  1.00  0.00    -0.490 OA
ENDROOT
BRANCH   1   2
ATOM      2  C   UNL     1      -8.040   7.011   0.429  1.00  0.00     0.155 A 
ATOM      3  C   UNL     1     -10.433   6.785   0.494  1.00  0.00     0.063 A 
ATOM      4  C   UNL     1     -10.556   8.168   0.657  1.00  0.00     0.019 A 
ATOM      5  C   UNL     1      -9.166   6.210   0.381  1.00  0.00     0.065 A 
ATOM      6  C   UNL     1      -9.427   8.958   0.710  1.00  0.00     0.044 A 
ATOM      7  C   UNL     1      -8.171   8.385   0.602  1.00  0.00     0.165 A 
ATOM      8  F   UNL     1      -7.069   9.165   0.655  1.00  0.00    -0.203 F 
BRANCH   3   9
ATOM      9  C   UNL     1     -11.639   5.936   0.438  1.00  0.00     0.335 C 
ATOM     10  O   UNL     1     -11.530   4.729   0.373  1.00  0.00    -0.246 OA
BRANCH   9  11
ATOM     11  O   UNL     1     -12.862   6.502   0.463  1.00  0.00    -0.478 OA
ATOM     12  H   UNL     1     -13.317   6.527   1.317  1.00  0.00     0.297 HD
ENDBRANCH   9  11
ENDBRANCH   3   9
ENDBRANCH   1   2
BRANCH   1  13
ATOM     13  C   UNL     1      -6.568   5.254   1.063  1.00  0.00     0.230 C 
BRANCH  13  14
ATOM     14  C   UNL     1      -5.149   4.755   0.785  1.00  0.00     0.046 C 
BRANCH  14  15
ATOM     15  C   UNL     1      -4.784   5.043  -0.673  1.00  0.00     0.043 C 
BRANCH  15  16
ATOM     16  C   UNL     1      -5.243   3.900  -1.542  1.00  0.00    -0.004 A 
ATOM     17  C   UNL     1      -4.745   2.641  -1.530  1.00  0.00     0.036 A 
ATOM     18  C   UNL     1      -6.262   3.951  -2.498  1.00  0.00     0.063 A 
ATOM     19  N   UNL     1      -5.422   1.923  -2.451  1.00  0.00    -0.282 N 
ATOM     20  N   UNL     1      -6.365   2.769  -3.049  1.00  0.00    -0.181 NA
ATOM     21  C   UNL     1      -3.636   2.133  -0.646  1.00  0.00     0.066 C 
ATOM     22  C   UNL     1      -7.090   5.162  -2.844  1.00  0.00     0.069 C 
ATOM     23  H   UNL     1      -5.279   0.988  -2.663  1.00  0.00     0.190 HD
ENDBRANCH  15  16
ENDBRANCH  14  15
ENDBRANCH  13  14
ENDBRANCH   1  13
TORSDOF 7
ENDMDL
MODEL 6
REMARK VINA RESULT:    -4.884      3.737      6.697
REMARK INTER + INTRA:          -7.387
REMARK INTER:                  -6.541
REMARK INTRA:                  -0.846
REMARK UNBOUND:                -0.646
REMARK SMILES Cc1n[nH]c(C)c1CCCOc1cc(C(=O)O)ccc1F
REMARK SMILES IDX 11 1 12 2 14 3 18 4 13 5 19 6 20 7 21 8 15 9 16 10 17 11
REMARK SMILES IDX 10 13 9 14 8 15 7 16 5 17 2 18 4 19 3 20 6 21 1 22
REMARK H PARENT 17 12 4 23
ROOT
ATOM      1  O   UNL     1      -8.131   5.106  -0.312  1.00  0.00    -0.490 OA
ENDROOT
BRANCH   1   2
ATOM      2  C   UNL     1      -8.776   6.251   0.036  1.00  0.00     0.155 A 
ATOM      3  C   UNL     1      -8.742   8.615   0.475  1.00  0.00     0.063 A 
ATOM      4  C   UNL     1     -10.114   8.582   0.739  1.00  0.00     0.019 A 
ATOM      5  C   UNL     1      -8.075   7.440   0.122  1.00  0.00     0.065 A 
ATOM      6  C   UNL     1     -10.805   7.392   0.645  1.00  0.00     0.044 A 
ATOM      7  C   UNL     1     -10.143   6.229   0.290  1.00  0.00     0.165 A 
ATOM      8  F   UNL     1     -10.826   5.067   0.199  1.00  0.00    -0.203 F 
BRANCH   3   9
ATOM      9  C   UNL     1      -7.999   9.886   0.574  1.00  0.00     0.335 C 
ATOM     10  O   UNL     1      -6.785   9.881   0.595  1.00  0.00    -0.246 OA
BRANCH   9  11
ATOM     11  O   UNL     1      -8.668  11.054   0.635  1.00  0.00    -0.478 OA
ATOM     12  H   UNL     1      -8.192  11.815   0.996  1.00  0.00     0.297 HD
ENDBRANCH   9  11
ENDBRANCH   3   9
ENDBRANCH   1   2
BRANCH   1  13
ATOM     13  C   UNL     1      -7.064   5.223  -1.256  1.00  0.00     0.230 C 
BRANCH  13  14
ATOM     14  C   UNL     1      -6.398   3.859  -1.445  1.00  0.00     0.046 C 
BRANCH  14  15
ATOM     15  C   UNL     1      -6.308   3.145  -0.094  1.00  0.00     0.043 C 
BRANCH  15  16
ATOM     16  C   UNL     1      -5.043   3.559   0.611  1.00  0.00    -0.004 A 
ATOM     17  C   UNL     1      -3.781   3.251   0.230  1.00  0.00     0.036 A 
ATOM     18  C   UNL     1      -4.964   4.336   1.771  1.00  0.00     0.063 A 
ATOM     19  N   UNL     1      -2.934   3.807   1.121  1.00  0.00    -0.282 N 
ATOM     20  N   UNL     1      -3.701   4.479   2.082  1.00  0.00    -0.181 NA
ATOM     21  C   UNL     1      -3.392   2.433  -0.974  1.00  0.00     0.066 C 
ATOM     22  C   UNL     1      -6.132   4.900   2.539  1.00  0.00     0.069 C 
ATOM     23  H   UNL     1      -1.967   3.751   1.101  1.00  0.00     0.190 HD
ENDBRANCH  15  16
ENDBRANCH  14  15
ENDBRANCH  13  14
ENDBRANCH   1  13
TORSDOF 7
ENDMDL
MODEL 7
REMARK VINA RESULT:    -4.832      3.728      6.687
REMARK INTER + INTRA:          -7.315
REMARK INTER:                  -6.493
REMARK INTRA:                  -0.822
REMARK UNBOUND:                -0.646
REMARK SMILES Cc1n[nH]c(C)c1CCCOc1cc(C(=O)O)ccc1F
REMARK SMILES IDX 11 1 12 2 14 3 18 4 13 5 19 6 20 7 21 8 15 9 16 10 17 11
REMARK SMILES IDX 10 13 9 14 8 15 7 16 5 17 2 18 4 19 3 20 6 21 1 22
REMARK H PARENT 17 12 4 23
ROOT
ATOM      1  O   UNL     1      -8.077   5.052  -0.136  1.00  0.00    -0.490 OA
ENDROOT
BRANCH   1   2
ATOM      2  C   UNL     1      -8.767   6.187   0.152  1.00  0.00     0.155 A 
ATOM      3  C   UNL     1      -8.807   8.550   0.597  1.00  0.00     0.063 A 
ATOM      4  C   UNL     1     -10.197   8.498   0.730  1.00  0.00     0.019 A 
ATOM      5  C   UNL     1      -8.094   7.385   0.306  1.00  0.00     0.065 A 
ATOM      6  C   UNL     1     -10.860   7.299   0.569  1.00  0.00     0.044 A 
ATOM      7  C   UNL     1     -10.151   6.146   0.276  1.00  0.00     0.165 A 
ATOM      8  F   UNL     1     -10.807   4.975   0.119  1.00  0.00    -0.203 F 
BRANCH   3   9
ATOM      9  C   UNL     1      -8.094   9.831   0.768  1.00  0.00     0.335 C 
ATOM     10  O   UNL     1      -8.698  10.818   1.134  1.00  0.00    -0.246 OA
BRANCH   9  11
ATOM     11  O   UNL     1      -6.770   9.903   0.525  1.00  0.00    -0.478 OA
ATOM     12  H   UNL     1      -6.303   9.067   0.389  1.00  0.00     0.297 HD
ENDBRANCH   9  11
ENDBRANCH   3   9
ENDBRANCH   1   2
BRANCH   1  13
ATOM     13  C   UNL     1      -7.157   5.111  -1.229  1.00  0.00     0.230 C 
BRANCH  13  14
ATOM     14  C   UNL     1      -6.449   3.763  -1.373  1.00  0.00     0.046 C 
BRANCH  14  15
ATOM     15  C   UNL     1      -6.294   3.119   0.006  1.00  0.00     0.043 C 
BRANCH  15  16
ATOM     16  C   UNL     1      -5.011   3.588   0.640  1.00  0.00    -0.004 A 
ATOM     17  C   UNL     1      -4.905   4.361   1.746  1.00  0.00     0.036 A 
ATOM     18  C   UNL     1      -3.718   3.298   0.193  1.00  0.00     0.063 A 
ATOM     19  N   UNL     1      -3.592   4.558   1.986  1.00  0.00    -0.282 N 
ATOM     20  N   UNL     1      -2.866   3.884   0.995  1.00  0.00    -0.181 NA
ATOM     21  C   UNL     1      -6.049   4.904   2.562  1.00  0.00     0.066 C 
ATOM     22  C   UNL     1      -3.365   2.463  -1.012  1.00  0.00     0.069 C 
ATOM     23  H   UNL     1      -3.217   5.076   2.716  1.00  0.00     0.190 HD
ENDBRANCH  15  16
ENDBRANCH  14  15
ENDBRANCH  13  14
ENDBRANCH   1  13
TORSDOF 7
ENDMDL
MODEL 8
REMARK VINA RESULT:    -4.783      4.270      7.711
REMARK INTER + INTRA:          -7.247
REMARK INTER:                  -6.597
REMARK INTRA:                  -0.650
REMARK UNBOUND:                -0.646
REMARK SMILES Cc1n[nH]c(C)c1CCCOc1cc(C(=O)O)ccc1F
REMARK SMILES IDX 11 1 12 2 14 3 18 4 13 5 19 6 20 7 21 8 15 9 16 10 17 11
REMARK SMILES IDX 10 13 9 14 8 15 7 16 5 17 2 18 4 19 3 20 6 21 1 22
REMARK H PARENT 17 12 4 23
ROOT
ATOM      1  O   UNL     1      -7.289   6.901   0.175  1.00  0.00    -0.490 OA
ENDROOT
BRANCH   1   2
ATOM      2  C   UNL     1      -8.378   7.677   0.424  1.00  0.00     0.155 A 
ATOM      3  C   UNL     1     -10.760   7.927   0.632  1.00  0.00     0.063 A 
ATOM      4  C   UNL     1     -10.587   9.277   0.946  1.00  0.00     0.019 A 
ATOM      5  C   UNL     1      -9.645   7.128   0.371  1.00  0.00     0.065 A 
ATOM      6  C   UNL     1      -9.319   9.815   1.003  1.00  0.00     0.044 A 
ATOM      7  C   UNL     1      -8.214   9.019   0.748  1.00  0.00     0.165 A 
ATOM      8  F   UNL     1      -6.974   9.552   0.804  1.00  0.00    -0.203 F 
BRANCH   3   9
ATOM      9  C   UNL     1     -12.117   7.348   0.572  1.00  0.00     0.335 C 
ATOM     10  O   UNL     1     -13.068   7.987   0.970  1.00  0.00    -0.246 OA
BRANCH   9  11
ATOM     11  O   UNL     1     -12.299   6.112   0.068  1.00  0.00    -0.478 OA
ATOM     12  H   UNL     1     -11.776   5.873  -0.710  1.00  0.00     0.297 HD
ENDBRANCH   9  11
ENDBRANCH   3   9
ENDBRANCH   1   2
BRANCH   1  13
ATOM     13  C   UNL     1      -7.108   5.752   1.006  1.00  0.00     0.230 C 
BRANCH  13  14
ATOM     14  C   UNL     1      -6.991   4.503   0.131  1.00  0.00     0.046 C 
BRANCH  14  15
ATOM     15  C   UNL     1      -5.864   4.697  -0.886  1.00  0.00     0.043 C 
BRANCH  15  16
ATOM     16  C   UNL     1      -4.922   3.523  -0.824  1.00  0.00    -0.004 A 
ATOM     17  C   UNL     1      -3.826   3.423  -0.036  1.00  0.00     0.036 A 
ATOM     18  C   UNL     1      -5.029   2.342  -1.565  1.00  0.00     0.063 A 
ATOM     19  N   UNL     1      -3.256   2.223  -0.275  1.00  0.00    -0.282 N 
ATOM     20  N   UNL     1      -4.027   1.564  -1.242  1.00  0.00    -0.181 NA
ATOM     21  C   UNL     1      -3.332   4.463   0.935  1.00  0.00     0.066 C 
ATOM     22  C   UNL     1      -6.105   2.024  -2.572  1.00  0.00     0.069 C 
ATOM     23  H   UNL     1      -2.454   1.878   0.147  1.00  0.00     0.190 HD
ENDBRANCH  15  16
ENDBRANCH  14  15
ENDBRANCH  13  14
ENDBRANCH   1  13
TORSDOF 7
ENDMDL
MODEL 9
REMARK VINA RESULT:    -4.676      4.252      7.818
REMARK INTER + INTRA:          -7.100
REMARK INTER:                  -6.458
REMARK INTRA:                  -0.642
REMARK UNBOUND:                -0.646
REMARK SMILES Cc1n[nH]c(C)c1CCCOc1cc(C(=O)O)ccc1F
REMARK SMILES IDX 11 1 12 2 14 3 18 4 13 5 19 6 20 7 21 8 15 9 16 10 17 11
REMARK SMILES IDX 10 13 9 14 8 15 7 16 5 17 2 18 4 19 3 20 6 21 1 22
REMARK H PARENT 17 12 4 23
ROOT
ATOM      1  O   UNL     1      -7.128   6.804   0.573  1.00  0.00    -0.490 OA
ENDROOT
BRANCH   1   2
ATOM      2  C   UNL     1      -8.237   7.586   0.643  1.00  0.00     0.155 A 
ATOM      3  C   UNL     1     -10.630   7.823   0.623  1.00  0.00     0.063 A 
ATOM      4  C   UNL     1     -10.491   9.202   0.797  1.00  0.00     0.019 A 
ATOM      5  C   UNL     1      -9.493   7.016   0.546  1.00  0.00     0.065 A 
ATOM      6  C   UNL     1      -9.235   9.761   0.899  1.00  0.00     0.044 A 
ATOM      7  C   UNL     1      -8.108   8.959   0.827  1.00  0.00     0.165 A 
ATOM      8  F   UNL     1      -6.880   9.513   0.928  1.00  0.00    -0.203 F 
BRANCH   3   9
ATOM      9  C   UNL     1     -11.973   7.221   0.514  1.00  0.00     0.335 C 
ATOM     10  O   UNL     1     -12.118   6.154  -0.046  1.00  0.00    -0.246 OA
BRANCH   9  11
ATOM     11  O   UNL     1     -13.039   7.854   1.042  1.00  0.00    -0.478 OA
ATOM     12  H   UNL     1     -12.872   8.450   1.786  1.00  0.00     0.297 HD
ENDBRANCH   9  11
ENDBRANCH   3   9
ENDBRANCH   1   2
BRANCH   1  13
ATOM     13  C   UNL     1      -7.079   5.668   1.441  1.00  0.00     0.230 C 
BRANCH  13  14
ATOM     14  C   UNL     1      -6.918   4.396   0.606  1.00  0.00     0.046 C 
BRANCH  14  15
ATOM     15  C   UNL     1      -5.977   4.673  -0.569  1.00  0.00     0.043 C 
BRANCH  15  16
ATOM     16  C   UNL     1      -4.952   3.573  -0.662  1.00  0.00    -0.004 A 
ATOM     17  C   UNL     1      -5.018   2.489  -1.469  1.00  0.00     0.036 A 
ATOM     18  C   UNL     1      -3.759   3.495   0.065  1.00  0.00     0.063 A 
ATOM     19  N   UNL     1      -3.910   1.748  -1.255  1.00  0.00    -0.282 N 
ATOM     20  N   UNL     1      -3.138   2.399  -0.284  1.00  0.00    -0.181 NA
ATOM     21  C   UNL     1      -6.129   2.167  -2.434  1.00  0.00     0.066 C 
ATOM     22  C   UNL     1      -3.279   4.497   1.085  1.00  0.00     0.069 C 
ATOM     23  H   UNL     1      -3.689   0.913  -1.694  1.00  0.00     0.190 HD
ENDBRANCH  15  16
ENDBRANCH  14  15
ENDBRANCH  13  14
ENDBRANCH   1  13
TORSDOF 7
ENDMDL
