MODEL 1
REMARK VINA RESULT:    -4.744      0.000      0.000
REMARK INTER + INTRA:          -5.732
REMARK INTER:                  -5.437
REMARK INTRA:                  -0.295
REMARK UNBOUND:                -0.295
REMARK SMILES O=C(O)c1ccc2nc(-c3cc(Cl)cc(Cl)c3)oc2c1
REMARK SMILES IDX 5 1 6 2 20 3 8 4 18 5 4 6 9 7 7 8 19 9 2 10 1 11 3 12 10 14
REMARK SMILES IDX 11 15 17 16 12 17 15 18 14 19 13 20 16 21
REMARK H PARENT 3 13
ROOT
ATOM      1  C   UNL     1     -10.518   8.778   0.762  1.00  0.00     0.018 A 
ATOM      2  C   UNL     1      -9.168   8.590   0.767  1.00  0.00     0.033 A 
ATOM      3  C   UNL     1     -10.867   6.426   0.286  1.00  0.00     0.065 A 
ATOM      4  N   UNL     1      -7.378   6.833   0.473  1.00  0.00    -0.209 NA
ATOM      5  O   UNL     1      -8.708   5.153   0.094  1.00  0.00    -0.436 OA
ATOM      6  C   UNL     1     -11.383   7.701   0.524  1.00  0.00     0.063 A 
ATOM      7  C   UNL     1      -7.427   5.549   0.214  1.00  0.00     0.227 A 
ATOM      8  C   UNL     1      -8.637   7.317   0.530  1.00  0.00     0.110 A 
ATOM      9  C   UNL     1      -9.498   6.232   0.285  1.00  0.00     0.156 A 
ENDROOT
BRANCH   6  10
ATOM     10  C   UNL     1     -12.842   7.915   0.527  1.00  0.00     0.335 C 
ATOM     11  O   UNL     1     -13.577   7.093   0.017  1.00  0.00    -0.246 OA
BRANCH  10  12
ATOM     12  O   UNL     1     -13.360   9.022   1.094  1.00  0.00    -0.478 OA
ATOM     13  H   UNL     1     -13.830   8.908   1.931  1.00  0.00     0.297 HD
ENDBRANCH  10  12
ENDBRANCH   6  10
BRANCH   7  14
ATOM     14  C   UNL     1      -6.249   4.668   0.075  1.00  0.00     0.040 A 
ATOM     15  C   UNL     1      -6.307   3.545  -0.751  1.00  0.00     0.034 A 
ATOM     16  C   UNL     1      -5.073   4.955   0.772  1.00  0.00     0.034 A 
ATOM     17  C   UNL     1      -5.203   2.726  -0.877  1.00  0.00     0.043 A 
ATOM     18  C   UNL     1      -3.976   4.129   0.637  1.00  0.00     0.043 A 
ATOM     19  C   UNL     1      -4.040   3.016  -0.184  1.00  0.00     0.041 A 
ATOM     20  Cl  UNL     1      -5.273   1.329  -1.905  1.00  0.00    -0.084 Cl
ATOM     21  Cl  UNL     1      -2.512   4.484   1.502  1.00  0.00    -0.084 Cl
ENDBRANCH   7  14
TORSDOF 3
ENDMDL
MODEL 2
REMARK VINA RESULT:    -4.733      1.743      2.403
REMARK INTER + INTRA:          -5.720
REMARK INTER:                  -5.425
REMARK INTRA:                  -0.294
REMARK UNBOUND:                -0.295
REMARK SMILES O=C(O)c1ccc2nc(-c3cc(Cl)cc(Cl)c3)oc2c1
REMARK SMILES IDX 5 1 6 2 20 3 8 4 18 5 4 6 9 7 7 8 19 9 2 10 1 11 3 12 10 14
REMARK SMILES IDX 11 15 17 16 12 17 15 18 14 19 13 20 16 21
REMARK H PARENT 3 13
ROOT
ATOM      1  C   UNL     1     -10.733   8.515   0.797  1.00  0.00     0.018 A 
ATOM      2  C   UNL     1     -10.449   7.238   0.415  1.00  0.00     0.033 A 
ATOM      3  C   UNL     1      -8.368   9.053   0.839  1.00  0.00     0.065 A 
ATOM      4  N   UNL     1      -8.540   5.674  -0.125  1.00  0.00    -0.209 NA
ATOM      5  O   UNL     1      -6.925   7.092   0.212  1.00  0.00    -0.436 OA
ATOM      6  C   UNL     1      -9.699   9.438   1.012  1.00  0.00     0.063 A 
ATOM      7  C   UNL     1      -7.239   5.831  -0.139  1.00  0.00     0.227 A 
ATOM      8  C   UNL     1      -9.118   6.839   0.238  1.00  0.00     0.110 A 
ATOM      9  C   UNL     1      -8.076   7.757   0.456  1.00  0.00     0.156 A 
ENDROOT
BRANCH   6  10
ATOM     10  C   UNL     1     -10.018  10.818   1.419  1.00  0.00     0.335 C 
ATOM     11  O   UNL     1      -9.197  11.478   2.024  1.00  0.00    -0.246 OA
BRANCH  10  12
ATOM     12  O   UNL     1     -11.221  11.348   1.121  1.00  0.00    -0.478 OA
ATOM     13  H   UNL     1     -11.866  10.765   0.698  1.00  0.00     0.297 HD
ENDBRANCH  10  12
ENDBRANCH   6  10
BRANCH   7  14
ATOM     14  C   UNL     1      -6.263   4.779  -0.488  1.00  0.00     0.040 A 
ATOM     15  C   UNL     1      -6.621   3.752  -1.362  1.00  0.00     0.034 A 
ATOM     16  C   UNL     1      -4.977   4.808   0.057  1.00  0.00     0.034 A 
ATOM     17  C   UNL     1      -5.703   2.772  -1.685  1.00  0.00     0.043 A 
ATOM     18  C   UNL     1      -4.069   3.823  -0.274  1.00  0.00     0.043 A 
ATOM     19  C   UNL     1      -4.430   2.806  -1.141  1.00  0.00     0.041 A 
ATOM     20  Cl  UNL     1      -6.146   1.494  -2.773  1.00  0.00    -0.084 Cl
ATOM     21  Cl  UNL     1      -2.470   3.857   0.403  1.00  0.00    -0.084 Cl
ENDBRANCH   7  14
TORSDOF 3
ENDMDL
MODEL 3
REMARK VINA RESULT:    -4.723      3.934      7.853
REMARK INTER + INTRA:          -5.707
REMARK INTER:                  -5.410
REMARK INTRA:                  -0.298
REMARK UNBOUND:                -0.295
REMARK SMILES O=C(O)c1ccc2nc(-c3cc(Cl)cc(Cl)c3)oc2c1
REMARK SMILES IDX 5 1 6 2 20 3 8 4 18 5 4 6 9 7 7 8 19 9 2 10 1 11 3 12 10 14
REMARK SMILES IDX 11 15 17 16 12 17 15 18 14 19 13 20 16 21
REMARK H PARENT 3 13
ROOT
ATOM      1  C   UNL     1      -5.179   2.499  -0.815  1.00  0.00     0.018 A 
ATOM      2  C   UNL     1      -6.489   2.873  -0.781  1.00  0.00     0.033 A 
ATOM      3  C   UNL     1      -4.503   4.710  -0.082  1.00  0.00     0.065 A 
ATOM      4  N   UNL     1      -8.014   4.821  -0.270  1.00  0.00    -0.209 NA
ATOM      5  O   UNL     1      -6.462   6.247   0.268  1.00  0.00    -0.436 OA
ATOM      6  C   UNL     1      -4.171   3.409  -0.465  1.00  0.00     0.063 A 
ATOM      7  C   UNL     1      -7.786   6.049   0.125  1.00  0.00     0.227 A 
ATOM      8  C   UNL     1      -6.836   4.175  -0.398  1.00  0.00     0.110 A 
ATOM      9  C   UNL     1      -5.831   5.095  -0.050  1.00  0.00     0.156 A 
ENDROOT
BRANCH   6  10
ATOM     10  C   UNL     1      -2.758   2.991  -0.501  1.00  0.00     0.335 C 
ATOM     11  O   UNL     1      -1.904   3.697  -0.003  1.00  0.00    -0.246 OA
BRANCH  10  12
ATOM     12  O   UNL     1      -2.414   1.827  -1.086  1.00  0.00    -0.478 OA
ATOM     13  H   UNL     1      -2.169   1.861  -2.021  1.00  0.00     0.297 HD
ENDBRANCH  10  12
ENDBRANCH   6  10
BRANCH   7  14
ATOM     14  C   UNL     1      -8.828   7.066   0.376  1.00  0.00     0.040 A 
ATOM     15  C   UNL     1      -8.468   8.387   0.646  1.00  0.00     0.034 A 
ATOM     16  C   UNL     1     -10.177   6.708   0.345  1.00  0.00     0.034 A 
ATOM     17  C   UNL     1      -9.447   9.333   0.879  1.00  0.00     0.043 A 
ATOM     18  C   UNL     1     -11.147   7.663   0.579  1.00  0.00     0.043 A 
ATOM     19  C   UNL     1     -10.783   8.972   0.846  1.00  0.00     0.041 A 
ATOM     20  Cl  UNL     1      -9.001  10.976   1.214  1.00  0.00    -0.084 Cl
ATOM     21  Cl  UNL     1     -12.825   7.221   0.540  1.00  0.00    -0.084 Cl
ENDBRANCH   7  14
TORSDOF 3
ENDMDL
MODEL 4
REMARK VINA RESULT:    -4.721      0.066      2.020
REMARK INTER + INTRA:          -5.705
REMARK INTER:                  -5.410
REMARK INTRA:                  -0.295
REMARK UNBOUND:                -0.295
REMARK SMILES O=C(O)c1ccc2nc(-c3cc(Cl)cc(Cl)c3)oc2c1
REMARK SMILES IDX 5 1 6 2 20 3 8 4 18 5 4 6 9 7 7 8 19 9 2 10 1 11 3 12 10 14
REMARK SMILES IDX 11 15 17 16 12 17 15 18 14 19 13 20 16 21
REMARK H PARENT 3 13
ROOT
ATOM      1  C   UNL     1     -10.588   8.720   0.772  1.00  0.00     0.018 A 
ATOM      2  C   UNL     1      -9.237   8.544   0.785  1.00  0.00     0.033 A 
ATOM      3  C   UNL     1     -10.912   6.371   0.265  1.00  0.00     0.065 A 
ATOM      4  N   UNL     1      -7.428   6.807   0.483  1.00  0.00    -0.209 NA
ATOM      5  O   UNL     1      -8.740   5.120   0.074  1.00  0.00    -0.436 OA
ATOM      6  C   UNL     1     -11.442   7.638   0.515  1.00  0.00     0.063 A 
ATOM      7  C   UNL     1      -7.464   5.526   0.209  1.00  0.00     0.227 A 
ATOM      8  C   UNL     1      -8.692   7.279   0.537  1.00  0.00     0.110 A 
ATOM      9  C   UNL     1      -9.542   6.190   0.272  1.00  0.00     0.156 A 
ENDROOT
BRANCH   6  10
ATOM     10  C   UNL     1     -12.902   7.839   0.509  1.00  0.00     0.335 C 
ATOM     11  O   UNL     1     -13.631   6.986   0.042  1.00  0.00    -0.246 OA
BRANCH  10  12
ATOM     12  O   UNL     1     -13.430   8.969   1.021  1.00  0.00    -0.478 OA
ATOM     13  H   UNL     1     -14.077   9.437   0.476  1.00  0.00     0.297 HD
ENDBRANCH  10  12
ENDBRANCH   6  10
BRANCH   7  14
ATOM     14  C   UNL     1      -6.277   4.657   0.068  1.00  0.00     0.040 A 
ATOM     15  C   UNL     1      -5.105   4.953   0.765  1.00  0.00     0.034 A 
ATOM     16  C   UNL     1      -6.324   3.536  -0.764  1.00  0.00     0.034 A 
ATOM     17  C   UNL     1      -4.000   4.136   0.630  1.00  0.00     0.043 A 
ATOM     18  C   UNL     1      -5.213   2.728  -0.890  1.00  0.00     0.043 A 
ATOM     19  C   UNL     1      -4.053   3.026  -0.197  1.00  0.00     0.041 A 
ATOM     20  Cl  UNL     1      -2.540   4.502   1.496  1.00  0.00    -0.084 Cl
ATOM     21  Cl  UNL     1      -5.270   1.333  -1.924  1.00  0.00    -0.084 Cl
ENDBRANCH   7  14
TORSDOF 3
ENDMDL
MODEL 5
REMARK VINA RESULT:    -4.720      3.935      7.631
REMARK INTER + INTRA:          -5.705
REMARK INTER:                  -5.407
REMARK INTRA:                  -0.298
REMARK UNBOUND:                -0.295
REMARK SMILES O=C(O)c1ccc2nc(-c3cc(Cl)cc(Cl)c3)oc2c1
REMARK SMILES IDX 5 1 6 2 20 3 8 4 18 5 4 6 9 7 7 8 19 9 2 10 1 11 3 12 10 14
REMARK SMILES IDX 11 15 17 16 12 17 15 18 14 19 13 20 16 21
REMARK H PARENT 3 13
ROOT
ATOM      1  C   UNL     1      -5.173   2.487  -0.768  1.00  0.00     0.018 A 
ATOM      2  C   UNL     1      -6.484   2.857  -0.722  1.00  0.00     0.033 A 
ATOM      3  C   UNL     1      -4.496   4.715  -0.091  1.00  0.00     0.065 A 
ATOM      4  N   UNL     1      -8.010   4.809  -0.229  1.00  0.00    -0.209 NA
ATOM      5  O   UNL     1      -6.455   6.252   0.256  1.00  0.00    -0.436 OA
ATOM      6  C   UNL     1      -4.165   3.408  -0.452  1.00  0.00     0.063 A 
ATOM      7  C   UNL     1      -7.780   6.046   0.137  1.00  0.00     0.227 A 
ATOM      8  C   UNL     1      -6.831   4.165  -0.361  1.00  0.00     0.110 A 
ATOM      9  C   UNL     1      -5.825   5.095  -0.047  1.00  0.00     0.156 A 
ENDROOT
BRANCH   6  10
ATOM     10  C   UNL     1      -2.750   2.995  -0.500  1.00  0.00     0.335 C 
ATOM     11  O   UNL     1      -1.895   3.699  -0.003  1.00  0.00    -0.246 OA
BRANCH  10  12
ATOM     12  O   UNL     1      -2.406   1.835  -1.095  1.00  0.00    -0.478 OA
ATOM     13  H   UNL     1      -1.570   1.822  -1.580  1.00  0.00     0.297 HD
ENDBRANCH  10  12
ENDBRANCH   6  10
BRANCH   7  14
ATOM     14  C   UNL     1      -8.823   7.064   0.382  1.00  0.00     0.040 A 
ATOM     15  C   UNL     1     -10.172   6.709   0.347  1.00  0.00     0.034 A 
ATOM     16  C   UNL     1      -8.461   8.386   0.649  1.00  0.00     0.034 A 
ATOM     17  C   UNL     1     -11.141   7.665   0.578  1.00  0.00     0.043 A 
ATOM     18  C   UNL     1      -9.440   9.333   0.878  1.00  0.00     0.043 A 
ATOM     19  C   UNL     1     -10.776   8.974   0.842  1.00  0.00     0.041 A 
ATOM     20  Cl  UNL     1     -12.820   7.225   0.536  1.00  0.00    -0.084 Cl
ATOM     21  Cl  UNL     1      -8.992  10.977   1.210  1.00  0.00    -0.084 Cl
ENDBRANCH   7  14
TORSDOF 3
ENDMDL
MODEL 6
REMARK VINA RESULT:    -4.718      3.752      7.407
REMARK INTER + INTRA:          -5.702
REMARK INTER:                  -5.404
REMARK INTRA:                  -0.298
REMARK UNBOUND:                -0.295
REMARK SMILES O=C(O)c1ccc2nc(-c3cc(Cl)cc(Cl)c3)oc2c1
REMARK SMILES IDX 5 1 6 2 20 3 8 4 18 5 4 6 9 7 7 8 19 9 2 10 1 11 3 12 10 14
REMARK SMILES IDX 11 15 17 16 12 17 15 18 14 19 13 20 16 21
REMARK H PARENT 3 13
ROOT
ATOM      1  C   UNL     1      -3.802   3.843  -0.445  1.00  0.00     0.018 A 
ATOM      2  C   UNL     1      -4.295   5.070  -0.116  1.00  0.00     0.033 A 
ATOM      3  C   UNL     1      -6.054   2.981  -0.703  1.00  0.00     0.065 A 
ATOM      4  N   UNL     1      -6.445   6.354   0.215  1.00  0.00    -0.209 NA
ATOM      5  O   UNL     1      -7.808   4.721  -0.239  1.00  0.00    -0.436 OA
ATOM      6  C   UNL     1      -4.672   2.785  -0.745  1.00  0.00     0.063 A 
ATOM      7  C   UNL     1      -7.706   6.017   0.113  1.00  0.00     0.227 A 
ATOM      8  C   UNL     1      -5.678   5.280  -0.070  1.00  0.00     0.110 A 
ATOM      9  C   UNL     1      -6.558   4.223  -0.365  1.00  0.00     0.156 A 
ENDROOT
BRANCH   6  10
ATOM     10  C   UNL     1      -4.127   1.464  -1.106  1.00  0.00     0.335 C 
ATOM     11  O   UNL     1      -4.854   0.620  -1.591  1.00  0.00    -0.246 OA
BRANCH  10  12
ATOM     12  O   UNL     1      -2.824   1.192  -0.897  1.00  0.00    -0.478 OA
ATOM     13  H   UNL     1      -2.511   0.316  -1.159  1.00  0.00     0.297 HD
ENDBRANCH  10  12
ENDBRANCH   6  10
BRANCH   7  14
ATOM     14  C   UNL     1      -8.848   6.924   0.351  1.00  0.00     0.040 A 
ATOM     15  C   UNL     1     -10.154   6.433   0.310  1.00  0.00     0.034 A 
ATOM     16  C   UNL     1      -8.624   8.276   0.616  1.00  0.00     0.034 A 
ATOM     17  C   UNL     1     -11.216   7.286   0.533  1.00  0.00     0.043 A 
ATOM     18  C   UNL     1      -9.695   9.119   0.838  1.00  0.00     0.043 A 
ATOM     19  C   UNL     1     -10.988   8.626   0.796  1.00  0.00     0.041 A 
ATOM     20  Cl  UNL     1     -12.841   6.678   0.484  1.00  0.00    -0.084 Cl
ATOM     21  Cl  UNL     1      -9.419  10.802   1.169  1.00  0.00    -0.084 Cl
ENDBRANCH   7  14
TORSDOF 3
ENDMDL
MODEL 7
REMARK VINA RESULT:    -4.714      3.750      7.638
REMARK INTER + INTRA:          -5.698
REMARK INTER:                  -5.400
REMARK INTRA:                  -0.298
REMARK UNBOUND:                -0.295
REMARK SMILES O=C(O)c1ccc2nc(-c3cc(Cl)cc(Cl)c3)oc2c1
REMARK SMILES IDX 5 1 6 2 20 3 8 4 18 5 4 6 9 7 7 8 19 9 2 10 1 11 3 12 10 14
REMARK SMILES IDX 11 15 17 16 12 17 15 18 14 19 13 20 16 21
REMARK H PARENT 3 13
ROOT
ATOM      1  C   UNL     1      -3.795   3.826  -0.406  1.00  0.00     0.018 A 
ATOM      2  C   UNL     1      -4.287   5.050  -0.065  1.00  0.00     0.033 A 
ATOM      3  C   UNL     1      -6.047   2.981  -0.714  1.00  0.00     0.065 A 
ATOM      4  N   UNL     1      -6.435   6.341   0.250  1.00  0.00    -0.209 NA
ATOM      5  O   UNL     1      -7.800   4.723  -0.251  1.00  0.00    -0.436 OA
ATOM      6  C   UNL     1      -4.666   2.778  -0.736  1.00  0.00     0.063 A 
ATOM      7  C   UNL     1      -7.697   6.012   0.122  1.00  0.00     0.227 A 
ATOM      8  C   UNL     1      -5.670   5.267  -0.040  1.00  0.00     0.110 A 
ATOM      9  C   UNL     1      -6.550   4.220  -0.364  1.00  0.00     0.156 A 
ENDROOT
BRANCH   6  10
ATOM     10  C   UNL     1      -4.123   1.459  -1.108  1.00  0.00     0.335 C 
ATOM     11  O   UNL     1      -4.851   0.618  -1.595  1.00  0.00    -0.246 OA
BRANCH  10  12
ATOM     12  O   UNL     1      -2.818   1.186  -0.907  1.00  0.00    -0.478 OA
ATOM     13  H   UNL     1      -2.343   0.757  -1.631  1.00  0.00     0.297 HD
ENDBRANCH  10  12
ENDBRANCH   6  10
BRANCH   7  14
ATOM     14  C   UNL     1      -8.837   6.922   0.355  1.00  0.00     0.040 A 
ATOM     15  C   UNL     1      -8.614   8.274   0.617  1.00  0.00     0.034 A 
ATOM     16  C   UNL     1     -10.144   6.432   0.314  1.00  0.00     0.034 A 
ATOM     17  C   UNL     1      -9.684   9.120   0.832  1.00  0.00     0.043 A 
ATOM     18  C   UNL     1     -11.206   7.287   0.531  1.00  0.00     0.043 A 
ATOM     19  C   UNL     1     -10.977   8.627   0.790  1.00  0.00     0.041 A 
ATOM     20  Cl  UNL     1      -9.408  10.802   1.158  1.00  0.00    -0.084 Cl
ATOM     21  Cl  UNL     1     -12.832   6.679   0.481  1.00  0.00    -0.084 Cl
ENDBRANCH   7  14
TORSDOF 3
ENDMDL
MODEL 8
REMARK VINA RESULT:    -4.710      1.708      3.102
REMARK INTER + INTRA:          -5.693
REMARK INTER:                  -5.398
REMARK INTRA:                  -0.295
REMARK UNBOUND:                -0.295
REMARK SMILES O=C(O)c1ccc2nc(-c3cc(Cl)cc(Cl)c3)oc2c1
REMARK SMILES IDX 5 1 6 2 20 3 8 4 18 5 4 6 9 7 7 8 19 9 2 10 1 11 3 12 10 14
REMARK SMILES IDX 11 15 17 16 12 17 15 18 14 19 13 20 16 21
REMARK H PARENT 3 13
ROOT
ATOM      1  C   UNL     1     -10.745   8.497   0.792  1.00  0.00     0.018 A 
ATOM      2  C   UNL     1     -10.444   7.216   0.438  1.00  0.00     0.033 A 
ATOM      3  C   UNL     1      -8.389   9.071   0.804  1.00  0.00     0.065 A 
ATOM      4  N   UNL     1      -8.516   5.668  -0.078  1.00  0.00    -0.209 NA
ATOM      5  O   UNL     1      -6.920   7.118   0.213  1.00  0.00    -0.436 OA
ATOM      6  C   UNL     1      -9.724   9.440   0.977  1.00  0.00     0.063 A 
ATOM      7  C   UNL     1      -7.218   5.844  -0.105  1.00  0.00     0.227 A 
ATOM      8  C   UNL     1      -9.109   6.832   0.261  1.00  0.00     0.110 A 
ATOM      9  C   UNL     1      -8.079   7.771   0.450  1.00  0.00     0.156 A 
ENDROOT
BRANCH   6  10
ATOM     10  C   UNL     1     -10.061  10.825   1.353  1.00  0.00     0.335 C 
ATOM     11  O   UNL     1      -9.183  11.592   1.693  1.00  0.00    -0.246 OA
BRANCH  10  12
ATOM     12  O   UNL     1     -11.343  11.239   1.321  1.00  0.00    -0.478 OA
ATOM     13  H   UNL     1     -11.653  11.646   0.501  1.00  0.00     0.297 HD
ENDBRANCH  10  12
ENDBRANCH   6  10
BRANCH   7  14
ATOM     14  C   UNL     1      -6.228   4.798  -0.436  1.00  0.00     0.040 A 
ATOM     15  C   UNL     1      -4.953   4.836   0.130  1.00  0.00     0.034 A 
ATOM     16  C   UNL     1      -6.565   3.769  -1.317  1.00  0.00     0.034 A 
ATOM     17  C   UNL     1      -4.033   3.855  -0.183  1.00  0.00     0.043 A 
ATOM     18  C   UNL     1      -5.636   2.794  -1.622  1.00  0.00     0.043 A 
ATOM     19  C   UNL     1      -4.373   2.837  -1.057  1.00  0.00     0.041 A 
ATOM     20  Cl  UNL     1      -2.446   3.899   0.520  1.00  0.00    -0.084 Cl
ATOM     21  Cl  UNL     1      -6.053   1.513  -2.717  1.00  0.00    -0.084 Cl
ENDBRANCH   7  14
TORSDOF 3
ENDMDL
MODEL 9
REMARK VINA RESULT:    -3.833      4.496      7.432
REMARK INTER + INTRA:          -4.688
REMARK INTER:                  -4.401
REMARK INTRA:                  -0.287
REMARK UNBOUND:                -0.295
REMARK SMILES O=C(O)c1ccc2nc(-c3cc(Cl)cc(Cl)c3)oc2c1
REMARK SMILES IDX 5 1 6 2 20 3 8 4 18 5 4 6 9 7 7 8 19 9 2 10 1 11 3 12 10 14
REMARK SMILES IDX 11 15 17 16 12 17 15 18 14 19 13 20 16 21
REMARK H PARENT 3 13
ROOT
ATOM      1  C   UNL     1      -6.563   4.308   0.708  1.00  0.00     0.018 A 
ATOM      2  C   UNL     1      -6.826   5.379   1.509  1.00  0.00     0.033 A 
ATOM      3  C   UNL     1      -7.455   5.493  -1.210  1.00  0.00     0.065 A 
ATOM      4  N   UNL     1      -7.783   7.717   1.495  1.00  0.00    -0.209 NA
ATOM      5  O   UNL     1      -8.274   7.796  -0.623  1.00  0.00    -0.436 OA
ATOM      6  C   UNL     1      -6.871   4.352  -0.659  1.00  0.00     0.063 A 
ATOM      7  C   UNL     1      -8.292   8.463   0.547  1.00  0.00     0.227 A 
ATOM      8  C   UNL     1      -7.412   6.530   0.969  1.00  0.00     0.110 A 
ATOM      9  C   UNL     1      -7.729   6.580  -0.400  1.00  0.00     0.156 A 
ENDROOT
BRANCH   6  10
ATOM     10  C   UNL     1      -6.575   3.190  -1.517  1.00  0.00     0.335 C 
ATOM     11  O   UNL     1      -6.512   3.325  -2.722  1.00  0.00    -0.246 OA
BRANCH  10  12
ATOM     12  O   UNL     1      -6.377   1.977  -0.964  1.00  0.00    -0.478 OA
ATOM     13  H   UNL     1      -7.128   1.369  -0.956  1.00  0.00     0.297 HD
ENDBRANCH  10  12
ENDBRANCH   6  10
BRANCH   7  14
ATOM     14  C   UNL     1      -8.811   9.834   0.734  1.00  0.00     0.040 A 
ATOM     15  C   UNL     1      -9.984  10.047   1.458  1.00  0.00     0.034 A 
ATOM     16  C   UNL     1      -8.129  10.922   0.185  1.00  0.00     0.034 A 
ATOM     17  C   UNL     1     -10.463  11.331   1.631  1.00  0.00     0.043 A 
ATOM     18  C   UNL     1      -8.618  12.201   0.364  1.00  0.00     0.043 A 
ATOM     19  C   UNL     1      -9.782  12.405   1.084  1.00  0.00     0.041 A 
ATOM     20  Cl  UNL     1     -11.922  11.598   2.532  1.00  0.00    -0.084 Cl
ATOM     21  Cl  UNL     1      -7.771  13.555  -0.318  1.00  0.00    -0.084 Cl
ENDBRANCH   7  14
TORSDOF 3
ENDMDL
