MODEL 1
REMARK VINA RESULT:    -5.878      0.000      0.000
REMARK INTER + INTRA:          -8.696
REMARK INTER:                  -8.112
REMARK INTRA:                  -0.584
REMARK UNBOUND:                -0.584
REMARK SMILES Cc1n[nH]c(C)c1CCCOc1cc(C(=O)O)ccc1F
REMARK SMILES IDX 11 1 12 2 14 3 18 4 13 5 19 6 20 7 21 8 15 9 16 10 17 11
REMARK SMILES IDX 10 13 9 14 8 15 7 16 5 17 2 18 4 19 3 20 6 21 1 22
REMARK H PARENT 17 12 4 23
ROOT
ATOM      1  O   UNL     1       0.651  -9.038  -4.109  1.00  0.00    -0.490 OA
ENDROOT
BRANCH   1   2
ATOM      2  C   UNL     1       0.463  -7.920  -3.358  1.00  0.00     0.155 A 
ATOM      3  C   UNL     1      -0.828  -5.968  -2.807  1.00  0.00     0.063 A 
ATOM      4  C   UNL     1       0.094  -5.645  -1.807  1.00  0.00     0.019 A 
ATOM      5  C   UNL     1      -0.636  -7.113  -3.583  1.00  0.00     0.065 A 
ATOM      6  C   UNL     1       1.184  -6.460  -1.586  1.00  0.00     0.044 A 
ATOM      7  C   UNL     1       1.370  -7.597  -2.354  1.00  0.00     0.165 A 
ATOM      8  F   UNL     1       2.441  -8.391  -2.133  1.00  0.00    -0.203 F 
BRANCH   3   9
ATOM      9  C   UNL     1      -1.997  -5.099  -3.045  1.00  0.00     0.335 C 
ATOM     10  O   UNL     1      -2.247  -4.711  -4.168  1.00  0.00    -0.246 OA
BRANCH   9  11
ATOM     11  O   UNL     1      -2.790  -4.740  -2.016  1.00  0.00    -0.478 OA
ATOM     12  H   UNL     1      -3.710  -5.039  -2.047  1.00  0.00     0.297 HD
ENDBRANCH   9  11
ENDBRANCH   3   9
ENDBRANCH   1   2
BRANCH   1  13
ATOM     13  C   UNL     1      -0.492  -9.560  -4.792  1.00  0.00     0.230 C 
BRANCH  13  14
ATOM     14  C   UNL     1      -0.369 -11.080  -4.901  1.00  0.00     0.046 C 
BRANCH  14  15
ATOM     15  C   UNL     1      -1.765 -11.706  -4.897  1.00  0.00     0.043 C 
BRANCH  15  16
ATOM     16  C   UNL     1      -1.826 -12.809  -5.921  1.00  0.00    -0.004 A 
ATOM     17  C   UNL     1      -1.624 -14.127  -5.686  1.00  0.00     0.036 A 
ATOM     18  C   UNL     1      -2.106 -12.654  -7.283  1.00  0.00     0.063 A 
ATOM     19  N   UNL     1      -1.765 -14.781  -6.858  1.00  0.00    -0.282 N 
ATOM     20  N   UNL     1      -2.064 -13.834  -7.846  1.00  0.00    -0.181 NA
ATOM     21  C   UNL     1      -1.299 -14.751  -4.354  1.00  0.00     0.066 C 
ATOM     22  C   UNL     1      -2.396 -11.350  -7.982  1.00  0.00     0.069 C 
ATOM     23  H   UNL     1      -1.675 -15.737  -6.992  1.00  0.00     0.190 HD
ENDBRANCH  15  16
ENDBRANCH  14  15
ENDBRANCH  13  14
ENDBRANCH   1  13
TORSDOF 7
ENDMDL
MODEL 2
REMARK VINA RESULT:    -5.838      2.057      3.554
REMARK INTER + INTRA:          -8.641
REMARK INTER:                  -8.017
REMARK INTRA:                  -0.623
REMARK UNBOUND:                -0.584
REMARK SMILES Cc1n[nH]c(C)c1CCCOc1cc(C(=O)O)ccc1F
REMARK SMILES IDX 11 1 12 2 14 3 18 4 13 5 19 6 20 7 21 8 15 9 16 10 17 11
REMARK SMILES IDX 10 13 9 14 8 15 7 16 5 17 2 18 4 19 3 20 6 21 1 22
REMARK H PARENT 17 12 4 23
ROOT
ATOM      1  O   UNL     1      -1.863  -8.692  -3.326  1.00  0.00    -0.490 OA
ENDROOT
BRANCH   1   2
ATOM      2  C   UNL     1      -0.999  -7.783  -2.800  1.00  0.00     0.155 A 
ATOM      3  C   UNL     1       1.115  -7.259  -1.780  1.00  0.00     0.063 A 
ATOM      4  C   UNL     1       0.756  -5.909  -1.739  1.00  0.00     0.019 A 
ATOM      5  C   UNL     1       0.228  -8.196  -2.314  1.00  0.00     0.065 A 
ATOM      6  C   UNL     1      -0.467  -5.506  -2.232  1.00  0.00     0.044 A 
ATOM      7  C   UNL     1      -1.343  -6.436  -2.766  1.00  0.00     0.165 A 
ATOM      8  F   UNL     1      -2.540  -6.035  -3.247  1.00  0.00    -0.203 F 
BRANCH   3   9
ATOM      9  C   UNL     1       2.423  -7.695  -1.254  1.00  0.00     0.335 C 
ATOM     10  O   UNL     1       2.491  -8.650  -0.508  1.00  0.00    -0.246 OA
BRANCH   9  11
ATOM     11  O   UNL     1       3.544  -7.035  -1.608  1.00  0.00    -0.478 OA
ATOM     12  H   UNL     1       3.440  -6.280  -2.204  1.00  0.00     0.297 HD
ENDBRANCH   9  11
ENDBRANCH   3   9
ENDBRANCH   1   2
BRANCH   1  13
ATOM     13  C   UNL     1      -1.309  -9.935  -3.765  1.00  0.00     0.230 C 
BRANCH  13  14
ATOM     14  C   UNL     1      -1.954 -10.339  -5.092  1.00  0.00     0.046 C 
BRANCH  14  15
ATOM     15  C   UNL     1      -0.950 -11.139  -5.925  1.00  0.00     0.043 C 
BRANCH  15  16
ATOM     16  C   UNL     1      -1.613 -12.385  -6.452  1.00  0.00    -0.004 A 
ATOM     17  C   UNL     1      -2.244 -12.508  -7.643  1.00  0.00     0.036 A 
ATOM     18  C   UNL     1      -1.680 -13.621  -5.800  1.00  0.00     0.063 A 
ATOM     19  N   UNL     1      -2.700 -13.775  -7.738  1.00  0.00    -0.282 N 
ATOM     20  N   UNL     1      -2.337 -14.453  -6.566  1.00  0.00    -0.181 NA
ATOM     21  C   UNL     1      -2.409 -11.425  -8.677  1.00  0.00     0.066 C 
ATOM     22  C   UNL     1      -1.105 -13.936  -4.442  1.00  0.00     0.069 C 
ATOM     23  H   UNL     1      -3.192 -14.150  -8.484  1.00  0.00     0.190 HD
ENDBRANCH  15  16
ENDBRANCH  14  15
ENDBRANCH  13  14
ENDBRANCH   1  13
TORSDOF 7
ENDMDL
MODEL 3
REMARK VINA RESULT:    -5.784      2.125      3.235
REMARK INTER + INTRA:          -8.565
REMARK INTER:                  -8.016
REMARK INTRA:                  -0.549
REMARK UNBOUND:                -0.584
REMARK SMILES Cc1n[nH]c(C)c1CCCOc1cc(C(=O)O)ccc1F
REMARK SMILES IDX 11 1 12 2 14 3 18 4 13 5 19 6 20 7 21 8 15 9 16 10 17 11
REMARK SMILES IDX 10 13 9 14 8 15 7 16 5 17 2 18 4 19 3 20 6 21 1 22
REMARK H PARENT 17 12 4 23
ROOT
ATOM      1  O   UNL     1      -1.725  -8.690  -3.486  1.00  0.00    -0.490 OA
ENDROOT
BRANCH   1   2
ATOM      2  C   UNL     1      -0.914  -7.777  -2.888  1.00  0.00     0.155 A 
ATOM      3  C   UNL     1       1.147  -7.225  -1.778  1.00  0.00     0.063 A 
ATOM      4  C   UNL     1       0.733  -5.894  -1.680  1.00  0.00     0.019 A 
ATOM      5  C   UNL     1       0.314  -8.167  -2.387  1.00  0.00     0.065 A 
ATOM      6  C   UNL     1      -0.491  -5.514  -2.188  1.00  0.00     0.044 A 
ATOM      7  C   UNL     1      -1.313  -6.449  -2.796  1.00  0.00     0.165 A 
ATOM      8  F   UNL     1      -2.512  -6.070  -3.292  1.00  0.00    -0.203 F 
BRANCH   3   9
ATOM      9  C   UNL     1       2.457  -7.636  -1.235  1.00  0.00     0.335 C 
ATOM     10  O   UNL     1       2.530  -8.575  -0.470  1.00  0.00    -0.246 OA
BRANCH   9  11
ATOM     11  O   UNL     1       3.572  -6.972  -1.596  1.00  0.00    -0.478 OA
ATOM     12  H   UNL     1       4.142  -7.394  -2.254  1.00  0.00     0.297 HD
ENDBRANCH   9  11
ENDBRANCH   3   9
ENDBRANCH   1   2
BRANCH   1  13
ATOM     13  C   UNL     1      -1.144  -9.953  -3.821  1.00  0.00     0.230 C 
BRANCH  13  14
ATOM     14  C   UNL     1      -1.945 -10.598  -4.953  1.00  0.00     0.046 C 
BRANCH  14  15
ATOM     15  C   UNL     1      -0.985 -11.142  -6.013  1.00  0.00     0.043 C 
BRANCH  15  16
ATOM     16  C   UNL     1      -1.769 -11.851  -7.086  1.00  0.00    -0.004 A 
ATOM     17  C   UNL     1      -2.112 -13.160  -7.089  1.00  0.00     0.036 A 
ATOM     18  C   UNL     1      -2.278 -11.270  -8.253  1.00  0.00     0.063 A 
ATOM     19  N   UNL     1      -2.807 -13.401  -8.221  1.00  0.00    -0.282 N 
ATOM     20  N   UNL     1      -2.894 -12.200  -8.937  1.00  0.00    -0.181 NA
ATOM     21  C   UNL     1      -1.778 -14.168  -6.021  1.00  0.00     0.066 C 
ATOM     22  C   UNL     1      -2.131  -9.826  -8.658  1.00  0.00     0.069 C 
ATOM     23  H   UNL     1      -3.179 -14.254  -8.492  1.00  0.00     0.190 HD
ENDBRANCH  15  16
ENDBRANCH  14  15
ENDBRANCH  13  14
ENDBRANCH   1  13
TORSDOF 7
ENDMDL
MODEL 4
REMARK VINA RESULT:    -5.783      0.548      1.832
REMARK INTER + INTRA:          -8.565
REMARK INTER:                  -7.990
REMARK INTRA:                  -0.574
REMARK UNBOUND:                -0.584
REMARK SMILES Cc1n[nH]c(C)c1CCCOc1cc(C(=O)O)ccc1F
REMARK SMILES IDX 11 1 12 2 14 3 18 4 13 5 19 6 20 7 21 8 15 9 16 10 17 11
REMARK SMILES IDX 10 13 9 14 8 15 7 16 5 17 2 18 4 19 3 20 6 21 1 22
REMARK H PARENT 17 12 4 23
ROOT
ATOM      1  O   UNL     1       0.788  -8.979  -3.946  1.00  0.00    -0.490 OA
ENDROOT
BRANCH   1   2
ATOM      2  C   UNL     1       0.554  -7.855  -3.218  1.00  0.00     0.155 A 
ATOM      3  C   UNL     1      -0.797  -5.925  -2.733  1.00  0.00     0.063 A 
ATOM      4  C   UNL     1       0.089  -5.567  -1.713  1.00  0.00     0.019 A 
ATOM      5  C   UNL     1      -0.557  -7.077  -3.486  1.00  0.00     0.065 A 
ATOM      6  C   UNL     1       1.191  -6.352  -1.450  1.00  0.00     0.044 A 
ATOM      7  C   UNL     1       1.424  -7.496  -2.194  1.00  0.00     0.165 A 
ATOM      8  F   UNL     1       2.506  -8.262  -1.931  1.00  0.00    -0.203 F 
BRANCH   3   9
ATOM      9  C   UNL     1      -1.978  -5.087  -3.018  1.00  0.00     0.335 C 
ATOM     10  O   UNL     1      -2.217  -4.740  -4.156  1.00  0.00    -0.246 OA
BRANCH   9  11
ATOM     11  O   UNL     1      -2.795  -4.712  -2.014  1.00  0.00    -0.478 OA
ATOM     12  H   UNL     1      -2.421  -4.709  -1.121  1.00  0.00     0.297 HD
ENDBRANCH   9  11
ENDBRANCH   3   9
ENDBRANCH   1   2
BRANCH   1  13
ATOM     13  C   UNL     1      -0.239  -9.391  -4.851  1.00  0.00     0.230 C 
BRANCH  13  14
ATOM     14  C   UNL     1      -0.204 -10.913  -5.002  1.00  0.00     0.046 C 
BRANCH  14  15
ATOM     15  C   UNL     1      -1.617 -11.475  -4.834  1.00  0.00     0.043 C 
BRANCH  15  16
ATOM     16  C   UNL     1      -1.673 -12.873  -5.392  1.00  0.00    -0.004 A 
ATOM     17  C   UNL     1      -1.957 -13.209  -6.672  1.00  0.00     0.036 A 
ATOM     18  C   UNL     1      -1.434 -14.054  -4.680  1.00  0.00     0.063 A 
ATOM     19  N   UNL     1      -1.906 -14.555  -6.765  1.00  0.00    -0.282 N 
ATOM     20  N   UNL     1      -1.580 -15.062  -5.500  1.00  0.00    -0.181 NA
ATOM     21  C   UNL     1      -2.273 -12.253  -7.791  1.00  0.00     0.066 C 
ATOM     22  C   UNL     1      -1.081 -14.148  -3.217  1.00  0.00     0.069 C 
ATOM     23  H   UNL     1      -2.067 -15.078  -7.565  1.00  0.00     0.190 HD
ENDBRANCH  15  16
ENDBRANCH  14  15
ENDBRANCH  13  14
ENDBRANCH   1  13
TORSDOF 7
ENDMDL
MODEL 5
REMARK VINA RESULT:    -5.664      2.006      2.973
REMARK INTER + INTRA:          -8.400
REMARK INTER:                  -8.032
REMARK INTRA:                  -0.368
REMARK UNBOUND:                -0.584
REMARK SMILES Cc1n[nH]c(C)c1CCCOc1cc(C(=O)O)ccc1F
REMARK SMILES IDX 11 1 12 2 14 3 18 4 13 5 19 6 20 7 21 8 15 9 16 10 17 11
REMARK SMILES IDX 10 13 9 14 8 15 7 16 5 17 2 18 4 19 3 20 6 21 1 22
REMARK H PARENT 17 12 4 23
ROOT
ATOM      1  O   UNL     1      -0.615  -8.377  -4.557  1.00  0.00    -0.490 OA
ENDROOT
BRANCH   1   2
ATOM      2  C   UNL     1      -0.178  -7.499  -3.616  1.00  0.00     0.155 A 
ATOM      3  C   UNL     1       1.341  -6.923  -1.843  1.00  0.00     0.063 A 
ATOM      4  C   UNL     1       0.707  -5.685  -1.707  1.00  0.00     0.019 A 
ATOM      5  C   UNL     1       0.891  -7.830  -2.805  1.00  0.00     0.065 A 
ATOM      6  C   UNL     1      -0.355  -5.361  -2.525  1.00  0.00     0.044 A 
ATOM      7  C   UNL     1      -0.796  -6.260  -3.482  1.00  0.00     0.165 A 
ATOM      8  F   UNL     1      -1.837  -5.937  -4.280  1.00  0.00    -0.203 F 
BRANCH   3   9
ATOM      9  C   UNL     1       2.478  -7.273  -0.969  1.00  0.00     0.335 C 
ATOM     10  O   UNL     1       2.443  -6.996   0.212  1.00  0.00    -0.246 OA
BRANCH   9  11
ATOM     11  O   UNL     1       3.551  -7.905  -1.482  1.00  0.00    -0.478 OA
ATOM     12  H   UNL     1       3.603  -7.972  -2.446  1.00  0.00     0.297 HD
ENDBRANCH   9  11
ENDBRANCH   3   9
ENDBRANCH   1   2
BRANCH   1  13
ATOM     13  C   UNL     1      -0.689  -9.753  -4.175  1.00  0.00     0.230 C 
BRANCH  13  14
ATOM     14  C   UNL     1      -0.633 -10.632  -5.426  1.00  0.00     0.046 C 
BRANCH  14  15
ATOM     15  C   UNL     1      -2.042 -11.118  -5.772  1.00  0.00     0.043 C 
BRANCH  15  16
ATOM     16  C   UNL     1      -1.968 -12.505  -6.354  1.00  0.00    -0.004 A 
ATOM     17  C   UNL     1      -1.666 -13.638  -5.678  1.00  0.00     0.036 A 
ATOM     18  C   UNL     1      -2.204 -12.852  -7.689  1.00  0.00     0.063 A 
ATOM     19  N   UNL     1      -1.704 -14.663  -6.554  1.00  0.00    -0.282 N 
ATOM     20  N   UNL     1      -2.040 -14.144  -7.811  1.00  0.00    -0.181 NA
ATOM     21  C   UNL     1      -1.345 -13.736  -4.209  1.00  0.00     0.066 C 
ATOM     22  C   UNL     1      -2.573 -11.899  -8.797  1.00  0.00     0.069 C 
ATOM     23  H   UNL     1      -1.528 -15.595  -6.350  1.00  0.00     0.190 HD
ENDBRANCH  15  16
ENDBRANCH  14  15
ENDBRANCH  13  14
ENDBRANCH   1  13
TORSDOF 7
ENDMDL
MODEL 6
REMARK VINA RESULT:    -5.534      4.335      7.946
REMARK INTER + INTRA:          -8.221
REMARK INTER:                  -7.585
REMARK INTRA:                  -0.636
REMARK UNBOUND:                -0.584
REMARK SMILES Cc1n[nH]c(C)c1CCCOc1cc(C(=O)O)ccc1F
REMARK SMILES IDX 11 1 12 2 14 3 18 4 13 5 19 6 20 7 21 8 15 9 16 10 17 11
REMARK SMILES IDX 10 13 9 14 8 15 7 16 5 17 2 18 4 19 3 20 6 21 1 22
REMARK H PARENT 17 12 4 23
ROOT
ATOM      1  O   UNL     1      -1.166 -10.816  -3.923  1.00  0.00    -0.490 OA
ENDROOT
BRANCH   1   2
ATOM      2  C   UNL     1      -1.322 -12.029  -4.518  1.00  0.00     0.155 A 
ATOM      3  C   UNL     1      -1.910 -13.353  -6.437  1.00  0.00     0.063 A 
ATOM      4  C   UNL     1      -1.624 -14.516  -5.718  1.00  0.00     0.019 A 
ATOM      5  C   UNL     1      -1.756 -12.106  -5.828  1.00  0.00     0.065 A 
ATOM      6  C   UNL     1      -1.186 -14.430  -4.413  1.00  0.00     0.044 A 
ATOM      7  C   UNL     1      -1.029 -13.191  -3.812  1.00  0.00     0.165 A 
ATOM      8  F   UNL     1      -0.599 -13.113  -2.534  1.00  0.00    -0.203 F 
BRANCH   3   9
ATOM      9  C   UNL     1      -2.379 -13.442  -7.834  1.00  0.00     0.335 C 
ATOM     10  O   UNL     1      -2.995 -12.520  -8.328  1.00  0.00    -0.246 OA
BRANCH   9  11
ATOM     11  O   UNL     1      -2.116 -14.544  -8.563  1.00  0.00    -0.478 OA
ATOM     12  H   UNL     1      -1.190 -14.814  -8.633  1.00  0.00     0.297 HD
ENDBRANCH   9  11
ENDBRANCH   3   9
ENDBRANCH   1   2
BRANCH   1  13
ATOM     13  C   UNL     1      -0.918  -9.700  -4.781  1.00  0.00     0.230 C 
BRANCH  13  14
ATOM     14  C   UNL     1       0.023  -8.718  -4.080  1.00  0.00     0.046 C 
BRANCH  14  15
ATOM     15  C   UNL     1      -0.519  -8.400  -2.685  1.00  0.00     0.043 C 
BRANCH  15  16
ATOM     16  C   UNL     1      -0.050  -7.032  -2.263  1.00  0.00    -0.004 A 
ATOM     17  C   UNL     1      -0.748  -5.879  -2.383  1.00  0.00     0.036 A 
ATOM     18  C   UNL     1       1.182  -6.730  -1.672  1.00  0.00     0.063 A 
ATOM     19  N   UNL     1       0.018  -4.881  -1.892  1.00  0.00    -0.282 N 
ATOM     20  N   UNL     1       1.226  -5.440  -1.456  1.00  0.00    -0.181 NA
ATOM     21  C   UNL     1      -2.131  -5.734  -2.961  1.00  0.00     0.066 C 
ATOM     22  C   UNL     1       2.275  -7.718  -1.352  1.00  0.00     0.069 C 
ATOM     23  H   UNL     1      -0.225  -3.944  -1.849  1.00  0.00     0.190 HD
ENDBRANCH  15  16
ENDBRANCH  14  15
ENDBRANCH  13  14
ENDBRANCH   1  13
TORSDOF 7
ENDMDL
MODEL 7
REMARK VINA RESULT:    -5.510      4.334      7.779
REMARK INTER + INTRA:          -8.188
REMARK INTER:                  -7.560
REMARK INTRA:                  -0.628
REMARK UNBOUND:                -0.584
REMARK SMILES Cc1n[nH]c(C)c1CCCOc1cc(C(=O)O)ccc1F
REMARK SMILES IDX 11 1 12 2 14 3 18 4 13 5 19 6 20 7 21 8 15 9 16 10 17 11
REMARK SMILES IDX 10 13 9 14 8 15 7 16 5 17 2 18 4 19 3 20 6 21 1 22
REMARK H PARENT 17 12 4 23
ROOT
ATOM      1  O   UNL     1      -1.196 -10.738  -3.987  1.00  0.00    -0.490 OA
ENDROOT
BRANCH   1   2
ATOM      2  C   UNL     1      -1.368 -11.917  -4.643  1.00  0.00     0.155 A 
ATOM      3  C   UNL     1      -1.955 -13.132  -6.633  1.00  0.00     0.063 A 
ATOM      4  C   UNL     1      -1.703 -14.335  -5.968  1.00  0.00     0.019 A 
ATOM      5  C   UNL     1      -1.784 -11.920  -5.961  1.00  0.00     0.065 A 
ATOM      6  C   UNL     1      -1.283 -14.322  -4.654  1.00  0.00     0.044 A 
ATOM      7  C   UNL     1      -1.109 -13.118  -3.992  1.00  0.00     0.165 A 
ATOM      8  F   UNL     1      -0.697 -13.111  -2.705  1.00  0.00    -0.203 F 
BRANCH   3   9
ATOM      9  C   UNL     1      -2.405 -13.143  -8.038  1.00  0.00     0.335 C 
ATOM     10  O   UNL     1      -2.290 -14.151  -8.705  1.00  0.00    -0.246 OA
BRANCH   9  11
ATOM     11  O   UNL     1      -2.950 -12.036  -8.580  1.00  0.00    -0.478 OA
ATOM     12  H   UNL     1      -2.723 -11.839  -9.499  1.00  0.00     0.297 HD
ENDBRANCH   9  11
ENDBRANCH   3   9
ENDBRANCH   1   2
BRANCH   1  13
ATOM     13  C   UNL     1      -0.943  -9.581  -4.788  1.00  0.00     0.230 C 
BRANCH  13  14
ATOM     14  C   UNL     1       0.041  -8.663  -4.060  1.00  0.00     0.046 C 
BRANCH  14  15
ATOM     15  C   UNL     1      -0.488  -8.359  -2.657  1.00  0.00     0.043 C 
BRANCH  15  16
ATOM     16  C   UNL     1      -0.025  -6.990  -2.230  1.00  0.00    -0.004 A 
ATOM     17  C   UNL     1       1.164  -6.695  -1.656  1.00  0.00     0.036 A 
ATOM     18  C   UNL     1      -0.746  -5.799  -2.364  1.00  0.00     0.063 A 
ATOM     19  N   UNL     1       1.192  -5.365  -1.428  1.00  0.00    -0.282 N 
ATOM     20  N   UNL     1      -0.021  -4.825  -1.877  1.00  0.00    -0.181 NA
ATOM     21  C   UNL     1       2.260  -7.675  -1.330  1.00  0.00     0.066 C 
ATOM     22  C   UNL     1      -2.126  -5.662  -2.956  1.00  0.00     0.069 C 
ATOM     23  H   UNL     1       1.921  -4.871  -1.024  1.00  0.00     0.190 HD
ENDBRANCH  15  16
ENDBRANCH  14  15
ENDBRANCH  13  14
ENDBRANCH   1  13
TORSDOF 7
ENDMDL
MODEL 8
REMARK VINA RESULT:    -5.485      4.481      8.168
REMARK INTER + INTRA:          -8.153
REMARK INTER:                  -7.552
REMARK INTRA:                  -0.601
REMARK UNBOUND:                -0.584
REMARK SMILES Cc1n[nH]c(C)c1CCCOc1cc(C(=O)O)ccc1F
REMARK SMILES IDX 11 1 12 2 14 3 18 4 13 5 19 6 20 7 21 8 15 9 16 10 17 11
REMARK SMILES IDX 10 13 9 14 8 15 7 16 5 17 2 18 4 19 3 20 6 21 1 22
REMARK H PARENT 17 12 4 23
ROOT
ATOM      1  O   UNL     1      -1.204  -9.595  -5.607  1.00  0.00    -0.490 OA
ENDROOT
BRANCH   1   2
ATOM      2  C   UNL     1      -1.594 -10.533  -6.511  1.00  0.00     0.155 A 
ATOM      3  C   UNL     1      -1.972 -12.833  -7.102  1.00  0.00     0.063 A 
ATOM      4  C   UNL     1      -2.405 -12.432  -8.369  1.00  0.00     0.019 A 
ATOM      5  C   UNL     1      -1.566 -11.873  -6.173  1.00  0.00     0.065 A 
ATOM      6  C   UNL     1      -2.436 -11.093  -8.695  1.00  0.00     0.044 A 
ATOM      7  C   UNL     1      -2.037 -10.142  -7.770  1.00  0.00     0.165 A 
ATOM      8  F   UNL     1      -2.070  -8.831  -8.096  1.00  0.00    -0.203 F 
BRANCH   3   9
ATOM      9  C   UNL     1      -1.938 -14.266  -6.750  1.00  0.00     0.335 C 
ATOM     10  O   UNL     1      -2.045 -14.609  -5.590  1.00  0.00    -0.246 OA
BRANCH   9  11
ATOM     11  O   UNL     1      -1.795 -15.194  -7.716  1.00  0.00    -0.478 OA
ATOM     12  H   UNL     1      -2.473 -15.881  -7.770  1.00  0.00     0.297 HD
ENDBRANCH   9  11
ENDBRANCH   3   9
ENDBRANCH   1   2
BRANCH   1  13
ATOM     13  C   UNL     1      -1.042 -10.027  -4.254  1.00  0.00     0.230 C 
BRANCH  13  14
ATOM     14  C   UNL     1      -1.096  -8.814  -3.323  1.00  0.00     0.046 C 
BRANCH  14  15
ATOM     15  C   UNL     1      -0.121  -7.745  -3.821  1.00  0.00     0.043 C 
BRANCH  15  16
ATOM     16  C   UNL     1       0.151  -6.758  -2.716  1.00  0.00    -0.004 A 
ATOM     17  C   UNL     1      -0.603  -5.677  -2.409  1.00  0.00     0.036 A 
ATOM     18  C   UNL     1       1.225  -6.801  -1.820  1.00  0.00     0.063 A 
ATOM     19  N   UNL     1      -0.023  -5.054  -1.361  1.00  0.00    -0.282 N 
ATOM     20  N   UNL     1       1.126  -5.777  -1.013  1.00  0.00    -0.181 NA
ATOM     21  C   UNL     1      -1.864  -5.247  -3.111  1.00  0.00     0.066 C 
ATOM     22  C   UNL     1       2.317  -7.841  -1.798  1.00  0.00     0.069 C 
ATOM     23  H   UNL     1      -0.345  -4.249  -0.927  1.00  0.00     0.190 HD
ENDBRANCH  15  16
ENDBRANCH  14  15
ENDBRANCH  13  14
ENDBRANCH   1  13
TORSDOF 7
ENDMDL
MODEL 9
REMARK VINA RESULT:    -5.456      4.476      8.003
REMARK INTER + INTRA:          -8.113
REMARK INTER:                  -7.493
REMARK INTRA:                  -0.620
REMARK UNBOUND:                -0.584
REMARK SMILES Cc1n[nH]c(C)c1CCCOc1cc(C(=O)O)ccc1F
REMARK SMILES IDX 11 1 12 2 14 3 18 4 13 5 19 6 20 7 21 8 15 9 16 10 17 11
REMARK SMILES IDX 10 13 9 14 8 15 7 16 5 17 2 18 4 19 3 20 6 21 1 22
REMARK H PARENT 17 12 4 23
ROOT
ATOM      1  O   UNL     1      -1.196  -9.642  -5.501  1.00  0.00    -0.490 OA
ENDROOT
BRANCH   1   2
ATOM      2  C   UNL     1      -1.594 -10.534  -6.447  1.00  0.00     0.155 A 
ATOM      3  C   UNL     1      -2.033 -12.797  -7.130  1.00  0.00     0.063 A 
ATOM      4  C   UNL     1      -2.422 -12.337  -8.391  1.00  0.00     0.019 A 
ATOM      5  C   UNL     1      -1.618 -11.885  -6.158  1.00  0.00     0.065 A 
ATOM      6  C   UNL     1      -2.401 -10.987  -8.669  1.00  0.00     0.044 A 
ATOM      7  C   UNL     1      -1.994 -10.084  -7.701  1.00  0.00     0.165 A 
ATOM      8  F   UNL     1      -1.975  -8.762  -7.980  1.00  0.00    -0.203 F 
BRANCH   3   9
ATOM      9  C   UNL     1      -2.055 -14.242  -6.830  1.00  0.00     0.335 C 
ATOM     10  O   UNL     1      -2.383 -14.628  -5.726  1.00  0.00    -0.246 OA
BRANCH   9  11
ATOM     11  O   UNL     1      -1.717 -15.133  -7.782  1.00  0.00    -0.478 OA
ATOM     12  H   UNL     1      -2.421 -15.426  -8.379  1.00  0.00     0.297 HD
ENDBRANCH   9  11
ENDBRANCH   3   9
ENDBRANCH   1   2
BRANCH   1  13
ATOM     13  C   UNL     1      -0.860 -10.169  -4.215  1.00  0.00     0.230 C 
BRANCH  13  14
ATOM     14  C   UNL     1      -0.831  -9.032  -3.192  1.00  0.00     0.046 C 
BRANCH  14  15
ATOM     15  C   UNL     1      -0.034  -7.855  -3.759  1.00  0.00     0.043 C 
BRANCH  15  16
ATOM     16  C   UNL     1       0.204  -6.839  -2.672  1.00  0.00    -0.004 A 
ATOM     17  C   UNL     1       1.245  -6.827  -1.807  1.00  0.00     0.036 A 
ATOM     18  C   UNL     1      -0.608  -5.737  -2.383  1.00  0.00     0.063 A 
ATOM     19  N   UNL     1       1.093  -5.759  -0.996  1.00  0.00    -0.282 N 
ATOM     20  N   UNL     1      -0.080  -5.093  -1.374  1.00  0.00    -0.181 NA
ATOM     21  C   UNL     1       2.372  -7.825  -1.759  1.00  0.00     0.066 C 
ATOM     22  C   UNL     1      -1.879  -5.364  -3.102  1.00  0.00     0.069 C 
ATOM     23  H   UNL     1       1.690  -5.499  -0.277  1.00  0.00     0.190 HD
ENDBRANCH  15  16
ENDBRANCH  14  15
ENDBRANCH  13  14
ENDBRANCH   1  13
TORSDOF 7
ENDMDL
