MODEL 1
REMARK VINA RESULT:    -5.810      0.000      0.000
REMARK INTER + INTRA:          -6.945
REMARK INTER:                  -6.659
REMARK INTRA:                  -0.287
REMARK UNBOUND:                -0.287
REMARK SMILES O=C(O)c1ccc2nc(-c3cc(Cl)cc(Cl)c3)oc2c1
REMARK SMILES IDX 5 1 6 2 20 3 8 4 18 5 4 6 9 7 7 8 19 9 2 10 1 11 3 12 10 14
REMARK SMILES IDX 11 15 17 16 12 17 15 18 14 19 13 20 16 21
REMARK H PARENT 3 13
ROOT
ATOM      1  C   UNL     1      -0.183  -7.583  -1.466  1.00  0.00     0.018 A 
ATOM      2  C   UNL     1      -1.199  -8.114  -2.204  1.00  0.00     0.033 A 
ATOM      3  C   UNL     1       1.451  -8.567  -2.963  1.00  0.00     0.065 A 
ATOM      4  N   UNL     1      -1.683  -9.526  -4.242  1.00  0.00    -0.209 NA
ATOM      5  O   UNL     1       0.383  -9.879  -4.824  1.00  0.00    -0.436 OA
ATOM      6  C   UNL     1       1.151  -7.800  -1.836  1.00  0.00     0.063 A 
ATOM      7  C   UNL     1      -0.909 -10.112  -5.121  1.00  0.00     0.227 A 
ATOM      8  C   UNL     1      -0.913  -8.885  -3.337  1.00  0.00     0.110 A 
ATOM      9  C   UNL     1       0.423  -9.112  -3.711  1.00  0.00     0.156 A 
ENDROOT
BRANCH   6  10
ATOM     10  C   UNL     1       2.241  -7.216  -1.034  1.00  0.00     0.335 C 
ATOM     11  O   UNL     1       1.998  -6.711   0.044  1.00  0.00    -0.246 OA
BRANCH  10  12
ATOM     12  O   UNL     1       3.507  -7.239  -1.497  1.00  0.00    -0.478 OA
ATOM     13  H   UNL     1       3.629  -7.455  -2.431  1.00  0.00     0.297 HD
ENDBRANCH  10  12
ENDBRANCH   6  10
BRANCH   7  14
ATOM     14  C   UNL     1      -1.384 -10.912  -6.268  1.00  0.00     0.040 A 
ATOM     15  C   UNL     1      -1.559 -10.313  -7.516  1.00  0.00     0.034 A 
ATOM     16  C   UNL     1      -1.662 -12.272  -6.107  1.00  0.00     0.034 A 
ATOM     17  C   UNL     1      -2.003 -11.067  -8.585  1.00  0.00     0.043 A 
ATOM     18  C   UNL     1      -2.105 -13.014  -7.183  1.00  0.00     0.043 A 
ATOM     19  C   UNL     1      -2.276 -12.414  -8.419  1.00  0.00     0.041 A 
ATOM     20  Cl  UNL     1      -2.220 -10.324 -10.139  1.00  0.00    -0.084 Cl
ATOM     21  Cl  UNL     1      -2.450 -14.705  -6.986  1.00  0.00    -0.084 Cl
ENDBRANCH   7  14
TORSDOF 3
ENDMDL
MODEL 2
REMARK VINA RESULT:    -5.809      0.016      2.019
REMARK INTER + INTRA:          -6.944
REMARK INTER:                  -6.657
REMARK INTRA:                  -0.287
REMARK UNBOUND:                -0.287
REMARK SMILES O=C(O)c1ccc2nc(-c3cc(Cl)cc(Cl)c3)oc2c1
REMARK SMILES IDX 5 1 6 2 20 3 8 4 18 5 4 6 9 7 7 8 19 9 2 10 1 11 3 12 10 14
REMARK SMILES IDX 11 15 17 16 12 17 15 18 14 19 13 20 16 21
REMARK H PARENT 3 13
ROOT
ATOM      1  C   UNL     1      -0.181  -7.557  -1.472  1.00  0.00     0.018 A 
ATOM      2  C   UNL     1      -1.197  -8.086  -2.210  1.00  0.00     0.033 A 
ATOM      3  C   UNL     1       1.452  -8.557  -2.960  1.00  0.00     0.065 A 
ATOM      4  N   UNL     1      -1.683  -9.505  -4.243  1.00  0.00    -0.209 NA
ATOM      5  O   UNL     1       0.384  -9.871  -4.818  1.00  0.00    -0.436 OA
ATOM      6  C   UNL     1       1.153  -7.783  -1.837  1.00  0.00     0.063 A 
ATOM      7  C   UNL     1      -0.909 -10.099  -5.118  1.00  0.00     0.227 A 
ATOM      8  C   UNL     1      -0.912  -8.865  -3.339  1.00  0.00     0.110 A 
ATOM      9  C   UNL     1       0.424  -9.100  -3.709  1.00  0.00     0.156 A 
ENDROOT
BRANCH   6  10
ATOM     10  C   UNL     1       2.244  -7.200  -1.035  1.00  0.00     0.335 C 
ATOM     11  O   UNL     1       2.002  -6.698   0.045  1.00  0.00    -0.246 OA
BRANCH  10  12
ATOM     12  O   UNL     1       3.509  -7.223  -1.498  1.00  0.00    -0.478 OA
ATOM     13  H   UNL     1       3.842  -8.070  -1.825  1.00  0.00     0.297 HD
ENDBRANCH  10  12
ENDBRANCH   6  10
BRANCH   7  14
ATOM     14  C   UNL     1      -1.385 -10.902  -6.263  1.00  0.00     0.040 A 
ATOM     15  C   UNL     1      -1.660 -12.261  -6.101  1.00  0.00     0.034 A 
ATOM     16  C   UNL     1      -1.562 -10.304  -7.512  1.00  0.00     0.034 A 
ATOM     17  C   UNL     1      -2.106 -13.005  -7.175  1.00  0.00     0.043 A 
ATOM     18  C   UNL     1      -2.008 -11.059  -8.579  1.00  0.00     0.043 A 
ATOM     19  C   UNL     1      -2.278 -12.406  -8.411  1.00  0.00     0.041 A 
ATOM     20  Cl  UNL     1      -2.448 -14.695  -6.976  1.00  0.00    -0.084 Cl
ATOM     21  Cl  UNL     1      -2.228 -10.317 -10.133  1.00  0.00    -0.084 Cl
ENDBRANCH   7  14
TORSDOF 3
ENDMDL
MODEL 3
REMARK VINA RESULT:    -5.792      2.716      3.932
REMARK INTER + INTRA:          -6.925
REMARK INTER:                  -6.639
REMARK INTRA:                  -0.287
REMARK UNBOUND:                -0.287
REMARK SMILES O=C(O)c1ccc2nc(-c3cc(Cl)cc(Cl)c3)oc2c1
REMARK SMILES IDX 5 1 6 2 20 3 8 4 18 5 4 6 9 7 7 8 19 9 2 10 1 11 3 12 10 14
REMARK SMILES IDX 11 15 17 16 12 17 15 18 14 19 13 20 16 21
REMARK H PARENT 3 13
ROOT
ATOM      1  C   UNL     1       0.217  -6.286  -3.684  1.00  0.00     0.018 A 
ATOM      2  C   UNL     1       0.683  -7.492  -4.114  1.00  0.00     0.033 A 
ATOM      3  C   UNL     1      -1.977  -7.245  -3.299  1.00  0.00     0.065 A 
ATOM      4  N   UNL     1      -0.002  -9.891  -4.515  1.00  0.00    -0.209 NA
ATOM      5  O   UNL     1      -2.074  -9.689  -3.882  1.00  0.00    -0.436 OA
ATOM      6  C   UNL     1      -1.115  -6.147  -3.270  1.00  0.00     0.063 A 
ATOM      7  C   UNL     1      -1.134 -10.530  -4.354  1.00  0.00     0.227 A 
ATOM      8  C   UNL     1      -0.170  -8.602  -4.148  1.00  0.00     0.110 A 
ATOM      9  C   UNL     1      -1.509  -8.470  -3.739  1.00  0.00     0.156 A 
ENDROOT
BRANCH   6  10
ATOM     10  C   UNL     1      -1.607  -4.839  -2.801  1.00  0.00     0.335 C 
ATOM     11  O   UNL     1      -0.914  -3.849  -2.926  1.00  0.00    -0.246 OA
BRANCH  10  12
ATOM     12  O   UNL     1      -2.825  -4.741  -2.232  1.00  0.00    -0.478 OA
ATOM     13  H   UNL     1      -2.941  -5.157  -1.368  1.00  0.00     0.297 HD
ENDBRANCH  10  12
ENDBRANCH   6  10
BRANCH   7  14
ATOM     14  C   UNL     1      -1.347 -11.962  -4.648  1.00  0.00     0.040 A 
ATOM     15  C   UNL     1      -1.274 -12.907  -3.624  1.00  0.00     0.034 A 
ATOM     16  C   UNL     1      -1.622 -12.375  -5.954  1.00  0.00     0.034 A 
ATOM     17  C   UNL     1      -1.476 -14.243  -3.906  1.00  0.00     0.043 A 
ATOM     18  C   UNL     1      -1.822 -13.714  -6.223  1.00  0.00     0.043 A 
ATOM     19  C   UNL     1      -1.748 -14.647  -5.202  1.00  0.00     0.041 A 
ATOM     20  Cl  UNL     1      -1.386 -15.420  -2.633  1.00  0.00    -0.084 Cl
ATOM     21  Cl  UNL     1      -2.164 -14.230  -7.845  1.00  0.00    -0.084 Cl
ENDBRANCH   7  14
TORSDOF 3
ENDMDL
MODEL 4
REMARK VINA RESULT:    -5.790      2.709      3.525
REMARK INTER + INTRA:          -6.923
REMARK INTER:                  -6.637
REMARK INTRA:                  -0.286
REMARK UNBOUND:                -0.287
REMARK SMILES O=C(O)c1ccc2nc(-c3cc(Cl)cc(Cl)c3)oc2c1
REMARK SMILES IDX 5 1 6 2 20 3 8 4 18 5 4 6 9 7 7 8 19 9 2 10 1 11 3 12 10 14
REMARK SMILES IDX 11 15 17 16 12 17 15 18 14 19 13 20 16 21
REMARK H PARENT 3 13
ROOT
ATOM      1  C   UNL     1       0.228  -6.298  -3.651  1.00  0.00     0.018 A 
ATOM      2  C   UNL     1       0.696  -7.506  -4.074  1.00  0.00     0.033 A 
ATOM      3  C   UNL     1      -1.977  -7.247  -3.306  1.00  0.00     0.065 A 
ATOM      4  N   UNL     1       0.007  -9.901  -4.489  1.00  0.00    -0.209 NA
ATOM      5  O   UNL     1      -2.075  -9.690  -3.894  1.00  0.00    -0.436 OA
ATOM      6  C   UNL     1      -1.111  -6.153  -3.261  1.00  0.00     0.063 A 
ATOM      7  C   UNL     1      -1.131 -10.535  -4.350  1.00  0.00     0.227 A 
ATOM      8  C   UNL     1      -0.161  -8.612  -4.124  1.00  0.00     0.110 A 
ATOM      9  C   UNL     1      -1.507  -8.473  -3.739  1.00  0.00     0.156 A 
ENDROOT
BRANCH   6  10
ATOM     10  C   UNL     1      -1.605  -4.843  -2.800  1.00  0.00     0.335 C 
ATOM     11  O   UNL     1      -0.913  -3.853  -2.931  1.00  0.00    -0.246 OA
BRANCH  10  12
ATOM     12  O   UNL     1      -2.823  -4.744  -2.232  1.00  0.00    -0.478 OA
ATOM     13  H   UNL     1      -3.311  -3.922  -2.380  1.00  0.00     0.297 HD
ENDBRANCH  10  12
ENDBRANCH   6  10
BRANCH   7  14
ATOM     14  C   UNL     1      -1.345 -11.965  -4.649  1.00  0.00     0.040 A 
ATOM     15  C   UNL     1      -1.626 -12.374  -5.954  1.00  0.00     0.034 A 
ATOM     16  C   UNL     1      -1.269 -12.914  -3.627  1.00  0.00     0.034 A 
ATOM     17  C   UNL     1      -1.824 -13.713  -6.227  1.00  0.00     0.043 A 
ATOM     18  C   UNL     1      -1.470 -14.250  -3.913  1.00  0.00     0.043 A 
ATOM     19  C   UNL     1      -1.747 -14.649  -5.209  1.00  0.00     0.041 A 
ATOM     20  Cl  UNL     1      -2.172 -14.224  -7.849  1.00  0.00    -0.084 Cl
ATOM     21  Cl  UNL     1      -1.375 -15.431  -2.644  1.00  0.00    -0.084 Cl
ENDBRANCH   7  14
TORSDOF 3
ENDMDL
MODEL 5
REMARK VINA RESULT:    -5.584      1.654      1.937
REMARK INTER + INTRA:          -6.686
REMARK INTER:                  -6.391
REMARK INTRA:                  -0.296
REMARK UNBOUND:                -0.287
REMARK SMILES O=C(O)c1ccc2nc(-c3cc(Cl)cc(Cl)c3)oc2c1
REMARK SMILES IDX 5 1 6 2 20 3 8 4 18 5 4 6 9 7 7 8 19 9 2 10 1 11 3 12 10 14
REMARK SMILES IDX 11 15 17 16 12 17 15 18 14 19 13 20 16 21
REMARK H PARENT 3 13
ROOT
ATOM      1  C   UNL     1       0.200  -6.076  -3.257  1.00  0.00     0.018 A 
ATOM      2  C   UNL     1      -0.262  -6.748  -4.349  1.00  0.00     0.033 A 
ATOM      3  C   UNL     1       0.335  -8.150  -2.008  1.00  0.00     0.065 A 
ATOM      4  N   UNL     1      -0.867  -9.053  -5.189  1.00  0.00    -0.209 NA
ATOM      5  O   UNL     1      -0.404 -10.137  -3.360  1.00  0.00    -0.436 OA
ATOM      6  C   UNL     1       0.506  -6.767  -2.076  1.00  0.00     0.063 A 
ATOM      7  C   UNL     1      -0.844 -10.237  -4.629  1.00  0.00     0.227 A 
ATOM      8  C   UNL     1      -0.437  -8.137  -4.295  1.00  0.00     0.110 A 
ATOM      9  C   UNL     1      -0.137  -8.835  -3.112  1.00  0.00     0.156 A 
ENDROOT
BRANCH   6  10
ATOM     10  C   UNL     1       1.010  -6.030  -0.903  1.00  0.00     0.335 C 
ATOM     11  O   UNL     1       0.691  -4.870  -0.731  1.00  0.00    -0.246 OA
BRANCH  10  12
ATOM     12  O   UNL     1       1.826  -6.641  -0.022  1.00  0.00    -0.478 OA
ATOM     13  H   UNL     1       2.533  -7.190  -0.387  1.00  0.00     0.297 HD
ENDBRANCH  10  12
ENDBRANCH   6  10
BRANCH   7  14
ATOM     14  C   UNL     1      -1.243 -11.496  -5.292  1.00  0.00     0.040 A 
ATOM     15  C   UNL     1      -1.731 -11.475  -6.599  1.00  0.00     0.034 A 
ATOM     16  C   UNL     1      -1.134 -12.710  -4.612  1.00  0.00     0.034 A 
ATOM     17  C   UNL     1      -2.101 -12.655  -7.213  1.00  0.00     0.043 A 
ATOM     18  C   UNL     1      -1.508 -13.883  -5.236  1.00  0.00     0.043 A 
ATOM     19  C   UNL     1      -1.991 -13.857  -6.533  1.00  0.00     0.041 A 
ATOM     20  Cl  UNL     1      -2.707 -12.633  -8.839  1.00  0.00    -0.084 Cl
ATOM     21  Cl  UNL     1      -1.373 -15.395  -4.393  1.00  0.00    -0.084 Cl
ENDBRANCH   7  14
TORSDOF 3
ENDMDL
MODEL 6
REMARK VINA RESULT:    -5.582      1.659      2.718
REMARK INTER + INTRA:          -6.684
REMARK INTER:                  -6.389
REMARK INTRA:                  -0.296
REMARK UNBOUND:                -0.287
REMARK SMILES O=C(O)c1ccc2nc(-c3cc(Cl)cc(Cl)c3)oc2c1
REMARK SMILES IDX 5 1 6 2 20 3 8 4 18 5 4 6 9 7 7 8 19 9 2 10 1 11 3 12 10 14
REMARK SMILES IDX 11 15 17 16 12 17 15 18 14 19 13 20 16 21
REMARK H PARENT 3 13
ROOT
ATOM      1  C   UNL     1       0.203  -6.081  -3.266  1.00  0.00     0.018 A 
ATOM      2  C   UNL     1      -0.256  -6.756  -4.358  1.00  0.00     0.033 A 
ATOM      3  C   UNL     1       0.328  -8.150  -2.009  1.00  0.00     0.065 A 
ATOM      4  N   UNL     1      -0.861  -9.062  -5.192  1.00  0.00    -0.209 NA
ATOM      5  O   UNL     1      -0.409 -10.141  -3.357  1.00  0.00    -0.436 OA
ATOM      6  C   UNL     1       0.502  -6.767  -2.081  1.00  0.00     0.063 A 
ATOM      7  C   UNL     1      -0.843 -10.244  -4.627  1.00  0.00     0.227 A 
ATOM      8  C   UNL     1      -0.434  -8.143  -4.299  1.00  0.00     0.110 A 
ATOM      9  C   UNL     1      -0.141  -8.839  -3.113  1.00  0.00     0.156 A 
ENDROOT
BRANCH   6  10
ATOM     10  C   UNL     1       1.002  -6.027  -0.909  1.00  0.00     0.335 C 
ATOM     11  O   UNL     1       0.683  -4.867  -0.741  1.00  0.00    -0.246 OA
BRANCH  10  12
ATOM     12  O   UNL     1       1.816  -6.636  -0.023  1.00  0.00    -0.478 OA
ATOM     13  H   UNL     1       1.480  -7.436   0.403  1.00  0.00     0.297 HD
ENDBRANCH  10  12
ENDBRANCH   6  10
BRANCH   7  14
ATOM     14  C   UNL     1      -1.242 -11.504  -5.287  1.00  0.00     0.040 A 
ATOM     15  C   UNL     1      -1.135 -12.717  -4.606  1.00  0.00     0.034 A 
ATOM     16  C   UNL     1      -1.727 -11.486  -6.597  1.00  0.00     0.034 A 
ATOM     17  C   UNL     1      -1.511 -13.892  -5.228  1.00  0.00     0.043 A 
ATOM     18  C   UNL     1      -2.099 -12.667  -7.208  1.00  0.00     0.043 A 
ATOM     19  C   UNL     1      -1.991 -13.867  -6.526  1.00  0.00     0.041 A 
ATOM     20  Cl  UNL     1      -1.379 -15.401  -4.382  1.00  0.00    -0.084 Cl
ATOM     21  Cl  UNL     1      -2.703 -12.646  -8.836  1.00  0.00    -0.084 Cl
ENDBRANCH   7  14
TORSDOF 3
ENDMDL
MODEL 7
REMARK VINA RESULT:    -5.561      1.860      2.157
REMARK INTER + INTRA:          -6.660
REMARK INTER:                  -6.363
REMARK INTRA:                  -0.297
REMARK UNBOUND:                -0.287
REMARK SMILES O=C(O)c1ccc2nc(-c3cc(Cl)cc(Cl)c3)oc2c1
REMARK SMILES IDX 5 1 6 2 20 3 8 4 18 5 4 6 9 7 7 8 19 9 2 10 1 11 3 12 10 14
REMARK SMILES IDX 11 15 17 16 12 17 15 18 14 19 13 20 16 21
REMARK H PARENT 3 13
ROOT
ATOM      1  C   UNL     1       0.218  -7.121  -1.424  1.00  0.00     0.018 A 
ATOM      2  C   UNL     1       0.094  -8.462  -1.637  1.00  0.00     0.033 A 
ATOM      3  C   UNL     1      -0.593  -6.667  -3.664  1.00  0.00     0.065 A 
ATOM      4  N   UNL     1      -0.598 -10.172  -3.362  1.00  0.00    -0.209 NA
ATOM      5  O   UNL     1      -1.127  -8.768  -4.938  1.00  0.00    -0.436 OA
ATOM      6  C   UNL     1      -0.125  -6.208  -2.432  1.00  0.00     0.063 A 
ATOM      7  C   UNL     1      -1.044 -10.066  -4.589  1.00  0.00     0.227 A 
ATOM      8  C   UNL     1      -0.374  -8.935  -2.868  1.00  0.00     0.110 A 
ATOM      9  C   UNL     1      -0.716  -8.027  -3.885  1.00  0.00     0.156 A 
ENDROOT
BRANCH   6  10
ATOM     10  C   UNL     1       0.007  -4.761  -2.188  1.00  0.00     0.335 C 
ATOM     11  O   UNL     1      -0.628  -3.972  -2.858  1.00  0.00    -0.246 OA
BRANCH  10  12
ATOM     12  O   UNL     1       0.834  -4.312  -1.223  1.00  0.00    -0.478 OA
ATOM     13  H   UNL     1       1.721  -4.041  -1.496  1.00  0.00     0.297 HD
ENDBRANCH  10  12
ENDBRANCH   6  10
BRANCH   7  14
ATOM     14  C   UNL     1      -1.403 -11.203  -5.461  1.00  0.00     0.040 A 
ATOM     15  C   UNL     1      -1.812 -10.977  -6.776  1.00  0.00     0.034 A 
ATOM     16  C   UNL     1      -1.336 -12.509  -4.972  1.00  0.00     0.034 A 
ATOM     17  C   UNL     1      -2.145 -12.044  -7.587  1.00  0.00     0.043 A 
ATOM     18  C   UNL     1      -1.671 -13.568  -5.792  1.00  0.00     0.043 A 
ATOM     19  C   UNL     1      -2.076 -13.337  -7.095  1.00  0.00     0.041 A 
ATOM     20  Cl  UNL     1      -2.653 -11.765  -9.223  1.00  0.00    -0.084 Cl
ATOM     21  Cl  UNL     1      -1.588 -15.193  -5.186  1.00  0.00    -0.084 Cl
ENDBRANCH   7  14
TORSDOF 3
ENDMDL
MODEL 8
REMARK VINA RESULT:    -5.344      3.979      7.489
REMARK INTER + INTRA:          -6.412
REMARK INTER:                  -6.122
REMARK INTRA:                  -0.290
REMARK UNBOUND:                -0.287
REMARK SMILES O=C(O)c1ccc2nc(-c3cc(Cl)cc(Cl)c3)oc2c1
REMARK SMILES IDX 5 1 6 2 20 3 8 4 18 5 4 6 9 7 7 8 19 9 2 10 1 11 3 12 10 14
REMARK SMILES IDX 11 15 17 16 12 17 15 18 14 19 13 20 16 21
REMARK H PARENT 3 13
ROOT
ATOM      1  C   UNL     1      -2.050 -12.824  -7.110  1.00  0.00     0.018 A 
ATOM      2  C   UNL     1      -1.945 -11.470  -7.003  1.00  0.00     0.033 A 
ATOM      3  C   UNL     1      -1.206 -13.092  -4.852  1.00  0.00     0.065 A 
ATOM      4  N   UNL     1      -1.255  -9.621  -5.425  1.00  0.00    -0.209 NA
ATOM      5  O   UNL     1      -0.677 -10.892  -3.756  1.00  0.00    -0.436 OA
ATOM      6  C   UNL     1      -1.685 -13.651  -6.038  1.00  0.00     0.063 A 
ATOM      7  C   UNL     1      -0.787  -9.626  -4.201  1.00  0.00     0.227 A 
ATOM      8  C   UNL     1      -1.466 -10.895  -5.819  1.00  0.00     0.110 A 
ATOM      9  C   UNL     1      -1.093 -11.718  -4.741  1.00  0.00     0.156 A 
ENDROOT
BRANCH   6  10
ATOM     10  C   UNL     1      -1.809 -15.115  -6.163  1.00  0.00     0.335 C 
ATOM     11  O   UNL     1      -0.984 -15.840  -5.645  1.00  0.00    -0.246 OA
BRANCH  10  12
ATOM     12  O   UNL     1      -2.836 -15.648  -6.854  1.00  0.00    -0.478 OA
ATOM     13  H   UNL     1      -2.932 -16.609  -6.826  1.00  0.00     0.297 HD
ENDBRANCH  10  12
ENDBRANCH   6  10
BRANCH   7  14
ATOM     14  C   UNL     1      -0.434  -8.420  -3.424  1.00  0.00     0.040 A 
ATOM     15  C   UNL     1       0.693  -8.421  -2.602  1.00  0.00     0.034 A 
ATOM     16  C   UNL     1      -1.227  -7.274  -3.511  1.00  0.00     0.034 A 
ATOM     17  C   UNL     1       1.019  -7.290  -1.880  1.00  0.00     0.043 A 
ATOM     18  C   UNL     1      -0.891  -6.149  -2.784  1.00  0.00     0.043 A 
ATOM     19  C   UNL     1       0.229  -6.157  -1.969  1.00  0.00     0.041 A 
ATOM     20  Cl  UNL     1       2.421  -7.289  -0.856  1.00  0.00    -0.084 Cl
ATOM     21  Cl  UNL     1      -1.876  -4.723  -2.890  1.00  0.00    -0.084 Cl
ENDBRANCH   7  14
TORSDOF 3
ENDMDL
MODEL 9
REMARK VINA RESULT:    -5.339      3.979      7.331
REMARK INTER + INTRA:          -6.406
REMARK INTER:                  -6.116
REMARK INTRA:                  -0.290
REMARK UNBOUND:                -0.287
REMARK SMILES O=C(O)c1ccc2nc(-c3cc(Cl)cc(Cl)c3)oc2c1
REMARK SMILES IDX 5 1 6 2 20 3 8 4 18 5 4 6 9 7 7 8 19 9 2 10 1 11 3 12 10 14
REMARK SMILES IDX 11 15 17 16 12 17 15 18 14 19 13 20 16 21
REMARK H PARENT 3 13
ROOT
ATOM      1  C   UNL     1      -2.051 -12.836  -7.103  1.00  0.00     0.018 A 
ATOM      2  C   UNL     1      -1.949 -11.481  -6.998  1.00  0.00     0.033 A 
ATOM      3  C   UNL     1      -1.199 -13.099  -4.848  1.00  0.00     0.065 A 
ATOM      4  N   UNL     1      -1.259  -9.629  -5.423  1.00  0.00    -0.209 NA
ATOM      5  O   UNL     1      -0.672 -10.897  -3.755  1.00  0.00    -0.436 OA
ATOM      6  C   UNL     1      -1.680 -13.661  -6.032  1.00  0.00     0.063 A 
ATOM      7  C   UNL     1      -0.788  -9.632  -4.201  1.00  0.00     0.227 A 
ATOM      8  C   UNL     1      -1.468 -10.904  -5.816  1.00  0.00     0.110 A 
ATOM      9  C   UNL     1      -1.089 -11.725  -4.739  1.00  0.00     0.156 A 
ENDROOT
BRANCH   6  10
ATOM     10  C   UNL     1      -1.801 -15.125  -6.156  1.00  0.00     0.335 C 
ATOM     11  O   UNL     1      -0.963 -15.847  -5.653  1.00  0.00    -0.246 OA
BRANCH  10  12
ATOM     12  O   UNL     1      -2.838 -15.662  -6.828  1.00  0.00    -0.478 OA
ATOM     13  H   UNL     1      -3.112 -16.553  -6.573  1.00  0.00     0.297 HD
ENDBRANCH  10  12
ENDBRANCH   6  10
BRANCH   7  14
ATOM     14  C   UNL     1      -0.435  -8.424  -3.427  1.00  0.00     0.040 A 
ATOM     15  C   UNL     1      -1.228  -7.279  -3.513  1.00  0.00     0.034 A 
ATOM     16  C   UNL     1       0.694  -8.424  -2.605  1.00  0.00     0.034 A 
ATOM     17  C   UNL     1      -0.893  -6.154  -2.786  1.00  0.00     0.043 A 
ATOM     18  C   UNL     1       1.019  -7.293  -1.883  1.00  0.00     0.043 A 
ATOM     19  C   UNL     1       0.228  -6.160  -1.974  1.00  0.00     0.041 A 
ATOM     20  Cl  UNL     1      -1.878  -4.729  -2.892  1.00  0.00    -0.084 Cl
ATOM     21  Cl  UNL     1       2.423  -7.291  -0.861  1.00  0.00    -0.084 Cl
ENDBRANCH   7  14
TORSDOF 3
ENDMDL
