MODEL 1
REMARK VINA RESULT:    -5.800      0.000      0.000
REMARK INTER + INTRA:          -8.687
REMARK INTER:                  -8.004
REMARK INTRA:                  -0.683
REMARK UNBOUND:                -0.683
REMARK SMILES Cc1n[nH]c(C)c1CCCOc1cc(C(=O)O)ccc1F
REMARK SMILES IDX 11 1 12 2 14 3 18 4 13 5 19 6 20 7 21 8 15 9 16 10 17 11
REMARK SMILES IDX 10 13 9 14 8 15 7 16 5 17 2 18 4 19 3 20 6 21 1 22
REMARK H PARENT 17 12 4 23
ROOT
ATOM      1  O   UNL     1      -8.107  -2.242   5.052  1.00  0.00    -0.490 OA
ENDROOT
BRANCH   1   2
ATOM      2  C   UNL     1      -6.996  -2.322   4.273  1.00  0.00     0.155 A 
ATOM      3  C   UNL     1      -5.112  -3.566   3.446  1.00  0.00     0.063 A 
ATOM      4  C   UNL     1      -4.734  -2.469   2.668  1.00  0.00     0.019 A 
ATOM      5  C   UNL     1      -6.250  -3.486   4.251  1.00  0.00     0.065 A 
ATOM      6  C   UNL     1      -5.487  -1.314   2.692  1.00  0.00     0.044 A 
ATOM      7  C   UNL     1      -6.618  -1.239   3.488  1.00  0.00     0.165 A 
ATOM      8  F   UNL     1      -7.353  -0.104   3.507  1.00  0.00    -0.203 F 
BRANCH   3   9
ATOM      9  C   UNL     1      -4.308  -4.804   3.422  1.00  0.00     0.335 C 
ATOM     10  O   UNL     1      -4.224  -5.494   4.417  1.00  0.00    -0.246 OA
BRANCH   9  11
ATOM     11  O   UNL     1      -3.672  -5.171   2.292  1.00  0.00    -0.478 OA
ATOM     12  H   UNL     1      -3.269  -6.051   2.281  1.00  0.00     0.297 HD
ENDBRANCH   9  11
ENDBRANCH   3   9
ENDBRANCH   1   2
BRANCH   1  13
ATOM     13  C   UNL     1      -9.337  -2.685   4.475  1.00  0.00     0.230 C 
BRANCH  13  14
ATOM     14  C   UNL     1      -9.902  -3.840   5.304  1.00  0.00     0.046 C 
BRANCH  14  15
ATOM     15  C   UNL     1     -10.317  -4.982   4.373  1.00  0.00     0.043 C 
BRANCH  15  16
ATOM     16  C   UNL     1     -11.756  -5.343   4.630  1.00  0.00    -0.004 A 
ATOM     17  C   UNL     1     -12.831  -4.857   3.965  1.00  0.00     0.036 A 
ATOM     18  C   UNL     1     -12.219  -6.245   5.594  1.00  0.00     0.063 A 
ATOM     19  N   UNL     1     -13.934  -5.426   4.494  1.00  0.00    -0.282 N 
ATOM     20  N   UNL     1     -13.524  -6.291   5.518  1.00  0.00    -0.181 NA
ATOM     21  C   UNL     1     -12.800  -3.860   2.836  1.00  0.00     0.066 C 
ATOM     22  C   UNL     1     -11.362  -7.021   6.562  1.00  0.00     0.069 C 
ATOM     23  H   UNL     1     -14.849  -5.265   4.216  1.00  0.00     0.190 HD
ENDBRANCH  15  16
ENDBRANCH  14  15
ENDBRANCH  13  14
ENDBRANCH   1  13
TORSDOF 7
ENDMDL
MODEL 2
REMARK VINA RESULT:    -5.771      2.213      3.713
REMARK INTER + INTRA:          -8.647
REMARK INTER:                  -7.954
REMARK INTRA:                  -0.693
REMARK UNBOUND:                -0.683
REMARK SMILES Cc1n[nH]c(C)c1CCCOc1cc(C(=O)O)ccc1F
REMARK SMILES IDX 11 1 12 2 14 3 18 4 13 5 19 6 20 7 21 8 15 9 16 10 17 11
REMARK SMILES IDX 10 13 9 14 8 15 7 16 5 17 2 18 4 19 3 20 6 21 1 22
REMARK H PARENT 17 12 4 23
ROOT
ATOM      1  O   UNL     1      -7.471  -4.897   2.454  1.00  0.00    -0.490 OA
ENDROOT
BRANCH   1   2
ATOM      2  C   UNL     1      -6.644  -3.833   2.639  1.00  0.00     0.155 A 
ATOM      3  C   UNL     1      -6.295  -1.457   2.763  1.00  0.00     0.063 A 
ATOM      4  C   UNL     1      -4.941  -1.674   3.029  1.00  0.00     0.019 A 
ATOM      5  C   UNL     1      -7.146  -2.547   2.568  1.00  0.00     0.065 A 
ATOM      6  C   UNL     1      -4.450  -2.961   3.104  1.00  0.00     0.044 A 
ATOM      7  C   UNL     1      -5.297  -4.040   2.915  1.00  0.00     0.165 A 
ATOM      8  F   UNL     1      -4.811  -5.299   2.989  1.00  0.00    -0.203 F 
BRANCH   3   9
ATOM      9  C   UNL     1      -6.823  -0.081   2.683  1.00  0.00     0.335 C 
ATOM     10  O   UNL     1      -7.746   0.173   1.936  1.00  0.00    -0.246 OA
BRANCH   9  11
ATOM     11  O   UNL     1      -6.285   0.892   3.444  1.00  0.00    -0.478 OA
ATOM     12  H   UNL     1      -5.350   0.802   3.676  1.00  0.00     0.297 HD
ENDBRANCH   9  11
ENDBRANCH   3   9
ENDBRANCH   1   2
BRANCH   1  13
ATOM     13  C   UNL     1      -8.088  -5.449   3.619  1.00  0.00     0.230 C 
BRANCH  13  14
ATOM     14  C   UNL     1      -9.608  -5.433   3.446  1.00  0.00     0.046 C 
BRANCH  14  15
ATOM     15  C   UNL     1     -10.249  -4.706   4.631  1.00  0.00     0.043 C 
BRANCH  15  16
ATOM     16  C   UNL     1     -11.399  -5.522   5.159  1.00  0.00    -0.004 A 
ATOM     17  C   UNL     1     -11.334  -6.443   6.149  1.00  0.00     0.036 A 
ATOM     18  C   UNL     1     -12.726  -5.458   4.719  1.00  0.00     0.063 A 
ATOM     19  N   UNL     1     -12.574  -6.948   6.323  1.00  0.00    -0.282 N 
ATOM     20  N   UNL     1     -13.429  -6.317   5.411  1.00  0.00    -0.181 NA
ATOM     21  C   UNL     1     -10.099  -6.835   6.918  1.00  0.00     0.066 C 
ATOM     22  C   UNL     1     -13.251  -4.562   3.626  1.00  0.00     0.069 C 
ATOM     23  H   UNL     1     -12.827  -7.629   6.966  1.00  0.00     0.190 HD
ENDBRANCH  15  16
ENDBRANCH  14  15
ENDBRANCH  13  14
ENDBRANCH   1  13
TORSDOF 7
ENDMDL
MODEL 3
REMARK VINA RESULT:    -5.755      0.508      1.820
REMARK INTER + INTRA:          -8.625
REMARK INTER:                  -7.960
REMARK INTRA:                  -0.665
REMARK UNBOUND:                -0.683
REMARK SMILES Cc1n[nH]c(C)c1CCCOc1cc(C(=O)O)ccc1F
REMARK SMILES IDX 11 1 12 2 14 3 18 4 13 5 19 6 20 7 21 8 15 9 16 10 17 11
REMARK SMILES IDX 10 13 9 14 8 15 7 16 5 17 2 18 4 19 3 20 6 21 1 22
REMARK H PARENT 17 12 4 23
ROOT
ATOM      1  O   UNL     1      -7.982  -2.150   5.178  1.00  0.00    -0.490 OA
ENDROOT
BRANCH   1   2
ATOM      2  C   UNL     1      -6.909  -2.271   4.352  1.00  0.00     0.155 A 
ATOM      3  C   UNL     1      -5.088  -3.571   3.472  1.00  0.00     0.063 A 
ATOM      4  C   UNL     1      -4.728  -2.502   2.647  1.00  0.00     0.019 A 
ATOM      5  C   UNL     1      -6.185  -3.449   4.326  1.00  0.00     0.065 A 
ATOM      6  C   UNL     1      -5.459  -1.334   2.675  1.00  0.00     0.044 A 
ATOM      7  C   UNL     1      -6.551  -1.216   3.520  1.00  0.00     0.165 A 
ATOM      8  F   UNL     1      -7.264  -0.069   3.542  1.00  0.00    -0.203 F 
BRANCH   3   9
ATOM      9  C   UNL     1      -4.307  -4.824   3.445  1.00  0.00     0.335 C 
ATOM     10  O   UNL     1      -4.239  -5.519   4.437  1.00  0.00    -0.246 OA
BRANCH   9  11
ATOM     11  O   UNL     1      -3.674  -5.198   2.315  1.00  0.00    -0.478 OA
ATOM     12  H   UNL     1      -2.838  -5.673   2.417  1.00  0.00     0.297 HD
ENDBRANCH   9  11
ENDBRANCH   3   9
ENDBRANCH   1   2
BRANCH   1  13
ATOM     13  C   UNL     1      -9.273  -2.358   4.601  1.00  0.00     0.230 C 
BRANCH  13  14
ATOM     14  C   UNL     1     -10.040  -3.392   5.428  1.00  0.00     0.046 C 
BRANCH  14  15
ATOM     15  C   UNL     1     -10.114  -4.710   4.655  1.00  0.00     0.043 C 
BRANCH  15  16
ATOM     16  C   UNL     1     -11.360  -5.458   5.054  1.00  0.00    -0.004 A 
ATOM     17  C   UNL     1     -11.441  -6.420   6.003  1.00  0.00     0.036 A 
ATOM     18  C   UNL     1     -12.637  -5.276   4.515  1.00  0.00     0.063 A 
ATOM     19  N   UNL     1     -12.724  -6.837   6.057  1.00  0.00    -0.282 N 
ATOM     20  N   UNL     1     -13.454  -6.107   5.110  1.00  0.00    -0.181 NA
ATOM     21  C   UNL     1     -10.304  -6.932   6.847  1.00  0.00     0.066 C 
ATOM     22  C   UNL     1     -13.007  -4.301   3.427  1.00  0.00     0.069 C 
ATOM     23  H   UNL     1     -13.077  -7.521   6.646  1.00  0.00     0.190 HD
ENDBRANCH  15  16
ENDBRANCH  14  15
ENDBRANCH  13  14
ENDBRANCH   1  13
TORSDOF 7
ENDMDL
MODEL 4
REMARK VINA RESULT:    -5.700      2.252      3.344
REMARK INTER + INTRA:          -8.548
REMARK INTER:                  -7.955
REMARK INTRA:                  -0.593
REMARK UNBOUND:                -0.683
REMARK SMILES Cc1n[nH]c(C)c1CCCOc1cc(C(=O)O)ccc1F
REMARK SMILES IDX 11 1 12 2 14 3 18 4 13 5 19 6 20 7 21 8 15 9 16 10 17 11
REMARK SMILES IDX 10 13 9 14 8 15 7 16 5 17 2 18 4 19 3 20 6 21 1 22
REMARK H PARENT 17 12 4 23
ROOT
ATOM      1  O   UNL     1      -7.362  -4.900   2.074  1.00  0.00    -0.490 OA
ENDROOT
BRANCH   1   2
ATOM      2  C   UNL     1      -6.584  -3.842   2.426  1.00  0.00     0.155 A 
ATOM      3  C   UNL     1      -6.296  -1.476   2.743  1.00  0.00     0.063 A 
ATOM      4  C   UNL     1      -4.980  -1.695   3.158  1.00  0.00     0.019 A 
ATOM      5  C   UNL     1      -7.097  -2.559   2.376  1.00  0.00     0.065 A 
ATOM      6  C   UNL     1      -4.479  -2.979   3.211  1.00  0.00     0.044 A 
ATOM      7  C   UNL     1      -5.277  -4.052   2.851  1.00  0.00     0.165 A 
ATOM      8  F   UNL     1      -4.779  -5.307   2.904  1.00  0.00    -0.203 F 
BRANCH   3   9
ATOM      9  C   UNL     1      -6.836  -0.103   2.686  1.00  0.00     0.335 C 
ATOM     10  O   UNL     1      -7.766   0.154   1.949  1.00  0.00    -0.246 OA
BRANCH   9  11
ATOM     11  O   UNL     1      -6.301   0.863   3.458  1.00  0.00    -0.478 OA
ATOM     12  H   UNL     1      -6.319   0.722   4.415  1.00  0.00     0.297 HD
ENDBRANCH   9  11
ENDBRANCH   3   9
ENDBRANCH   1   2
BRANCH   1  13
ATOM     13  C   UNL     1      -7.798  -5.763   3.127  1.00  0.00     0.230 C 
BRANCH  13  14
ATOM     14  C   UNL     1      -9.327  -5.783   3.169  1.00  0.00     0.046 C 
BRANCH  14  15
ATOM     15  C   UNL     1      -9.819  -4.882   4.303  1.00  0.00     0.043 C 
BRANCH  15  16
ATOM     16  C   UNL     1     -11.142  -5.392   4.813  1.00  0.00    -0.004 A 
ATOM     17  C   UNL     1     -12.360  -5.091   4.306  1.00  0.00     0.036 A 
ATOM     18  C   UNL     1     -11.329  -6.265   5.890  1.00  0.00     0.063 A 
ATOM     19  N   UNL     1     -13.285  -5.745   5.040  1.00  0.00    -0.282 N 
ATOM     20  N   UNL     1     -12.612  -6.472   6.031  1.00  0.00    -0.181 NA
ATOM     21  C   UNL     1     -12.635  -4.188   3.132  1.00  0.00     0.066 C 
ATOM     22  C   UNL     1     -10.238  -6.856   6.748  1.00  0.00     0.069 C 
ATOM     23  H   UNL     1     -14.245  -5.716   4.906  1.00  0.00     0.190 HD
ENDBRANCH  15  16
ENDBRANCH  14  15
ENDBRANCH  13  14
ENDBRANCH   1  13
TORSDOF 7
ENDMDL
MODEL 5
REMARK VINA RESULT:    -4.878      3.905      7.163
REMARK INTER + INTRA:          -7.414
REMARK INTER:                  -6.582
REMARK INTRA:                  -0.832
REMARK UNBOUND:                -0.683
REMARK SMILES Cc1n[nH]c(C)c1CCCOc1cc(C(=O)O)ccc1F
REMARK SMILES IDX 11 1 12 2 14 3 18 4 13 5 19 6 20 7 21 8 15 9 16 10 17 11
REMARK SMILES IDX 10 13 9 14 8 15 7 16 5 17 2 18 4 19 3 20 6 21 1 22
REMARK H PARENT 17 12 4 23
ROOT
ATOM      1  O   UNL     1      -8.330  -4.860   4.630  1.00  0.00    -0.490 OA
ENDROOT
BRANCH   1   2
ATOM      2  C   UNL     1      -9.668  -5.082   4.724  1.00  0.00     0.155 A 
ATOM      3  C   UNL     1     -11.904  -4.735   3.911  1.00  0.00     0.063 A 
ATOM      4  C   UNL     1     -12.397  -5.556   4.929  1.00  0.00     0.019 A 
ATOM      5  C   UNL     1     -10.531  -4.501   3.813  1.00  0.00     0.065 A 
ATOM      6  C   UNL     1     -11.528  -6.135   5.829  1.00  0.00     0.044 A 
ATOM      7  C   UNL     1     -10.166  -5.905   5.728  1.00  0.00     0.165 A 
ATOM      8  F   UNL     1      -9.320  -6.476   6.613  1.00  0.00    -0.203 F 
BRANCH   3   9
ATOM      9  C   UNL     1     -12.831  -4.114   2.945  1.00  0.00     0.335 C 
ATOM     10  O   UNL     1     -13.242  -2.988   3.136  1.00  0.00    -0.246 OA
BRANCH   9  11
ATOM     11  O   UNL     1     -13.217  -4.795   1.848  1.00  0.00    -0.478 OA
ATOM     12  H   UNL     1     -14.161  -4.786   1.635  1.00  0.00     0.297 HD
ENDBRANCH   9  11
ENDBRANCH   3   9
ENDBRANCH   1   2
BRANCH   1  13
ATOM     13  C   UNL     1      -7.790  -4.697   3.315  1.00  0.00     0.230 C 
BRANCH  13  14
ATOM     14  C   UNL     1      -6.307  -4.336   3.415  1.00  0.00     0.046 C 
BRANCH  14  15
ATOM     15  C   UNL     1      -6.106  -3.308   4.530  1.00  0.00     0.043 C 
BRANCH  15  16
ATOM     16  C   UNL     1      -6.341  -1.923   3.985  1.00  0.00    -0.004 A 
ATOM     17  C   UNL     1      -5.562  -1.278   3.085  1.00  0.00     0.036 A 
ATOM     18  C   UNL     1      -7.406  -1.078   4.315  1.00  0.00     0.063 A 
ATOM     19  N   UNL     1      -6.111  -0.066   2.859  1.00  0.00    -0.282 N 
ATOM     20  N   UNL     1      -7.266   0.037   3.646  1.00  0.00    -0.181 NA
ATOM     21  C   UNL     1      -4.307  -1.817   2.450  1.00  0.00     0.066 C 
ATOM     22  C   UNL     1      -8.517  -1.394   5.284  1.00  0.00     0.069 C 
ATOM     23  H   UNL     1      -5.767   0.613   2.259  1.00  0.00     0.190 HD
ENDBRANCH  15  16
ENDBRANCH  14  15
ENDBRANCH  13  14
ENDBRANCH   1  13
TORSDOF 7
ENDMDL
MODEL 6
REMARK VINA RESULT:    -4.856      3.897      7.186
REMARK INTER + INTRA:          -7.384
REMARK INTER:                  -6.540
REMARK INTRA:                  -0.844
REMARK UNBOUND:                -0.683
REMARK SMILES Cc1n[nH]c(C)c1CCCOc1cc(C(=O)O)ccc1F
REMARK SMILES IDX 11 1 12 2 14 3 18 4 13 5 19 6 20 7 21 8 15 9 16 10 17 11
REMARK SMILES IDX 10 13 9 14 8 15 7 16 5 17 2 18 4 19 3 20 6 21 1 22
REMARK H PARENT 17 12 4 23
ROOT
ATOM      1  O   UNL     1      -8.325  -4.834   4.710  1.00  0.00    -0.490 OA
ENDROOT
BRANCH   1   2
ATOM      2  C   UNL     1      -9.661  -5.078   4.782  1.00  0.00     0.155 A 
ATOM      3  C   UNL     1     -11.891  -4.749   3.945  1.00  0.00     0.063 A 
ATOM      4  C   UNL     1     -12.385  -5.597   4.939  1.00  0.00     0.019 A 
ATOM      5  C   UNL     1     -10.520  -4.492   3.871  1.00  0.00     0.065 A 
ATOM      6  C   UNL     1     -11.519  -6.182   5.839  1.00  0.00     0.044 A 
ATOM      7  C   UNL     1     -10.160  -5.929   5.761  1.00  0.00     0.165 A 
ATOM      8  F   UNL     1      -9.316  -6.505   6.646  1.00  0.00    -0.203 F 
BRANCH   3   9
ATOM      9  C   UNL     1     -12.815  -4.122   2.979  1.00  0.00     0.335 C 
ATOM     10  O   UNL     1     -13.227  -2.998   3.175  1.00  0.00    -0.246 OA
BRANCH   9  11
ATOM     11  O   UNL     1     -13.195  -4.797   1.876  1.00  0.00    -0.478 OA
ATOM     12  H   UNL     1     -14.138  -4.787   1.659  1.00  0.00     0.297 HD
ENDBRANCH   9  11
ENDBRANCH   3   9
ENDBRANCH   1   2
BRANCH   1  13
ATOM     13  C   UNL     1      -7.757  -4.712   3.404  1.00  0.00     0.230 C 
BRANCH  13  14
ATOM     14  C   UNL     1      -6.279  -4.338   3.524  1.00  0.00     0.046 C 
BRANCH  14  15
ATOM     15  C   UNL     1      -6.112  -3.253   4.590  1.00  0.00     0.043 C 
BRANCH  15  16
ATOM     16  C   UNL     1      -6.377  -1.902   3.980  1.00  0.00    -0.004 A 
ATOM     17  C   UNL     1      -7.420  -1.088   4.268  1.00  0.00     0.036 A 
ATOM     18  C   UNL     1      -5.587  -1.263   3.019  1.00  0.00     0.063 A 
ATOM     19  N   UNL     1      -7.296   0.022   3.512  1.00  0.00    -0.282 N 
ATOM     20  N   UNL     1      -6.140  -0.113   2.732  1.00  0.00    -0.181 NA
ATOM     21  C   UNL     1      -8.520  -1.372   5.257  1.00  0.00     0.066 C 
ATOM     22  C   UNL     1      -4.322  -1.811   2.409  1.00  0.00     0.069 C 
ATOM     23  H   UNL     1      -7.902   0.780   3.508  1.00  0.00     0.190 HD
ENDBRANCH  15  16
ENDBRANCH  14  15
ENDBRANCH  13  14
ENDBRANCH   1  13
TORSDOF 7
ENDMDL
MODEL 7
REMARK VINA RESULT:    -4.848      4.225      7.330
REMARK INTER + INTRA:          -7.372
REMARK INTER:                  -6.842
REMARK INTRA:                  -0.530
REMARK UNBOUND:                -0.683
REMARK SMILES Cc1n[nH]c(C)c1CCCOc1cc(C(=O)O)ccc1F
REMARK SMILES IDX 11 1 12 2 14 3 18 4 13 5 19 6 20 7 21 8 15 9 16 10 17 11
REMARK SMILES IDX 10 13 9 14 8 15 7 16 5 17 2 18 4 19 3 20 6 21 1 22
REMARK H PARENT 17 12 4 23
ROOT
ATOM      1  O   UNL     1      -9.860  -3.632   3.427  1.00  0.00    -0.490 OA
ENDROOT
BRANCH   1   2
ATOM      2  C   UNL     1     -10.939  -4.314   3.896  1.00  0.00     0.155 A 
ATOM      3  C   UNL     1     -11.901  -5.910   5.415  1.00  0.00     0.063 A 
ATOM      4  C   UNL     1     -13.158  -5.688   4.846  1.00  0.00     0.019 A 
ATOM      5  C   UNL     1     -10.790  -5.215   4.933  1.00  0.00     0.065 A 
ATOM      6  C   UNL     1     -13.298  -4.782   3.816  1.00  0.00     0.044 A 
ATOM      7  C   UNL     1     -12.195  -4.091   3.343  1.00  0.00     0.165 A 
ATOM      8  F   UNL     1     -12.339  -3.205   2.333  1.00  0.00    -0.203 F 
BRANCH   3   9
ATOM      9  C   UNL     1     -11.748  -6.879   6.518  1.00  0.00     0.335 C 
ATOM     10  O   UNL     1     -10.640  -7.194   6.900  1.00  0.00    -0.246 OA
BRANCH   9  11
ATOM     11  O   UNL     1     -12.839  -7.408   7.106  1.00  0.00    -0.478 OA
ATOM     12  H   UNL     1     -13.668  -7.367   6.609  1.00  0.00     0.297 HD
ENDBRANCH   9  11
ENDBRANCH   3   9
ENDBRANCH   1   2
BRANCH   1  13
ATOM     13  C   UNL     1      -8.910  -3.177   4.394  1.00  0.00     0.230 C 
BRANCH  13  14
ATOM     14  C   UNL     1      -7.583  -3.909   4.186  1.00  0.00     0.046 C 
BRANCH  14  15
ATOM     15  C   UNL     1      -7.048  -3.609   2.784  1.00  0.00     0.043 C 
BRANCH  15  16
ATOM     16  C   UNL     1      -5.736  -2.878   2.892  1.00  0.00    -0.004 A 
ATOM     17  C   UNL     1      -5.560  -1.538   2.804  1.00  0.00     0.036 A 
ATOM     18  C   UNL     1      -4.483  -3.462   3.108  1.00  0.00     0.063 A 
ATOM     19  N   UNL     1      -4.243  -1.285   2.951  1.00  0.00    -0.282 N 
ATOM     20  N   UNL     1      -3.587  -2.510   3.137  1.00  0.00    -0.181 NA
ATOM     21  C   UNL     1      -6.642  -0.514   2.580  1.00  0.00     0.066 C 
ATOM     22  C   UNL     1      -4.211  -4.936   3.267  1.00  0.00     0.069 C 
ATOM     23  H   UNL     1      -3.824  -0.411   2.932  1.00  0.00     0.190 HD
ENDBRANCH  15  16
ENDBRANCH  14  15
ENDBRANCH  13  14
ENDBRANCH   1  13
TORSDOF 7
ENDMDL
MODEL 8
REMARK VINA RESULT:    -4.812      3.922      6.826
REMARK INTER + INTRA:          -7.323
REMARK INTER:                  -6.474
REMARK INTRA:                  -0.849
REMARK UNBOUND:                -0.683
REMARK SMILES Cc1n[nH]c(C)c1CCCOc1cc(C(=O)O)ccc1F
REMARK SMILES IDX 11 1 12 2 14 3 18 4 13 5 19 6 20 7 21 8 15 9 16 10 17 11
REMARK SMILES IDX 10 13 9 14 8 15 7 16 5 17 2 18 4 19 3 20 6 21 1 22
REMARK H PARENT 17 12 4 23
ROOT
ATOM      1  O   UNL     1      -9.441  -3.390   3.475  1.00  0.00    -0.490 OA
ENDROOT
BRANCH   1   2
ATOM      2  C   UNL     1     -10.342  -4.216   4.070  1.00  0.00     0.155 A 
ATOM      3  C   UNL     1     -10.875  -5.884   5.717  1.00  0.00     0.063 A 
ATOM      4  C   UNL     1     -12.202  -5.889   5.278  1.00  0.00     0.019 A 
ATOM      5  C   UNL     1      -9.945  -5.041   5.105  1.00  0.00     0.065 A 
ATOM      6  C   UNL     1     -12.590  -5.058   4.248  1.00  0.00     0.044 A 
ATOM      7  C   UNL     1     -11.667  -4.219   3.647  1.00  0.00     0.165 A 
ATOM      8  F   UNL     1     -12.054  -3.407   2.638  1.00  0.00    -0.203 F 
BRANCH   3   9
ATOM      9  C   UNL     1     -10.457  -6.772   6.820  1.00  0.00     0.335 C 
ATOM     10  O   UNL     1      -9.971  -7.858   6.574  1.00  0.00    -0.246 OA
BRANCH   9  11
ATOM     11  O   UNL     1     -10.608  -6.375   8.098  1.00  0.00    -0.478 OA
ATOM     12  H   UNL     1     -10.198  -6.925   8.781  1.00  0.00     0.297 HD
ENDBRANCH   9  11
ENDBRANCH   3   9
ENDBRANCH   1   2
BRANCH   1  13
ATOM     13  C   UNL     1      -8.571  -2.652   4.336  1.00  0.00     0.230 C 
BRANCH  13  14
ATOM     14  C   UNL     1      -7.558  -1.875   3.493  1.00  0.00     0.046 C 
BRANCH  14  15
ATOM     15  C   UNL     1      -7.199  -2.690   2.248  1.00  0.00     0.043 C 
BRANCH  15  16
ATOM     16  C   UNL     1      -6.026  -3.585   2.554  1.00  0.00    -0.004 A 
ATOM     17  C   UNL     1      -6.048  -4.937   2.600  1.00  0.00     0.036 A 
ATOM     18  C   UNL     1      -4.722  -3.165   2.834  1.00  0.00     0.063 A 
ATOM     19  N   UNL     1      -4.802  -5.358   2.905  1.00  0.00    -0.282 N 
ATOM     20  N   UNL     1      -3.989  -4.227   3.051  1.00  0.00    -0.181 NA
ATOM     21  C   UNL     1      -7.247  -5.815   2.354  1.00  0.00     0.066 C 
ATOM     22  C   UNL     1      -4.245  -1.736   2.888  1.00  0.00     0.069 C 
ATOM     23  H   UNL     1      -4.520  -6.280   3.006  1.00  0.00     0.190 HD
ENDBRANCH  15  16
ENDBRANCH  14  15
ENDBRANCH  13  14
ENDBRANCH   1  13
TORSDOF 7
ENDMDL
MODEL 9
REMARK VINA RESULT:    -4.628      4.375      7.803
REMARK INTER + INTRA:          -7.070
REMARK INTER:                  -6.527
REMARK INTRA:                  -0.543
REMARK UNBOUND:                -0.683
REMARK SMILES Cc1n[nH]c(C)c1CCCOc1cc(C(=O)O)ccc1F
REMARK SMILES IDX 11 1 12 2 14 3 18 4 13 5 19 6 20 7 21 8 15 9 16 10 17 11
REMARK SMILES IDX 10 13 9 14 8 15 7 16 5 17 2 18 4 19 3 20 6 21 1 22
REMARK H PARENT 17 12 4 23
ROOT
ATOM      1  O   UNL     1      -8.921  -5.089   4.424  1.00  0.00    -0.490 OA
ENDROOT
BRANCH   1   2
ATOM      2  C   UNL     1     -10.251  -5.293   4.624  1.00  0.00     0.155 A 
ATOM      3  C   UNL     1     -12.540  -4.885   4.012  1.00  0.00     0.063 A 
ATOM      4  C   UNL     1     -12.962  -5.729   5.043  1.00  0.00     0.019 A 
ATOM      5  C   UNL     1     -11.176  -4.670   3.807  1.00  0.00     0.065 A 
ATOM      6  C   UNL     1     -12.032  -6.350   5.849  1.00  0.00     0.044 A 
ATOM      7  C   UNL     1     -10.679  -6.139   5.641  1.00  0.00     0.165 A 
ATOM      8  F   UNL     1      -9.773  -6.751   6.434  1.00  0.00    -0.203 F 
BRANCH   3   9
ATOM      9  C   UNL     1     -13.533  -4.219   3.146  1.00  0.00     0.335 C 
ATOM     10  O   UNL     1     -14.719  -4.410   3.324  1.00  0.00    -0.246 OA
BRANCH   9  11
ATOM     11  O   UNL     1     -13.123  -3.393   2.163  1.00  0.00    -0.478 OA
ATOM     12  H   UNL     1     -13.803  -2.866   1.721  1.00  0.00     0.297 HD
ENDBRANCH   9  11
ENDBRANCH   3   9
ENDBRANCH   1   2
BRANCH   1  13
ATOM     13  C   UNL     1      -8.383  -5.506   3.167  1.00  0.00     0.230 C 
BRANCH  13  14
ATOM     14  C   UNL     1      -7.543  -4.375   2.572  1.00  0.00     0.046 C 
BRANCH  14  15
ATOM     15  C   UNL     1      -7.081  -3.440   3.692  1.00  0.00     0.043 C 
BRANCH  15  16
ATOM     16  C   UNL     1      -5.840  -2.705   3.256  1.00  0.00    -0.004 A 
ATOM     17  C   UNL     1      -4.597  -3.231   3.157  1.00  0.00     0.036 A 
ATOM     18  C   UNL     1      -5.771  -1.361   2.874  1.00  0.00     0.063 A 
ATOM     19  N   UNL     1      -3.769  -2.253   2.734  1.00  0.00    -0.282 N 
ATOM     20  N   UNL     1      -4.529  -1.087   2.568  1.00  0.00    -0.181 NA
ATOM     21  C   UNL     1      -4.208  -4.653   3.464  1.00  0.00     0.066 C 
ATOM     22  C   UNL     1      -6.925  -0.393   2.834  1.00  0.00     0.069 C 
ATOM     23  H   UNL     1      -2.817  -2.340   2.575  1.00  0.00     0.190 HD
ENDBRANCH  15  16
ENDBRANCH  14  15
ENDBRANCH  13  14
ENDBRANCH   1  13
TORSDOF 7
ENDMDL
