MODEL 1
REMARK VINA RESULT:    -4.842      0.000      0.000
REMARK INTER + INTRA:          -5.845
REMARK INTER:                  -5.549
REMARK INTRA:                  -0.296
REMARK UNBOUND:                -0.296
REMARK SMILES O=C(O)c1ccc2nc(-c3cc(Cl)cc(Cl)c3)oc2c1
REMARK SMILES IDX 5 1 6 2 20 3 8 4 18 5 4 6 9 7 7 8 19 9 2 10 1 11 3 12 10 14
REMARK SMILES IDX 11 15 17 16 12 17 15 18 14 19 13 20 16 21
REMARK H PARENT 3 13
ROOT
ATOM      1  C   UNL     1     -12.579  -5.989   5.313  1.00  0.00     0.018 A 
ATOM      2  C   UNL     1     -11.227  -6.016   5.482  1.00  0.00     0.033 A 
ATOM      3  C   UNL     1     -12.359  -4.252   3.635  1.00  0.00     0.065 A 
ATOM      4  N   UNL     1      -9.075  -4.962   4.679  1.00  0.00    -0.209 NA
ATOM      5  O   UNL     1      -9.965  -3.588   3.246  1.00  0.00    -0.436 OA
ATOM      6  C   UNL     1     -13.161  -5.110   4.389  1.00  0.00     0.063 A 
ATOM      7  C   UNL     1      -8.818  -4.030   3.796  1.00  0.00     0.227 A 
ATOM      8  C   UNL     1     -10.410  -5.160   4.732  1.00  0.00     0.110 A 
ATOM      9  C   UNL     1     -10.987  -4.273   3.806  1.00  0.00     0.156 A 
ENDROOT
BRANCH   6  10
ATOM     10  C   UNL     1     -14.625  -5.094   4.211  1.00  0.00     0.335 C 
ATOM     11  O   UNL     1     -15.151  -4.193   3.589  1.00  0.00    -0.246 OA
BRANCH  10  12
ATOM     12  O   UNL     1     -15.379  -6.078   4.739  1.00  0.00    -0.478 OA
ATOM     13  H   UNL     1     -15.202  -6.323   5.657  1.00  0.00     0.297 HD
ENDBRANCH  10  12
ENDBRANCH   6  10
BRANCH   7  14
ATOM     14  C   UNL     1      -7.469  -3.535   3.454  1.00  0.00     0.040 A 
ATOM     15  C   UNL     1      -6.360  -4.371   3.590  1.00  0.00     0.034 A 
ATOM     16  C   UNL     1      -7.297  -2.227   2.995  1.00  0.00     0.034 A 
ATOM     17  C   UNL     1      -5.101  -3.903   3.268  1.00  0.00     0.043 A 
ATOM     18  C   UNL     1      -6.034  -1.771   2.677  1.00  0.00     0.043 A 
ATOM     19  C   UNL     1      -4.938  -2.606   2.814  1.00  0.00     0.041 A 
ATOM     20  Cl  UNL     1      -3.721  -4.943   3.436  1.00  0.00    -0.084 Cl
ATOM     21  Cl  UNL     1      -5.819  -0.145   2.106  1.00  0.00    -0.084 Cl
ENDBRANCH   7  14
TORSDOF 3
ENDMDL
MODEL 2
REMARK VINA RESULT:    -4.839      0.015      2.019
REMARK INTER + INTRA:          -5.842
REMARK INTER:                  -5.546
REMARK INTRA:                  -0.296
REMARK UNBOUND:                -0.296
REMARK SMILES O=C(O)c1ccc2nc(-c3cc(Cl)cc(Cl)c3)oc2c1
REMARK SMILES IDX 5 1 6 2 20 3 8 4 18 5 4 6 9 7 7 8 19 9 2 10 1 11 3 12 10 14
REMARK SMILES IDX 11 15 17 16 12 17 15 18 14 19 13 20 16 21
REMARK H PARENT 3 13
ROOT
ATOM      1  C   UNL     1     -12.588  -5.990   5.319  1.00  0.00     0.018 A 
ATOM      2  C   UNL     1     -11.236  -6.017   5.486  1.00  0.00     0.033 A 
ATOM      3  C   UNL     1     -12.370  -4.251   3.643  1.00  0.00     0.065 A 
ATOM      4  N   UNL     1      -9.085  -4.963   4.681  1.00  0.00    -0.209 NA
ATOM      5  O   UNL     1      -9.977  -3.587   3.251  1.00  0.00    -0.436 OA
ATOM      6  C   UNL     1     -13.172  -5.110   4.397  1.00  0.00     0.063 A 
ATOM      7  C   UNL     1      -8.830  -4.029   3.799  1.00  0.00     0.227 A 
ATOM      8  C   UNL     1     -10.420  -5.161   4.736  1.00  0.00     0.110 A 
ATOM      9  C   UNL     1     -10.998  -4.272   3.812  1.00  0.00     0.156 A 
ENDROOT
BRANCH   6  10
ATOM     10  C   UNL     1     -14.635  -5.093   4.221  1.00  0.00     0.335 C 
ATOM     11  O   UNL     1     -15.163  -4.185   3.611  1.00  0.00    -0.246 OA
BRANCH  10  12
ATOM     12  O   UNL     1     -15.388  -6.085   4.738  1.00  0.00    -0.478 OA
ATOM     13  H   UNL     1     -15.808  -6.689   4.112  1.00  0.00     0.297 HD
ENDBRANCH  10  12
ENDBRANCH   6  10
BRANCH   7  14
ATOM     14  C   UNL     1      -7.480  -3.534   3.456  1.00  0.00     0.040 A 
ATOM     15  C   UNL     1      -7.307  -2.226   3.004  1.00  0.00     0.034 A 
ATOM     16  C   UNL     1      -6.373  -4.375   3.583  1.00  0.00     0.034 A 
ATOM     17  C   UNL     1      -6.043  -1.769   2.687  1.00  0.00     0.043 A 
ATOM     18  C   UNL     1      -5.114  -3.907   3.263  1.00  0.00     0.043 A 
ATOM     19  C   UNL     1      -4.949  -2.608   2.815  1.00  0.00     0.041 A 
ATOM     20  Cl  UNL     1      -5.825  -0.141   2.125  1.00  0.00    -0.084 Cl
ATOM     21  Cl  UNL     1      -3.736  -4.951   3.420  1.00  0.00    -0.084 Cl
ENDBRANCH   7  14
TORSDOF 3
ENDMDL
MODEL 3
REMARK VINA RESULT:    -4.839      1.739      2.414
REMARK INTER + INTRA:          -5.842
REMARK INTER:                  -5.547
REMARK INTRA:                  -0.295
REMARK UNBOUND:                -0.296
REMARK SMILES O=C(O)c1ccc2nc(-c3cc(Cl)cc(Cl)c3)oc2c1
REMARK SMILES IDX 5 1 6 2 20 3 8 4 18 5 4 6 9 7 7 8 19 9 2 10 1 11 3 12 10 14
REMARK SMILES IDX 11 15 17 16 12 17 15 18 14 19 13 20 16 21
REMARK H PARENT 3 13
ROOT
ATOM      1  C   UNL     1     -12.685  -5.878   5.106  1.00  0.00     0.018 A 
ATOM      2  C   UNL     1     -12.105  -4.919   4.330  1.00  0.00     0.033 A 
ATOM      3  C   UNL     1     -10.545  -6.376   6.131  1.00  0.00     0.065 A 
ATOM      4  N   UNL     1      -9.896  -3.806   3.818  1.00  0.00    -0.209 NA
ATOM      5  O   UNL     1      -8.686  -4.949   5.219  1.00  0.00    -0.436 OA
ATOM      6  C   UNL     1     -11.915  -6.616   6.016  1.00  0.00     0.063 A 
ATOM      7  C   UNL     1      -8.685  -3.978   4.287  1.00  0.00     0.227 A 
ATOM      8  C   UNL     1     -10.732  -4.668   4.436  1.00  0.00     0.110 A 
ATOM      9  C   UNL     1      -9.952  -5.408   5.342  1.00  0.00     0.156 A 
ENDROOT
BRANCH   6  10
ATOM     10  C   UNL     1     -12.554  -7.646   6.854  1.00  0.00     0.335 C 
ATOM     11  O   UNL     1     -11.872  -8.476   7.421  1.00  0.00    -0.246 OA
BRANCH  10  12
ATOM     12  O   UNL     1     -13.895  -7.669   6.990  1.00  0.00    -0.478 OA
ATOM     13  H   UNL     1     -14.244  -7.818   7.879  1.00  0.00     0.297 HD
ENDBRANCH  10  12
ENDBRANCH   6  10
BRANCH   7  14
ATOM     14  C   UNL     1      -7.494  -3.217   3.856  1.00  0.00     0.040 A 
ATOM     15  C   UNL     1      -6.234  -3.816   3.878  1.00  0.00     0.034 A 
ATOM     16  C   UNL     1      -7.625  -1.895   3.426  1.00  0.00     0.034 A 
ATOM     17  C   UNL     1      -5.125  -3.099   3.473  1.00  0.00     0.043 A 
ATOM     18  C   UNL     1      -6.509  -1.189   3.023  1.00  0.00     0.043 A 
ATOM     19  C   UNL     1      -5.262  -1.789   3.047  1.00  0.00     0.041 A 
ATOM     20  Cl  UNL     1      -3.556  -3.842   3.499  1.00  0.00    -0.084 Cl
ATOM     21  Cl  UNL     1      -6.670   0.454   2.487  1.00  0.00    -0.084 Cl
ENDBRANCH   7  14
TORSDOF 3
ENDMDL
MODEL 4
REMARK VINA RESULT:    -4.833      1.740      3.133
REMARK INTER + INTRA:          -5.835
REMARK INTER:                  -5.540
REMARK INTRA:                  -0.295
REMARK UNBOUND:                -0.296
REMARK SMILES O=C(O)c1ccc2nc(-c3cc(Cl)cc(Cl)c3)oc2c1
REMARK SMILES IDX 5 1 6 2 20 3 8 4 18 5 4 6 9 7 7 8 19 9 2 10 1 11 3 12 10 14
REMARK SMILES IDX 11 15 17 16 12 17 15 18 14 19 13 20 16 21
REMARK H PARENT 3 13
ROOT
ATOM      1  C   UNL     1     -12.685  -5.882   5.108  1.00  0.00     0.018 A 
ATOM      2  C   UNL     1     -12.106  -4.923   4.332  1.00  0.00     0.033 A 
ATOM      3  C   UNL     1     -10.544  -6.378   6.133  1.00  0.00     0.065 A 
ATOM      4  N   UNL     1      -9.897  -3.810   3.818  1.00  0.00    -0.209 NA
ATOM      5  O   UNL     1      -8.687  -4.951   5.220  1.00  0.00    -0.436 OA
ATOM      6  C   UNL     1     -11.914  -6.619   6.018  1.00  0.00     0.063 A 
ATOM      7  C   UNL     1      -8.686  -3.980   4.287  1.00  0.00     0.227 A 
ATOM      8  C   UNL     1     -10.733  -4.672   4.437  1.00  0.00     0.110 A 
ATOM      9  C   UNL     1      -9.952  -5.410   5.344  1.00  0.00     0.156 A 
ENDROOT
BRANCH   6  10
ATOM     10  C   UNL     1     -12.553  -7.649   6.858  1.00  0.00     0.335 C 
ATOM     11  O   UNL     1     -11.870  -8.475   7.430  1.00  0.00    -0.246 OA
BRANCH  10  12
ATOM     12  O   UNL     1     -13.894  -7.676   6.989  1.00  0.00    -0.478 OA
ATOM     13  H   UNL     1     -14.368  -8.376   6.520  1.00  0.00     0.297 HD
ENDBRANCH  10  12
ENDBRANCH   6  10
BRANCH   7  14
ATOM     14  C   UNL     1      -7.496  -3.219   3.855  1.00  0.00     0.040 A 
ATOM     15  C   UNL     1      -7.626  -1.899   3.424  1.00  0.00     0.034 A 
ATOM     16  C   UNL     1      -6.235  -3.820   3.876  1.00  0.00     0.034 A 
ATOM     17  C   UNL     1      -6.510  -1.193   3.022  1.00  0.00     0.043 A 
ATOM     18  C   UNL     1      -5.126  -3.103   3.472  1.00  0.00     0.043 A 
ATOM     19  C   UNL     1      -5.263  -1.794   3.045  1.00  0.00     0.041 A 
ATOM     20  Cl  UNL     1      -6.669   0.451   2.486  1.00  0.00    -0.084 Cl
ATOM     21  Cl  UNL     1      -3.558  -3.848   3.497  1.00  0.00    -0.084 Cl
ENDBRANCH   7  14
TORSDOF 3
ENDMDL
MODEL 5
REMARK VINA RESULT:    -4.787      4.003      7.187
REMARK INTER + INTRA:          -5.782
REMARK INTER:                  -5.495
REMARK INTRA:                  -0.287
REMARK UNBOUND:                -0.296
REMARK SMILES O=C(O)c1ccc2nc(-c3cc(Cl)cc(Cl)c3)oc2c1
REMARK SMILES IDX 5 1 6 2 20 3 8 4 18 5 4 6 9 7 7 8 19 9 2 10 1 11 3 12 10 14
REMARK SMILES IDX 11 15 17 16 12 17 15 18 14 19 13 20 16 21
REMARK H PARENT 3 13
ROOT
ATOM      1  C   UNL     1      -6.665  -2.340   1.891  1.00  0.00     0.018 A 
ATOM      2  C   UNL     1      -7.225  -3.566   2.096  1.00  0.00     0.033 A 
ATOM      3  C   UNL     1      -7.826  -1.460   3.830  1.00  0.00     0.065 A 
ATOM      4  N   UNL     1      -8.789  -4.836   3.619  1.00  0.00    -0.209 NA
ATOM      5  O   UNL     1      -9.256  -3.189   4.962  1.00  0.00    -0.436 OA
ATOM      6  C   UNL     1      -6.956  -1.274   2.754  1.00  0.00     0.063 A 
ATOM      7  C   UNL     1      -9.473  -4.488   4.681  1.00  0.00     0.227 A 
ATOM      8  C   UNL     1      -8.099  -3.766   3.172  1.00  0.00     0.110 A 
ATOM      9  C   UNL     1      -8.399  -2.700   4.039  1.00  0.00     0.156 A 
ENDROOT
BRANCH   6  10
ATOM     10  C   UNL     1      -6.340   0.046   2.526  1.00  0.00     0.335 C 
ATOM     11  O   UNL     1      -5.708   0.253   1.509  1.00  0.00    -0.246 OA
BRANCH  10  12
ATOM     12  O   UNL     1      -6.476   1.022   3.445  1.00  0.00    -0.478 OA
ATOM     13  H   UNL     1      -7.295   1.534   3.423  1.00  0.00     0.297 HD
ENDBRANCH  10  12
ENDBRANCH   6  10
BRANCH   7  14
ATOM     14  C   UNL     1     -10.353  -5.388   5.455  1.00  0.00     0.040 A 
ATOM     15  C   UNL     1      -9.851  -6.081   6.558  1.00  0.00     0.034 A 
ATOM     16  C   UNL     1     -11.689  -5.550   5.085  1.00  0.00     0.034 A 
ATOM     17  C   UNL     1     -10.679  -6.920   7.278  1.00  0.00     0.043 A 
ATOM     18  C   UNL     1     -12.507  -6.392   5.812  1.00  0.00     0.043 A 
ATOM     19  C   UNL     1     -12.003  -7.076   6.905  1.00  0.00     0.041 A 
ATOM     20  Cl  UNL     1     -10.057  -7.782   8.650  1.00  0.00    -0.084 Cl
ATOM     21  Cl  UNL     1     -14.169  -6.594   5.353  1.00  0.00    -0.084 Cl
ENDBRANCH   7  14
TORSDOF 3
ENDMDL
MODEL 6
REMARK VINA RESULT:    -4.700      3.944      7.824
REMARK INTER + INTRA:          -5.683
REMARK INTER:                  -5.385
REMARK INTRA:                  -0.298
REMARK UNBOUND:                -0.296
REMARK SMILES O=C(O)c1ccc2nc(-c3cc(Cl)cc(Cl)c3)oc2c1
REMARK SMILES IDX 5 1 6 2 20 3 8 4 18 5 4 6 9 7 7 8 19 9 2 10 1 11 3 12 10 14
REMARK SMILES IDX 11 15 17 16 12 17 15 18 14 19 13 20 16 21
REMARK H PARENT 3 13
ROOT
ATOM      1  C   UNL     1      -5.919  -1.705   2.404  1.00  0.00     0.018 A 
ATOM      2  C   UNL     1      -7.274  -1.846   2.387  1.00  0.00     0.033 A 
ATOM      3  C   UNL     1      -5.723  -3.547   3.969  1.00  0.00     0.065 A 
ATOM      4  N   UNL     1      -9.169  -3.214   3.346  1.00  0.00    -0.209 NA
ATOM      5  O   UNL     1      -7.954  -4.531   4.580  1.00  0.00    -0.436 OA
ATOM      6  C   UNL     1      -5.127  -2.552   3.192  1.00  0.00     0.063 A 
ATOM      7  C   UNL     1      -9.203  -4.218   4.188  1.00  0.00     0.227 A 
ATOM      8  C   UNL     1      -7.885  -2.840   3.161  1.00  0.00     0.110 A 
ATOM      9  C   UNL     1      -7.098  -3.691   3.958  1.00  0.00     0.156 A 
ENDROOT
BRANCH   6  10
ATOM     10  C   UNL     1      -3.661  -2.393   3.198  1.00  0.00     0.335 C 
ATOM     11  O   UNL     1      -3.154  -1.421   2.675  1.00  0.00    -0.246 OA
BRANCH  10  12
ATOM     12  O   UNL     1      -2.884  -3.325   3.784  1.00  0.00    -0.478 OA
ATOM     13  H   UNL     1      -1.962  -3.088   3.950  1.00  0.00     0.297 HD
ENDBRANCH  10  12
ENDBRANCH   6  10
BRANCH   7  14
ATOM     14  C   UNL     1     -10.432  -4.902   4.640  1.00  0.00     0.040 A 
ATOM     15  C   UNL     1     -11.663  -4.586   4.065  1.00  0.00     0.034 A 
ATOM     16  C   UNL     1     -10.365  -5.869   5.646  1.00  0.00     0.034 A 
ATOM     17  C   UNL     1     -12.807  -5.230   4.492  1.00  0.00     0.043 A 
ATOM     18  C   UNL     1     -11.516  -6.506   6.064  1.00  0.00     0.043 A 
ATOM     19  C   UNL     1     -12.735  -6.188   5.489  1.00  0.00     0.041 A 
ATOM     20  Cl  UNL     1     -14.340  -4.839   3.777  1.00  0.00    -0.084 Cl
ATOM     21  Cl  UNL     1     -11.435  -7.708   7.315  1.00  0.00    -0.084 Cl
ENDBRANCH   7  14
TORSDOF 3
ENDMDL
MODEL 7
REMARK VINA RESULT:    -4.698      3.943      7.601
REMARK INTER + INTRA:          -5.680
REMARK INTER:                  -5.382
REMARK INTRA:                  -0.298
REMARK UNBOUND:                -0.296
REMARK SMILES O=C(O)c1ccc2nc(-c3cc(Cl)cc(Cl)c3)oc2c1
REMARK SMILES IDX 5 1 6 2 20 3 8 4 18 5 4 6 9 7 7 8 19 9 2 10 1 11 3 12 10 14
REMARK SMILES IDX 11 15 17 16 12 17 15 18 14 19 13 20 16 21
REMARK H PARENT 3 13
ROOT
ATOM      1  C   UNL     1      -5.920  -1.700   2.407  1.00  0.00     0.018 A 
ATOM      2  C   UNL     1      -7.276  -1.840   2.389  1.00  0.00     0.033 A 
ATOM      3  C   UNL     1      -5.727  -3.549   3.965  1.00  0.00     0.065 A 
ATOM      4  N   UNL     1      -9.172  -3.209   3.343  1.00  0.00    -0.209 NA
ATOM      5  O   UNL     1      -7.959  -4.532   4.572  1.00  0.00    -0.436 OA
ATOM      6  C   UNL     1      -5.129  -2.552   3.192  1.00  0.00     0.063 A 
ATOM      7  C   UNL     1      -9.208  -4.215   4.181  1.00  0.00     0.227 A 
ATOM      8  C   UNL     1      -7.888  -2.836   3.160  1.00  0.00     0.110 A 
ATOM      9  C   UNL     1      -7.102  -3.691   3.953  1.00  0.00     0.156 A 
ENDROOT
BRANCH   6  10
ATOM     10  C   UNL     1      -3.664  -2.395   3.199  1.00  0.00     0.335 C 
ATOM     11  O   UNL     1      -3.154  -1.424   2.676  1.00  0.00    -0.246 OA
BRANCH  10  12
ATOM     12  O   UNL     1      -2.888  -3.329   3.785  1.00  0.00    -0.478 OA
ATOM     13  H   UNL     1      -3.262  -4.215   3.877  1.00  0.00     0.297 HD
ENDBRANCH  10  12
ENDBRANCH   6  10
BRANCH   7  14
ATOM     14  C   UNL     1     -10.438  -4.900   4.631  1.00  0.00     0.040 A 
ATOM     15  C   UNL     1     -10.375  -5.865   5.637  1.00  0.00     0.034 A 
ATOM     16  C   UNL     1     -11.667  -4.584   4.050  1.00  0.00     0.034 A 
ATOM     17  C   UNL     1     -11.528  -6.500   6.054  1.00  0.00     0.043 A 
ATOM     18  C   UNL     1     -12.813  -5.227   4.475  1.00  0.00     0.043 A 
ATOM     19  C   UNL     1     -12.744  -6.183   5.473  1.00  0.00     0.041 A 
ATOM     20  Cl  UNL     1     -11.452  -7.700   7.305  1.00  0.00    -0.084 Cl
ATOM     21  Cl  UNL     1     -14.344  -4.836   3.753  1.00  0.00    -0.084 Cl
ENDBRANCH   7  14
TORSDOF 3
ENDMDL
MODEL 8
REMARK VINA RESULT:    -4.541      5.087      6.546
REMARK INTER + INTRA:          -5.500
REMARK INTER:                  -5.215
REMARK INTRA:                  -0.285
REMARK UNBOUND:                -0.296
REMARK SMILES O=C(O)c1ccc2nc(-c3cc(Cl)cc(Cl)c3)oc2c1
REMARK SMILES IDX 5 1 6 2 20 3 8 4 18 5 4 6 9 7 7 8 19 9 2 10 1 11 3 12 10 14
REMARK SMILES IDX 11 15 17 16 12 17 15 18 14 19 13 20 16 21
REMARK H PARENT 3 13
ROOT
ATOM      1  C   UNL     1     -13.227  -9.399   9.940  1.00  0.00     0.018 A 
ATOM      2  C   UNL     1     -13.413  -9.000   8.651  1.00  0.00     0.033 A 
ATOM      3  C   UNL     1     -11.321  -7.915  10.150  1.00  0.00     0.065 A 
ATOM      4  N   UNL     1     -12.491  -7.472   6.862  1.00  0.00    -0.209 NA
ATOM      5  O   UNL     1     -10.861  -6.636   8.035  1.00  0.00    -0.436 OA
ATOM      6  C   UNL     1     -12.182  -8.863  10.706  1.00  0.00     0.063 A 
ATOM      7  C   UNL     1     -11.484  -6.635   6.842  1.00  0.00     0.227 A 
ATOM      8  C   UNL     1     -12.557  -8.050   8.081  1.00  0.00     0.110 A 
ATOM      9  C   UNL     1     -11.504  -7.510   8.841  1.00  0.00     0.156 A 
ENDROOT
BRANCH   6  10
ATOM     10  C   UNL     1     -11.994  -9.298  12.101  1.00  0.00     0.335 C 
ATOM     11  O   UNL     1     -12.693  -8.837  12.981  1.00  0.00    -0.246 OA
BRANCH  10  12
ATOM     12  O   UNL     1     -11.046 -10.208  12.402  1.00  0.00    -0.478 OA
ATOM     13  H   UNL     1     -10.577 -10.094  13.239  1.00  0.00     0.297 HD
ENDBRANCH  10  12
ENDBRANCH   6  10
BRANCH   7  14
ATOM     14  C   UNL     1     -11.090  -5.812   5.679  1.00  0.00     0.040 A 
ATOM     15  C   UNL     1      -9.752  -5.465   5.487  1.00  0.00     0.034 A 
ATOM     16  C   UNL     1     -12.056  -5.378   4.769  1.00  0.00     0.034 A 
ATOM     17  C   UNL     1      -9.391  -4.696   4.398  1.00  0.00     0.043 A 
ATOM     18  C   UNL     1     -11.682  -4.610   3.685  1.00  0.00     0.043 A 
ATOM     19  C   UNL     1     -10.354  -4.269   3.499  1.00  0.00     0.041 A 
ATOM     20  Cl  UNL     1      -7.727  -4.264   4.157  1.00  0.00    -0.084 Cl
ATOM     21  Cl  UNL     1     -12.882  -4.069   2.551  1.00  0.00    -0.084 Cl
ENDBRANCH   7  14
TORSDOF 3
ENDMDL
MODEL 9
REMARK VINA RESULT:    -4.540      5.084      6.689
REMARK INTER + INTRA:          -5.499
REMARK INTER:                  -5.214
REMARK INTRA:                  -0.284
REMARK UNBOUND:                -0.296
REMARK SMILES O=C(O)c1ccc2nc(-c3cc(Cl)cc(Cl)c3)oc2c1
REMARK SMILES IDX 5 1 6 2 20 3 8 4 18 5 4 6 9 7 7 8 19 9 2 10 1 11 3 12 10 14
REMARK SMILES IDX 11 15 17 16 12 17 15 18 14 19 13 20 16 21
REMARK H PARENT 3 13
ROOT
ATOM      1  C   UNL     1     -13.216  -9.400   9.938  1.00  0.00     0.018 A 
ATOM      2  C   UNL     1     -13.400  -9.007   8.647  1.00  0.00     0.033 A 
ATOM      3  C   UNL     1     -11.323  -7.900  10.152  1.00  0.00     0.065 A 
ATOM      4  N   UNL     1     -12.481  -7.479   6.857  1.00  0.00    -0.209 NA
ATOM      5  O   UNL     1     -10.862  -6.626   8.034  1.00  0.00    -0.436 OA
ATOM      6  C   UNL     1     -12.179  -8.852  10.707  1.00  0.00     0.063 A 
ATOM      7  C   UNL     1     -11.480  -6.634   6.838  1.00  0.00     0.227 A 
ATOM      8  C   UNL     1     -12.548  -8.052   8.077  1.00  0.00     0.110 A 
ATOM      9  C   UNL     1     -11.503  -7.502   8.840  1.00  0.00     0.156 A 
ENDROOT
BRANCH   6  10
ATOM     10  C   UNL     1     -11.995  -9.281  12.105  1.00  0.00     0.335 C 
ATOM     11  O   UNL     1     -12.688  -8.806  12.983  1.00  0.00    -0.246 OA
BRANCH  10  12
ATOM     12  O   UNL     1     -11.056 -10.199  12.410  1.00  0.00    -0.478 OA
ATOM     13  H   UNL     1     -11.317 -11.128  12.356  1.00  0.00     0.297 HD
ENDBRANCH  10  12
ENDBRANCH   6  10
BRANCH   7  14
ATOM     14  C   UNL     1     -11.087  -5.813   5.674  1.00  0.00     0.040 A 
ATOM     15  C   UNL     1     -12.052  -5.376   4.766  1.00  0.00     0.034 A 
ATOM     16  C   UNL     1      -9.747  -5.471   5.478  1.00  0.00     0.034 A 
ATOM     17  C   UNL     1     -11.679  -4.608   3.681  1.00  0.00     0.043 A 
ATOM     18  C   UNL     1      -9.386  -4.702   4.390  1.00  0.00     0.043 A 
ATOM     19  C   UNL     1     -10.348  -4.272   3.493  1.00  0.00     0.041 A 
ATOM     20  Cl  UNL     1     -12.878  -4.063   2.551  1.00  0.00    -0.084 Cl
ATOM     21  Cl  UNL     1      -7.721  -4.276   4.145  1.00  0.00    -0.084 Cl
ENDBRANCH   7  14
TORSDOF 3
ENDMDL
