MODEL 1
REMARK VINA RESULT:    -4.305      0.000      0.000
REMARK INTER + INTRA:          -5.218
REMARK INTER:                  -4.934
REMARK INTRA:                  -0.284
REMARK UNBOUND:                -0.284
REMARK SMILES O=C(O)c1ccc2nc(-c3cc(Cl)cc(Cl)c3)oc2c1
REMARK SMILES IDX 5 1 6 2 20 3 8 4 18 5 4 6 9 7 7 8 19 9 2 10 1 11 3 12 10 14
REMARK SMILES IDX 11 15 17 16 12 17 15 18 14 19 13 20 16 21
REMARK H PARENT 3 13
ROOT
ATOM      1  C   UNL     1      -9.465   5.273  13.078  1.00  0.00     0.018 A 
ATOM      2  C   UNL     1      -9.500   3.972  12.672  1.00  0.00     0.033 A 
ATOM      3  C   UNL     1      -8.103   5.860  11.159  1.00  0.00     0.065 A 
ATOM      4  N   UNL     1      -8.694   2.405  10.862  1.00  0.00    -0.209 NA
ATOM      5  O   UNL     1      -7.604   3.880   9.692  1.00  0.00    -0.436 OA
ATOM      6  C   UNL     1      -8.769   6.232  12.328  1.00  0.00     0.063 A 
ATOM      7  C   UNL     1      -7.964   2.586   9.790  1.00  0.00     0.227 A 
ATOM      8  C   UNL     1      -8.836   3.586  11.501  1.00  0.00     0.110 A 
ATOM      9  C   UNL     1      -8.132   4.541  10.747  1.00  0.00     0.156 A 
ENDROOT
BRANCH   6  10
ATOM     10  C   UNL     1      -8.743   7.636  12.775  1.00  0.00     0.335 C 
ATOM     11  O   UNL     1      -9.664   8.379  12.498  1.00  0.00    -0.246 OA
BRANCH  10  12
ATOM     12  O   UNL     1      -7.697   8.098  13.489  1.00  0.00    -0.478 OA
ATOM     13  H   UNL     1      -6.946   7.501  13.603  1.00  0.00     0.297 HD
ENDBRANCH  10  12
ENDBRANCH   6  10
BRANCH   7  14
ATOM     14  C   UNL     1      -7.589   1.527   8.831  1.00  0.00     0.040 A 
ATOM     15  C   UNL     1      -6.354   1.573   8.182  1.00  0.00     0.034 A 
ATOM     16  C   UNL     1      -8.469   0.475   8.570  1.00  0.00     0.034 A 
ATOM     17  C   UNL     1      -6.009   0.579   7.288  1.00  0.00     0.043 A 
ATOM     18  C   UNL     1      -8.113  -0.513   7.674  1.00  0.00     0.043 A 
ATOM     19  C   UNL     1      -6.887  -0.461   7.033  1.00  0.00     0.041 A 
ATOM     20  Cl  UNL     1      -4.474   0.634   6.480  1.00  0.00    -0.084 Cl
ATOM     21  Cl  UNL     1      -9.207  -1.822   7.348  1.00  0.00    -0.084 Cl
ENDBRANCH   7  14
TORSDOF 3
ENDMDL
MODEL 2
REMARK VINA RESULT:    -4.297      0.012      2.019
REMARK INTER + INTRA:          -5.209
REMARK INTER:                  -4.925
REMARK INTRA:                  -0.284
REMARK UNBOUND:                -0.284
REMARK SMILES O=C(O)c1ccc2nc(-c3cc(Cl)cc(Cl)c3)oc2c1
REMARK SMILES IDX 5 1 6 2 20 3 8 4 18 5 4 6 9 7 7 8 19 9 2 10 1 11 3 12 10 14
REMARK SMILES IDX 11 15 17 16 12 17 15 18 14 19 13 20 16 21
REMARK H PARENT 3 13
ROOT
ATOM      1  C   UNL     1      -9.458   5.271  13.081  1.00  0.00     0.018 A 
ATOM      2  C   UNL     1      -9.492   3.971  12.673  1.00  0.00     0.033 A 
ATOM      3  C   UNL     1      -8.101   5.861  11.160  1.00  0.00     0.065 A 
ATOM      4  N   UNL     1      -8.688   2.406  10.860  1.00  0.00    -0.209 NA
ATOM      5  O   UNL     1      -7.602   3.884   9.690  1.00  0.00    -0.436 OA
ATOM      6  C   UNL     1      -8.765   6.231  12.330  1.00  0.00     0.063 A 
ATOM      7  C   UNL     1      -7.959   2.589   9.787  1.00  0.00     0.227 A 
ATOM      8  C   UNL     1      -8.830   3.586  11.501  1.00  0.00     0.110 A 
ATOM      9  C   UNL     1      -8.129   4.542  10.746  1.00  0.00     0.156 A 
ENDROOT
BRANCH   6  10
ATOM     10  C   UNL     1      -8.740   7.636  12.778  1.00  0.00     0.335 C 
ATOM     11  O   UNL     1      -9.660   8.378  12.498  1.00  0.00    -0.246 OA
BRANCH  10  12
ATOM     12  O   UNL     1      -7.697   8.096  13.496  1.00  0.00    -0.478 OA
ATOM     13  H   UNL     1      -7.109   8.728  13.060  1.00  0.00     0.297 HD
ENDBRANCH  10  12
ENDBRANCH   6  10
BRANCH   7  14
ATOM     14  C   UNL     1      -7.585   1.531   8.827  1.00  0.00     0.040 A 
ATOM     15  C   UNL     1      -8.459   0.474   8.572  1.00  0.00     0.034 A 
ATOM     16  C   UNL     1      -6.353   1.585   8.171  1.00  0.00     0.034 A 
ATOM     17  C   UNL     1      -8.103  -0.512   7.672  1.00  0.00     0.043 A 
ATOM     18  C   UNL     1      -6.009   0.594   7.273  1.00  0.00     0.043 A 
ATOM     19  C   UNL     1      -6.881  -0.453   7.025  1.00  0.00     0.041 A 
ATOM     20  Cl  UNL     1      -9.190  -1.827   7.354  1.00  0.00    -0.084 Cl
ATOM     21  Cl  UNL     1      -4.478   0.659   6.456  1.00  0.00    -0.084 Cl
ENDBRANCH   7  14
TORSDOF 3
ENDMDL
MODEL 3
REMARK VINA RESULT:    -4.146      5.071      6.527
REMARK INTER + INTRA:          -5.036
REMARK INTER:                  -4.740
REMARK INTRA:                  -0.296
REMARK UNBOUND:                -0.284
REMARK SMILES O=C(O)c1ccc2nc(-c3cc(Cl)cc(Cl)c3)oc2c1
REMARK SMILES IDX 5 1 6 2 20 3 8 4 18 5 4 6 9 7 7 8 19 9 2 10 1 11 3 12 10 14
REMARK SMILES IDX 11 15 17 16 12 17 15 18 14 19 13 20 16 21
REMARK H PARENT 3 13
ROOT
ATOM      1  C   UNL     1      -8.954   0.863   9.361  1.00  0.00     0.018 A 
ATOM      2  C   UNL     1      -7.704   1.289   9.024  1.00  0.00     0.033 A 
ATOM      3  C   UNL     1      -8.900  -0.779   7.577  1.00  0.00     0.065 A 
ATOM      4  N   UNL     1      -5.811   0.894   7.399  1.00  0.00    -0.209 NA
ATOM      5  O   UNL     1      -6.751  -0.713   6.274  1.00  0.00    -0.436 OA
ATOM      6  C   UNL     1      -9.566  -0.176   8.646  1.00  0.00     0.063 A 
ATOM      7  C   UNL     1      -5.655   0.057   6.403  1.00  0.00     0.227 A 
ATOM      8  C   UNL     1      -7.025   0.693   7.955  1.00  0.00     0.110 A 
ATOM      9  C   UNL     1      -7.634  -0.346   7.229  1.00  0.00     0.156 A 
ENDROOT
BRANCH   6  10
ATOM     10  C   UNL     1     -10.916  -0.634   9.023  1.00  0.00     0.335 C 
ATOM     11  O   UNL     1     -11.519  -1.405   8.304  1.00  0.00    -0.246 OA
BRANCH  10  12
ATOM     12  O   UNL     1     -11.481  -0.195  10.165  1.00  0.00    -0.478 OA
ATOM     13  H   UNL     1     -12.287  -0.643  10.456  1.00  0.00     0.297 HD
ENDBRANCH  10  12
ENDBRANCH   6  10
BRANCH   7  14
ATOM     14  C   UNL     1      -4.452  -0.027   5.549  1.00  0.00     0.040 A 
ATOM     15  C   UNL     1      -3.210   0.368   6.046  1.00  0.00     0.034 A 
ATOM     16  C   UNL     1      -4.556  -0.503   4.240  1.00  0.00     0.034 A 
ATOM     17  C   UNL     1      -2.090   0.285   5.242  1.00  0.00     0.043 A 
ATOM     18  C   UNL     1      -3.429  -0.581   3.446  1.00  0.00     0.043 A 
ATOM     19  C   UNL     1      -2.199  -0.187   3.945  1.00  0.00     0.041 A 
ATOM     20  Cl  UNL     1      -0.543   0.776   5.858  1.00  0.00    -0.084 Cl
ATOM     21  Cl  UNL     1      -3.555  -1.172   1.818  1.00  0.00    -0.084 Cl
ENDBRANCH   7  14
TORSDOF 3
ENDMDL
MODEL 4
REMARK VINA RESULT:    -4.144      5.070      6.692
REMARK INTER + INTRA:          -5.033
REMARK INTER:                  -4.737
REMARK INTRA:                  -0.296
REMARK UNBOUND:                -0.284
REMARK SMILES O=C(O)c1ccc2nc(-c3cc(Cl)cc(Cl)c3)oc2c1
REMARK SMILES IDX 5 1 6 2 20 3 8 4 18 5 4 6 9 7 7 8 19 9 2 10 1 11 3 12 10 14
REMARK SMILES IDX 11 15 17 16 12 17 15 18 14 19 13 20 16 21
REMARK H PARENT 3 13
ROOT
ATOM      1  C   UNL     1      -8.953   0.860   9.362  1.00  0.00     0.018 A 
ATOM      2  C   UNL     1      -7.703   1.288   9.026  1.00  0.00     0.033 A 
ATOM      3  C   UNL     1      -8.898  -0.780   7.578  1.00  0.00     0.065 A 
ATOM      4  N   UNL     1      -5.809   0.894   7.402  1.00  0.00    -0.209 NA
ATOM      5  O   UNL     1      -6.748  -0.713   6.275  1.00  0.00    -0.436 OA
ATOM      6  C   UNL     1      -9.565  -0.178   8.646  1.00  0.00     0.063 A 
ATOM      7  C   UNL     1      -5.652   0.058   6.406  1.00  0.00     0.227 A 
ATOM      8  C   UNL     1      -7.023   0.692   7.957  1.00  0.00     0.110 A 
ATOM      9  C   UNL     1      -7.632  -0.346   7.230  1.00  0.00     0.156 A 
ENDROOT
BRANCH   6  10
ATOM     10  C   UNL     1     -10.914  -0.636   9.023  1.00  0.00     0.335 C 
ATOM     11  O   UNL     1     -11.508  -1.423   8.313  1.00  0.00    -0.246 OA
BRANCH  10  12
ATOM     12  O   UNL     1     -11.490  -0.180  10.153  1.00  0.00    -0.478 OA
ATOM     13  H   UNL     1     -11.118  -0.488  10.990  1.00  0.00     0.297 HD
ENDBRANCH  10  12
ENDBRANCH   6  10
BRANCH   7  14
ATOM     14  C   UNL     1      -4.449  -0.026   5.552  1.00  0.00     0.040 A 
ATOM     15  C   UNL     1      -4.550  -0.502   4.244  1.00  0.00     0.034 A 
ATOM     16  C   UNL     1      -3.207   0.369   6.052  1.00  0.00     0.034 A 
ATOM     17  C   UNL     1      -3.422  -0.577   3.450  1.00  0.00     0.043 A 
ATOM     18  C   UNL     1      -2.086   0.289   5.249  1.00  0.00     0.043 A 
ATOM     19  C   UNL     1      -2.193  -0.183   3.952  1.00  0.00     0.041 A 
ATOM     20  Cl  UNL     1      -3.545  -1.167   1.823  1.00  0.00    -0.084 Cl
ATOM     21  Cl  UNL     1      -0.540   0.780   5.868  1.00  0.00    -0.084 Cl
ENDBRANCH   7  14
TORSDOF 3
ENDMDL
MODEL 5
REMARK VINA RESULT:    -4.132      3.529      5.560
REMARK INTER + INTRA:          -5.020
REMARK INTER:                  -4.724
REMARK INTRA:                  -0.296
REMARK UNBOUND:                -0.284
REMARK SMILES O=C(O)c1ccc2nc(-c3cc(Cl)cc(Cl)c3)oc2c1
REMARK SMILES IDX 5 1 6 2 20 3 8 4 18 5 4 6 9 7 7 8 19 9 2 10 1 11 3 12 10 14
REMARK SMILES IDX 11 15 17 16 12 17 15 18 14 19 13 20 16 21
REMARK H PARENT 3 13
ROOT
ATOM      1  C   UNL     1      -9.017   0.720   9.354  1.00  0.00     0.018 A 
ATOM      2  C   UNL     1      -8.596   0.052   8.243  1.00  0.00     0.033 A 
ATOM      3  C   UNL     1      -7.011   2.083   9.323  1.00  0.00     0.065 A 
ATOM      4  N   UNL     1      -6.708  -0.087   6.570  1.00  0.00    -0.209 NA
ATOM      5  O   UNL     1      -5.477   1.492   7.420  1.00  0.00    -0.436 OA
ATOM      6  C   UNL     1      -8.233   1.743   9.906  1.00  0.00     0.063 A 
ATOM      7  C   UNL     1      -5.585   0.575   6.441  1.00  0.00     0.227 A 
ATOM      8  C   UNL     1      -7.373   0.383   7.647  1.00  0.00     0.110 A 
ATOM      9  C   UNL     1      -6.579   1.404   8.198  1.00  0.00     0.156 A 
ENDROOT
BRANCH   6  10
ATOM     10  C   UNL     1      -8.701   2.462  11.105  1.00  0.00     0.335 C 
ATOM     11  O   UNL     1      -7.957   3.232  11.679  1.00  0.00    -0.246 OA
BRANCH  10  12
ATOM     12  O   UNL     1      -9.953   2.265  11.564  1.00  0.00    -0.478 OA
ATOM     13  H   UNL     1     -10.467   1.562  11.147  1.00  0.00     0.297 HD
ENDBRANCH  10  12
ENDBRANCH   6  10
BRANCH   7  14
ATOM     14  C   UNL     1      -4.586   0.348   5.377  1.00  0.00     0.040 A 
ATOM     15  C   UNL     1      -4.981  -0.166   4.141  1.00  0.00     0.034 A 
ATOM     16  C   UNL     1      -3.240   0.645   5.605  1.00  0.00     0.034 A 
ATOM     17  C   UNL     1      -4.042  -0.375   3.151  1.00  0.00     0.043 A 
ATOM     18  C   UNL     1      -2.311   0.431   4.607  1.00  0.00     0.043 A 
ATOM     19  C   UNL     1      -2.710  -0.078   3.383  1.00  0.00     0.041 A 
ATOM     20  Cl  UNL     1      -4.532  -1.013   1.613  1.00  0.00    -0.084 Cl
ATOM     21  Cl  UNL     1      -0.638   0.801   4.888  1.00  0.00    -0.084 Cl
ENDBRANCH   7  14
TORSDOF 3
ENDMDL
MODEL 6
REMARK VINA RESULT:    -4.131      3.528      5.300
REMARK INTER + INTRA:          -5.019
REMARK INTER:                  -4.723
REMARK INTRA:                  -0.296
REMARK UNBOUND:                -0.284
REMARK SMILES O=C(O)c1ccc2nc(-c3cc(Cl)cc(Cl)c3)oc2c1
REMARK SMILES IDX 5 1 6 2 20 3 8 4 18 5 4 6 9 7 7 8 19 9 2 10 1 11 3 12 10 14
REMARK SMILES IDX 11 15 17 16 12 17 15 18 14 19 13 20 16 21
REMARK H PARENT 3 13
ROOT
ATOM      1  C   UNL     1      -9.024   0.706   9.360  1.00  0.00     0.018 A 
ATOM      2  C   UNL     1      -8.596   0.041   8.251  1.00  0.00     0.033 A 
ATOM      3  C   UNL     1      -7.023   2.076   9.340  1.00  0.00     0.065 A 
ATOM      4  N   UNL     1      -6.700  -0.090   6.587  1.00  0.00    -0.209 NA
ATOM      5  O   UNL     1      -5.478   1.493   7.444  1.00  0.00    -0.436 OA
ATOM      6  C   UNL     1      -8.247   1.731   9.917  1.00  0.00     0.063 A 
ATOM      7  C   UNL     1      -5.579   0.576   6.463  1.00  0.00     0.227 A 
ATOM      8  C   UNL     1      -7.371   0.376   7.661  1.00  0.00     0.110 A 
ATOM      9  C   UNL     1      -6.583   1.400   8.216  1.00  0.00     0.156 A 
ENDROOT
BRANCH   6  10
ATOM     10  C   UNL     1      -8.723   2.447  11.114  1.00  0.00     0.335 C 
ATOM     11  O   UNL     1      -8.000   3.252  11.667  1.00  0.00    -0.246 OA
BRANCH  10  12
ATOM     12  O   UNL     1      -9.959   2.209  11.596  1.00  0.00    -0.478 OA
ATOM     13  H   UNL     1     -10.345   1.344  11.405  1.00  0.00     0.297 HD
ENDBRANCH  10  12
ENDBRANCH   6  10
BRANCH   7  14
ATOM     14  C   UNL     1      -4.573   0.353   5.403  1.00  0.00     0.040 A 
ATOM     15  C   UNL     1      -3.231   0.657   5.636  1.00  0.00     0.034 A 
ATOM     16  C   UNL     1      -4.963  -0.161   4.165  1.00  0.00     0.034 A 
ATOM     17  C   UNL     1      -2.296   0.445   4.642  1.00  0.00     0.043 A 
ATOM     18  C   UNL     1      -4.019  -0.368   3.179  1.00  0.00     0.043 A 
ATOM     19  C   UNL     1      -2.689  -0.065   3.416  1.00  0.00     0.041 A 
ATOM     20  Cl  UNL     1      -0.626   0.821   4.928  1.00  0.00    -0.084 Cl
ATOM     21  Cl  UNL     1      -4.501  -1.008   1.639  1.00  0.00    -0.084 Cl
ENDBRANCH   7  14
TORSDOF 3
ENDMDL
MODEL 7
REMARK VINA RESULT:    -4.027      5.240      8.794
REMARK INTER + INTRA:          -4.899
REMARK INTER:                  -4.601
REMARK INTRA:                  -0.298
REMARK UNBOUND:                -0.284
REMARK SMILES O=C(O)c1ccc2nc(-c3cc(Cl)cc(Cl)c3)oc2c1
REMARK SMILES IDX 5 1 6 2 20 3 8 4 18 5 4 6 9 7 7 8 19 9 2 10 1 11 3 12 10 14
REMARK SMILES IDX 11 15 17 16 12 17 15 18 14 19 13 20 16 21
REMARK H PARENT 3 13
ROOT
ATOM      1  C   UNL     1      -2.112   0.578   4.508  1.00  0.00     0.018 A 
ATOM      2  C   UNL     1      -2.710   1.097   5.617  1.00  0.00     0.033 A 
ATOM      3  C   UNL     1      -4.093  -0.735   4.025  1.00  0.00     0.065 A 
ATOM      4  N   UNL     1      -4.846   1.042   6.966  1.00  0.00    -0.209 NA
ATOM      5  O   UNL     1      -5.914  -0.390   5.724  1.00  0.00    -0.436 OA
ATOM      6  C   UNL     1      -2.794  -0.341   3.698  1.00  0.00     0.063 A 
ATOM      7  C   UNL     1      -5.971   0.387   6.822  1.00  0.00     0.227 A 
ATOM      8  C   UNL     1      -4.013   0.710   5.957  1.00  0.00     0.110 A 
ATOM      9  C   UNL     1      -4.702  -0.215   5.152  1.00  0.00     0.156 A 
ENDROOT
BRANCH   6  10
ATOM     10  C   UNL     1      -2.139  -0.891   2.498  1.00  0.00     0.335 C 
ATOM     11  O   UNL     1      -0.978  -0.623   2.263  1.00  0.00    -0.246 OA
BRANCH  10  12
ATOM     12  O   UNL     1      -2.828  -1.691   1.660  1.00  0.00    -0.478 OA
ATOM     13  H   UNL     1      -3.579  -1.298   1.195  1.00  0.00     0.297 HD
ENDBRANCH  10  12
ENDBRANCH   6  10
BRANCH   7  14
ATOM     14  C   UNL     1      -7.131   0.486   7.732  1.00  0.00     0.040 A 
ATOM     15  C   UNL     1      -7.153   1.453   8.737  1.00  0.00     0.034 A 
ATOM     16  C   UNL     1      -8.210  -0.389   7.589  1.00  0.00     0.034 A 
ATOM     17  C   UNL     1      -8.241   1.541   9.584  1.00  0.00     0.043 A 
ATOM     18  C   UNL     1      -9.291  -0.291   8.442  1.00  0.00     0.043 A 
ATOM     19  C   UNL     1      -9.307   0.670   9.437  1.00  0.00     0.041 A 
ATOM     20  Cl  UNL     1      -8.270   2.744  10.835  1.00  0.00    -0.084 Cl
ATOM     21  Cl  UNL     1     -10.634  -1.379   8.266  1.00  0.00    -0.084 Cl
ENDBRANCH   7  14
TORSDOF 3
ENDMDL
MODEL 8
REMARK VINA RESULT:    -4.021      5.239      8.944
REMARK INTER + INTRA:          -4.892
REMARK INTER:                  -4.594
REMARK INTRA:                  -0.298
REMARK UNBOUND:                -0.284
REMARK SMILES O=C(O)c1ccc2nc(-c3cc(Cl)cc(Cl)c3)oc2c1
REMARK SMILES IDX 5 1 6 2 20 3 8 4 18 5 4 6 9 7 7 8 19 9 2 10 1 11 3 12 10 14
REMARK SMILES IDX 11 15 17 16 12 17 15 18 14 19 13 20 16 21
REMARK H PARENT 3 13
ROOT
ATOM      1  C   UNL     1      -2.107   0.576   4.513  1.00  0.00     0.018 A 
ATOM      2  C   UNL     1      -2.706   1.094   5.622  1.00  0.00     0.033 A 
ATOM      3  C   UNL     1      -4.090  -0.733   4.025  1.00  0.00     0.065 A 
ATOM      4  N   UNL     1      -4.842   1.039   6.970  1.00  0.00    -0.209 NA
ATOM      5  O   UNL     1      -5.911  -0.388   5.723  1.00  0.00    -0.436 OA
ATOM      6  C   UNL     1      -2.790  -0.340   3.700  1.00  0.00     0.063 A 
ATOM      7  C   UNL     1      -5.968   0.386   6.823  1.00  0.00     0.227 A 
ATOM      8  C   UNL     1      -4.009   0.708   5.960  1.00  0.00     0.110 A 
ATOM      9  C   UNL     1      -4.698  -0.214   5.153  1.00  0.00     0.156 A 
ENDROOT
BRANCH   6  10
ATOM     10  C   UNL     1      -2.135  -0.888   2.499  1.00  0.00     0.335 C 
ATOM     11  O   UNL     1      -0.975  -0.616   2.262  1.00  0.00    -0.246 OA
BRANCH  10  12
ATOM     12  O   UNL     1      -2.823  -1.691   1.663  1.00  0.00    -0.478 OA
ATOM     13  H   UNL     1      -2.458  -1.817   0.776  1.00  0.00     0.297 HD
ENDBRANCH  10  12
ENDBRANCH   6  10
BRANCH   7  14
ATOM     14  C   UNL     1      -7.129   0.485   7.732  1.00  0.00     0.040 A 
ATOM     15  C   UNL     1      -8.207  -0.389   7.590  1.00  0.00     0.034 A 
ATOM     16  C   UNL     1      -7.151   1.455   8.737  1.00  0.00     0.034 A 
ATOM     17  C   UNL     1      -9.288  -0.292   8.444  1.00  0.00     0.043 A 
ATOM     18  C   UNL     1      -8.237   1.542   9.584  1.00  0.00     0.043 A 
ATOM     19  C   UNL     1      -9.304   0.672   9.438  1.00  0.00     0.041 A 
ATOM     20  Cl  UNL     1     -10.631  -1.379   8.269  1.00  0.00    -0.084 Cl
ATOM     21  Cl  UNL     1      -8.267   2.747  10.834  1.00  0.00    -0.084 Cl
ENDBRANCH   7  14
TORSDOF 3
ENDMDL
MODEL 9
REMARK VINA RESULT:    -3.589      3.992      8.039
REMARK INTER + INTRA:          -4.397
REMARK INTER:                  -4.111
REMARK INTRA:                  -0.286
REMARK UNBOUND:                -0.284
REMARK SMILES O=C(O)c1ccc2nc(-c3cc(Cl)cc(Cl)c3)oc2c1
REMARK SMILES IDX 5 1 6 2 20 3 8 4 18 5 4 6 9 7 7 8 19 9 2 10 1 11 3 12 10 14
REMARK SMILES IDX 11 15 17 16 12 17 15 18 14 19 13 20 16 21
REMARK H PARENT 3 13
ROOT
ATOM      1  C   UNL     1      -4.371  -0.778   6.192  1.00  0.00     0.018 A 
ATOM      2  C   UNL     1      -4.548  -0.448   7.502  1.00  0.00     0.033 A 
ATOM      3  C   UNL     1      -6.223   0.653   5.557  1.00  0.00     0.065 A 
ATOM      4  N   UNL     1      -5.976   0.942   9.055  1.00  0.00    -0.209 NA
ATOM      5  O   UNL     1      -7.280   1.792   7.534  1.00  0.00    -0.436 OA
ATOM      6  C   UNL     1      -5.203  -0.232   5.204  1.00  0.00     0.063 A 
ATOM      7  C   UNL     1      -6.991   1.744   8.848  1.00  0.00     0.227 A 
ATOM      8  C   UNL     1      -5.567   0.439   7.870  1.00  0.00     0.110 A 
ATOM      9  C   UNL     1      -6.408   0.987   6.886  1.00  0.00     0.156 A 
ENDROOT
BRANCH   6  10
ATOM     10  C   UNL     1      -4.999  -0.592   3.790  1.00  0.00     0.335 C 
ATOM     11  O   UNL     1      -4.409  -1.614   3.502  1.00  0.00    -0.246 OA
BRANCH  10  12
ATOM     12  O   UNL     1      -5.467   0.213   2.815  1.00  0.00    -0.478 OA
ATOM     13  H   UNL     1      -6.266  -0.074   2.354  1.00  0.00     0.297 HD
ENDBRANCH  10  12
ENDBRANCH   6  10
BRANCH   7  14
ATOM     14  C   UNL     1      -7.714   2.485   9.903  1.00  0.00     0.040 A 
ATOM     15  C   UNL     1      -8.584   1.812  10.762  1.00  0.00     0.034 A 
ATOM     16  C   UNL     1      -7.528   3.862  10.044  1.00  0.00     0.034 A 
ATOM     17  C   UNL     1      -9.255   2.510  11.746  1.00  0.00     0.043 A 
ATOM     18  C   UNL     1      -8.205   4.549  11.032  1.00  0.00     0.043 A 
ATOM     19  C   UNL     1      -9.067   3.876  11.881  1.00  0.00     0.041 A 
ATOM     20  Cl  UNL     1     -10.338   1.676  12.816  1.00  0.00    -0.084 Cl
ATOM     21  Cl  UNL     1      -7.975   6.261  11.209  1.00  0.00    -0.084 Cl
ENDBRANCH   7  14
TORSDOF 3
ENDMDL
