MODEL 1
REMARK VINA RESULT:    -5.599      0.000      0.000
REMARK INTER + INTRA:          -8.267
REMARK INTER:                  -7.727
REMARK INTRA:                  -0.540
REMARK UNBOUND:                -0.540
REMARK SMILES Cc1n[nH]c(C)c1CCCOc1cc(C(=O)O)ccc1F
REMARK SMILES IDX 11 1 12 2 14 3 18 4 13 5 19 6 20 7 21 8 15 9 16 10 17 11
REMARK SMILES IDX 10 13 9 14 8 15 7 16 5 17 2 18 4 19 3 20 6 21 1 22
REMARK H PARENT 17 12 4 23
ROOT
ATOM      1  O   UNL     1      -5.601   1.726   4.194  1.00  0.00    -0.490 OA
ENDROOT
BRANCH   1   2
ATOM      2  C   UNL     1      -4.442   1.021   4.102  1.00  0.00     0.155 A 
ATOM      3  C   UNL     1      -2.266   0.460   4.957  1.00  0.00     0.063 A 
ATOM      4  C   UNL     1      -2.086  -0.437   3.901  1.00  0.00     0.019 A 
ATOM      5  C   UNL     1      -3.453   1.190   5.052  1.00  0.00     0.065 A 
ATOM      6  C   UNL     1      -3.081  -0.603   2.960  1.00  0.00     0.044 A 
ATOM      7  C   UNL     1      -4.259   0.119   3.060  1.00  0.00     0.165 A 
ATOM      8  F   UNL     1      -5.230  -0.049   2.135  1.00  0.00    -0.203 F 
BRANCH   3   9
ATOM      9  C   UNL     1      -1.203   0.639   5.965  1.00  0.00     0.335 C 
ATOM     10  O   UNL     1      -1.165   1.651   6.635  1.00  0.00    -0.246 OA
BRANCH   9  11
ATOM     11  O   UNL     1      -0.278  -0.324   6.147  1.00  0.00    -0.478 OA
ATOM     12  H   UNL     1      -0.059  -0.872   5.381  1.00  0.00     0.297 HD
ENDBRANCH   9  11
ENDBRANCH   3   9
ENDBRANCH   1   2
BRANCH   1  13
ATOM     13  C   UNL     1      -6.794   0.983   4.454  1.00  0.00     0.230 C 
BRANCH  13  14
ATOM     14  C   UNL     1      -7.399   1.440   5.783  1.00  0.00     0.046 C 
BRANCH  14  15
ATOM     15  C   UNL     1      -6.922   0.516   6.905  1.00  0.00     0.043 C 
BRANCH  15  16
ATOM     16  C   UNL     1      -7.919   0.542   8.035  1.00  0.00    -0.004 A 
ATOM     17  C   UNL     1      -7.919   1.405   9.078  1.00  0.00     0.036 A 
ATOM     18  C   UNL     1      -9.012  -0.318   8.188  1.00  0.00     0.063 A 
ATOM     19  N   UNL     1      -8.970   1.098   9.866  1.00  0.00    -0.282 N 
ATOM     20  N   UNL     1      -9.639   0.010   9.289  1.00  0.00    -0.181 NA
ATOM     21  C   UNL     1      -6.924   2.511   9.315  1.00  0.00     0.066 C 
ATOM     22  C   UNL     1      -9.394  -1.437   7.254  1.00  0.00     0.069 C 
ATOM     23  H   UNL     1      -9.219   1.550  10.687  1.00  0.00     0.190 HD
ENDBRANCH  15  16
ENDBRANCH  14  15
ENDBRANCH  13  14
ENDBRANCH   1  13
TORSDOF 7
ENDMDL
MODEL 2
REMARK VINA RESULT:    -5.572      2.281      3.892
REMARK INTER + INTRA:          -8.229
REMARK INTER:                  -7.681
REMARK INTRA:                  -0.548
REMARK UNBOUND:                -0.540
REMARK SMILES Cc1n[nH]c(C)c1CCCOc1cc(C(=O)O)ccc1F
REMARK SMILES IDX 11 1 12 2 14 3 18 4 13 5 19 6 20 7 21 8 15 9 16 10 17 11
REMARK SMILES IDX 10 13 9 14 8 15 7 16 5 17 2 18 4 19 3 20 6 21 1 22
REMARK H PARENT 17 12 4 23
ROOT
ATOM      1  O   UNL     1      -3.734  -1.394   6.868  1.00  0.00    -0.490 OA
ENDROOT
BRANCH   1   2
ATOM      2  C   UNL     1      -3.363  -0.924   5.648  1.00  0.00     0.155 A 
ATOM      3  C   UNL     1      -3.814  -0.607   3.307  1.00  0.00     0.063 A 
ATOM      4  C   UNL     1      -2.590   0.054   3.165  1.00  0.00     0.019 A 
ATOM      5  C   UNL     1      -4.196  -1.096   4.558  1.00  0.00     0.065 A 
ATOM      6  C   UNL     1      -1.769   0.226   4.259  1.00  0.00     0.044 A 
ATOM      7  C   UNL     1      -2.152  -0.256   5.500  1.00  0.00     0.165 A 
ATOM      8  F   UNL     1      -1.342  -0.084   6.568  1.00  0.00    -0.203 F 
BRANCH   3   9
ATOM      9  C   UNL     1      -4.696  -0.792   2.139  1.00  0.00     0.335 C 
ATOM     10  O   UNL     1      -5.502  -1.699   2.124  1.00  0.00    -0.246 OA
BRANCH   9  11
ATOM     11  O   UNL     1      -4.610   0.050   1.090  1.00  0.00    -0.478 OA
ATOM     12  H   UNL     1      -4.555  -0.349   0.210  1.00  0.00     0.297 HD
ENDBRANCH   9  11
ENDBRANCH   3   9
ENDBRANCH   1   2
BRANCH   1  13
ATOM     13  C   UNL     1      -4.030  -0.423   7.875  1.00  0.00     0.230 C 
BRANCH  13  14
ATOM     14  C   UNL     1      -5.480  -0.589   8.332  1.00  0.00     0.046 C 
BRANCH  14  15
ATOM     15  C   UNL     1      -6.353   0.471   7.656  1.00  0.00     0.043 C 
BRANCH  15  16
ATOM     16  C   UNL     1      -7.592   0.703   8.481  1.00  0.00    -0.004 A 
ATOM     17  C   UNL     1      -8.734  -0.022   8.424  1.00  0.00     0.036 A 
ATOM     18  C   UNL     1      -7.764   1.701   9.446  1.00  0.00     0.063 A 
ATOM     19  N   UNL     1      -9.599   0.504   9.316  1.00  0.00    -0.282 N 
ATOM     20  N   UNL     1      -8.969   1.587   9.942  1.00  0.00    -0.181 NA
ATOM     21  C   UNL     1      -8.991  -1.203   7.526  1.00  0.00     0.066 C 
ATOM     22  C   UNL     1      -6.742   2.737   9.837  1.00  0.00     0.069 C 
ATOM     23  H   UNL     1     -10.499   0.188   9.492  1.00  0.00     0.190 HD
ENDBRANCH  15  16
ENDBRANCH  14  15
ENDBRANCH  13  14
ENDBRANCH   1  13
TORSDOF 7
ENDMDL
MODEL 3
REMARK VINA RESULT:    -5.491      2.261      3.423
REMARK INTER + INTRA:          -8.118
REMARK INTER:                  -7.438
REMARK INTRA:                  -0.680
REMARK UNBOUND:                -0.540
REMARK SMILES Cc1n[nH]c(C)c1CCCOc1cc(C(=O)O)ccc1F
REMARK SMILES IDX 11 1 12 2 14 3 18 4 13 5 19 6 20 7 21 8 15 9 16 10 17 11
REMARK SMILES IDX 10 13 9 14 8 15 7 16 5 17 2 18 4 19 3 20 6 21 1 22
REMARK H PARENT 17 12 4 23
ROOT
ATOM      1  O   UNL     1      -3.780  -1.177   6.912  1.00  0.00    -0.490 OA
ENDROOT
BRANCH   1   2
ATOM      2  C   UNL     1      -3.378  -0.801   5.669  1.00  0.00     0.155 A 
ATOM      3  C   UNL     1      -3.801  -0.596   3.311  1.00  0.00     0.063 A 
ATOM      4  C   UNL     1      -2.542  -0.015   3.139  1.00  0.00     0.019 A 
ATOM      5  C   UNL     1      -4.215  -0.989   4.585  1.00  0.00     0.065 A 
ATOM      6  C   UNL     1      -1.716   0.174   4.227  1.00  0.00     0.044 A 
ATOM      7  C   UNL     1      -2.131  -0.212   5.491  1.00  0.00     0.165 A 
ATOM      8  F   UNL     1      -1.317  -0.023   6.553  1.00  0.00    -0.203 F 
BRANCH   3   9
ATOM      9  C   UNL     1      -4.688  -0.800   2.148  1.00  0.00     0.335 C 
ATOM     10  O   UNL     1      -5.500  -1.702   2.154  1.00  0.00    -0.246 OA
BRANCH   9  11
ATOM     11  O   UNL     1      -4.600   0.020   1.083  1.00  0.00    -0.478 OA
ATOM     12  H   UNL     1      -3.735   0.412   0.901  1.00  0.00     0.297 HD
ENDBRANCH   9  11
ENDBRANCH   3   9
ENDBRANCH   1   2
BRANCH   1  13
ATOM     13  C   UNL     1      -4.290  -0.151   7.768  1.00  0.00     0.230 C 
BRANCH  13  14
ATOM     14  C   UNL     1      -5.714  -0.506   8.197  1.00  0.00     0.046 C 
BRANCH  14  15
ATOM     15  C   UNL     1      -6.695   0.500   7.591  1.00  0.00     0.043 C 
BRANCH  15  16
ATOM     16  C   UNL     1      -7.791   0.794   8.582  1.00  0.00    -0.004 A 
ATOM     17  C   UNL     1      -7.787   1.786   9.502  1.00  0.00     0.036 A 
ATOM     18  C   UNL     1      -8.995   0.093   8.711  1.00  0.00     0.063 A 
ATOM     19  N   UNL     1      -8.945   1.712  10.193  1.00  0.00    -0.282 N 
ATOM     20  N   UNL     1      -9.684   0.638   9.680  1.00  0.00    -0.181 NA
ATOM     21  C   UNL     1      -6.688   2.794   9.717  1.00  0.00     0.066 C 
ATOM     22  C   UNL     1      -9.419  -1.094   7.883  1.00  0.00     0.069 C 
ATOM     23  H   UNL     1      -9.216   2.298  10.916  1.00  0.00     0.190 HD
ENDBRANCH  15  16
ENDBRANCH  14  15
ENDBRANCH  13  14
ENDBRANCH   1  13
TORSDOF 7
ENDMDL
MODEL 4
REMARK VINA RESULT:    -5.450      0.256      1.784
REMARK INTER + INTRA:          -8.061
REMARK INTER:                  -7.526
REMARK INTRA:                  -0.535
REMARK UNBOUND:                -0.540
REMARK SMILES Cc1n[nH]c(C)c1CCCOc1cc(C(=O)O)ccc1F
REMARK SMILES IDX 11 1 12 2 14 3 18 4 13 5 19 6 20 7 21 8 15 9 16 10 17 11
REMARK SMILES IDX 10 13 9 14 8 15 7 16 5 17 2 18 4 19 3 20 6 21 1 22
REMARK H PARENT 17 12 4 23
ROOT
ATOM      1  O   UNL     1      -5.631   1.696   4.162  1.00  0.00    -0.490 OA
ENDROOT
BRANCH   1   2
ATOM      2  C   UNL     1      -4.473   0.989   4.082  1.00  0.00     0.155 A 
ATOM      3  C   UNL     1      -2.294   0.447   4.941  1.00  0.00     0.063 A 
ATOM      4  C   UNL     1      -2.119  -0.475   3.906  1.00  0.00     0.019 A 
ATOM      5  C   UNL     1      -3.480   1.179   5.024  1.00  0.00     0.065 A 
ATOM      6  C   UNL     1      -3.118  -0.663   2.974  1.00  0.00     0.044 A 
ATOM      7  C   UNL     1      -4.295   0.061   3.061  1.00  0.00     0.165 A 
ATOM      8  F   UNL     1      -5.270  -0.128   2.145  1.00  0.00    -0.203 F 
BRANCH   3   9
ATOM      9  C   UNL     1      -1.227   0.650   5.941  1.00  0.00     0.335 C 
ATOM     10  O   UNL     1      -1.199   1.668   6.601  1.00  0.00    -0.246 OA
BRANCH   9  11
ATOM     11  O   UNL     1      -0.287  -0.298   6.125  1.00  0.00    -0.478 OA
ATOM     12  H   UNL     1       0.299  -0.487   5.378  1.00  0.00     0.297 HD
ENDBRANCH   9  11
ENDBRANCH   3   9
ENDBRANCH   1   2
BRANCH   1  13
ATOM     13  C   UNL     1      -6.799   0.984   4.579  1.00  0.00     0.230 C 
BRANCH  13  14
ATOM     14  C   UNL     1      -7.186   1.424   5.992  1.00  0.00     0.046 C 
BRANCH  14  15
ATOM     15  C   UNL     1      -6.994   0.255   6.960  1.00  0.00     0.043 C 
BRANCH  15  16
ATOM     16  C   UNL     1      -8.104   0.257   7.978  1.00  0.00    -0.004 A 
ATOM     17  C   UNL     1      -9.162  -0.588   8.005  1.00  0.00     0.036 A 
ATOM     18  C   UNL     1      -8.222   1.128   9.066  1.00  0.00     0.063 A 
ATOM     19  N   UNL     1      -9.924  -0.259   9.069  1.00  0.00    -0.282 N 
ATOM     20  N   UNL     1      -9.316   0.824   9.717  1.00  0.00    -0.181 NA
ATOM     21  C   UNL     1      -9.437  -1.697   7.024  1.00  0.00     0.066 C 
ATOM     22  C   UNL     1      -7.261   2.233   9.421  1.00  0.00     0.069 C 
ATOM     23  H   UNL     1     -10.749  -0.694   9.336  1.00  0.00     0.190 HD
ENDBRANCH  15  16
ENDBRANCH  14  15
ENDBRANCH  13  14
ENDBRANCH   1  13
TORSDOF 7
ENDMDL
MODEL 5
REMARK VINA RESULT:    -4.600      3.905      6.998
REMARK INTER + INTRA:          -6.888
REMARK INTER:                  -6.079
REMARK INTRA:                  -0.809
REMARK UNBOUND:                -0.540
REMARK SMILES Cc1n[nH]c(C)c1CCCOc1cc(C(=O)O)ccc1F
REMARK SMILES IDX 11 1 12 2 14 3 18 4 13 5 19 6 20 7 21 8 15 9 16 10 17 11
REMARK SMILES IDX 10 13 9 14 8 15 7 16 5 17 2 18 4 19 3 20 6 21 1 22
REMARK H PARENT 17 12 4 23
ROOT
ATOM      1  O   UNL     1      -5.169   1.064   7.155  1.00  0.00    -0.490 OA
ENDROOT
BRANCH   1   2
ATOM      2  C   UNL     1      -6.378   0.892   7.752  1.00  0.00     0.155 A 
ATOM      3  C   UNL     1      -8.439  -0.325   7.982  1.00  0.00     0.063 A 
ATOM      4  C   UNL     1      -8.840   0.551   8.993  1.00  0.00     0.019 A 
ATOM      5  C   UNL     1      -7.200  -0.148   7.362  1.00  0.00     0.065 A 
ATOM      6  C   UNL     1      -8.010   1.583   9.380  1.00  0.00     0.044 A 
ATOM      7  C   UNL     1      -6.780   1.753   8.768  1.00  0.00     0.165 A 
ATOM      8  F   UNL     1      -5.972   2.766   9.151  1.00  0.00    -0.203 F 
BRANCH   3   9
ATOM      9  C   UNL     1      -9.324  -1.431   7.565  1.00  0.00     0.335 C 
ATOM     10  O   UNL     1     -10.089  -1.279   6.635  1.00  0.00    -0.246 OA
BRANCH   9  11
ATOM     11  O   UNL     1      -9.278  -2.611   8.214  1.00  0.00    -0.478 OA
ATOM     12  H   UNL     1      -9.259  -2.580   9.181  1.00  0.00     0.297 HD
ENDBRANCH   9  11
ENDBRANCH   3   9
ENDBRANCH   1   2
BRANCH   1  13
ATOM     13  C   UNL     1      -4.361  -0.102   6.977  1.00  0.00     0.230 C 
BRANCH  13  14
ATOM     14  C   UNL     1      -3.124   0.257   6.152  1.00  0.00     0.046 C 
BRANCH  14  15
ATOM     15  C   UNL     1      -3.494   1.313   5.109  1.00  0.00     0.043 C 
BRANCH  15  16
ATOM     16  C   UNL     1      -3.976   0.633   3.854  1.00  0.00    -0.004 A 
ATOM     17  C   UNL     1      -3.227  -0.130   3.024  1.00  0.00     0.036 A 
ATOM     18  C   UNL     1      -5.278   0.673   3.343  1.00  0.00     0.063 A 
ATOM     19  N   UNL     1      -4.025  -0.552   2.020  1.00  0.00    -0.282 N 
ATOM     20  N   UNL     1      -5.307  -0.031   2.241  1.00  0.00    -0.181 NA
ATOM     21  C   UNL     1      -1.765  -0.451   3.190  1.00  0.00     0.066 C 
ATOM     22  C   UNL     1      -6.443   1.411   3.952  1.00  0.00     0.069 C 
ATOM     23  H   UNL     1      -3.758  -1.115   1.278  1.00  0.00     0.190 HD
ENDBRANCH  15  16
ENDBRANCH  14  15
ENDBRANCH  13  14
ENDBRANCH   1  13
TORSDOF 7
ENDMDL
MODEL 6
REMARK VINA RESULT:    -4.564      3.832      6.557
REMARK INTER + INTRA:          -6.839
REMARK INTER:                  -5.993
REMARK INTRA:                  -0.846
REMARK UNBOUND:                -0.540
REMARK SMILES Cc1n[nH]c(C)c1CCCOc1cc(C(=O)O)ccc1F
REMARK SMILES IDX 11 1 12 2 14 3 18 4 13 5 19 6 20 7 21 8 15 9 16 10 17 11
REMARK SMILES IDX 10 13 9 14 8 15 7 16 5 17 2 18 4 19 3 20 6 21 1 22
REMARK H PARENT 17 12 4 23
ROOT
ATOM      1  O   UNL     1      -6.404  -0.361   6.084  1.00  0.00    -0.490 OA
ENDROOT
BRANCH   1   2
ATOM      2  C   UNL     1      -7.134   0.081   7.142  1.00  0.00     0.155 A 
ATOM      3  C   UNL     1      -7.467   1.637   8.945  1.00  0.00     0.063 A 
ATOM      4  C   UNL     1      -8.647   0.974   9.294  1.00  0.00     0.019 A 
ATOM      5  C   UNL     1      -6.711   1.183   7.862  1.00  0.00     0.065 A 
ATOM      6  C   UNL     1      -9.064  -0.120   8.566  1.00  0.00     0.044 A 
ATOM      7  C   UNL     1      -8.315  -0.565   7.489  1.00  0.00     0.165 A 
ATOM      8  F   UNL     1      -8.730  -1.638   6.779  1.00  0.00    -0.203 F 
BRANCH   3   9
ATOM      9  C   UNL     1      -7.018   2.809   9.722  1.00  0.00     0.335 C 
ATOM     10  O   UNL     1      -5.999   3.390   9.411  1.00  0.00    -0.246 OA
BRANCH   9  11
ATOM     11  O   UNL     1      -7.744   3.237  10.774  1.00  0.00    -0.478 OA
ATOM     12  H   UNL     1      -7.331   3.891  11.356  1.00  0.00     0.297 HD
ENDBRANCH   9  11
ENDBRANCH   3   9
ENDBRANCH   1   2
BRANCH   1  13
ATOM     13  C   UNL     1      -5.976   0.621   5.136  1.00  0.00     0.230 C 
BRANCH  13  14
ATOM     14  C   UNL     1      -5.086  -0.043   4.083  1.00  0.00     0.046 C 
BRANCH  14  15
ATOM     15  C   UNL     1      -4.279  -1.169   4.733  1.00  0.00     0.043 C 
BRANCH  15  16
ATOM     16  C   UNL     1      -2.987  -0.614   5.273  1.00  0.00    -0.004 A 
ATOM     17  C   UNL     1      -2.642  -0.527   6.579  1.00  0.00     0.036 A 
ATOM     18  C   UNL     1      -1.928  -0.104   4.514  1.00  0.00     0.063 A 
ATOM     19  N   UNL     1      -1.411   0.024   6.644  1.00  0.00    -0.282 N 
ATOM     20  N   UNL     1      -0.987   0.285   5.334  1.00  0.00    -0.181 NA
ATOM     21  C   UNL     1      -3.480  -0.968   7.750  1.00  0.00     0.066 C 
ATOM     22  C   UNL     1      -1.886  -0.008   3.010  1.00  0.00     0.069 C 
ATOM     23  H   UNL     1      -0.910   0.208   7.453  1.00  0.00     0.190 HD
ENDBRANCH  15  16
ENDBRANCH  14  15
ENDBRANCH  13  14
ENDBRANCH   1  13
TORSDOF 7
ENDMDL
MODEL 7
REMARK VINA RESULT:    -4.494      4.827      7.851
REMARK INTER + INTRA:          -6.742
REMARK INTER:                  -6.038
REMARK INTRA:                  -0.703
REMARK UNBOUND:                -0.540
REMARK SMILES Cc1n[nH]c(C)c1CCCOc1cc(C(=O)O)ccc1F
REMARK SMILES IDX 11 1 12 2 14 3 18 4 13 5 19 6 20 7 21 8 15 9 16 10 17 11
REMARK SMILES IDX 10 13 9 14 8 15 7 16 5 17 2 18 4 19 3 20 6 21 1 22
REMARK H PARENT 17 12 4 23
ROOT
ATOM      1  O   UNL     1      -6.828   1.491   9.014  1.00  0.00    -0.490 OA
ENDROOT
BRANCH   1   2
ATOM      2  C   UNL     1      -7.443   2.363   9.855  1.00  0.00     0.155 A 
ATOM      3  C   UNL     1      -9.082   2.822  11.554  1.00  0.00     0.063 A 
ATOM      4  C   UNL     1      -8.681   4.161  11.574  1.00  0.00     0.019 A 
ATOM      5  C   UNL     1      -8.455   1.924  10.687  1.00  0.00     0.065 A 
ATOM      6  C   UNL     1      -7.666   4.588  10.744  1.00  0.00     0.044 A 
ATOM      7  C   UNL     1      -7.043   3.695   9.889  1.00  0.00     0.165 A 
ATOM      8  F   UNL     1      -6.049   4.120   9.079  1.00  0.00    -0.203 F 
BRANCH   3   9
ATOM      9  C   UNL     1     -10.167   2.361  12.441  1.00  0.00     0.335 C 
ATOM     10  O   UNL     1     -11.236   2.936  12.443  1.00  0.00    -0.246 OA
BRANCH   9  11
ATOM     11  O   UNL     1      -9.974   1.296  13.245  1.00  0.00    -0.478 OA
ATOM     12  H   UNL     1      -9.197   0.747  13.067  1.00  0.00     0.297 HD
ENDBRANCH   9  11
ENDBRANCH   3   9
ENDBRANCH   1   2
BRANCH   1  13
ATOM     13  C   UNL     1      -7.670   0.686   8.184  1.00  0.00     0.230 C 
BRANCH  13  14
ATOM     14  C   UNL     1      -6.826   0.018   7.097  1.00  0.00     0.046 C 
BRANCH  14  15
ATOM     15  C   UNL     1      -5.571   0.855   6.839  1.00  0.00     0.043 C 
BRANCH  15  16
ATOM     16  C   UNL     1      -4.769   0.230   5.728  1.00  0.00    -0.004 A 
ATOM     17  C   UNL     1      -4.913   0.477   4.405  1.00  0.00     0.036 A 
ATOM     18  C   UNL     1      -3.738  -0.703   5.881  1.00  0.00     0.063 A 
ATOM     19  N   UNL     1      -4.011  -0.279   3.745  1.00  0.00    -0.282 N 
ATOM     20  N   UNL     1      -3.287  -1.014   4.693  1.00  0.00    -0.181 NA
ATOM     21  C   UNL     1      -5.904   1.425   3.782  1.00  0.00     0.066 C 
ATOM     22  C   UNL     1      -3.240  -1.263   7.189  1.00  0.00     0.069 C 
ATOM     23  H   UNL     1      -3.886  -0.308   2.783  1.00  0.00     0.190 HD
ENDBRANCH  15  16
ENDBRANCH  14  15
ENDBRANCH  13  14
ENDBRANCH   1  13
TORSDOF 7
ENDMDL
MODEL 8
REMARK VINA RESULT:    -4.323      1.800      2.115
REMARK INTER + INTRA:          -6.506
REMARK INTER:                  -6.024
REMARK INTRA:                  -0.482
REMARK UNBOUND:                -0.540
REMARK SMILES Cc1n[nH]c(C)c1CCCOc1cc(C(=O)O)ccc1F
REMARK SMILES IDX 11 1 12 2 14 3 18 4 13 5 19 6 20 7 21 8 15 9 16 10 17 11
REMARK SMILES IDX 10 13 9 14 8 15 7 16 5 17 2 18 4 19 3 20 6 21 1 22
REMARK H PARENT 17 12 4 23
ROOT
ATOM      1  O   UNL     1      -4.570  -1.376   7.087  1.00  0.00    -0.490 OA
ENDROOT
BRANCH   1   2
ATOM      2  C   UNL     1      -3.795  -0.945   6.056  1.00  0.00     0.155 A 
ATOM      3  C   UNL     1      -1.847   0.212   5.251  1.00  0.00     0.063 A 
ATOM      4  C   UNL     1      -2.221  -0.081   3.936  1.00  0.00     0.019 A 
ATOM      5  C   UNL     1      -2.643  -0.225   6.312  1.00  0.00     0.065 A 
ATOM      6  C   UNL     1      -3.370  -0.804   3.692  1.00  0.00     0.044 A 
ATOM      7  C   UNL     1      -4.155  -1.241   4.746  1.00  0.00     0.165 A 
ATOM      8  F   UNL     1      -5.278  -1.949   4.500  1.00  0.00    -0.203 F 
BRANCH   3   9
ATOM      9  C   UNL     1      -0.618   0.986   5.516  1.00  0.00     0.335 C 
ATOM     10  O   UNL     1       0.065   1.376   4.592  1.00  0.00    -0.246 OA
BRANCH   9  11
ATOM     11  O   UNL     1      -0.259   1.265   6.784  1.00  0.00    -0.478 OA
ATOM     12  H   UNL     1      -0.816   1.889   7.271  1.00  0.00     0.297 HD
ENDBRANCH   9  11
ENDBRANCH   3   9
ENDBRANCH   1   2
BRANCH   1  13
ATOM     13  C   UNL     1      -5.177  -0.374   7.906  1.00  0.00     0.230 C 
BRANCH  13  14
ATOM     14  C   UNL     1      -6.693  -0.398   7.700  1.00  0.00     0.046 C 
BRANCH  14  15
ATOM     15  C   UNL     1      -7.223   1.036   7.639  1.00  0.00     0.043 C 
BRANCH  15  16
ATOM     16  C   UNL     1      -8.027   1.328   8.879  1.00  0.00    -0.004 A 
ATOM     17  C   UNL     1      -7.742   2.269   9.810  1.00  0.00     0.036 A 
ATOM     18  C   UNL     1      -9.204   0.680   9.269  1.00  0.00     0.063 A 
ATOM     19  N   UNL     1      -8.701   2.213  10.758  1.00  0.00    -0.282 N 
ATOM     20  N   UNL     1      -9.605   1.205  10.398  1.00  0.00    -0.181 NA
ATOM     21  C   UNL     1      -6.566   3.209   9.791  1.00  0.00     0.066 C 
ATOM     22  C   UNL     1      -9.886  -0.438   8.523  1.00  0.00     0.069 C 
ATOM     23  H   UNL     1      -8.754   2.771  11.549  1.00  0.00     0.190 HD
ENDBRANCH  15  16
ENDBRANCH  14  15
ENDBRANCH  13  14
ENDBRANCH   1  13
TORSDOF 7
ENDMDL
MODEL 9
REMARK VINA RESULT:    -4.256      3.956      7.054
REMARK INTER + INTRA:          -6.413
REMARK INTER:                  -5.582
REMARK INTRA:                  -0.831
REMARK UNBOUND:                -0.540
REMARK SMILES Cc1n[nH]c(C)c1CCCOc1cc(C(=O)O)ccc1F
REMARK SMILES IDX 11 1 12 2 14 3 18 4 13 5 19 6 20 7 21 8 15 9 16 10 17 11
REMARK SMILES IDX 10 13 9 14 8 15 7 16 5 17 2 18 4 19 3 20 6 21 1 22
REMARK H PARENT 17 12 4 23
ROOT
ATOM      1  O   UNL     1      -5.282   0.829   7.123  1.00  0.00    -0.490 OA
ENDROOT
BRANCH   1   2
ATOM      2  C   UNL     1      -6.497   0.674   7.713  1.00  0.00     0.155 A 
ATOM      3  C   UNL     1      -8.537  -0.567   7.998  1.00  0.00     0.063 A 
ATOM      4  C   UNL     1      -8.972   0.371   8.938  1.00  0.00     0.019 A 
ATOM      5  C   UNL     1      -7.292  -0.409   7.386  1.00  0.00     0.065 A 
ATOM      6  C   UNL     1      -8.170   1.445   9.261  1.00  0.00     0.044 A 
ATOM      7  C   UNL     1      -6.934   1.598   8.657  1.00  0.00     0.165 A 
ATOM      8  F   UNL     1      -6.153   2.652   8.978  1.00  0.00    -0.203 F 
BRANCH   3   9
ATOM      9  C   UNL     1      -9.392  -1.719   7.650  1.00  0.00     0.335 C 
ATOM     10  O   UNL     1     -10.258  -2.086   8.417  1.00  0.00    -0.246 OA
BRANCH   9  11
ATOM     11  O   UNL     1      -9.216  -2.357   6.476  1.00  0.00    -0.478 OA
ATOM     12  H   UNL     1      -8.784  -1.861   5.767  1.00  0.00     0.297 HD
ENDBRANCH   9  11
ENDBRANCH   3   9
ENDBRANCH   1   2
BRANCH   1  13
ATOM     13  C   UNL     1      -4.327  -0.217   7.321  1.00  0.00     0.230 C 
BRANCH  13  14
ATOM     14  C   UNL     1      -3.333  -0.225   6.158  1.00  0.00     0.046 C 
BRANCH  14  15
ATOM     15  C   UNL     1      -3.611   0.968   5.240  1.00  0.00     0.043 C 
BRANCH  15  16
ATOM     16  C   UNL     1      -4.057   0.470   3.890  1.00  0.00    -0.004 A 
ATOM     17  C   UNL     1      -5.291   0.615   3.355  1.00  0.00     0.036 A 
ATOM     18  C   UNL     1      -3.265  -0.219   2.965  1.00  0.00     0.063 A 
ATOM     19  N   UNL     1      -5.283   0.033   2.137  1.00  0.00    -0.282 N 
ATOM     20  N   UNL     1      -4.001  -0.487   1.917  1.00  0.00    -0.181 NA
ATOM     21  C   UNL     1      -6.464   1.303   4.003  1.00  0.00     0.066 C 
ATOM     22  C   UNL     1      -1.818  -0.598   3.148  1.00  0.00     0.069 C 
ATOM     23  H   UNL     1      -6.033  -0.017   1.524  1.00  0.00     0.190 HD
ENDBRANCH  15  16
ENDBRANCH  14  15
ENDBRANCH  13  14
ENDBRANCH   1  13
TORSDOF 7
ENDMDL
