MODEL 1
REMARK VINA RESULT:    -5.143      0.000      0.000
REMARK INTER + INTRA:          -6.192
REMARK INTER:                  -5.895
REMARK INTRA:                  -0.297
REMARK UNBOUND:                -0.297
REMARK SMILES O=C(O)c1ccc2nc(-c3cc(Cl)cc(Cl)c3)oc2c1
REMARK SMILES IDX 5 1 6 2 20 3 8 4 18 5 4 6 9 7 7 8 19 9 2 10 1 11 3 12 10 14
REMARK SMILES IDX 11 15 17 16 12 17 15 18 14 19 13 20 16 21
REMARK H PARENT 3 13
ROOT
ATOM      1  C   UNL     1       1.767   3.605  -4.604  1.00  0.00     0.018 A 
ATOM      2  C   UNL     1       1.162   4.291  -5.614  1.00  0.00     0.033 A 
ATOM      3  C   UNL     1       3.374   2.677  -6.164  1.00  0.00     0.065 A 
ATOM      4  N   UNL     1       1.271   4.726  -8.100  1.00  0.00    -0.209 NA
ATOM      5  O   UNL     1       2.992   3.463  -8.521  1.00  0.00    -0.436 OA
ATOM      6  C   UNL     1       2.879   2.792  -4.864  1.00  0.00     0.063 A 
ATOM      7  C   UNL     1       2.071   4.296  -9.043  1.00  0.00     0.227 A 
ATOM      8  C   UNL     1       1.648   4.184  -6.923  1.00  0.00     0.110 A 
ATOM      9  C   UNL     1       2.761   3.367  -7.193  1.00  0.00     0.156 A 
ENDROOT
BRANCH   6  10
ATOM     10  C   UNL     1       3.529   2.060  -3.762  1.00  0.00     0.335 C 
ATOM     11  O   UNL     1       2.936   1.886  -2.716  1.00  0.00    -0.246 OA
BRANCH  10  12
ATOM     12  O   UNL     1       4.780   1.583  -3.914  1.00  0.00    -0.478 OA
ATOM     13  H   UNL     1       4.875   0.731  -4.360  1.00  0.00     0.297 HD
ENDBRANCH  10  12
ENDBRANCH   6  10
BRANCH   7  14
ATOM     14  C   UNL     1       1.977   4.668 -10.470  1.00  0.00     0.040 A 
ATOM     15  C   UNL     1       2.869   4.127 -11.397  1.00  0.00     0.034 A 
ATOM     16  C   UNL     1       0.995   5.564 -10.896  1.00  0.00     0.034 A 
ATOM     17  C   UNL     1       2.775   4.479 -12.729  1.00  0.00     0.043 A 
ATOM     18  C   UNL     1       0.911   5.908 -12.231  1.00  0.00     0.043 A 
ATOM     19  C   UNL     1       1.799   5.368 -13.145  1.00  0.00     0.041 A 
ATOM     20  Cl  UNL     1       3.884   3.807 -13.883  1.00  0.00    -0.084 Cl
ATOM     21  Cl  UNL     1      -0.311   7.022 -12.763  1.00  0.00    -0.084 Cl
ENDBRANCH   7  14
TORSDOF 3
ENDMDL
MODEL 2
REMARK VINA RESULT:    -5.142      0.005      2.019
REMARK INTER + INTRA:          -6.190
REMARK INTER:                  -5.893
REMARK INTRA:                  -0.297
REMARK UNBOUND:                -0.297
REMARK SMILES O=C(O)c1ccc2nc(-c3cc(Cl)cc(Cl)c3)oc2c1
REMARK SMILES IDX 5 1 6 2 20 3 8 4 18 5 4 6 9 7 7 8 19 9 2 10 1 11 3 12 10 14
REMARK SMILES IDX 11 15 17 16 12 17 15 18 14 19 13 20 16 21
REMARK H PARENT 3 13
ROOT
ATOM      1  C   UNL     1       1.773   3.612  -4.603  1.00  0.00     0.018 A 
ATOM      2  C   UNL     1       1.169   4.300  -5.613  1.00  0.00     0.033 A 
ATOM      3  C   UNL     1       3.373   2.675  -6.165  1.00  0.00     0.065 A 
ATOM      4  N   UNL     1       1.276   4.733  -8.099  1.00  0.00    -0.209 NA
ATOM      5  O   UNL     1       2.990   3.461  -8.522  1.00  0.00    -0.436 OA
ATOM      6  C   UNL     1       2.881   2.794  -4.864  1.00  0.00     0.063 A 
ATOM      7  C   UNL     1       2.073   4.297  -9.043  1.00  0.00     0.227 A 
ATOM      8  C   UNL     1       1.653   4.189  -6.922  1.00  0.00     0.110 A 
ATOM      9  C   UNL     1       2.761   3.367  -7.193  1.00  0.00     0.156 A 
ENDROOT
BRANCH   6  10
ATOM     10  C   UNL     1       3.529   2.060  -3.762  1.00  0.00     0.335 C 
ATOM     11  O   UNL     1       2.936   1.886  -2.717  1.00  0.00    -0.246 OA
BRANCH  10  12
ATOM     12  O   UNL     1       4.781   1.583  -3.914  1.00  0.00    -0.478 OA
ATOM     13  H   UNL     1       5.255   1.841  -4.716  1.00  0.00     0.297 HD
ENDBRANCH  10  12
ENDBRANCH   6  10
BRANCH   7  14
ATOM     14  C   UNL     1       1.977   4.669 -10.470  1.00  0.00     0.040 A 
ATOM     15  C   UNL     1       0.995   5.563 -10.898  1.00  0.00     0.034 A 
ATOM     16  C   UNL     1       2.870   4.126 -11.397  1.00  0.00     0.034 A 
ATOM     17  C   UNL     1       0.912   5.908 -12.233  1.00  0.00     0.043 A 
ATOM     18  C   UNL     1       2.777   4.478 -12.728  1.00  0.00     0.043 A 
ATOM     19  C   UNL     1       1.800   5.365 -13.146  1.00  0.00     0.041 A 
ATOM     20  Cl  UNL     1      -0.308   7.020 -12.767  1.00  0.00    -0.084 Cl
ATOM     21  Cl  UNL     1       3.886   3.804 -13.882  1.00  0.00    -0.084 Cl
ENDBRANCH   7  14
TORSDOF 3
ENDMDL
MODEL 3
REMARK VINA RESULT:    -5.039      3.774      7.426
REMARK INTER + INTRA:          -6.073
REMARK INTER:                  -5.784
REMARK INTRA:                  -0.289
REMARK UNBOUND:                -0.297
REMARK SMILES O=C(O)c1ccc2nc(-c3cc(Cl)cc(Cl)c3)oc2c1
REMARK SMILES IDX 5 1 6 2 20 3 8 4 18 5 4 6 9 7 7 8 19 9 2 10 1 11 3 12 10 14
REMARK SMILES IDX 11 15 17 16 12 17 15 18 14 19 13 20 16 21
REMARK H PARENT 3 13
ROOT
ATOM      1  C   UNL     1       1.220   5.749 -12.544  1.00  0.00     0.018 A 
ATOM      2  C   UNL     1       0.768   5.756 -11.259  1.00  0.00     0.033 A 
ATOM      3  C   UNL     1       2.990   4.206 -11.937  1.00  0.00     0.065 A 
ATOM      4  N   UNL     1       1.208   4.799  -8.963  1.00  0.00    -0.209 NA
ATOM      5  O   UNL     1       2.941   3.598  -9.498  1.00  0.00    -0.436 OA
ATOM      6  C   UNL     1       2.333   4.974 -12.900  1.00  0.00     0.063 A 
ATOM      7  C   UNL     1       2.115   3.972  -8.504  1.00  0.00     0.227 A 
ATOM      8  C   UNL     1       1.417   4.990 -10.283  1.00  0.00     0.110 A 
ATOM      9  C   UNL     1       2.537   4.215 -10.631  1.00  0.00     0.156 A 
ENDROOT
BRANCH   6  10
ATOM     10  C   UNL     1       2.810   4.969 -14.295  1.00  0.00     0.335 C 
ATOM     11  O   UNL     1       3.070   3.917 -14.845  1.00  0.00    -0.246 OA
BRANCH  10  12
ATOM     12  O   UNL     1       2.960   6.132 -14.961  1.00  0.00    -0.478 OA
ATOM     13  H   UNL     1       2.341   6.308 -15.682  1.00  0.00     0.297 HD
ENDBRANCH  10  12
ENDBRANCH   6  10
BRANCH   7  14
ATOM     14  C   UNL     1       2.215   3.519  -7.101  1.00  0.00     0.040 A 
ATOM     15  C   UNL     1       3.464   3.260  -6.535  1.00  0.00     0.034 A 
ATOM     16  C   UNL     1       1.059   3.347  -6.336  1.00  0.00     0.034 A 
ATOM     17  C   UNL     1       3.551   2.838  -5.224  1.00  0.00     0.043 A 
ATOM     18  C   UNL     1       1.159   2.924  -5.026  1.00  0.00     0.043 A 
ATOM     19  C   UNL     1       2.401   2.669  -4.471  1.00  0.00     0.041 A 
ATOM     20  Cl  UNL     1       5.104   2.516  -4.518  1.00  0.00    -0.084 Cl
ATOM     21  Cl  UNL     1      -0.277   2.710  -4.073  1.00  0.00    -0.084 Cl
ENDBRANCH   7  14
TORSDOF 3
ENDMDL
MODEL 4
REMARK VINA RESULT:    -5.038      3.775      7.645
REMARK INTER + INTRA:          -6.072
REMARK INTER:                  -5.783
REMARK INTRA:                  -0.289
REMARK UNBOUND:                -0.297
REMARK SMILES O=C(O)c1ccc2nc(-c3cc(Cl)cc(Cl)c3)oc2c1
REMARK SMILES IDX 5 1 6 2 20 3 8 4 18 5 4 6 9 7 7 8 19 9 2 10 1 11 3 12 10 14
REMARK SMILES IDX 11 15 17 16 12 17 15 18 14 19 13 20 16 21
REMARK H PARENT 3 13
ROOT
ATOM      1  C   UNL     1       1.204   5.752 -12.536  1.00  0.00     0.018 A 
ATOM      2  C   UNL     1       0.754   5.760 -11.250  1.00  0.00     0.033 A 
ATOM      3  C   UNL     1       2.974   4.209 -11.932  1.00  0.00     0.065 A 
ATOM      4  N   UNL     1       1.198   4.803  -8.954  1.00  0.00    -0.209 NA
ATOM      5  O   UNL     1       2.930   3.602  -9.493  1.00  0.00    -0.436 OA
ATOM      6  C   UNL     1       2.316   4.977 -12.894  1.00  0.00     0.063 A 
ATOM      7  C   UNL     1       2.105   3.977  -8.497  1.00  0.00     0.227 A 
ATOM      8  C   UNL     1       1.404   4.994 -10.275  1.00  0.00     0.110 A 
ATOM      9  C   UNL     1       2.523   4.218 -10.625  1.00  0.00     0.156 A 
ENDROOT
BRANCH   6  10
ATOM     10  C   UNL     1       2.790   4.971 -14.290  1.00  0.00     0.335 C 
ATOM     11  O   UNL     1       3.066   3.921 -14.833  1.00  0.00    -0.246 OA
BRANCH  10  12
ATOM     12  O   UNL     1       2.920   6.132 -14.962  1.00  0.00    -0.478 OA
ATOM     13  H   UNL     1       3.707   6.661 -14.778  1.00  0.00     0.297 HD
ENDBRANCH  10  12
ENDBRANCH   6  10
BRANCH   7  14
ATOM     14  C   UNL     1       2.207   3.524  -7.094  1.00  0.00     0.040 A 
ATOM     15  C   UNL     1       1.054   3.341  -6.330  1.00  0.00     0.034 A 
ATOM     16  C   UNL     1       3.460   3.278  -6.527  1.00  0.00     0.034 A 
ATOM     17  C   UNL     1       1.157   2.917  -5.020  1.00  0.00     0.043 A 
ATOM     18  C   UNL     1       3.550   2.854  -5.217  1.00  0.00     0.043 A 
ATOM     19  C   UNL     1       2.402   2.674  -4.464  1.00  0.00     0.041 A 
ATOM     20  Cl  UNL     1      -0.276   2.688  -4.068  1.00  0.00    -0.084 Cl
ATOM     21  Cl  UNL     1       5.106   2.547  -4.510  1.00  0.00    -0.084 Cl
ENDBRANCH   7  14
TORSDOF 3
ENDMDL
MODEL 5
REMARK VINA RESULT:    -5.023      3.954      7.597
REMARK INTER + INTRA:          -6.054
REMARK INTER:                  -5.760
REMARK INTRA:                  -0.294
REMARK UNBOUND:                -0.297
REMARK SMILES O=C(O)c1ccc2nc(-c3cc(Cl)cc(Cl)c3)oc2c1
REMARK SMILES IDX 5 1 6 2 20 3 8 4 18 5 4 6 9 7 7 8 19 9 2 10 1 11 3 12 10 14
REMARK SMILES IDX 11 15 17 16 12 17 15 18 14 19 13 20 16 21
REMARK H PARENT 3 13
ROOT
ATOM      1  C   UNL     1       1.830   5.216 -12.721  1.00  0.00     0.018 A 
ATOM      2  C   UNL     1       2.557   4.482 -11.831  1.00  0.00     0.033 A 
ATOM      3  C   UNL     1       0.389   5.999 -10.935  1.00  0.00     0.065 A 
ATOM      4  N   UNL     1       2.730   3.881  -9.383  1.00  0.00    -0.209 NA
ATOM      5  O   UNL     1       1.037   5.061  -8.694  1.00  0.00    -0.436 OA
ATOM      6  C   UNL     1       0.741   5.984 -12.286  1.00  0.00     0.063 A 
ATOM      7  C   UNL     1       2.028   4.224  -8.332  1.00  0.00     0.227 A 
ATOM      8  C   UNL     1       2.214   4.489 -10.473  1.00  0.00     0.110 A 
ATOM      9  C   UNL     1       1.120   5.252 -10.030  1.00  0.00     0.156 A 
ENDROOT
BRANCH   6  10
ATOM     10  C   UNL     1      -0.034   6.778 -13.256  1.00  0.00     0.335 C 
ATOM     11  O   UNL     1      -1.153   7.157 -12.975  1.00  0.00    -0.246 OA
BRANCH  10  12
ATOM     12  O   UNL     1       0.499   7.082 -14.456  1.00  0.00    -0.478 OA
ATOM     13  H   UNL     1       0.582   8.020 -14.675  1.00  0.00     0.297 HD
ENDBRANCH  10  12
ENDBRANCH   6  10
BRANCH   7  14
ATOM     14  C   UNL     1       2.286   3.761  -6.953  1.00  0.00     0.040 A 
ATOM     15  C   UNL     1       3.592   3.514  -6.529  1.00  0.00     0.034 A 
ATOM     16  C   UNL     1       1.223   3.567  -6.069  1.00  0.00     0.034 A 
ATOM     17  C   UNL     1       3.827   3.082  -5.239  1.00  0.00     0.043 A 
ATOM     18  C   UNL     1       1.470   3.135  -4.781  1.00  0.00     0.043 A 
ATOM     19  C   UNL     1       2.768   2.892  -4.367  1.00  0.00     0.041 A 
ATOM     20  Cl  UNL     1       5.451   2.775  -4.709  1.00  0.00    -0.084 Cl
ATOM     21  Cl  UNL     1       0.149   2.894  -3.680  1.00  0.00    -0.084 Cl
ENDBRANCH   7  14
TORSDOF 3
ENDMDL
MODEL 6
REMARK VINA RESULT:    -5.019      3.955      7.814
REMARK INTER + INTRA:          -6.050
REMARK INTER:                  -5.756
REMARK INTRA:                  -0.294
REMARK UNBOUND:                -0.297
REMARK SMILES O=C(O)c1ccc2nc(-c3cc(Cl)cc(Cl)c3)oc2c1
REMARK SMILES IDX 5 1 6 2 20 3 8 4 18 5 4 6 9 7 7 8 19 9 2 10 1 11 3 12 10 14
REMARK SMILES IDX 11 15 17 16 12 17 15 18 14 19 13 20 16 21
REMARK H PARENT 3 13
ROOT
ATOM      1  C   UNL     1       1.824   5.215 -12.719  1.00  0.00     0.018 A 
ATOM      2  C   UNL     1       2.549   4.482 -11.828  1.00  0.00     0.033 A 
ATOM      3  C   UNL     1       0.383   6.002 -10.934  1.00  0.00     0.065 A 
ATOM      4  N   UNL     1       2.721   3.882  -9.380  1.00  0.00    -0.209 NA
ATOM      5  O   UNL     1       1.029   5.064  -8.693  1.00  0.00    -0.436 OA
ATOM      6  C   UNL     1       0.735   5.985 -12.285  1.00  0.00     0.063 A 
ATOM      7  C   UNL     1       2.018   4.227  -8.330  1.00  0.00     0.227 A 
ATOM      8  C   UNL     1       2.206   4.490 -10.471  1.00  0.00     0.110 A 
ATOM      9  C   UNL     1       1.113   5.255 -10.028  1.00  0.00     0.156 A 
ENDROOT
BRANCH   6  10
ATOM     10  C   UNL     1      -0.038   6.779 -13.257  1.00  0.00     0.335 C 
ATOM     11  O   UNL     1      -1.154   7.165 -12.974  1.00  0.00    -0.246 OA
BRANCH  10  12
ATOM     12  O   UNL     1       0.493   7.076 -14.459  1.00  0.00    -0.478 OA
ATOM     13  H   UNL     1       0.056   6.702 -15.236  1.00  0.00     0.297 HD
ENDBRANCH  10  12
ENDBRANCH   6  10
BRANCH   7  14
ATOM     14  C   UNL     1       2.275   3.764  -6.950  1.00  0.00     0.040 A 
ATOM     15  C   UNL     1       1.213   3.571  -6.066  1.00  0.00     0.034 A 
ATOM     16  C   UNL     1       3.583   3.519  -6.525  1.00  0.00     0.034 A 
ATOM     17  C   UNL     1       1.459   3.137  -4.779  1.00  0.00     0.043 A 
ATOM     18  C   UNL     1       3.816   3.086  -5.236  1.00  0.00     0.043 A 
ATOM     19  C   UNL     1       2.758   2.896  -4.364  1.00  0.00     0.041 A 
ATOM     20  Cl  UNL     1       0.139   2.895  -3.678  1.00  0.00    -0.084 Cl
ATOM     21  Cl  UNL     1       5.441   2.780  -4.705  1.00  0.00    -0.084 Cl
ENDBRANCH   7  14
TORSDOF 3
ENDMDL
MODEL 7
REMARK VINA RESULT:    -4.990      1.908      2.960
REMARK INTER + INTRA:          -6.016
REMARK INTER:                  -5.730
REMARK INTRA:                  -0.286
REMARK UNBOUND:                -0.297
REMARK SMILES O=C(O)c1ccc2nc(-c3cc(Cl)cc(Cl)c3)oc2c1
REMARK SMILES IDX 5 1 6 2 20 3 8 4 18 5 4 6 9 7 7 8 19 9 2 10 1 11 3 12 10 14
REMARK SMILES IDX 11 15 17 16 12 17 15 18 14 19 13 20 16 21
REMARK H PARENT 3 13
ROOT
ATOM      1  C   UNL     1       2.000   4.141  -4.984  1.00  0.00     0.018 A 
ATOM      2  C   UNL     1       2.737   4.602  -6.033  1.00  0.00     0.033 A 
ATOM      3  C   UNL     1       0.554   2.925  -6.504  1.00  0.00     0.065 A 
ATOM      4  N   UNL     1       2.925   4.526  -8.551  1.00  0.00    -0.209 NA
ATOM      5  O   UNL     1       1.219   3.223  -8.910  1.00  0.00    -0.436 OA
ATOM      6  C   UNL     1       0.902   3.297  -5.205  1.00  0.00     0.063 A 
ATOM      7  C   UNL     1       2.221   3.922  -9.477  1.00  0.00     0.227 A 
ATOM      8  C   UNL     1       2.399   4.237  -7.342  1.00  0.00     0.110 A 
ATOM      9  C   UNL     1       1.297   3.394  -7.572  1.00  0.00     0.156 A 
ENDROOT
BRANCH   6  10
ATOM     10  C   UNL     1       0.116   2.800  -4.061  1.00  0.00     0.335 C 
ATOM     11  O   UNL     1       0.287   3.272  -2.955  1.00  0.00    -0.246 OA
BRANCH  10  12
ATOM     12  O   UNL     1      -0.793   1.820  -4.243  1.00  0.00    -0.478 OA
ATOM     13  H   UNL     1      -0.840   1.134  -3.564  1.00  0.00     0.297 HD
ENDBRANCH  10  12
ENDBRANCH   6  10
BRANCH   7  14
ATOM     14  C   UNL     1       2.488   3.997 -10.928  1.00  0.00     0.040 A 
ATOM     15  C   UNL     1       1.863   4.972 -11.706  1.00  0.00     0.034 A 
ATOM     16  C   UNL     1       3.368   3.092 -11.526  1.00  0.00     0.034 A 
ATOM     17  C   UNL     1       2.118   5.037 -13.062  1.00  0.00     0.043 A 
ATOM     18  C   UNL     1       3.614   3.168 -12.882  1.00  0.00     0.043 A 
ATOM     19  C   UNL     1       2.990   4.137 -13.649  1.00  0.00     0.041 A 
ATOM     20  Cl  UNL     1       1.341   6.249 -14.032  1.00  0.00    -0.084 Cl
ATOM     21  Cl  UNL     1       4.707   2.043 -13.628  1.00  0.00    -0.084 Cl
ENDBRANCH   7  14
TORSDOF 3
ENDMDL
MODEL 8
REMARK VINA RESULT:    -4.938      1.596      2.674
REMARK INTER + INTRA:          -5.957
REMARK INTER:                  -5.670
REMARK INTRA:                  -0.286
REMARK UNBOUND:                -0.297
REMARK SMILES O=C(O)c1ccc2nc(-c3cc(Cl)cc(Cl)c3)oc2c1
REMARK SMILES IDX 5 1 6 2 20 3 8 4 18 5 4 6 9 7 7 8 19 9 2 10 1 11 3 12 10 14
REMARK SMILES IDX 11 15 17 16 12 17 15 18 14 19 13 20 16 21
REMARK H PARENT 3 13
ROOT
ATOM      1  C   UNL     1       2.777   2.054  -5.738  1.00  0.00     0.018 A 
ATOM      2  C   UNL     1       1.831   2.232  -6.703  1.00  0.00     0.033 A 
ATOM      3  C   UNL     1       3.987   3.999  -6.532  1.00  0.00     0.065 A 
ATOM      4  N   UNL     1       1.185   3.718  -8.640  1.00  0.00    -0.209 NA
ATOM      5  O   UNL     1       2.870   5.088  -8.504  1.00  0.00    -0.436 OA
ATOM      6  C   UNL     1       3.864   2.934  -5.639  1.00  0.00     0.063 A 
ATOM      7  C   UNL     1       1.740   4.781  -9.168  1.00  0.00     0.227 A 
ATOM      8  C   UNL     1       1.943   3.296  -7.605  1.00  0.00     0.110 A 
ATOM      9  C   UNL     1       3.032   4.180  -7.515  1.00  0.00     0.156 A 
ENDROOT
BRANCH   6  10
ATOM     10  C   UNL     1       4.878   2.735  -4.587  1.00  0.00     0.335 C 
ATOM     11  O   UNL     1       4.904   1.696  -3.958  1.00  0.00    -0.246 OA
BRANCH  10  12
ATOM     12  O   UNL     1       5.775   3.705  -4.323  1.00  0.00    -0.478 OA
ATOM     13  H   UNL     1       6.387   3.551  -3.591  1.00  0.00     0.297 HD
ENDBRANCH  10  12
ENDBRANCH   6  10
BRANCH   7  14
ATOM     14  C   UNL     1       1.204   5.531 -10.323  1.00  0.00     0.040 A 
ATOM     15  C   UNL     1       0.291   6.567 -10.123  1.00  0.00     0.034 A 
ATOM     16  C   UNL     1       1.609   5.205 -11.619  1.00  0.00     0.034 A 
ATOM     17  C   UNL     1      -0.206   7.265 -11.206  1.00  0.00     0.043 A 
ATOM     18  C   UNL     1       1.106   5.911 -12.694  1.00  0.00     0.043 A 
ATOM     19  C   UNL     1       0.200   6.937 -12.489  1.00  0.00     0.041 A 
ATOM     20  Cl  UNL     1      -1.341   8.554 -10.961  1.00  0.00    -0.084 Cl
ATOM     21  Cl  UNL     1       1.609   5.507 -14.306  1.00  0.00    -0.084 Cl
ENDBRANCH   7  14
TORSDOF 3
ENDMDL
MODEL 9
REMARK VINA RESULT:    -4.728      1.171      1.703
REMARK INTER + INTRA:          -5.716
REMARK INTER:                  -5.427
REMARK INTRA:                  -0.289
REMARK UNBOUND:                -0.297
REMARK SMILES O=C(O)c1ccc2nc(-c3cc(Cl)cc(Cl)c3)oc2c1
REMARK SMILES IDX 5 1 6 2 20 3 8 4 18 5 4 6 9 7 7 8 19 9 2 10 1 11 3 12 10 14
REMARK SMILES IDX 11 15 17 16 12 17 15 18 14 19 13 20 16 21
REMARK H PARENT 3 13
ROOT
ATOM      1  C   UNL     1       3.527   3.701  -4.913  1.00  0.00     0.018 A 
ATOM      2  C   UNL     1       3.975   4.146  -6.121  1.00  0.00     0.033 A 
ATOM      3  C   UNL     1       1.274   3.513  -5.792  1.00  0.00     0.065 A 
ATOM      4  N   UNL     1       3.226   4.692  -8.471  1.00  0.00    -0.209 NA
ATOM      5  O   UNL     1       1.123   4.203  -8.205  1.00  0.00    -0.436 OA
ATOM      6  C   UNL     1       2.175   3.378  -4.733  1.00  0.00     0.063 A 
ATOM      7  C   UNL     1       2.060   4.640  -9.067  1.00  0.00     0.227 A 
ATOM      8  C   UNL     1       3.083   4.286  -7.191  1.00  0.00     0.110 A 
ATOM      9  C   UNL     1       1.724   3.969  -7.017  1.00  0.00     0.156 A 
ENDROOT
BRANCH   6  10
ATOM     10  C   UNL     1       1.703   2.892  -3.424  1.00  0.00     0.335 C 
ATOM     11  O   UNL     1       2.465   2.303  -2.684  1.00  0.00    -0.246 OA
BRANCH  10  12
ATOM     12  O   UNL     1       0.425   3.100  -3.048  1.00  0.00    -0.478 OA
ATOM     13  H   UNL     1       0.109   2.611  -2.277  1.00  0.00     0.297 HD
ENDBRANCH  10  12
ENDBRANCH   6  10
BRANCH   7  14
ATOM     14  C   UNL     1       1.812   5.007 -10.476  1.00  0.00     0.040 A 
ATOM     15  C   UNL     1       2.612   4.479 -11.490  1.00  0.00     0.034 A 
ATOM     16  C   UNL     1       0.776   5.886 -10.798  1.00  0.00     0.034 A 
ATOM     17  C   UNL     1       2.374   4.826 -12.805  1.00  0.00     0.043 A 
ATOM     18  C   UNL     1       0.548   6.225 -12.117  1.00  0.00     0.043 A 
ATOM     19  C   UNL     1       1.345   5.697 -13.118  1.00  0.00     0.041 A 
ATOM     20  Cl  UNL     1       3.368   4.169 -14.068  1.00  0.00    -0.084 Cl
ATOM     21  Cl  UNL     1      -0.741   7.317 -12.520  1.00  0.00    -0.084 Cl
ENDBRANCH   7  14
TORSDOF 3
ENDMDL
