MODEL 1
REMARK VINA RESULT:    -5.725      0.000      0.000
REMARK INTER + INTRA:          -8.549
REMARK INTER:                  -7.901
REMARK INTRA:                  -0.649
REMARK UNBOUND:                -0.649
REMARK SMILES Cc1n[nH]c(C)c1CCCOc1cc(C(=O)O)ccc1F
REMARK SMILES IDX 11 1 12 2 14 3 18 4 13 5 19 6 20 7 21 8 15 9 16 10 17 11
REMARK SMILES IDX 10 13 9 14 8 15 7 16 5 17 2 18 4 19 3 20 6 21 1 22
REMARK H PARENT 17 12 4 23
ROOT
ATOM      1  O   UNL     1       1.145   2.548  -7.762  1.00  0.00    -0.490 OA
ENDROOT
BRANCH   1   2
ATOM      2  C   UNL     1       1.723   2.629  -6.534  1.00  0.00     0.155 A 
ATOM      3  C   UNL     1       3.687   2.813  -5.159  1.00  0.00     0.063 A 
ATOM      4  C   UNL     1       2.883   2.803  -4.016  1.00  0.00     0.019 A 
ATOM      5  C   UNL     1       3.097   2.725  -6.422  1.00  0.00     0.065 A 
ATOM      6  C   UNL     1       1.512   2.712  -4.138  1.00  0.00     0.044 A 
ATOM      7  C   UNL     1       0.930   2.630  -5.392  1.00  0.00     0.165 A 
ATOM      8  F   UNL     1      -0.414   2.542  -5.505  1.00  0.00    -0.203 F 
BRANCH   3   9
ATOM      9  C   UNL     1       5.154   2.911  -5.032  1.00  0.00     0.335 C 
ATOM     10  O   UNL     1       5.872   2.255  -5.759  1.00  0.00    -0.246 OA
BRANCH   9  11
ATOM     11  O   UNL     1       5.697   3.732  -4.112  1.00  0.00    -0.478 OA
ATOM     12  H   UNL     1       5.920   4.628  -4.401  1.00  0.00     0.297 HD
ENDBRANCH   9  11
ENDBRANCH   3   9
ENDBRANCH   1   2
BRANCH   1  13
ATOM     13  C   UNL     1       0.999   3.769  -8.492  1.00  0.00     0.230 C 
BRANCH  13  14
ATOM     14  C   UNL     1       1.487   3.566  -9.927  1.00  0.00     0.046 C 
BRANCH  14  15
ATOM     15  C   UNL     1       2.289   4.791 -10.372  1.00  0.00     0.043 C 
BRANCH  15  16
ATOM     16  C   UNL     1       1.838   5.216 -11.745  1.00  0.00    -0.004 A 
ATOM     17  C   UNL     1       0.804   6.043 -12.024  1.00  0.00     0.036 A 
ATOM     18  C   UNL     1       2.419   4.830 -12.958  1.00  0.00     0.063 A 
ATOM     19  N   UNL     1       0.729   6.170 -13.366  1.00  0.00    -0.282 N 
ATOM     20  N   UNL     1       1.751   5.396 -13.930  1.00  0.00    -0.181 NA
ATOM     21  C   UNL     1      -0.102   6.703 -11.017  1.00  0.00     0.066 C 
ATOM     22  C   UNL     1       3.604   3.911 -13.118  1.00  0.00     0.069 C 
ATOM     23  H   UNL     1       0.081   6.703 -13.853  1.00  0.00     0.190 HD
ENDBRANCH  15  16
ENDBRANCH  14  15
ENDBRANCH  13  14
ENDBRANCH   1  13
TORSDOF 7
ENDMDL
MODEL 2
REMARK VINA RESULT:    -5.654      2.123      3.603
REMARK INTER + INTRA:          -8.451
REMARK INTER:                  -7.752
REMARK INTRA:                  -0.699
REMARK UNBOUND:                -0.649
REMARK SMILES Cc1n[nH]c(C)c1CCCOc1cc(C(=O)O)ccc1F
REMARK SMILES IDX 11 1 12 2 14 3 18 4 13 5 19 6 20 7 21 8 15 9 16 10 17 11
REMARK SMILES IDX 10 13 9 14 8 15 7 16 5 17 2 18 4 19 3 20 6 21 1 22
REMARK H PARENT 17 12 4 23
ROOT
ATOM      1  O   UNL     1       3.526   4.844  -7.011  1.00  0.00    -0.490 OA
ENDROOT
BRANCH   1   2
ATOM      2  C   UNL     1       3.098   4.019  -6.019  1.00  0.00     0.155 A 
ATOM      3  C   UNL     1       1.309   3.014  -4.765  1.00  0.00     0.063 A 
ATOM      4  C   UNL     1       2.244   2.322  -3.992  1.00  0.00     0.019 A 
ATOM      5  C   UNL     1       1.744   3.866  -5.782  1.00  0.00     0.065 A 
ATOM      6  C   UNL     1       3.592   2.477  -4.239  1.00  0.00     0.044 A 
ATOM      7  C   UNL     1       4.022   3.318  -5.252  1.00  0.00     0.165 A 
ATOM      8  F   UNL     1       5.344   3.465  -5.489  1.00  0.00    -0.203 F 
BRANCH   3   9
ATOM      9  C   UNL     1      -0.135   2.851  -4.503  1.00  0.00     0.335 C 
ATOM     10  O   UNL     1      -0.889   3.791  -4.647  1.00  0.00    -0.246 OA
BRANCH   9  11
ATOM     11  O   UNL     1      -0.616   1.655  -4.111  1.00  0.00    -0.478 OA
ATOM     12  H   UNL     1      -0.784   1.538  -3.165  1.00  0.00     0.297 HD
ENDBRANCH   9  11
ENDBRANCH   3   9
ENDBRANCH   1   2
BRANCH   1  13
ATOM     13  C   UNL     1       2.577   5.184  -8.026  1.00  0.00     0.230 C 
BRANCH  13  14
ATOM     14  C   UNL     1       3.124   4.773  -9.393  1.00  0.00     0.046 C 
BRANCH  14  15
ATOM     15  C   UNL     1       2.021   4.083 -10.198  1.00  0.00     0.043 C 
BRANCH  15  16
ATOM     16  C   UNL     1       1.854   4.779 -11.523  1.00  0.00    -0.004 A 
ATOM     17  C   UNL     1       2.556   4.523 -12.652  1.00  0.00     0.036 A 
ATOM     18  C   UNL     1       0.941   5.801 -11.807  1.00  0.00     0.063 A 
ATOM     19  N   UNL     1       2.108   5.358 -13.613  1.00  0.00    -0.282 N 
ATOM     20  N   UNL     1       1.097   6.153 -13.057  1.00  0.00    -0.181 NA
ATOM     21  C   UNL     1       3.642   3.491 -12.806  1.00  0.00     0.066 C 
ATOM     22  C   UNL     1      -0.044   6.401 -10.837  1.00  0.00     0.069 C 
ATOM     23  H   UNL     1       2.429   5.400 -14.527  1.00  0.00     0.190 HD
ENDBRANCH  15  16
ENDBRANCH  14  15
ENDBRANCH  13  14
ENDBRANCH   1  13
TORSDOF 7
ENDMDL
MODEL 3
REMARK VINA RESULT:    -5.639      2.135      3.149
REMARK INTER + INTRA:          -8.430
REMARK INTER:                  -7.736
REMARK INTRA:                  -0.694
REMARK UNBOUND:                -0.649
REMARK SMILES Cc1n[nH]c(C)c1CCCOc1cc(C(=O)O)ccc1F
REMARK SMILES IDX 11 1 12 2 14 3 18 4 13 5 19 6 20 7 21 8 15 9 16 10 17 11
REMARK SMILES IDX 10 13 9 14 8 15 7 16 5 17 2 18 4 19 3 20 6 21 1 22
REMARK H PARENT 17 12 4 23
ROOT
ATOM      1  O   UNL     1       3.618   4.757  -7.011  1.00  0.00    -0.490 OA
ENDROOT
BRANCH   1   2
ATOM      2  C   UNL     1       3.165   3.957  -6.010  1.00  0.00     0.155 A 
ATOM      3  C   UNL     1       1.345   2.996  -4.766  1.00  0.00     0.063 A 
ATOM      4  C   UNL     1       2.261   2.308  -3.965  1.00  0.00     0.019 A 
ATOM      5  C   UNL     1       1.807   3.823  -5.792  1.00  0.00     0.065 A 
ATOM      6  C   UNL     1       3.614   2.443  -4.194  1.00  0.00     0.044 A 
ATOM      7  C   UNL     1       4.069   3.260  -5.215  1.00  0.00     0.165 A 
ATOM      8  F   UNL     1       5.396   3.388  -5.434  1.00  0.00    -0.203 F 
BRANCH   3   9
ATOM      9  C   UNL     1      -0.104   2.853  -4.525  1.00  0.00     0.335 C 
ATOM     10  O   UNL     1      -0.841   3.807  -4.670  1.00  0.00    -0.246 OA
BRANCH   9  11
ATOM     11  O   UNL     1      -0.610   1.662  -4.150  1.00  0.00    -0.478 OA
ATOM     12  H   UNL     1      -1.540   1.495  -4.356  1.00  0.00     0.297 HD
ENDBRANCH   9  11
ENDBRANCH   3   9
ENDBRANCH   1   2
BRANCH   1  13
ATOM     13  C   UNL     1       2.660   5.186  -7.982  1.00  0.00     0.230 C 
BRANCH  13  14
ATOM     14  C   UNL     1       3.191   4.893  -9.386  1.00  0.00     0.046 C 
BRANCH  14  15
ATOM     15  C   UNL     1       2.159   4.071 -10.161  1.00  0.00     0.043 C 
BRANCH  15  16
ATOM     16  C   UNL     1       1.964   4.669 -11.530  1.00  0.00    -0.004 A 
ATOM     17  C   UNL     1       1.072   5.631 -11.859  1.00  0.00     0.036 A 
ATOM     18  C   UNL     1       2.679   4.332 -12.684  1.00  0.00     0.063 A 
ATOM     19  N   UNL     1       1.212   5.889 -13.177  1.00  0.00    -0.282 N 
ATOM     20  N   UNL     1       2.225   5.058 -13.673  1.00  0.00    -0.181 NA
ATOM     21  C   UNL     1       0.097   6.296 -10.923  1.00  0.00     0.066 C 
ATOM     22  C   UNL     1       3.776   3.301 -12.776  1.00  0.00     0.069 C 
ATOM     23  H   UNL     1       0.702   6.536 -13.689  1.00  0.00     0.190 HD
ENDBRANCH  15  16
ENDBRANCH  14  15
ENDBRANCH  13  14
ENDBRANCH   1  13
TORSDOF 7
ENDMDL
MODEL 4
REMARK VINA RESULT:    -5.629      0.538      1.816
REMARK INTER + INTRA:          -8.417
REMARK INTER:                  -7.737
REMARK INTRA:                  -0.680
REMARK UNBOUND:                -0.649
REMARK SMILES Cc1n[nH]c(C)c1CCCOc1cc(C(=O)O)ccc1F
REMARK SMILES IDX 11 1 12 2 14 3 18 4 13 5 19 6 20 7 21 8 15 9 16 10 17 11
REMARK SMILES IDX 10 13 9 14 8 15 7 16 5 17 2 18 4 19 3 20 6 21 1 22
REMARK H PARENT 17 12 4 23
ROOT
ATOM      1  O   UNL     1       0.796   2.654  -7.411  1.00  0.00    -0.490 OA
ENDROOT
BRANCH   1   2
ATOM      2  C   UNL     1       1.489   2.706  -6.242  1.00  0.00     0.155 A 
ATOM      3  C   UNL     1       3.577   2.829  -5.056  1.00  0.00     0.063 A 
ATOM      4  C   UNL     1       2.883   2.823  -3.843  1.00  0.00     0.019 A 
ATOM      5  C   UNL     1       2.869   2.770  -6.259  1.00  0.00     0.065 A 
ATOM      6  C   UNL     1       1.506   2.765  -3.836  1.00  0.00     0.044 A 
ATOM      7  C   UNL     1       0.806   2.712  -5.031  1.00  0.00     0.165 A 
ATOM      8  F   UNL     1      -0.544   2.655  -5.018  1.00  0.00    -0.203 F 
BRANCH   3   9
ATOM      9  C   UNL     1       5.051   2.891  -5.066  1.00  0.00     0.335 C 
ATOM     10  O   UNL     1       5.681   2.242  -5.876  1.00  0.00    -0.246 OA
BRANCH   9  11
ATOM     11  O   UNL     1       5.698   3.674  -4.181  1.00  0.00    -0.478 OA
ATOM     12  H   UNL     1       6.648   3.798  -4.316  1.00  0.00     0.297 HD
ENDBRANCH   9  11
ENDBRANCH   3   9
ENDBRANCH   1   2
BRANCH   1  13
ATOM     13  C   UNL     1       1.539   2.862  -8.615  1.00  0.00     0.230 C 
BRANCH  13  14
ATOM     14  C   UNL     1       0.786   3.841  -9.516  1.00  0.00     0.046 C 
BRANCH  14  15
ATOM     15  C   UNL     1       1.696   5.022  -9.860  1.00  0.00     0.043 C 
BRANCH  15  16
ATOM     16  C   UNL     1       1.624   5.299 -11.339  1.00  0.00    -0.004 A 
ATOM     17  C   UNL     1       2.415   4.751 -12.291  1.00  0.00     0.036 A 
ATOM     18  C   UNL     1       0.724   6.162 -11.972  1.00  0.00     0.063 A 
ATOM     19  N   UNL     1       2.033   5.256 -13.483  1.00  0.00    -0.282 N 
ATOM     20  N   UNL     1       0.972   6.142 -13.256  1.00  0.00    -0.181 NA
ATOM     21  C   UNL     1       3.523   3.757 -12.061  1.00  0.00     0.066 C 
ATOM     22  C   UNL     1      -0.341   6.983 -11.291  1.00  0.00     0.069 C 
ATOM     23  H   UNL     1       2.425   5.043 -14.344  1.00  0.00     0.190 HD
ENDBRANCH  15  16
ENDBRANCH  14  15
ENDBRANCH  13  14
ENDBRANCH   1  13
TORSDOF 7
ENDMDL
MODEL 5
REMARK VINA RESULT:    -5.085      4.253      7.622
REMARK INTER + INTRA:          -7.666
REMARK INTER:                  -7.044
REMARK INTRA:                  -0.622
REMARK UNBOUND:                -0.649
REMARK SMILES Cc1n[nH]c(C)c1CCCOc1cc(C(=O)O)ccc1F
REMARK SMILES IDX 11 1 12 2 14 3 18 4 13 5 19 6 20 7 21 8 15 9 16 10 17 11
REMARK SMILES IDX 10 13 9 14 8 15 7 16 5 17 2 18 4 19 3 20 6 21 1 22
REMARK H PARENT 17 12 4 23
ROOT
ATOM      1  O   UNL     1       1.211   4.905  -8.778  1.00  0.00    -0.490 OA
ENDROOT
BRANCH   1   2
ATOM      2  C   UNL     1       1.157   5.248 -10.093  1.00  0.00     0.155 A 
ATOM      3  C   UNL     1       2.010   5.070 -12.334  1.00  0.00     0.063 A 
ATOM      4  C   UNL     1       1.022   5.954 -12.776  1.00  0.00     0.019 A 
ATOM      5  C   UNL     1       2.072   4.719 -10.984  1.00  0.00     0.065 A 
ATOM      6  C   UNL     1       0.110   6.472 -11.881  1.00  0.00     0.044 A 
ATOM      7  C   UNL     1       0.170   6.119 -10.543  1.00  0.00     0.165 A 
ATOM      8  F   UNL     1      -0.727   6.629  -9.672  1.00  0.00    -0.203 F 
BRANCH   3   9
ATOM      9  C   UNL     1       2.988   4.514 -13.289  1.00  0.00     0.335 C 
ATOM     10  O   UNL     1       2.687   4.379 -14.457  1.00  0.00    -0.246 OA
BRANCH   9  11
ATOM     11  O   UNL     1       4.218   4.162 -12.865  1.00  0.00    -0.478 OA
ATOM     12  H   UNL     1       4.400   3.215 -12.783  1.00  0.00     0.297 HD
ENDBRANCH   9  11
ENDBRANCH   3   9
ENDBRANCH   1   2
BRANCH   1  13
ATOM     13  C   UNL     1       1.292   3.510  -8.475  1.00  0.00     0.230 C 
BRANCH  13  14
ATOM     14  C   UNL     1       2.560   3.238  -7.663  1.00  0.00     0.046 C 
BRANCH  14  15
ATOM     15  C   UNL     1       2.570   4.128  -6.419  1.00  0.00     0.043 C 
BRANCH  15  16
ATOM     16  C   UNL     1       2.689   3.269  -5.187  1.00  0.00    -0.004 A 
ATOM     17  C   UNL     1       3.843   2.848  -4.618  1.00  0.00     0.036 A 
ATOM     18  C   UNL     1       1.628   2.771  -4.424  1.00  0.00     0.063 A 
ATOM     19  N   UNL     1       3.523   2.104  -3.539  1.00  0.00    -0.282 N 
ATOM     20  N   UNL     1       2.126   2.067  -3.441  1.00  0.00    -0.181 NA
ATOM     21  C   UNL     1       5.236   3.156  -5.104  1.00  0.00     0.066 C 
ATOM     22  C   UNL     1       0.162   2.995  -4.697  1.00  0.00     0.069 C 
ATOM     23  H   UNL     1       4.149   1.672  -2.938  1.00  0.00     0.190 HD
ENDBRANCH  15  16
ENDBRANCH  14  15
ENDBRANCH  13  14
ENDBRANCH   1  13
TORSDOF 7
ENDMDL
MODEL 6
REMARK VINA RESULT:    -5.070      4.421      7.873
REMARK INTER + INTRA:          -7.645
REMARK INTER:                  -6.963
REMARK INTRA:                  -0.682
REMARK UNBOUND:                -0.649
REMARK SMILES Cc1n[nH]c(C)c1CCCOc1cc(C(=O)O)ccc1F
REMARK SMILES IDX 11 1 12 2 14 3 18 4 13 5 19 6 20 7 21 8 15 9 16 10 17 11
REMARK SMILES IDX 10 13 9 14 8 15 7 16 5 17 2 18 4 19 3 20 6 21 1 22
REMARK H PARENT 17 12 4 23
ROOT
ATOM      1  O   UNL     1       2.629   3.630  -9.409  1.00  0.00    -0.490 OA
ENDROOT
BRANCH   1   2
ATOM      2  C   UNL     1       2.507   4.097 -10.681  1.00  0.00     0.155 A 
ATOM      3  C   UNL     1       1.393   5.486 -12.296  1.00  0.00     0.063 A 
ATOM      4  C   UNL     1       2.280   5.046 -13.282  1.00  0.00     0.019 A 
ATOM      5  C   UNL     1       1.512   5.005 -10.991  1.00  0.00     0.065 A 
ATOM      6  C   UNL     1       3.273   4.144 -12.961  1.00  0.00     0.044 A 
ATOM      7  C   UNL     1       3.392   3.672 -11.665  1.00  0.00     0.165 A 
ATOM      8  F   UNL     1       4.367   2.788 -11.358  1.00  0.00    -0.203 F 
BRANCH   3   9
ATOM      9  C   UNL     1       0.329   6.452 -12.635  1.00  0.00     0.335 C 
ATOM     10  O   UNL     1      -0.575   6.660 -11.853  1.00  0.00    -0.246 OA
BRANCH   9  11
ATOM     11  O   UNL     1       0.367   7.109 -13.812  1.00  0.00    -0.478 OA
ATOM     12  H   UNL     1      -0.482   7.292 -14.239  1.00  0.00     0.297 HD
ENDBRANCH   9  11
ENDBRANCH   3   9
ENDBRANCH   1   2
BRANCH   1  13
ATOM     13  C   UNL     1       2.894   4.594  -8.387  1.00  0.00     0.230 C 
BRANCH  13  14
ATOM     14  C   UNL     1       1.933   4.374  -7.218  1.00  0.00     0.046 C 
BRANCH  14  15
ATOM     15  C   UNL     1       1.982   2.907  -6.787  1.00  0.00     0.043 C 
BRANCH  15  16
ATOM     16  C   UNL     1       2.152   2.827  -5.292  1.00  0.00    -0.004 A 
ATOM     17  C   UNL     1       1.156   2.736  -4.380  1.00  0.00     0.036 A 
ATOM     18  C   UNL     1       3.368   2.828  -4.601  1.00  0.00     0.063 A 
ATOM     19  N   UNL     1       1.721   2.688  -3.156  1.00  0.00    -0.282 N 
ATOM     20  N   UNL     1       3.111   2.751  -3.320  1.00  0.00    -0.181 NA
ATOM     21  C   UNL     1      -0.320   2.696  -4.679  1.00  0.00     0.066 C 
ATOM     22  C   UNL     1       4.739   2.915  -5.223  1.00  0.00     0.069 C 
ATOM     23  H   UNL     1       1.249   2.622  -2.312  1.00  0.00     0.190 HD
ENDBRANCH  15  16
ENDBRANCH  14  15
ENDBRANCH  13  14
ENDBRANCH   1  13
TORSDOF 7
ENDMDL
MODEL 7
REMARK VINA RESULT:    -5.053      4.320      7.593
REMARK INTER + INTRA:          -7.622
REMARK INTER:                  -6.965
REMARK INTRA:                  -0.657
REMARK UNBOUND:                -0.649
REMARK SMILES Cc1n[nH]c(C)c1CCCOc1cc(C(=O)O)ccc1F
REMARK SMILES IDX 11 1 12 2 14 3 18 4 13 5 19 6 20 7 21 8 15 9 16 10 17 11
REMARK SMILES IDX 10 13 9 14 8 15 7 16 5 17 2 18 4 19 3 20 6 21 1 22
REMARK H PARENT 17 12 4 23
ROOT
ATOM      1  O   UNL     1       1.573   5.008  -8.973  1.00  0.00    -0.490 OA
ENDROOT
BRANCH   1   2
ATOM      2  C   UNL     1       1.411   5.303 -10.291  1.00  0.00     0.155 A 
ATOM      3  C   UNL     1       2.112   5.086 -12.581  1.00  0.00     0.063 A 
ATOM      4  C   UNL     1       1.055   5.909 -12.978  1.00  0.00     0.019 A 
ATOM      5  C   UNL     1       2.285   4.785 -11.228  1.00  0.00     0.065 A 
ATOM      6  C   UNL     1       0.184   6.416 -12.037  1.00  0.00     0.044 A 
ATOM      7  C   UNL     1       0.355   6.112 -10.696  1.00  0.00     0.165 A 
ATOM      8  F   UNL     1      -0.502   6.612  -9.779  1.00  0.00    -0.203 F 
BRANCH   3   9
ATOM      9  C   UNL     1       3.046   4.541 -13.586  1.00  0.00     0.335 C 
ATOM     10  O   UNL     1       4.139   4.139 -13.244  1.00  0.00    -0.246 OA
BRANCH   9  11
ATOM     11  O   UNL     1       2.681   4.485 -14.882  1.00  0.00    -0.478 OA
ATOM     12  H   UNL     1       2.511   5.326 -15.327  1.00  0.00     0.297 HD
ENDBRANCH   9  11
ENDBRANCH   3   9
ENDBRANCH   1   2
BRANCH   1  13
ATOM     13  C   UNL     1       1.425   3.638  -8.592  1.00  0.00     0.230 C 
BRANCH  13  14
ATOM     14  C   UNL     1       2.573   3.242  -7.663  1.00  0.00     0.046 C 
BRANCH  14  15
ATOM     15  C   UNL     1       2.544   4.122  -6.411  1.00  0.00     0.043 C 
BRANCH  15  16
ATOM     16  C   UNL     1       2.668   3.256  -5.184  1.00  0.00    -0.004 A 
ATOM     17  C   UNL     1       1.644   2.769  -4.446  1.00  0.00     0.036 A 
ATOM     18  C   UNL     1       3.863   2.808  -4.610  1.00  0.00     0.063 A 
ATOM     19  N   UNL     1       2.171   2.044  -3.437  1.00  0.00    -0.282 N 
ATOM     20  N   UNL     1       3.567   2.088  -3.559  1.00  0.00    -0.181 NA
ATOM     21  C   UNL     1       0.177   2.994  -4.705  1.00  0.00     0.066 C 
ATOM     22  C   UNL     1       5.252   3.114  -5.109  1.00  0.00     0.069 C 
ATOM     23  H   UNL     1       1.673   1.577  -2.749  1.00  0.00     0.190 HD
ENDBRANCH  15  16
ENDBRANCH  14  15
ENDBRANCH  13  14
ENDBRANCH   1  13
TORSDOF 7
ENDMDL
MODEL 8
REMARK VINA RESULT:    -4.963      4.506      8.142
REMARK INTER + INTRA:          -7.498
REMARK INTER:                  -6.968
REMARK INTRA:                  -0.530
REMARK UNBOUND:                -0.649
REMARK SMILES Cc1n[nH]c(C)c1CCCOc1cc(C(=O)O)ccc1F
REMARK SMILES IDX 11 1 12 2 14 3 18 4 13 5 19 6 20 7 21 8 15 9 16 10 17 11
REMARK SMILES IDX 10 13 9 14 8 15 7 16 5 17 2 18 4 19 3 20 6 21 1 22
REMARK H PARENT 17 12 4 23
ROOT
ATOM      1  O   UNL     1       2.948   3.410  -9.873  1.00  0.00    -0.490 OA
ENDROOT
BRANCH   1   2
ATOM      2  C   UNL     1       2.861   3.891 -11.142  1.00  0.00     0.155 A 
ATOM      3  C   UNL     1       1.785   5.288 -12.776  1.00  0.00     0.063 A 
ATOM      4  C   UNL     1       2.708   4.868 -13.738  1.00  0.00     0.019 A 
ATOM      5  C   UNL     1       1.867   4.793 -11.473  1.00  0.00     0.065 A 
ATOM      6  C   UNL     1       3.699   3.973 -13.396  1.00  0.00     0.044 A 
ATOM      7  C   UNL     1       3.782   3.487 -12.102  1.00  0.00     0.165 A 
ATOM      8  F   UNL     1       4.756   2.609 -11.774  1.00  0.00    -0.203 F 
BRANCH   3   9
ATOM      9  C   UNL     1       0.722   6.247 -13.138  1.00  0.00     0.335 C 
ATOM     10  O   UNL     1       0.708   6.749 -14.243  1.00  0.00    -0.246 OA
BRANCH   9  11
ATOM     11  O   UNL     1      -0.235   6.560 -12.243  1.00  0.00    -0.478 OA
ATOM     12  H   UNL     1      -0.321   5.983 -11.471  1.00  0.00     0.297 HD
ENDBRANCH   9  11
ENDBRANCH   3   9
ENDBRANCH   1   2
BRANCH   1  13
ATOM     13  C   UNL     1       2.478   4.260  -8.824  1.00  0.00     0.230 C 
BRANCH  13  14
ATOM     14  C   UNL     1       2.155   3.416  -7.590  1.00  0.00     0.046 C 
BRANCH  14  15
ATOM     15  C   UNL     1       2.375   4.251  -6.328  1.00  0.00     0.043 C 
BRANCH  15  16
ATOM     16  C   UNL     1       2.581   3.337  -5.148  1.00  0.00    -0.004 A 
ATOM     17  C   UNL     1       3.773   2.925  -4.658  1.00  0.00     0.036 A 
ATOM     18  C   UNL     1       1.573   2.768  -4.362  1.00  0.00     0.063 A 
ATOM     19  N   UNL     1       3.528   2.119  -3.604  1.00  0.00    -0.282 N 
ATOM     20  N   UNL     1       2.140   2.032  -3.441  1.00  0.00    -0.181 NA
ATOM     21  C   UNL     1       5.130   3.300  -5.194  1.00  0.00     0.066 C 
ATOM     22  C   UNL     1       0.090   2.959  -4.552  1.00  0.00     0.069 C 
ATOM     23  H   UNL     1       4.196   1.677  -3.056  1.00  0.00     0.190 HD
ENDBRANCH  15  16
ENDBRANCH  14  15
ENDBRANCH  13  14
ENDBRANCH   1  13
TORSDOF 7
ENDMDL
MODEL 9
REMARK VINA RESULT:    -4.754      3.977      7.360
REMARK INTER + INTRA:          -7.209
REMARK INTER:                  -6.412
REMARK INTRA:                  -0.797
REMARK UNBOUND:                -0.649
REMARK SMILES Cc1n[nH]c(C)c1CCCOc1cc(C(=O)O)ccc1F
REMARK SMILES IDX 11 1 12 2 14 3 18 4 13 5 19 6 20 7 21 8 15 9 16 10 17 11
REMARK SMILES IDX 10 13 9 14 8 15 7 16 5 17 2 18 4 19 3 20 6 21 1 22
REMARK H PARENT 17 12 4 23
ROOT
ATOM      1  O   UNL     1       2.826   3.620  -8.760  1.00  0.00    -0.490 OA
ENDROOT
BRANCH   1   2
ATOM      2  C   UNL     1       2.431   4.172  -9.938  1.00  0.00     0.155 A 
ATOM      3  C   UNL     1       1.016   5.678 -11.167  1.00  0.00     0.063 A 
ATOM      4  C   UNL     1       1.646   5.295 -12.355  1.00  0.00     0.019 A 
ATOM      5  C   UNL     1       1.415   5.110  -9.956  1.00  0.00     0.065 A 
ATOM      6  C   UNL     1       2.662   4.363 -12.326  1.00  0.00     0.044 A 
ATOM      7  C   UNL     1       3.060   3.804 -11.123  1.00  0.00     0.165 A 
ATOM      8  F   UNL     1       4.056   2.892 -11.102  1.00  0.00    -0.203 F 
BRANCH   3   9
ATOM      9  C   UNL     1      -0.072   6.676 -11.194  1.00  0.00     0.335 C 
ATOM     10  O   UNL     1      -0.908   6.639 -12.073  1.00  0.00    -0.246 OA
BRANCH   9  11
ATOM     11  O   UNL     1      -0.140   7.623 -10.239  1.00  0.00    -0.478 OA
ATOM     12  H   UNL     1       0.350   7.459  -9.421  1.00  0.00     0.297 HD
ENDBRANCH   9  11
ENDBRANCH   3   9
ENDBRANCH   1   2
BRANCH   1  13
ATOM     13  C   UNL     1       2.994   4.507  -7.652  1.00  0.00     0.230 C 
BRANCH  13  14
ATOM     14  C   UNL     1       3.546   3.730  -6.456  1.00  0.00     0.046 C 
BRANCH  14  15
ATOM     15  C   UNL     1       2.956   2.318  -6.449  1.00  0.00     0.043 C 
BRANCH  15  16
ATOM     16  C   UNL     1       1.657   2.319  -5.687  1.00  0.00    -0.004 A 
ATOM     17  C   UNL     1       1.516   2.496  -4.353  1.00  0.00     0.036 A 
ATOM     18  C   UNL     1       0.381   2.145  -6.235  1.00  0.00     0.063 A 
ATOM     19  N   UNL     1       0.199   2.429  -4.065  1.00  0.00    -0.282 N 
ATOM     20  N   UNL     1      -0.493   2.203  -5.263  1.00  0.00    -0.181 NA
ATOM     21  C   UNL     1       2.630   2.726  -3.366  1.00  0.00     0.066 C 
ATOM     22  C   UNL     1       0.068   1.916  -7.692  1.00  0.00     0.069 C 
ATOM     23  H   UNL     1      -0.198   2.519  -3.185  1.00  0.00     0.190 HD
ENDBRANCH  15  16
ENDBRANCH  14  15
ENDBRANCH  13  14
ENDBRANCH   1  13
TORSDOF 7
ENDMDL
