MODEL 1
REMARK VINA RESULT:    -5.850      0.000      0.000
REMARK INTER + INTRA:          -8.759
REMARK INTER:                  -8.073
REMARK INTRA:                  -0.686
REMARK UNBOUND:                -0.686
REMARK SMILES Cc1n[nH]c(C)c1CCCOc1cc(C(=O)O)ccc1F
REMARK SMILES IDX 11 1 12 2 14 3 18 4 13 5 19 6 20 7 21 8 15 9 16 10 17 11
REMARK SMILES IDX 10 13 9 14 8 15 7 16 5 17 2 18 4 19 3 20 6 21 1 22
REMARK H PARENT 17 12 4 23
ROOT
ATOM      1  O   UNL     1      -3.207   9.835   1.568  1.00  0.00    -0.490 OA
ENDROOT
BRANCH   1   2
ATOM      2  C   UNL     1      -2.389   8.761   1.408  1.00  0.00     0.155 A 
ATOM      3  C   UNL     1      -0.182   7.833   1.180  1.00  0.00     0.063 A 
ATOM      4  C   UNL     1      -0.734   6.552   1.090  1.00  0.00     0.019 A 
ATOM      5  C   UNL     1      -1.019   8.939   1.340  1.00  0.00     0.065 A 
ATOM      6  C   UNL     1      -2.101   6.384   1.165  1.00  0.00     0.044 A 
ATOM      7  C   UNL     1      -2.929   7.482   1.328  1.00  0.00     0.165 A 
ATOM      8  F   UNL     1      -4.267   7.311   1.401  1.00  0.00    -0.203 F 
BRANCH   3   9
ATOM      9  C   UNL     1       1.280   8.016   1.101  1.00  0.00     0.335 C 
ATOM     10  O   UNL     1       1.755   8.759   0.266  1.00  0.00    -0.246 OA
BRANCH   9  11
ATOM     11  O   UNL     1       2.088   7.364   1.960  1.00  0.00    -0.478 OA
ATOM     12  H   UNL     1       2.964   7.745   2.115  1.00  0.00     0.297 HD
ENDBRANCH   9  11
ENDBRANCH   3   9
ENDBRANCH   1   2
BRANCH   1  13
ATOM     13  C   UNL     1      -3.483  10.619   0.405  1.00  0.00     0.230 C 
BRANCH  13  14
ATOM     14  C   UNL     1      -3.901  12.028   0.829  1.00  0.00     0.046 C 
BRANCH  14  15
ATOM     15  C   UNL     1      -2.957  12.533   1.922  1.00  0.00     0.043 C 
BRANCH  15  16
ATOM     16  C   UNL     1      -3.127  14.021   2.085  1.00  0.00    -0.004 A 
ATOM     17  C   UNL     1      -2.406  14.978   1.456  1.00  0.00     0.036 A 
ATOM     18  C   UNL     1      -4.060  14.658   2.910  1.00  0.00     0.063 A 
ATOM     19  N   UNL     1      -2.863  16.178   1.872  1.00  0.00    -0.282 N 
ATOM     20  N   UNL     1      -3.899  15.951   2.788  1.00  0.00    -0.181 NA
ATOM     21  C   UNL     1      -1.294  14.746   0.467  1.00  0.00     0.066 C 
ATOM     22  C   UNL     1      -5.070  13.974   3.795  1.00  0.00     0.069 C 
ATOM     23  H   UNL     1      -2.533  17.044   1.588  1.00  0.00     0.190 HD
ENDBRANCH  15  16
ENDBRANCH  14  15
ENDBRANCH  13  14
ENDBRANCH   1  13
TORSDOF 7
ENDMDL
MODEL 2
REMARK VINA RESULT:    -5.790      1.989      3.125
REMARK INTER + INTRA:          -8.676
REMARK INTER:                  -8.022
REMARK INTRA:                  -0.653
REMARK UNBOUND:                -0.686
REMARK SMILES Cc1n[nH]c(C)c1CCCOc1cc(C(=O)O)ccc1F
REMARK SMILES IDX 11 1 12 2 14 3 18 4 13 5 19 6 20 7 21 8 15 9 16 10 17 11
REMARK SMILES IDX 10 13 9 14 8 15 7 16 5 17 2 18 4 19 3 20 6 21 1 22
REMARK H PARENT 17 12 4 23
ROOT
ATOM      1  O   UNL     1      -0.762  10.056   2.673  1.00  0.00    -0.490 OA
ENDROOT
BRANCH   1   2
ATOM      2  C   UNL     1      -1.000   8.857   2.079  1.00  0.00     0.155 A 
ATOM      3  C   UNL     1      -2.536   7.154   1.356  1.00  0.00     0.063 A 
ATOM      4  C   UNL     1      -1.467   6.409   0.851  1.00  0.00     0.019 A 
ATOM      5  C   UNL     1      -2.295   8.384   1.972  1.00  0.00     0.065 A 
ATOM      6  C   UNL     1      -0.180   6.892   0.957  1.00  0.00     0.044 A 
ATOM      7  C   UNL     1       0.057   8.114   1.564  1.00  0.00     0.165 A 
ATOM      8  F   UNL     1       1.321   8.582   1.665  1.00  0.00    -0.203 F 
BRANCH   3   9
ATOM      9  C   UNL     1      -3.915   6.640   1.244  1.00  0.00     0.335 C 
ATOM     10  O   UNL     1      -4.709   6.828   2.143  1.00  0.00    -0.246 OA
BRANCH   9  11
ATOM     11  O   UNL     1      -4.295   5.967   0.140  1.00  0.00    -0.478 OA
ATOM     12  H   UNL     1      -5.170   5.555   0.156  1.00  0.00     0.297 HD
ENDBRANCH   9  11
ENDBRANCH   3   9
ENDBRANCH   1   2
BRANCH   1  13
ATOM     13  C   UNL     1      -1.040  11.229   1.904  1.00  0.00     0.230 C 
BRANCH  13  14
ATOM     14  C   UNL     1      -1.948  12.161   2.707  1.00  0.00     0.046 C 
BRANCH  14  15
ATOM     15  C   UNL     1      -3.045  12.715   1.795  1.00  0.00     0.043 C 
BRANCH  15  16
ATOM     16  C   UNL     1      -3.207  14.192   2.042  1.00  0.00    -0.004 A 
ATOM     17  C   UNL     1      -2.497  15.181   1.451  1.00  0.00     0.036 A 
ATOM     18  C   UNL     1      -4.123  14.785   2.918  1.00  0.00     0.063 A 
ATOM     19  N   UNL     1      -2.943  16.357   1.941  1.00  0.00    -0.282 N 
ATOM     20  N   UNL     1      -3.960  16.082   2.863  1.00  0.00    -0.181 NA
ATOM     21  C   UNL     1      -1.405  15.001   0.429  1.00  0.00     0.066 C 
ATOM     22  C   UNL     1      -5.116  14.054   3.785  1.00  0.00     0.069 C 
ATOM     23  H   UNL     1      -2.616  17.237   1.698  1.00  0.00     0.190 HD
ENDBRANCH  15  16
ENDBRANCH  14  15
ENDBRANCH  13  14
ENDBRANCH   1  13
TORSDOF 7
ENDMDL
MODEL 3
REMARK VINA RESULT:    -5.779      0.231      1.783
REMARK INTER + INTRA:          -8.661
REMARK INTER:                  -8.003
REMARK INTRA:                  -0.658
REMARK UNBOUND:                -0.686
REMARK SMILES Cc1n[nH]c(C)c1CCCOc1cc(C(=O)O)ccc1F
REMARK SMILES IDX 11 1 12 2 14 3 18 4 13 5 19 6 20 7 21 8 15 9 16 10 17 11
REMARK SMILES IDX 10 13 9 14 8 15 7 16 5 17 2 18 4 19 3 20 6 21 1 22
REMARK H PARENT 17 12 4 23
ROOT
ATOM      1  O   UNL     1      -3.209   9.832   1.537  1.00  0.00    -0.490 OA
ENDROOT
BRANCH   1   2
ATOM      2  C   UNL     1      -2.389   8.757   1.386  1.00  0.00     0.155 A 
ATOM      3  C   UNL     1      -0.181   7.829   1.174  1.00  0.00     0.063 A 
ATOM      4  C   UNL     1      -0.732   6.548   1.086  1.00  0.00     0.019 A 
ATOM      5  C   UNL     1      -1.020   8.936   1.325  1.00  0.00     0.065 A 
ATOM      6  C   UNL     1      -2.099   6.380   1.153  1.00  0.00     0.044 A 
ATOM      7  C   UNL     1      -2.929   7.478   1.308  1.00  0.00     0.165 A 
ATOM      8  F   UNL     1      -4.268   7.306   1.373  1.00  0.00    -0.203 F 
BRANCH   3   9
ATOM      9  C   UNL     1       1.281   8.013   1.103  1.00  0.00     0.335 C 
ATOM     10  O   UNL     1       1.760   8.767   0.280  1.00  0.00    -0.246 OA
BRANCH   9  11
ATOM     11  O   UNL     1       2.086   7.349   1.955  1.00  0.00    -0.478 OA
ATOM     12  H   UNL     1       2.680   7.880   2.504  1.00  0.00     0.297 HD
ENDBRANCH   9  11
ENDBRANCH   3   9
ENDBRANCH   1   2
BRANCH   1  13
ATOM     13  C   UNL     1      -3.514  10.586   0.362  1.00  0.00     0.230 C 
BRANCH  13  14
ATOM     14  C   UNL     1      -3.871  12.020   0.755  1.00  0.00     0.046 C 
BRANCH  14  15
ATOM     15  C   UNL     1      -2.815  12.562   1.720  1.00  0.00     0.043 C 
BRANCH  15  16
ATOM     16  C   UNL     1      -2.957  14.058   1.834  1.00  0.00    -0.004 A 
ATOM     17  C   UNL     1      -3.819  14.717   2.643  1.00  0.00     0.036 A 
ATOM     18  C   UNL     1      -2.217  15.011   1.127  1.00  0.00     0.063 A 
ATOM     19  N   UNL     1      -3.635  16.040   2.449  1.00  0.00    -0.282 N 
ATOM     20  N   UNL     1      -2.627  16.199   1.489  1.00  0.00    -0.181 NA
ATOM     21  C   UNL     1      -4.806  14.086   3.590  1.00  0.00     0.066 C 
ATOM     22  C   UNL     1      -1.141  14.720   0.112  1.00  0.00     0.069 C 
ATOM     23  H   UNL     1      -4.117  16.754   2.895  1.00  0.00     0.190 HD
ENDBRANCH  15  16
ENDBRANCH  14  15
ENDBRANCH  13  14
ENDBRANCH   1  13
TORSDOF 7
ENDMDL
MODEL 4
REMARK VINA RESULT:    -5.761      2.030      3.635
REMARK INTER + INTRA:          -8.637
REMARK INTER:                  -7.943
REMARK INTRA:                  -0.693
REMARK UNBOUND:                -0.686
REMARK SMILES Cc1n[nH]c(C)c1CCCOc1cc(C(=O)O)ccc1F
REMARK SMILES IDX 11 1 12 2 14 3 18 4 13 5 19 6 20 7 21 8 15 9 16 10 17 11
REMARK SMILES IDX 10 13 9 14 8 15 7 16 5 17 2 18 4 19 3 20 6 21 1 22
REMARK H PARENT 17 12 4 23
ROOT
ATOM      1  O   UNL     1      -0.647   9.898   2.974  1.00  0.00    -0.490 OA
ENDROOT
BRANCH   1   2
ATOM      2  C   UNL     1      -0.910   8.770   2.262  1.00  0.00     0.155 A 
ATOM      3  C   UNL     1      -2.480   7.169   1.393  1.00  0.00     0.063 A 
ATOM      4  C   UNL     1      -1.429   6.470   0.793  1.00  0.00     0.019 A 
ATOM      5  C   UNL     1      -2.212   8.325   2.130  1.00  0.00     0.065 A 
ATOM      6  C   UNL     1      -0.134   6.926   0.925  1.00  0.00     0.044 A 
ATOM      7  C   UNL     1       0.128   8.075   1.652  1.00  0.00     0.165 A 
ATOM      8  F   UNL     1       1.399   8.516   1.778  1.00  0.00    -0.203 F 
BRANCH   3   9
ATOM      9  C   UNL     1      -3.867   6.684   1.253  1.00  0.00     0.335 C 
ATOM     10  O   UNL     1      -4.674   6.888   2.137  1.00  0.00    -0.246 OA
BRANCH   9  11
ATOM     11  O   UNL     1      -4.239   6.022   0.140  1.00  0.00    -0.478 OA
ATOM     12  H   UNL     1      -4.232   6.518  -0.690  1.00  0.00     0.297 HD
ENDBRANCH   9  11
ENDBRANCH   3   9
ENDBRANCH   1   2
BRANCH   1  13
ATOM     13  C   UNL     1      -0.600  11.128   2.248  1.00  0.00     0.230 C 
BRANCH  13  14
ATOM     14  C   UNL     1      -1.530  12.146   2.910  1.00  0.00     0.046 C 
BRANCH  14  15
ATOM     15  C   UNL     1      -2.701  12.453   1.974  1.00  0.00     0.043 C 
BRANCH  15  16
ATOM     16  C   UNL     1      -3.084  13.903   2.106  1.00  0.00    -0.004 A 
ATOM     17  C   UNL     1      -4.056  14.400   2.906  1.00  0.00     0.036 A 
ATOM     18  C   UNL     1      -2.495  14.976   1.428  1.00  0.00     0.063 A 
ATOM     19  N   UNL     1      -4.085  15.739   2.736  1.00  0.00    -0.282 N 
ATOM     20  N   UNL     1      -3.098  16.076   1.800  1.00  0.00    -0.181 NA
ATOM     21  C   UNL     1      -4.945  13.602   3.823  1.00  0.00     0.066 C 
ATOM     22  C   UNL     1      -1.368  14.880   0.432  1.00  0.00     0.069 C 
ATOM     23  H   UNL     1      -4.683  16.358   3.182  1.00  0.00     0.190 HD
ENDBRANCH  15  16
ENDBRANCH  14  15
ENDBRANCH  13  14
ENDBRANCH   1  13
TORSDOF 7
ENDMDL
MODEL 5
REMARK VINA RESULT:    -4.937      4.257      7.821
REMARK INTER + INTRA:          -7.499
REMARK INTER:                  -6.983
REMARK INTRA:                  -0.515
REMARK UNBOUND:                -0.686
REMARK SMILES Cc1n[nH]c(C)c1CCCOc1cc(C(=O)O)ccc1F
REMARK SMILES IDX 11 1 12 2 14 3 18 4 13 5 19 6 20 7 21 8 15 9 16 10 17 11
REMARK SMILES IDX 10 13 9 14 8 15 7 16 5 17 2 18 4 19 3 20 6 21 1 22
REMARK H PARENT 17 12 4 23
ROOT
ATOM      1  O   UNL     1      -1.689  11.908   1.052  1.00  0.00    -0.490 OA
ENDROOT
BRANCH   1   2
ATOM      2  C   UNL     1      -2.212  13.112   1.406  1.00  0.00     0.155 A 
ATOM      3  C   UNL     1      -3.782  14.413   2.681  1.00  0.00     0.063 A 
ATOM      4  C   UNL     1      -3.260  15.583   2.123  1.00  0.00     0.019 A 
ATOM      5  C   UNL     1      -3.251  13.174   2.316  1.00  0.00     0.065 A 
ATOM      6  C   UNL     1      -2.220  15.511   1.220  1.00  0.00     0.044 A 
ATOM      7  C   UNL     1      -1.692  14.282   0.863  1.00  0.00     0.165 A 
ATOM      8  F   UNL     1      -0.673  14.218  -0.022  1.00  0.00    -0.203 F 
BRANCH   3   9
ATOM      9  C   UNL     1      -4.894  14.486   3.648  1.00  0.00     0.335 C 
ATOM     10  O   UNL     1      -5.459  15.542   3.846  1.00  0.00    -0.246 OA
BRANCH   9  11
ATOM     11  O   UNL     1      -5.287  13.379   4.307  1.00  0.00    -0.478 OA
ATOM     12  H   UNL     1      -6.225  13.312   4.535  1.00  0.00     0.297 HD
ENDBRANCH   9  11
ENDBRANCH   3   9
ENDBRANCH   1   2
BRANCH   1  13
ATOM     13  C   UNL     1      -1.424  10.981   2.108  1.00  0.00     0.230 C 
BRANCH  13  14
ATOM     14  C   UNL     1      -2.383   9.795   1.998  1.00  0.00     0.046 C 
BRANCH  14  15
ATOM     15  C   UNL     1      -2.152   9.073   0.668  1.00  0.00     0.043 C 
BRANCH  15  16
ATOM     16  C   UNL     1      -1.749   7.646   0.934  1.00  0.00    -0.004 A 
ATOM     17  C   UNL     1      -2.590   6.599   1.099  1.00  0.00     0.036 A 
ATOM     18  C   UNL     1      -0.439   7.167   1.046  1.00  0.00     0.063 A 
ATOM     19  N   UNL     1      -1.840   5.498   1.315  1.00  0.00    -0.282 N 
ATOM     20  N   UNL     1      -0.493   5.882   1.282  1.00  0.00    -0.181 NA
ATOM     21  C   UNL     1      -4.095   6.652   1.049  1.00  0.00     0.066 C 
ATOM     22  C   UNL     1       0.816   7.993   0.930  1.00  0.00     0.069 C 
ATOM     23  H   UNL     1      -2.174   4.601   1.467  1.00  0.00     0.190 HD
ENDBRANCH  15  16
ENDBRANCH  14  15
ENDBRANCH  13  14
ENDBRANCH   1  13
TORSDOF 7
ENDMDL
MODEL 6
REMARK VINA RESULT:    -4.875      4.180      7.431
REMARK INTER + INTRA:          -7.413
REMARK INTER:                  -6.815
REMARK INTRA:                  -0.599
REMARK UNBOUND:                -0.686
REMARK SMILES Cc1n[nH]c(C)c1CCCOc1cc(C(=O)O)ccc1F
REMARK SMILES IDX 11 1 12 2 14 3 18 4 13 5 19 6 20 7 21 8 15 9 16 10 17 11
REMARK SMILES IDX 10 13 9 14 8 15 7 16 5 17 2 18 4 19 3 20 6 21 1 22
REMARK H PARENT 17 12 4 23
ROOT
ATOM      1  O   UNL     1      -3.165  11.379   2.199  1.00  0.00    -0.490 OA
ENDROOT
BRANCH   1   2
ATOM      2  C   UNL     1      -3.269  12.734   2.253  1.00  0.00     0.155 A 
ATOM      3  C   UNL     1      -2.553  14.914   1.533  1.00  0.00     0.063 A 
ATOM      4  C   UNL     1      -3.505  15.499   2.371  1.00  0.00     0.019 A 
ATOM      5  C   UNL     1      -2.439  13.523   1.479  1.00  0.00     0.065 A 
ATOM      6  C   UNL     1      -4.333  14.704   3.136  1.00  0.00     0.044 A 
ATOM      7  C   UNL     1      -4.222  13.325   3.076  1.00  0.00     0.165 A 
ATOM      8  F   UNL     1      -5.036  12.551   3.828  1.00  0.00    -0.203 F 
BRANCH   3   9
ATOM      9  C   UNL     1      -1.666  15.762   0.713  1.00  0.00     0.335 C 
ATOM     10  O   UNL     1      -0.834  15.251  -0.008  1.00  0.00    -0.246 OA
BRANCH   9  11
ATOM     11  O   UNL     1      -1.784  17.103   0.761  1.00  0.00    -0.478 OA
ATOM     12  H   UNL     1      -1.487  17.598  -0.015  1.00  0.00     0.297 HD
ENDBRANCH   9  11
ENDBRANCH   3   9
ENDBRANCH   1   2
BRANCH   1  13
ATOM     13  C   UNL     1      -3.173  10.780   0.901  1.00  0.00     0.230 C 
BRANCH  13  14
ATOM     14  C   UNL     1      -1.845  10.058   0.666  1.00  0.00     0.046 C 
BRANCH  14  15
ATOM     15  C   UNL     1      -1.550   9.134   1.849  1.00  0.00     0.043 C 
BRANCH  15  16
ATOM     16  C   UNL     1      -1.213   7.757   1.340  1.00  0.00    -0.004 A 
ATOM     17  C   UNL     1      -2.096   6.761   1.090  1.00  0.00     0.036 A 
ATOM     18  C   UNL     1       0.067   7.282   1.034  1.00  0.00     0.063 A 
ATOM     19  N   UNL     1      -1.398   5.693   0.650  1.00  0.00    -0.282 N 
ATOM     20  N   UNL     1      -0.041   6.044   0.627  1.00  0.00    -0.181 NA
ATOM     21  C   UNL     1      -3.589   6.833   1.272  1.00  0.00     0.066 C 
ATOM     22  C   UNL     1       1.352   8.060   1.164  1.00  0.00     0.069 C 
ATOM     23  H   UNL     1      -1.769   4.835   0.394  1.00  0.00     0.190 HD
ENDBRANCH  15  16
ENDBRANCH  14  15
ENDBRANCH  13  14
ENDBRANCH   1  13
TORSDOF 7
ENDMDL
MODEL 7
REMARK VINA RESULT:    -4.872      4.200      7.240
REMARK INTER + INTRA:          -7.409
REMARK INTER:                  -6.788
REMARK INTRA:                  -0.622
REMARK UNBOUND:                -0.686
REMARK SMILES Cc1n[nH]c(C)c1CCCOc1cc(C(=O)O)ccc1F
REMARK SMILES IDX 11 1 12 2 14 3 18 4 13 5 19 6 20 7 21 8 15 9 16 10 17 11
REMARK SMILES IDX 10 13 9 14 8 15 7 16 5 17 2 18 4 19 3 20 6 21 1 22
REMARK H PARENT 17 12 4 23
ROOT
ATOM      1  O   UNL     1      -3.093  11.432   2.146  1.00  0.00    -0.490 OA
ENDROOT
BRANCH   1   2
ATOM      2  C   UNL     1      -3.150  12.790   2.152  1.00  0.00     0.155 A 
ATOM      3  C   UNL     1      -2.338  14.917   1.377  1.00  0.00     0.063 A 
ATOM      4  C   UNL     1      -3.290  15.565   2.170  1.00  0.00     0.019 A 
ATOM      5  C   UNL     1      -2.273  13.522   1.373  1.00  0.00     0.065 A 
ATOM      6  C   UNL     1      -4.164  14.826   2.939  1.00  0.00     0.044 A 
ATOM      7  C   UNL     1      -4.100  13.442   2.929  1.00  0.00     0.165 A 
ATOM      8  F   UNL     1      -4.960  12.724   3.685  1.00  0.00    -0.203 F 
BRANCH   3   9
ATOM      9  C   UNL     1      -1.402  15.705   0.552  1.00  0.00     0.335 C 
ATOM     10  O   UNL     1      -0.986  15.253  -0.495  1.00  0.00    -0.246 OA
BRANCH   9  11
ATOM     11  O   UNL     1      -1.013  16.930   0.959  1.00  0.00    -0.478 OA
ATOM     12  H   UNL     1      -0.132  17.003   1.352  1.00  0.00     0.297 HD
ENDBRANCH   9  11
ENDBRANCH   3   9
ENDBRANCH   1   2
BRANCH   1  13
ATOM     13  C   UNL     1      -3.284  10.780   0.888  1.00  0.00     0.230 C 
BRANCH  13  14
ATOM     14  C   UNL     1      -2.038   9.962   0.543  1.00  0.00     0.046 C 
BRANCH  14  15
ATOM     15  C   UNL     1      -1.618   9.135   1.760  1.00  0.00     0.043 C 
BRANCH  15  16
ATOM     16  C   UNL     1      -1.230   7.748   1.316  1.00  0.00    -0.004 A 
ATOM     17  C   UNL     1       0.027   7.317   1.060  1.00  0.00     0.036 A 
ATOM     18  C   UNL     1      -2.104   6.678   1.101  1.00  0.00     0.063 A 
ATOM     19  N   UNL     1      -0.050   6.021   0.690  1.00  0.00    -0.282 N 
ATOM     20  N   UNL     1      -1.399   5.644   0.719  1.00  0.00    -0.181 NA
ATOM     21  C   UNL     1       1.286   8.137   1.168  1.00  0.00     0.066 C 
ATOM     22  C   UNL     1      -3.602   6.712   1.269  1.00  0.00     0.069 C 
ATOM     23  H   UNL     1       0.697   5.453   0.446  1.00  0.00     0.190 HD
ENDBRANCH  15  16
ENDBRANCH  14  15
ENDBRANCH  13  14
ENDBRANCH   1  13
TORSDOF 7
ENDMDL
MODEL 8
REMARK VINA RESULT:    -4.804      4.301      7.780
REMARK INTER + INTRA:          -7.316
REMARK INTER:                  -6.659
REMARK INTRA:                  -0.657
REMARK UNBOUND:                -0.686
REMARK SMILES Cc1n[nH]c(C)c1CCCOc1cc(C(=O)O)ccc1F
REMARK SMILES IDX 11 1 12 2 14 3 18 4 13 5 19 6 20 7 21 8 15 9 16 10 17 11
REMARK SMILES IDX 10 13 9 14 8 15 7 16 5 17 2 18 4 19 3 20 6 21 1 22
REMARK H PARENT 17 12 4 23
ROOT
ATOM      1  O   UNL     1      -1.874  11.924   1.203  1.00  0.00    -0.490 OA
ENDROOT
BRANCH   1   2
ATOM      2  C   UNL     1      -2.358  13.151   1.534  1.00  0.00     0.155 A 
ATOM      3  C   UNL     1      -3.917  14.523   2.747  1.00  0.00     0.063 A 
ATOM      4  C   UNL     1      -3.326  15.667   2.205  1.00  0.00     0.019 A 
ATOM      5  C   UNL     1      -3.426  13.261   2.405  1.00  0.00     0.065 A 
ATOM      6  C   UNL     1      -2.257  15.548   1.342  1.00  0.00     0.044 A 
ATOM      7  C   UNL     1      -1.769  14.295   1.008  1.00  0.00     0.165 A 
ATOM      8  F   UNL     1      -0.722  14.185   0.161  1.00  0.00    -0.203 F 
BRANCH   3   9
ATOM      9  C   UNL     1      -5.060  14.647   3.672  1.00  0.00     0.335 C 
ATOM     10  O   UNL     1      -5.438  13.682   4.304  1.00  0.00    -0.246 OA
BRANCH   9  11
ATOM     11  O   UNL     1      -5.681  15.834   3.820  1.00  0.00    -0.478 OA
ATOM     12  H   UNL     1      -6.605  15.814   4.107  1.00  0.00     0.297 HD
ENDBRANCH   9  11
ENDBRANCH   3   9
ENDBRANCH   1   2
BRANCH   1  13
ATOM     13  C   UNL     1      -1.268  11.162   2.250  1.00  0.00     0.230 C 
BRANCH  13  14
ATOM     14  C   UNL     1      -1.904   9.772   2.302  1.00  0.00     0.046 C 
BRANCH  14  15
ATOM     15  C   UNL     1      -1.880   9.147   0.905  1.00  0.00     0.043 C 
BRANCH  15  16
ATOM     16  C   UNL     1      -1.549   7.682   1.016  1.00  0.00    -0.004 A 
ATOM     17  C   UNL     1      -0.307   7.146   1.049  1.00  0.00     0.036 A 
ATOM     18  C   UNL     1      -2.472   6.634   1.108  1.00  0.00     0.063 A 
ATOM     19  N   UNL     1      -0.439   5.807   1.152  1.00  0.00    -0.282 N 
ATOM     20  N   UNL     1      -1.808   5.510   1.183  1.00  0.00    -0.181 NA
ATOM     21  C   UNL     1       0.991   7.908   0.983  1.00  0.00     0.066 C 
ATOM     22  C   UNL     1      -3.972   6.776   1.109  1.00  0.00     0.069 C 
ATOM     23  H   UNL     1       0.286   5.164   1.196  1.00  0.00     0.190 HD
ENDBRANCH  15  16
ENDBRANCH  14  15
ENDBRANCH  13  14
ENDBRANCH   1  13
TORSDOF 7
ENDMDL
