MODEL 1
REMARK VINA RESULT:    -5.075      0.000      0.000
REMARK INTER + INTRA:          -6.111
REMARK INTER:                  -5.817
REMARK INTRA:                  -0.294
REMARK UNBOUND:                -0.294
REMARK SMILES O=C(O)c1ccc2nc(-c3cc(Cl)cc(Cl)c3)oc2c1
REMARK SMILES IDX 5 1 6 2 20 3 8 4 18 5 4 6 9 7 7 8 19 9 2 10 1 11 3 12 10 14
REMARK SMILES IDX 11 15 17 16 12 17 15 18 14 19 13 20 16 21
REMARK H PARENT 3 13
ROOT
ATOM      1  C   UNL     1      -3.483  15.219   2.381  1.00  0.00     0.018 A 
ATOM      2  C   UNL     1      -3.801  13.922   2.652  1.00  0.00     0.033 A 
ATOM      3  C   UNL     1      -1.667  14.499   0.945  1.00  0.00     0.065 A 
ATOM      4  N   UNL     1      -3.130  11.537   2.155  1.00  0.00    -0.209 NA
ATOM      5  O   UNL     1      -1.466  11.996   0.830  1.00  0.00    -0.436 OA
ATOM      6  C   UNL     1      -2.416  15.524   1.525  1.00  0.00     0.063 A 
ATOM      7  C   UNL     1      -2.184  11.017   1.413  1.00  0.00     0.227 A 
ATOM      8  C   UNL     1      -3.057  12.883   2.078  1.00  0.00     0.110 A 
ATOM      9  C   UNL     1      -1.983  13.182   1.221  1.00  0.00     0.156 A 
ENDROOT
BRANCH   6  10
ATOM     10  C   UNL     1      -2.086  16.931   1.234  1.00  0.00     0.335 C 
ATOM     11  O   UNL     1      -0.976  17.225   0.839  1.00  0.00    -0.246 OA
BRANCH  10  12
ATOM     12  O   UNL     1      -3.015  17.892   1.408  1.00  0.00    -0.478 OA
ATOM     13  H   UNL     1      -3.027  18.613   0.765  1.00  0.00     0.297 HD
ENDBRANCH  10  12
ENDBRANCH   6  10
BRANCH   7  14
ATOM     14  C   UNL     1      -1.941   9.570   1.242  1.00  0.00     0.040 A 
ATOM     15  C   UNL     1      -0.645   9.095   1.040  1.00  0.00     0.034 A 
ATOM     16  C   UNL     1      -3.010   8.671   1.281  1.00  0.00     0.034 A 
ATOM     17  C   UNL     1      -0.425   7.741   0.882  1.00  0.00     0.043 A 
ATOM     18  C   UNL     1      -2.777   7.320   1.121  1.00  0.00     0.043 A 
ATOM     19  C   UNL     1      -1.488   6.855   0.921  1.00  0.00     0.041 A 
ATOM     20  Cl  UNL     1       1.187   7.148   0.631  1.00  0.00    -0.084 Cl
ATOM     21  Cl  UNL     1      -4.104   6.200   1.170  1.00  0.00    -0.084 Cl
ENDBRANCH   7  14
TORSDOF 3
ENDMDL
MODEL 2
REMARK VINA RESULT:    -5.075      0.003      2.019
REMARK INTER + INTRA:          -6.110
REMARK INTER:                  -5.816
REMARK INTRA:                  -0.294
REMARK UNBOUND:                -0.294
REMARK SMILES O=C(O)c1ccc2nc(-c3cc(Cl)cc(Cl)c3)oc2c1
REMARK SMILES IDX 5 1 6 2 20 3 8 4 18 5 4 6 9 7 7 8 19 9 2 10 1 11 3 12 10 14
REMARK SMILES IDX 11 15 17 16 12 17 15 18 14 19 13 20 16 21
REMARK H PARENT 3 13
ROOT
ATOM      1  C   UNL     1      -3.483  15.219   2.381  1.00  0.00     0.018 A 
ATOM      2  C   UNL     1      -3.801  13.922   2.653  1.00  0.00     0.033 A 
ATOM      3  C   UNL     1      -1.666  14.498   0.946  1.00  0.00     0.065 A 
ATOM      4  N   UNL     1      -3.130  11.537   2.156  1.00  0.00    -0.209 NA
ATOM      5  O   UNL     1      -1.466  11.994   0.832  1.00  0.00    -0.436 OA
ATOM      6  C   UNL     1      -2.415  15.523   1.525  1.00  0.00     0.063 A 
ATOM      7  C   UNL     1      -2.185  11.016   1.415  1.00  0.00     0.227 A 
ATOM      8  C   UNL     1      -3.058  12.883   2.079  1.00  0.00     0.110 A 
ATOM      9  C   UNL     1      -1.983  13.180   1.223  1.00  0.00     0.156 A 
ENDROOT
BRANCH   6  10
ATOM     10  C   UNL     1      -2.085  16.930   1.234  1.00  0.00     0.335 C 
ATOM     11  O   UNL     1      -0.973  17.224   0.842  1.00  0.00    -0.246 OA
BRANCH  10  12
ATOM     12  O   UNL     1      -3.015  17.891   1.404  1.00  0.00    -0.478 OA
ATOM     13  H   UNL     1      -2.925  18.456   2.183  1.00  0.00     0.297 HD
ENDBRANCH  10  12
ENDBRANCH   6  10
BRANCH   7  14
ATOM     14  C   UNL     1      -1.943   9.569   1.244  1.00  0.00     0.040 A 
ATOM     15  C   UNL     1      -3.009   8.670   1.284  1.00  0.00     0.034 A 
ATOM     16  C   UNL     1      -0.644   9.095   1.043  1.00  0.00     0.034 A 
ATOM     17  C   UNL     1      -2.776   7.318   1.123  1.00  0.00     0.043 A 
ATOM     18  C   UNL     1      -0.424   7.741   0.883  1.00  0.00     0.043 A 
ATOM     19  C   UNL     1      -1.487   6.855   0.924  1.00  0.00     0.041 A 
ATOM     20  Cl  UNL     1      -4.101   6.198   1.172  1.00  0.00    -0.084 Cl
ATOM     21  Cl  UNL     1       1.189   7.150   0.632  1.00  0.00    -0.084 Cl
ENDBRANCH   7  14
TORSDOF 3
ENDMDL
MODEL 3
REMARK VINA RESULT:    -5.058      1.592      3.027
REMARK INTER + INTRA:          -6.091
REMARK INTER:                  -5.796
REMARK INTRA:                  -0.294
REMARK UNBOUND:                -0.294
REMARK SMILES O=C(O)c1ccc2nc(-c3cc(Cl)cc(Cl)c3)oc2c1
REMARK SMILES IDX 5 1 6 2 20 3 8 4 18 5 4 6 9 7 7 8 19 9 2 10 1 11 3 12 10 14
REMARK SMILES IDX 11 15 17 16 12 17 15 18 14 19 13 20 16 21
REMARK H PARENT 3 13
ROOT
ATOM      1  C   UNL     1      -3.127  15.326   2.004  1.00  0.00     0.018 A 
ATOM      2  C   UNL     1      -2.258  14.441   1.437  1.00  0.00     0.033 A 
ATOM      3  C   UNL     1      -4.293  13.509   3.108  1.00  0.00     0.065 A 
ATOM      4  N   UNL     1      -1.700  11.982   1.286  1.00  0.00    -0.209 NA
ATOM      5  O   UNL     1      -3.291  11.264   2.585  1.00  0.00    -0.436 OA
ATOM      6  C   UNL     1      -4.152  14.873   2.846  1.00  0.00     0.063 A 
ATOM      7  C   UNL     1      -2.240  10.914   1.820  1.00  0.00     0.227 A 
ATOM      8  C   UNL     1      -2.389  13.071   1.692  1.00  0.00     0.110 A 
ATOM      9  C   UNL     1      -3.417  12.608   2.532  1.00  0.00     0.156 A 
ENDROOT
BRANCH   6  10
ATOM     10  C   UNL     1      -5.082  15.839   3.458  1.00  0.00     0.335 C 
ATOM     11  O   UNL     1      -6.143  15.458   3.911  1.00  0.00    -0.246 OA
BRANCH  10  12
ATOM     12  O   UNL     1      -4.756  17.146   3.514  1.00  0.00    -0.478 OA
ATOM     13  H   UNL     1      -5.474  17.771   3.678  1.00  0.00     0.297 HD
ENDBRANCH  10  12
ENDBRANCH   6  10
BRANCH   7  14
ATOM     14  C   UNL     1      -1.764   9.531   1.611  1.00  0.00     0.040 A 
ATOM     15  C   UNL     1      -2.670   8.470   1.621  1.00  0.00     0.034 A 
ATOM     16  C   UNL     1      -0.406   9.281   1.404  1.00  0.00     0.034 A 
ATOM     17  C   UNL     1      -2.220   7.179   1.424  1.00  0.00     0.043 A 
ATOM     18  C   UNL     1       0.032   7.986   1.209  1.00  0.00     0.043 A 
ATOM     19  C   UNL     1      -0.872   6.938   1.219  1.00  0.00     0.041 A 
ATOM     20  Cl  UNL     1      -3.345   5.857   1.435  1.00  0.00    -0.084 Cl
ATOM     21  Cl  UNL     1       1.720   7.673   0.951  1.00  0.00    -0.084 Cl
ENDBRANCH   7  14
TORSDOF 3
ENDMDL
MODEL 4
REMARK VINA RESULT:    -5.055      1.592      2.267
REMARK INTER + INTRA:          -6.087
REMARK INTER:                  -5.793
REMARK INTRA:                  -0.294
REMARK UNBOUND:                -0.294
REMARK SMILES O=C(O)c1ccc2nc(-c3cc(Cl)cc(Cl)c3)oc2c1
REMARK SMILES IDX 5 1 6 2 20 3 8 4 18 5 4 6 9 7 7 8 19 9 2 10 1 11 3 12 10 14
REMARK SMILES IDX 11 15 17 16 12 17 15 18 14 19 13 20 16 21
REMARK H PARENT 3 13
ROOT
ATOM      1  C   UNL     1      -3.129  15.328   2.007  1.00  0.00     0.018 A 
ATOM      2  C   UNL     1      -2.260  14.444   1.440  1.00  0.00     0.033 A 
ATOM      3  C   UNL     1      -4.295  13.510   3.109  1.00  0.00     0.065 A 
ATOM      4  N   UNL     1      -1.701  11.985   1.287  1.00  0.00    -0.209 NA
ATOM      5  O   UNL     1      -3.292  11.265   2.585  1.00  0.00    -0.436 OA
ATOM      6  C   UNL     1      -4.154  14.874   2.848  1.00  0.00     0.063 A 
ATOM      7  C   UNL     1      -2.241  10.917   1.819  1.00  0.00     0.227 A 
ATOM      8  C   UNL     1      -2.390  13.073   1.693  1.00  0.00     0.110 A 
ATOM      9  C   UNL     1      -3.419  12.610   2.532  1.00  0.00     0.156 A 
ENDROOT
BRANCH   6  10
ATOM     10  C   UNL     1      -5.084  15.840   3.461  1.00  0.00     0.335 C 
ATOM     11  O   UNL     1      -6.144  15.458   3.915  1.00  0.00    -0.246 OA
BRANCH  10  12
ATOM     12  O   UNL     1      -4.760  17.147   3.515  1.00  0.00    -0.478 OA
ATOM     13  H   UNL     1      -4.657  17.538   4.393  1.00  0.00     0.297 HD
ENDBRANCH  10  12
ENDBRANCH   6  10
BRANCH   7  14
ATOM     14  C   UNL     1      -1.765   9.533   1.610  1.00  0.00     0.040 A 
ATOM     15  C   UNL     1      -0.409   9.282   1.401  1.00  0.00     0.034 A 
ATOM     16  C   UNL     1      -2.673   8.472   1.619  1.00  0.00     0.034 A 
ATOM     17  C   UNL     1       0.029   7.987   1.207  1.00  0.00     0.043 A 
ATOM     18  C   UNL     1      -2.223   7.182   1.423  1.00  0.00     0.043 A 
ATOM     19  C   UNL     1      -0.876   6.939   1.217  1.00  0.00     0.041 A 
ATOM     20  Cl  UNL     1       1.717   7.673   0.948  1.00  0.00    -0.084 Cl
ATOM     21  Cl  UNL     1      -3.349   5.860   1.434  1.00  0.00    -0.084 Cl
ENDBRANCH   7  14
TORSDOF 3
ENDMDL
MODEL 5
REMARK VINA RESULT:    -5.052      3.765      7.626
REMARK INTER + INTRA:          -6.084
REMARK INTER:                  -5.787
REMARK INTRA:                  -0.297
REMARK UNBOUND:                -0.294
REMARK SMILES O=C(O)c1ccc2nc(-c3cc(Cl)cc(Cl)c3)oc2c1
REMARK SMILES IDX 5 1 6 2 20 3 8 4 18 5 4 6 9 7 7 8 19 9 2 10 1 11 3 12 10 14
REMARK SMILES IDX 11 15 17 16 12 17 15 18 14 19 13 20 16 21
REMARK H PARENT 3 13
ROOT
ATOM      1  C   UNL     1      -1.958   7.126   1.814  1.00  0.00     0.018 A 
ATOM      2  C   UNL     1      -2.734   8.133   2.305  1.00  0.00     0.033 A 
ATOM      3  C   UNL     1      -0.559   8.735   0.660  1.00  0.00     0.065 A 
ATOM      4  N   UNL     1      -3.011  10.644   2.308  1.00  0.00    -0.209 NA
ATOM      5  O   UNL     1      -1.318  11.105   1.022  1.00  0.00    -0.436 OA
ATOM      6  C   UNL     1      -0.862   7.413   0.989  1.00  0.00     0.063 A 
ATOM      7  C   UNL     1      -2.340  11.613   1.736  1.00  0.00     0.227 A 
ATOM      8  C   UNL     1      -2.441   9.464   1.983  1.00  0.00     0.110 A 
ATOM      9  C   UNL     1      -1.346   9.760   1.152  1.00  0.00     0.156 A 
ENDROOT
BRANCH   6  10
ATOM     10  C   UNL     1      -0.026   6.316   0.469  1.00  0.00     0.335 C 
ATOM     11  O   UNL     1       1.095   6.547   0.060  1.00  0.00    -0.246 OA
BRANCH  10  12
ATOM     12  O   UNL     1      -0.505   5.056   0.445  1.00  0.00    -0.478 OA
ATOM     13  H   UNL     1       0.139   4.344   0.336  1.00  0.00     0.297 HD
ENDBRANCH  10  12
ENDBRANCH   6  10
BRANCH   7  14
ATOM     14  C   UNL     1      -2.659  13.050   1.856  1.00  0.00     0.040 A 
ATOM     15  C   UNL     1      -3.709  13.470   2.673  1.00  0.00     0.034 A 
ATOM     16  C   UNL     1      -1.911  13.995   1.150  1.00  0.00     0.034 A 
ATOM     17  C   UNL     1      -4.002  14.815   2.782  1.00  0.00     0.043 A 
ATOM     18  C   UNL     1      -2.213  15.337   1.267  1.00  0.00     0.043 A 
ATOM     19  C   UNL     1      -3.256  15.747   2.080  1.00  0.00     0.041 A 
ATOM     20  Cl  UNL     1      -5.307  15.339   3.799  1.00  0.00    -0.084 Cl
ATOM     21  Cl  UNL     1      -1.284  16.514   0.390  1.00  0.00    -0.084 Cl
ENDBRANCH   7  14
TORSDOF 3
ENDMDL
MODEL 6
REMARK VINA RESULT:    -5.049      3.765      7.400
REMARK INTER + INTRA:          -6.080
REMARK INTER:                  -5.783
REMARK INTRA:                  -0.297
REMARK UNBOUND:                -0.294
REMARK SMILES O=C(O)c1ccc2nc(-c3cc(Cl)cc(Cl)c3)oc2c1
REMARK SMILES IDX 5 1 6 2 20 3 8 4 18 5 4 6 9 7 7 8 19 9 2 10 1 11 3 12 10 14
REMARK SMILES IDX 11 15 17 16 12 17 15 18 14 19 13 20 16 21
REMARK H PARENT 3 13
ROOT
ATOM      1  C   UNL     1      -1.952   7.132   1.818  1.00  0.00     0.018 A 
ATOM      2  C   UNL     1      -2.728   8.137   2.311  1.00  0.00     0.033 A 
ATOM      3  C   UNL     1      -0.557   8.743   0.661  1.00  0.00     0.065 A 
ATOM      4  N   UNL     1      -3.008  10.648   2.315  1.00  0.00    -0.209 NA
ATOM      5  O   UNL     1      -1.319  11.111   1.025  1.00  0.00    -0.436 OA
ATOM      6  C   UNL     1      -0.858   7.420   0.990  1.00  0.00     0.063 A 
ATOM      7  C   UNL     1      -2.340  11.618   1.741  1.00  0.00     0.227 A 
ATOM      8  C   UNL     1      -2.438   9.469   1.988  1.00  0.00     0.110 A 
ATOM      9  C   UNL     1      -1.345   9.766   1.155  1.00  0.00     0.156 A 
ENDROOT
BRANCH   6  10
ATOM     10  C   UNL     1      -0.022   6.324   0.468  1.00  0.00     0.335 C 
ATOM     11  O   UNL     1       1.100   6.556   0.063  1.00  0.00    -0.246 OA
BRANCH  10  12
ATOM     12  O   UNL     1      -0.501   5.065   0.439  1.00  0.00    -0.478 OA
ATOM     13  H   UNL     1      -1.441   4.948   0.632  1.00  0.00     0.297 HD
ENDBRANCH  10  12
ENDBRANCH   6  10
BRANCH   7  14
ATOM     14  C   UNL     1      -2.661  13.055   1.862  1.00  0.00     0.040 A 
ATOM     15  C   UNL     1      -1.912  14.002   1.162  1.00  0.00     0.034 A 
ATOM     16  C   UNL     1      -3.715  13.471   2.679  1.00  0.00     0.034 A 
ATOM     17  C   UNL     1      -2.218  15.343   1.278  1.00  0.00     0.043 A 
ATOM     18  C   UNL     1      -4.010  14.815   2.787  1.00  0.00     0.043 A 
ATOM     19  C   UNL     1      -3.264  15.749   2.089  1.00  0.00     0.041 A 
ATOM     20  Cl  UNL     1      -1.289  16.523   0.407  1.00  0.00    -0.084 Cl
ATOM     21  Cl  UNL     1      -5.320  15.335   3.801  1.00  0.00    -0.084 Cl
ENDBRANCH   7  14
TORSDOF 3
ENDMDL
MODEL 7
REMARK VINA RESULT:    -5.018      3.993      7.414
REMARK INTER + INTRA:          -6.045
REMARK INTER:                  -5.759
REMARK INTRA:                  -0.287
REMARK UNBOUND:                -0.294
REMARK SMILES O=C(O)c1ccc2nc(-c3cc(Cl)cc(Cl)c3)oc2c1
REMARK SMILES IDX 5 1 6 2 20 3 8 4 18 5 4 6 9 7 7 8 19 9 2 10 1 11 3 12 10 14
REMARK SMILES IDX 11 15 17 16 12 17 15 18 14 19 13 20 16 21
REMARK H PARENT 3 13
ROOT
ATOM      1  C   UNL     1      -1.008   8.193  -0.019  1.00  0.00     0.018 A 
ATOM      2  C   UNL     1      -2.087   9.024  -0.015  1.00  0.00     0.033 A 
ATOM      3  C   UNL     1      -0.016   9.432   1.815  1.00  0.00     0.065 A 
ATOM      4  N   UNL     1      -3.071  11.043   1.143  1.00  0.00    -0.209 NA
ATOM      5  O   UNL     1      -1.451  11.356   2.562  1.00  0.00    -0.436 OA
ATOM      6  C   UNL     1       0.039   8.384   0.894  1.00  0.00     0.063 A 
ATOM      7  C   UNL     1      -2.648  11.796   2.128  1.00  0.00     0.227 A 
ATOM      8  C   UNL     1      -2.156  10.079   0.903  1.00  0.00     0.110 A 
ATOM      9  C   UNL     1      -1.108  10.280   1.819  1.00  0.00     0.156 A 
ENDROOT
BRANCH   6  10
ATOM     10  C   UNL     1       1.199   7.474   0.884  1.00  0.00     0.335 C 
ATOM     11  O   UNL     1       1.331   6.669  -0.016  1.00  0.00    -0.246 OA
BRANCH  10  12
ATOM     12  O   UNL     1       2.113   7.536   1.873  1.00  0.00    -0.478 OA
ATOM     13  H   UNL     1       1.904   7.069   2.693  1.00  0.00     0.297 HD
ENDBRANCH  10  12
ENDBRANCH   6  10
BRANCH   7  14
ATOM     14  C   UNL     1      -3.376  12.957   2.680  1.00  0.00     0.040 A 
ATOM     15  C   UNL     1      -4.293  12.781   3.717  1.00  0.00     0.034 A 
ATOM     16  C   UNL     1      -3.151  14.235   2.164  1.00  0.00     0.034 A 
ATOM     17  C   UNL     1      -4.969  13.870   4.229  1.00  0.00     0.043 A 
ATOM     18  C   UNL     1      -3.833  15.316   2.684  1.00  0.00     0.043 A 
ATOM     19  C   UNL     1      -4.741  15.135   3.713  1.00  0.00     0.041 A 
ATOM     20  Cl  UNL     1      -6.109  13.654   5.520  1.00  0.00    -0.084 Cl
ATOM     21  Cl  UNL     1      -3.554  16.906   2.044  1.00  0.00    -0.084 Cl
ENDBRANCH   7  14
TORSDOF 3
ENDMDL
MODEL 8
REMARK VINA RESULT:    -5.004      3.968      7.679
REMARK INTER + INTRA:          -6.030
REMARK INTER:                  -5.744
REMARK INTRA:                  -0.286
REMARK UNBOUND:                -0.294
REMARK SMILES O=C(O)c1ccc2nc(-c3cc(Cl)cc(Cl)c3)oc2c1
REMARK SMILES IDX 5 1 6 2 20 3 8 4 18 5 4 6 9 7 7 8 19 9 2 10 1 11 3 12 10 14
REMARK SMILES IDX 11 15 17 16 12 17 15 18 14 19 13 20 16 21
REMARK H PARENT 3 13
ROOT
ATOM      1  C   UNL     1      -1.855   7.621   2.343  1.00  0.00     0.018 A 
ATOM      2  C   UNL     1      -1.283   8.831   2.598  1.00  0.00     0.033 A 
ATOM      3  C   UNL     1      -3.510   8.677   0.919  1.00  0.00     0.065 A 
ATOM      4  N   UNL     1      -1.473  11.297   2.084  1.00  0.00    -0.209 NA
ATOM      5  O   UNL     1      -3.211  11.169   0.782  1.00  0.00    -0.436 OA
ATOM      6  C   UNL     1      -2.972   7.527   1.501  1.00  0.00     0.063 A 
ATOM      7  C   UNL     1      -2.305  11.989   1.347  1.00  0.00     0.227 A 
ATOM      8  C   UNL     1      -1.812   9.992   2.021  1.00  0.00     0.110 A 
ATOM      9  C   UNL     1      -2.935   9.907   1.179  1.00  0.00     0.156 A 
ENDROOT
BRANCH   6  10
ATOM     10  C   UNL     1      -3.579   6.212   1.227  1.00  0.00     0.335 C 
ATOM     11  O   UNL     1      -3.265   5.248   1.896  1.00  0.00    -0.246 OA
BRANCH  10  12
ATOM     12  O   UNL     1      -4.482   6.079   0.235  1.00  0.00    -0.478 OA
ATOM     13  H   UNL     1      -4.592   6.830  -0.362  1.00  0.00     0.297 HD
ENDBRANCH  10  12
ENDBRANCH   6  10
BRANCH   7  14
ATOM     14  C   UNL     1      -2.257  13.455   1.164  1.00  0.00     0.040 A 
ATOM     15  C   UNL     1      -3.031  14.288   1.973  1.00  0.00     0.034 A 
ATOM     16  C   UNL     1      -1.438  14.012   0.180  1.00  0.00     0.034 A 
ATOM     17  C   UNL     1      -2.981  15.657   1.798  1.00  0.00     0.043 A 
ATOM     18  C   UNL     1      -1.396  15.382   0.015  1.00  0.00     0.043 A 
ATOM     19  C   UNL     1      -2.166  16.202   0.821  1.00  0.00     0.041 A 
ATOM     20  Cl  UNL     1      -3.942  16.695   2.804  1.00  0.00    -0.084 Cl
ATOM     21  Cl  UNL     1      -0.378  16.076  -1.208  1.00  0.00    -0.084 Cl
ENDBRANCH   7  14
TORSDOF 3
ENDMDL
MODEL 9
REMARK VINA RESULT:    -5.000      3.969      7.486
REMARK INTER + INTRA:          -6.025
REMARK INTER:                  -5.738
REMARK INTRA:                  -0.287
REMARK UNBOUND:                -0.294
REMARK SMILES O=C(O)c1ccc2nc(-c3cc(Cl)cc(Cl)c3)oc2c1
REMARK SMILES IDX 5 1 6 2 20 3 8 4 18 5 4 6 9 7 7 8 19 9 2 10 1 11 3 12 10 14
REMARK SMILES IDX 11 15 17 16 12 17 15 18 14 19 13 20 16 21
REMARK H PARENT 3 13
ROOT
ATOM      1  C   UNL     1      -1.912   7.616   2.418  1.00  0.00     0.018 A 
ATOM      2  C   UNL     1      -1.350   8.828   2.687  1.00  0.00     0.033 A 
ATOM      3  C   UNL     1      -3.497   8.661   0.909  1.00  0.00     0.065 A 
ATOM      4  N   UNL     1      -1.510  11.289   2.142  1.00  0.00    -0.209 NA
ATOM      5  O   UNL     1      -3.186  11.152   0.762  1.00  0.00    -0.436 OA
ATOM      6  C   UNL     1      -2.990   7.517   1.526  1.00  0.00     0.063 A 
ATOM      7  C   UNL     1      -2.306  11.976   1.361  1.00  0.00     0.227 A 
ATOM      8  C   UNL     1      -1.849   9.984   2.076  1.00  0.00     0.110 A 
ATOM      9  C   UNL     1      -2.932   9.893   1.184  1.00  0.00     0.156 A 
ENDROOT
BRANCH   6  10
ATOM     10  C   UNL     1      -3.586   6.200   1.238  1.00  0.00     0.335 C 
ATOM     11  O   UNL     1      -3.239   5.224   1.872  1.00  0.00    -0.246 OA
BRANCH  10  12
ATOM     12  O   UNL     1      -4.516   6.078   0.270  1.00  0.00    -0.478 OA
ATOM     13  H   UNL     1      -4.999   5.242   0.227  1.00  0.00     0.297 HD
ENDBRANCH  10  12
ENDBRANCH   6  10
BRANCH   7  14
ATOM     14  C   UNL     1      -2.246  13.439   1.166  1.00  0.00     0.040 A 
ATOM     15  C   UNL     1      -1.433  13.982   0.171  1.00  0.00     0.034 A 
ATOM     16  C   UNL     1      -3.004  14.285   1.979  1.00  0.00     0.034 A 
ATOM     17  C   UNL     1      -1.382  15.351  -0.006  1.00  0.00     0.043 A 
ATOM     18  C   UNL     1      -2.945  15.652   1.792  1.00  0.00     0.043 A 
ATOM     19  C   UNL     1      -2.136  16.184   0.803  1.00  0.00     0.041 A 
ATOM     20  Cl  UNL     1      -0.371  16.028  -1.244  1.00  0.00    -0.084 Cl
ATOM     21  Cl  UNL     1      -3.886  16.705   2.802  1.00  0.00    -0.084 Cl
ENDBRANCH   7  14
TORSDOF 3
ENDMDL
