MODEL 1
REMARK VINA RESULT:    -5.662      0.000      0.000
REMARK INTER + INTRA:          -8.459
REMARK INTER:                  -7.814
REMARK INTRA:                  -0.645
REMARK UNBOUND:                -0.645
REMARK SMILES Cc1n[nH]c(C)c1CCCOc1cc(C(=O)O)ccc1F
REMARK SMILES IDX 11 1 12 2 14 3 18 4 13 5 19 6 20 7 21 8 15 9 16 10 17 11
REMARK SMILES IDX 10 13 9 14 8 15 7 16 5 17 2 18 4 19 3 20 6 21 1 22
REMARK H PARENT 17 12 4 23
ROOT
ATOM      1  O   UNL     1       6.317   5.486   0.004  1.00  0.00    -0.490 OA
ENDROOT
BRANCH   1   2
ATOM      2  C   UNL     1       5.030   5.046   0.029  1.00  0.00     0.155 A 
ATOM      3  C   UNL     1       2.670   5.489  -0.093  1.00  0.00     0.063 A 
ATOM      4  C   UNL     1       2.410   4.126   0.073  1.00  0.00     0.019 A 
ATOM      5  C   UNL     1       3.990   5.945  -0.114  1.00  0.00     0.065 A 
ATOM      6  C   UNL     1       3.454   3.236   0.209  1.00  0.00     0.044 A 
ATOM      7  C   UNL     1       4.763   3.690   0.183  1.00  0.00     0.165 A 
ATOM      8  F   UNL     1       5.782   2.813   0.317  1.00  0.00    -0.203 F 
BRANCH   3   9
ATOM      9  C   UNL     1       1.554   6.444  -0.240  1.00  0.00     0.335 C 
ATOM     10  O   UNL     1       1.479   7.408   0.494  1.00  0.00    -0.246 OA
BRANCH   9  11
ATOM     11  O   UNL     1       0.622   6.248  -1.193  1.00  0.00    -0.478 OA
ATOM     12  H   UNL     1       0.555   5.358  -1.566  1.00  0.00     0.297 HD
ENDBRANCH   9  11
ENDBRANCH   3   9
ENDBRANCH   1   2
BRANCH   1  13
ATOM     13  C   UNL     1       6.843   6.021   1.221  1.00  0.00     0.230 C 
BRANCH  13  14
ATOM     14  C   UNL     1       7.811   7.161   0.899  1.00  0.00     0.046 C 
BRANCH  14  15
ATOM     15  C   UNL     1       7.317   7.915  -0.338  1.00  0.00     0.043 C 
BRANCH  15  16
ATOM     16  C   UNL     1       8.217   9.095  -0.600  1.00  0.00    -0.004 A 
ATOM     17  C   UNL     1       8.024  10.358  -0.155  1.00  0.00     0.036 A 
ATOM     18  C   UNL     1       9.403   9.077  -1.342  1.00  0.00     0.063 A 
ATOM     19  N   UNL     1       9.047  11.114  -0.605  1.00  0.00    -0.282 N 
ATOM     20  N   UNL     1       9.898  10.287  -1.351  1.00  0.00    -0.181 NA
ATOM     21  C   UNL     1       6.872  10.835   0.691  1.00  0.00     0.066 C 
ATOM     22  C   UNL     1      10.001   7.872  -2.023  1.00  0.00     0.069 C 
ATOM     23  H   UNL     1       9.172  12.061  -0.441  1.00  0.00     0.190 HD
ENDBRANCH  15  16
ENDBRANCH  14  15
ENDBRANCH  13  14
ENDBRANCH   1  13
TORSDOF 7
ENDMDL
MODEL 2
REMARK VINA RESULT:    -5.644      0.592      1.855
REMARK INTER + INTRA:          -8.434
REMARK INTER:                  -7.770
REMARK INTRA:                  -0.664
REMARK UNBOUND:                -0.645
REMARK SMILES Cc1n[nH]c(C)c1CCCOc1cc(C(=O)O)ccc1F
REMARK SMILES IDX 11 1 12 2 14 3 18 4 13 5 19 6 20 7 21 8 15 9 16 10 17 11
REMARK SMILES IDX 10 13 9 14 8 15 7 16 5 17 2 18 4 19 3 20 6 21 1 22
REMARK H PARENT 17 12 4 23
ROOT
ATOM      1  O   UNL     1       6.047   5.675   1.630  1.00  0.00    -0.490 OA
ENDROOT
BRANCH   1   2
ATOM      2  C   UNL     1       4.928   5.199   1.022  1.00  0.00     0.155 A 
ATOM      3  C   UNL     1       2.728   5.560   0.121  1.00  0.00     0.063 A 
ATOM      4  C   UNL     1       2.655   4.209  -0.230  1.00  0.00     0.019 A 
ATOM      5  C   UNL     1       3.874   6.051   0.750  1.00  0.00     0.065 A 
ATOM      6  C   UNL     1       3.714   3.368   0.041  1.00  0.00     0.044 A 
ATOM      7  C   UNL     1       4.851   3.859   0.660  1.00  0.00     0.165 A 
ATOM      8  F   UNL     1       5.885   3.030   0.922  1.00  0.00    -0.203 F 
BRANCH   3   9
ATOM      9  C   UNL     1       1.596   6.462  -0.167  1.00  0.00     0.335 C 
ATOM     10  O   UNL     1       1.438   7.468   0.494  1.00  0.00    -0.246 OA
BRANCH   9  11
ATOM     11  O   UNL     1       0.743   6.173  -1.169  1.00  0.00    -0.478 OA
ATOM     12  H   UNL     1       1.061   6.312  -2.072  1.00  0.00     0.297 HD
ENDBRANCH   9  11
ENDBRANCH   3   9
ENDBRANCH   1   2
BRANCH   1  13
ATOM     13  C   UNL     1       7.168   5.965   0.791  1.00  0.00     0.230 C 
BRANCH  13  14
ATOM     14  C   UNL     1       7.481   7.461   0.858  1.00  0.00     0.046 C 
BRANCH  14  15
ATOM     15  C   UNL     1       7.270   8.088  -0.522  1.00  0.00     0.043 C 
BRANCH  15  16
ATOM     16  C   UNL     1       8.363   9.090  -0.791  1.00  0.00    -0.004 A 
ATOM     17  C   UNL     1       9.495   8.862  -1.498  1.00  0.00     0.036 A 
ATOM     18  C   UNL     1       8.384  10.421  -0.361  1.00  0.00     0.063 A 
ATOM     19  N   UNL     1      10.210  10.007  -1.508  1.00  0.00    -0.282 N 
ATOM     20  N   UNL     1       9.494  10.969  -0.785  1.00  0.00    -0.181 NA
ATOM     21  C   UNL     1       9.886   7.564  -2.154  1.00  0.00     0.066 C 
ATOM     22  C   UNL     1       7.318  11.102   0.459  1.00  0.00     0.069 C 
ATOM     23  H   UNL     1      11.068  10.140  -1.940  1.00  0.00     0.190 HD
ENDBRANCH  15  16
ENDBRANCH  14  15
ENDBRANCH  13  14
ENDBRANCH   1  13
TORSDOF 7
ENDMDL
MODEL 3
REMARK VINA RESULT:    -5.644      1.990      3.715
REMARK INTER + INTRA:          -8.434
REMARK INTER:                  -7.807
REMARK INTRA:                  -0.627
REMARK UNBOUND:                -0.645
REMARK SMILES Cc1n[nH]c(C)c1CCCOc1cc(C(=O)O)ccc1F
REMARK SMILES IDX 11 1 12 2 14 3 18 4 13 5 19 6 20 7 21 8 15 9 16 10 17 11
REMARK SMILES IDX 10 13 9 14 8 15 7 16 5 17 2 18 4 19 3 20 6 21 1 22
REMARK H PARENT 17 12 4 23
ROOT
ATOM      1  O   UNL     1       4.275   7.443  -0.418  1.00  0.00    -0.490 OA
ENDROOT
BRANCH   1   2
ATOM      2  C   UNL     1       3.885   6.158  -0.207  1.00  0.00     0.155 A 
ATOM      3  C   UNL     1       4.428   3.846   0.169  1.00  0.00     0.063 A 
ATOM      4  C   UNL     1       3.066   3.540   0.234  1.00  0.00     0.019 A 
ATOM      5  C   UNL     1       4.833   5.164  -0.053  1.00  0.00     0.065 A 
ATOM      6  C   UNL     1       2.128   4.539   0.086  1.00  0.00     0.044 A 
ATOM      7  C   UNL     1       2.532   5.847  -0.129  1.00  0.00     0.165 A 
ATOM      8  F   UNL     1       1.607   6.821  -0.273  1.00  0.00    -0.203 F 
BRANCH   3   9
ATOM      9  C   UNL     1       5.435   2.778   0.327  1.00  0.00     0.335 C 
ATOM     10  O   UNL     1       6.279   2.607  -0.528  1.00  0.00    -0.246 OA
BRANCH   9  11
ATOM     11  O   UNL     1       5.422   1.998   1.426  1.00  0.00    -0.478 OA
ATOM     12  H   UNL     1       6.039   2.228   2.136  1.00  0.00     0.297 HD
ENDBRANCH   9  11
ENDBRANCH   3   9
ENDBRANCH   1   2
BRANCH   1  13
ATOM     13  C   UNL     1       4.537   7.827  -1.770  1.00  0.00     0.230 C 
BRANCH  13  14
ATOM     14  C   UNL     1       5.731   8.782  -1.806  1.00  0.00     0.046 C 
BRANCH  14  15
ATOM     15  C   UNL     1       6.616   8.538  -0.582  1.00  0.00     0.043 C 
BRANCH  15  16
ATOM     16  C   UNL     1       7.773   9.503  -0.597  1.00  0.00    -0.004 A 
ATOM     17  C   UNL     1       8.980   9.291  -1.172  1.00  0.00     0.036 A 
ATOM     18  C   UNL     1       7.787  10.780  -0.026  1.00  0.00     0.063 A 
ATOM     19  N   UNL     1       9.733  10.392  -0.965  1.00  0.00    -0.282 N 
ATOM     20  N   UNL     1       8.964  11.311  -0.240  1.00  0.00    -0.181 NA
ATOM     21  C   UNL     1       9.406   8.049  -1.909  1.00  0.00     0.066 C 
ATOM     22  C   UNL     1       6.648  11.428   0.719  1.00  0.00     0.069 C 
ATOM     23  H   UNL     1      10.646  10.523  -1.265  1.00  0.00     0.190 HD
ENDBRANCH  15  16
ENDBRANCH  14  15
ENDBRANCH  13  14
ENDBRANCH   1  13
TORSDOF 7
ENDMDL
MODEL 4
REMARK VINA RESULT:    -4.719      3.739      6.605
REMARK INTER + INTRA:          -7.157
REMARK INTER:                  -6.298
REMARK INTRA:                  -0.859
REMARK UNBOUND:                -0.645
REMARK SMILES Cc1n[nH]c(C)c1CCCOc1cc(C(=O)O)ccc1F
REMARK SMILES IDX 11 1 12 2 14 3 18 4 13 5 19 6 20 7 21 8 15 9 16 10 17 11
REMARK SMILES IDX 10 13 9 14 8 15 7 16 5 17 2 18 4 19 3 20 6 21 1 22
REMARK H PARENT 17 12 4 23
ROOT
ATOM      1  O   UNL     1       6.977   6.518  -0.709  1.00  0.00    -0.490 OA
ENDROOT
BRANCH   1   2
ATOM      2  C   UNL     1       7.535   7.758  -0.691  1.00  0.00     0.155 A 
ATOM      3  C   UNL     1       7.520  10.044   0.056  1.00  0.00     0.063 A 
ATOM      4  C   UNL     1       8.698  10.281  -0.658  1.00  0.00     0.019 A 
ATOM      5  C   UNL     1       6.941   8.773   0.036  1.00  0.00     0.065 A 
ATOM      6  C   UNL     1       9.286   9.261  -1.375  1.00  0.00     0.044 A 
ATOM      7  C   UNL     1       8.713   8.000  -1.390  1.00  0.00     0.165 A 
ATOM      8  F   UNL     1       9.294   7.004  -2.095  1.00  0.00    -0.203 F 
BRANCH   3   9
ATOM      9  C   UNL     1       6.888  11.133   0.825  1.00  0.00     0.335 C 
ATOM     10  O   UNL     1       6.061  11.848   0.298  1.00  0.00    -0.246 OA
BRANCH   9  11
ATOM     11  O   UNL     1       7.225  11.330   2.115  1.00  0.00    -0.478 OA
ATOM     12  H   UNL     1       7.979  11.911   2.288  1.00  0.00     0.297 HD
ENDBRANCH   9  11
ENDBRANCH   3   9
ENDBRANCH   1   2
BRANCH   1  13
ATOM     13  C   UNL     1       6.283   6.102   0.470  1.00  0.00     0.230 C 
BRANCH  13  14
ATOM     14  C   UNL     1       5.562   4.781   0.196  1.00  0.00     0.046 C 
BRANCH  14  15
ATOM     15  C   UNL     1       4.804   4.878  -1.129  1.00  0.00     0.043 C 
BRANCH  15  16
ATOM     16  C   UNL     1       3.459   5.516  -0.893  1.00  0.00    -0.004 A 
ATOM     17  C   UNL     1       3.071   6.739  -1.324  1.00  0.00     0.036 A 
ATOM     18  C   UNL     1       2.388   4.946  -0.196  1.00  0.00     0.063 A 
ATOM     19  N   UNL     1       1.802   6.938  -0.908  1.00  0.00    -0.282 N 
ATOM     20  N   UNL     1       1.398   5.800  -0.198  1.00  0.00    -0.181 NA
ATOM     21  C   UNL     1       3.905   7.704  -2.124  1.00  0.00     0.066 C 
ATOM     22  C   UNL     1       2.382   3.586   0.456  1.00  0.00     0.069 C 
ATOM     23  H   UNL     1       1.266   7.729  -1.071  1.00  0.00     0.190 HD
ENDBRANCH  15  16
ENDBRANCH  14  15
ENDBRANCH  13  14
ENDBRANCH   1  13
TORSDOF 7
ENDMDL
MODEL 5
REMARK VINA RESULT:    -4.700      3.784      7.143
REMARK INTER + INTRA:          -7.131
REMARK INTER:                  -6.339
REMARK INTRA:                  -0.792
REMARK UNBOUND:                -0.645
REMARK SMILES Cc1n[nH]c(C)c1CCCOc1cc(C(=O)O)ccc1F
REMARK SMILES IDX 11 1 12 2 14 3 18 4 13 5 19 6 20 7 21 8 15 9 16 10 17 11
REMARK SMILES IDX 10 13 9 14 8 15 7 16 5 17 2 18 4 19 3 20 6 21 1 22
REMARK H PARENT 17 12 4 23
ROOT
ATOM      1  O   UNL     1       5.536   7.963  -0.008  1.00  0.00    -0.490 OA
ENDROOT
BRANCH   1   2
ATOM      2  C   UNL     1       6.697   8.606  -0.304  1.00  0.00     0.155 A 
ATOM      3  C   UNL     1       8.847   8.642  -1.380  1.00  0.00     0.063 A 
ATOM      4  C   UNL     1       9.059   9.940  -0.905  1.00  0.00     0.019 A 
ATOM      5  C   UNL     1       7.658   7.977  -1.074  1.00  0.00     0.065 A 
ATOM      6  C   UNL     1       8.092  10.560  -0.142  1.00  0.00     0.044 A 
ATOM      7  C   UNL     1       6.911   9.901   0.156  1.00  0.00     0.165 A 
ATOM      8  F   UNL     1       5.968  10.515   0.903  1.00  0.00    -0.203 F 
BRANCH   3   9
ATOM      9  C   UNL     1       9.880   7.975  -2.196  1.00  0.00     0.335 C 
ATOM     10  O   UNL     1       9.683   6.860  -2.633  1.00  0.00    -0.246 OA
BRANCH   9  11
ATOM     11  O   UNL     1      11.040   8.607  -2.463  1.00  0.00    -0.478 OA
ATOM     12  H   UNL     1      11.049   9.207  -3.222  1.00  0.00     0.297 HD
ENDBRANCH   9  11
ENDBRANCH   3   9
ENDBRANCH   1   2
BRANCH   1  13
ATOM     13  C   UNL     1       4.846   7.339  -1.093  1.00  0.00     0.230 C 
BRANCH  13  14
ATOM     14  C   UNL     1       3.604   6.621  -0.561  1.00  0.00     0.046 C 
BRANCH  14  15
ATOM     15  C   UNL     1       3.868   6.135   0.866  1.00  0.00     0.043 C 
BRANCH  15  16
ATOM     16  C   UNL     1       4.478   4.758   0.824  1.00  0.00    -0.004 A 
ATOM     17  C   UNL     1       3.859   3.625   0.417  1.00  0.00     0.036 A 
ATOM     18  C   UNL     1       5.786   4.426   1.193  1.00  0.00     0.063 A 
ATOM     19  N   UNL     1       4.742   2.611   0.531  1.00  0.00    -0.282 N 
ATOM     20  N   UNL     1       5.943   3.138   1.024  1.00  0.00    -0.181 NA
ATOM     21  C   UNL     1       2.440   3.516  -0.075  1.00  0.00     0.066 C 
ATOM     22  C   UNL     1       6.830   5.384   1.708  1.00  0.00     0.069 C 
ATOM     23  H   UNL     1       4.575   1.682   0.311  1.00  0.00     0.190 HD
ENDBRANCH  15  16
ENDBRANCH  14  15
ENDBRANCH  13  14
ENDBRANCH   1  13
TORSDOF 7
ENDMDL
MODEL 6
REMARK VINA RESULT:    -4.616      3.766      7.156
REMARK INTER + INTRA:          -7.015
REMARK INTER:                  -6.187
REMARK INTRA:                  -0.828
REMARK UNBOUND:                -0.645
REMARK SMILES Cc1n[nH]c(C)c1CCCOc1cc(C(=O)O)ccc1F
REMARK SMILES IDX 11 1 12 2 14 3 18 4 13 5 19 6 20 7 21 8 15 9 16 10 17 11
REMARK SMILES IDX 10 13 9 14 8 15 7 16 5 17 2 18 4 19 3 20 6 21 1 22
REMARK H PARENT 17 12 4 23
ROOT
ATOM      1  O   UNL     1       5.458   8.026   0.085  1.00  0.00    -0.490 OA
ENDROOT
BRANCH   1   2
ATOM      2  C   UNL     1       6.628   8.646  -0.225  1.00  0.00     0.155 A 
ATOM      3  C   UNL     1       8.781   8.628  -1.295  1.00  0.00     0.063 A 
ATOM      4  C   UNL     1       9.007   9.935  -0.855  1.00  0.00     0.019 A 
ATOM      5  C   UNL     1       7.583   7.986  -0.975  1.00  0.00     0.065 A 
ATOM      6  C   UNL     1       8.045  10.587  -0.112  1.00  0.00     0.044 A 
ATOM      7  C   UNL     1       6.856   9.950   0.200  1.00  0.00     0.165 A 
ATOM      8  F   UNL     1       5.918  10.595   0.928  1.00  0.00    -0.203 F 
BRANCH   3   9
ATOM      9  C   UNL     1       9.808   7.926  -2.090  1.00  0.00     0.335 C 
ATOM     10  O   UNL     1       9.532   6.891  -2.660  1.00  0.00    -0.246 OA
BRANCH   9  11
ATOM     11  O   UNL     1      11.050   8.439  -2.188  1.00  0.00    -0.478 OA
ATOM     12  H   UNL     1      11.781   7.882  -1.887  1.00  0.00     0.297 HD
ENDBRANCH   9  11
ENDBRANCH   3   9
ENDBRANCH   1   2
BRANCH   1  13
ATOM     13  C   UNL     1       4.824   7.279  -0.957  1.00  0.00     0.230 C 
BRANCH  13  14
ATOM     14  C   UNL     1       3.573   6.595  -0.405  1.00  0.00     0.046 C 
BRANCH  14  15
ATOM     15  C   UNL     1       3.891   5.971   0.956  1.00  0.00     0.043 C 
BRANCH  15  16
ATOM     16  C   UNL     1       4.552   4.632   0.754  1.00  0.00    -0.004 A 
ATOM     17  C   UNL     1       5.836   4.325   1.048  1.00  0.00     0.036 A 
ATOM     18  C   UNL     1       3.944   3.485   0.234  1.00  0.00     0.063 A 
ATOM     19  N   UNL     1       6.036   3.032   0.720  1.00  0.00    -0.282 N 
ATOM     20  N   UNL     1       4.834   2.527   0.207  1.00  0.00    -0.181 NA
ATOM     21  C   UNL     1       6.860   5.261   1.637  1.00  0.00     0.066 C 
ATOM     22  C   UNL     1       2.513   3.375  -0.228  1.00  0.00     0.069 C 
ATOM     23  H   UNL     1       6.865   2.539   0.821  1.00  0.00     0.190 HD
ENDBRANCH  15  16
ENDBRANCH  14  15
ENDBRANCH  13  14
ENDBRANCH   1  13
TORSDOF 7
ENDMDL
MODEL 7
REMARK VINA RESULT:    -4.564      3.768      5.185
REMARK INTER + INTRA:          -6.944
REMARK INTER:                  -6.371
REMARK INTRA:                  -0.573
REMARK UNBOUND:                -0.645
REMARK SMILES Cc1n[nH]c(C)c1CCCOc1cc(C(=O)O)ccc1F
REMARK SMILES IDX 11 1 12 2 14 3 18 4 13 5 19 6 20 7 21 8 15 9 16 10 17 11
REMARK SMILES IDX 10 13 9 14 8 15 7 16 5 17 2 18 4 19 3 20 6 21 1 22
REMARK H PARENT 17 12 4 23
ROOT
ATOM      1  O   UNL     1       7.738  10.096  -0.325  1.00  0.00    -0.490 OA
ENDROOT
BRANCH   1   2
ATOM      2  C   UNL     1       7.002   8.957  -0.424  1.00  0.00     0.155 A 
ATOM      3  C   UNL     1       5.132   7.754  -1.338  1.00  0.00     0.063 A 
ATOM      4  C   UNL     1       5.517   6.618  -0.621  1.00  0.00     0.019 A 
ATOM      5  C   UNL     1       5.883   8.926  -1.235  1.00  0.00     0.065 A 
ATOM      6  C   UNL     1       6.638   6.657   0.181  1.00  0.00     0.044 A 
ATOM      7  C   UNL     1       7.384   7.819   0.278  1.00  0.00     0.165 A 
ATOM      8  F   UNL     1       8.482   7.851   1.066  1.00  0.00    -0.203 F 
BRANCH   3   9
ATOM      9  C   UNL     1       3.933   7.715  -2.198  1.00  0.00     0.335 C 
ATOM     10  O   UNL     1       3.133   6.810  -2.085  1.00  0.00    -0.246 OA
BRANCH   9  11
ATOM     11  O   UNL     1       3.723   8.690  -3.104  1.00  0.00    -0.478 OA
ATOM     12  H   UNL     1       2.979   8.572  -3.712  1.00  0.00     0.297 HD
ENDBRANCH   9  11
ENDBRANCH   3   9
ENDBRANCH   1   2
BRANCH   1  13
ATOM     13  C   UNL     1       7.425  10.979   0.755  1.00  0.00     0.230 C 
BRANCH  13  14
ATOM     14  C   UNL     1       7.302  12.409   0.224  1.00  0.00     0.046 C 
BRANCH  14  15
ATOM     15  C   UNL     1       8.639  13.133   0.394  1.00  0.00     0.043 C 
BRANCH  15  16
ATOM     16  C   UNL     1       8.409  14.466   1.056  1.00  0.00    -0.004 A 
ATOM     17  C   UNL     1       8.309  14.688   2.387  1.00  0.00     0.036 A 
ATOM     18  C   UNL     1       8.267  15.696   0.404  1.00  0.00     0.063 A 
ATOM     19  N   UNL     1       8.104  16.009   2.570  1.00  0.00    -0.282 N 
ATOM     20  N   UNL     1       8.077  16.620   1.310  1.00  0.00    -0.181 NA
ATOM     21  C   UNL     1       8.408  13.646   3.471  1.00  0.00     0.066 C 
ATOM     22  C   UNL     1       8.312  15.915  -1.087  1.00  0.00     0.069 C 
ATOM     23  H   UNL     1       7.994  16.457   3.423  1.00  0.00     0.190 HD
ENDBRANCH  15  16
ENDBRANCH  14  15
ENDBRANCH  13  14
ENDBRANCH   1  13
TORSDOF 7
ENDMDL
MODEL 8
REMARK VINA RESULT:    -4.477      3.647      5.351
REMARK INTER + INTRA:          -6.824
REMARK INTER:                  -6.231
REMARK INTRA:                  -0.593
REMARK UNBOUND:                -0.645
REMARK SMILES Cc1n[nH]c(C)c1CCCOc1cc(C(=O)O)ccc1F
REMARK SMILES IDX 11 1 12 2 14 3 18 4 13 5 19 6 20 7 21 8 15 9 16 10 17 11
REMARK SMILES IDX 10 13 9 14 8 15 7 16 5 17 2 18 4 19 3 20 6 21 1 22
REMARK H PARENT 17 12 4 23
ROOT
ATOM      1  O   UNL     1       7.369   9.631  -0.489  1.00  0.00    -0.490 OA
ENDROOT
BRANCH   1   2
ATOM      2  C   UNL     1       6.620   8.496  -0.492  1.00  0.00     0.155 A 
ATOM      3  C   UNL     1       6.128   6.317   0.400  1.00  0.00     0.063 A 
ATOM      4  C   UNL     1       5.072   6.189  -0.507  1.00  0.00     0.019 A 
ATOM      5  C   UNL     1       6.902   7.480   0.402  1.00  0.00     0.065 A 
ATOM      6  C   UNL     1       4.795   7.210  -1.391  1.00  0.00     0.044 A 
ATOM      7  C   UNL     1       5.561   8.364  -1.383  1.00  0.00     0.165 A 
ATOM      8  F   UNL     1       5.284   9.361  -2.252  1.00  0.00    -0.203 F 
BRANCH   3   9
ATOM      9  C   UNL     1       6.427   5.226   1.348  1.00  0.00     0.335 C 
ATOM     10  O   UNL     1       5.964   4.119   1.166  1.00  0.00    -0.246 OA
BRANCH   9  11
ATOM     11  O   UNL     1       7.221   5.458   2.412  1.00  0.00    -0.478 OA
ATOM     12  H   UNL     1       6.785   5.692   3.243  1.00  0.00     0.297 HD
ENDBRANCH   9  11
ENDBRANCH   3   9
ENDBRANCH   1   2
BRANCH   1  13
ATOM     13  C   UNL     1       7.293  10.455   0.677  1.00  0.00     0.230 C 
BRANCH  13  14
ATOM     14  C   UNL     1       7.117  11.916   0.257  1.00  0.00     0.046 C 
BRANCH  14  15
ATOM     15  C   UNL     1       8.468  12.631   0.322  1.00  0.00     0.043 C 
BRANCH  15  16
ATOM     16  C   UNL     1       8.297  13.971   0.989  1.00  0.00    -0.004 A 
ATOM     17  C   UNL     1       8.228  15.169   0.363  1.00  0.00     0.036 A 
ATOM     18  C   UNL     1       8.175  14.196   2.364  1.00  0.00     0.063 A 
ATOM     19  N   UNL     1       8.074  16.119   1.309  1.00  0.00    -0.282 N 
ATOM     20  N   UNL     1       8.048  15.484   2.558  1.00  0.00    -0.181 NA
ATOM     21  C   UNL     1       8.307  15.400  -1.124  1.00  0.00     0.066 C 
ATOM     22  C   UNL     1       8.199  13.139   3.438  1.00  0.00     0.069 C 
ATOM     23  H   UNL     1       7.996  17.073   1.152  1.00  0.00     0.190 HD
ENDBRANCH  15  16
ENDBRANCH  14  15
ENDBRANCH  13  14
ENDBRANCH   1  13
TORSDOF 7
ENDMDL
MODEL 9
REMARK VINA RESULT:    -4.447      3.832      6.695
REMARK INTER + INTRA:          -6.783
REMARK INTER:                  -5.953
REMARK INTRA:                  -0.830
REMARK UNBOUND:                -0.645
REMARK SMILES Cc1n[nH]c(C)c1CCCOc1cc(C(=O)O)ccc1F
REMARK SMILES IDX 11 1 12 2 14 3 18 4 13 5 19 6 20 7 21 8 15 9 16 10 17 11
REMARK SMILES IDX 10 13 9 14 8 15 7 16 5 17 2 18 4 19 3 20 6 21 1 22
REMARK H PARENT 17 12 4 23
ROOT
ATOM      1  O   UNL     1       5.970   7.286  -1.103  1.00  0.00    -0.490 OA
ENDROOT
BRANCH   1   2
ATOM      2  C   UNL     1       6.816   8.319  -0.844  1.00  0.00     0.155 A 
ATOM      3  C   UNL     1       7.247  10.464   0.154  1.00  0.00     0.063 A 
ATOM      4  C   UNL     1       8.562  10.415  -0.319  1.00  0.00     0.019 A 
ATOM      5  C   UNL     1       6.375   9.407  -0.114  1.00  0.00     0.065 A 
ATOM      6  C   UNL     1       8.994   9.322  -1.041  1.00  0.00     0.044 A 
ATOM      7  C   UNL     1       8.128   8.273  -1.301  1.00  0.00     0.165 A 
ATOM      8  F   UNL     1       8.558   7.206  -2.010  1.00  0.00    -0.203 F 
BRANCH   3   9
ATOM      9  C   UNL     1       6.782  11.631   0.928  1.00  0.00     0.335 C 
ATOM     10  O   UNL     1       5.738  11.573   1.544  1.00  0.00    -0.246 OA
BRANCH   9  11
ATOM     11  O   UNL     1       7.519  12.758   0.955  1.00  0.00    -0.478 OA
ATOM     12  H   UNL     1       7.130  13.548   0.554  1.00  0.00     0.297 HD
ENDBRANCH   9  11
ENDBRANCH   3   9
ENDBRANCH   1   2
BRANCH   1  13
ATOM     13  C   UNL     1       4.595   7.612  -1.320  1.00  0.00     0.230 C 
BRANCH  13  14
ATOM     14  C   UNL     1       3.722   6.417  -0.935  1.00  0.00     0.046 C 
BRANCH  14  15
ATOM     15  C   UNL     1       3.927   6.092   0.546  1.00  0.00     0.043 C 
BRANCH  15  16
ATOM     16  C   UNL     1       4.533   4.719   0.681  1.00  0.00    -0.004 A 
ATOM     17  C   UNL     1       3.929   3.548   0.374  1.00  0.00     0.036 A 
ATOM     18  C   UNL     1       5.823   4.431   1.138  1.00  0.00     0.063 A 
ATOM     19  N   UNL     1       4.803   2.553   0.635  1.00  0.00    -0.282 N 
ATOM     20  N   UNL     1       5.983   3.132   1.118  1.00  0.00    -0.181 NA
ATOM     21  C   UNL     1       2.531   3.384  -0.162  1.00  0.00     0.066 C 
ATOM     22  C   UNL     1       6.848   5.440   1.589  1.00  0.00     0.069 C 
ATOM     23  H   UNL     1       4.642   1.605   0.511  1.00  0.00     0.190 HD
ENDBRANCH  15  16
ENDBRANCH  14  15
ENDBRANCH  13  14
ENDBRANCH   1  13
TORSDOF 7
ENDMDL
