MODEL 1
REMARK VINA RESULT:    -4.459      0.000      0.000
REMARK INTER + INTRA:          -5.393
REMARK INTER:                  -5.111
REMARK INTRA:                  -0.283
REMARK UNBOUND:                -0.283
REMARK SMILES O=C(O)c1ccc2nc(-c3cc(Cl)cc(Cl)c3)oc2c1
REMARK SMILES IDX 5 1 6 2 20 3 8 4 18 5 4 6 9 7 7 8 19 9 2 10 1 11 3 12 10 14
REMARK SMILES IDX 11 15 17 16 12 17 15 18 14 19 13 20 16 21
REMARK H PARENT 3 13
ROOT
ATOM      1  C   UNL     1       8.679  15.628   1.875  1.00  0.00     0.018 A 
ATOM      2  C   UNL     1       8.796  14.788   0.808  1.00  0.00     0.033 A 
ATOM      3  C   UNL     1       7.684  13.852   3.193  1.00  0.00     0.065 A 
ATOM      4  N   UNL     1       8.342  12.423   0.047  1.00  0.00    -0.209 NA
ATOM      5  O   UNL     1       7.472  11.703   1.907  1.00  0.00    -0.436 OA
ATOM      6  C   UNL     1       8.125  15.172   3.079  1.00  0.00     0.063 A 
ATOM      7  C   UNL     1       7.816  11.382   0.645  1.00  0.00     0.227 A 
ATOM      8  C   UNL     1       8.358  13.462   0.908  1.00  0.00     0.110 A 
ATOM      9  C   UNL     1       7.796  12.999   2.111  1.00  0.00     0.156 A 
ENDROOT
BRANCH   6  10
ATOM     10  C   UNL     1       8.009  16.087   4.229  1.00  0.00     0.335 C 
ATOM     11  O   UNL     1       8.990  16.351   4.896  1.00  0.00    -0.246 OA
BRANCH  10  12
ATOM     12  O   UNL     1       6.816  16.631   4.541  1.00  0.00    -0.478 OA
ATOM     13  H   UNL     1       6.371  16.291   5.328  1.00  0.00     0.297 HD
ENDBRANCH  10  12
ENDBRANCH   6  10
BRANCH   7  14
ATOM     14  C   UNL     1       7.628  10.054   0.025  1.00  0.00     0.040 A 
ATOM     15  C   UNL     1       8.626   9.511  -0.784  1.00  0.00     0.034 A 
ATOM     16  C   UNL     1       6.450   9.338   0.248  1.00  0.00     0.034 A 
ATOM     17  C   UNL     1       8.445   8.269  -1.360  1.00  0.00     0.043 A 
ATOM     18  C   UNL     1       6.281   8.097  -0.333  1.00  0.00     0.043 A 
ATOM     19  C   UNL     1       7.274   7.564  -1.136  1.00  0.00     0.041 A 
ATOM     20  Cl  UNL     1       9.685   7.591  -2.367  1.00  0.00    -0.084 Cl
ATOM     21  Cl  UNL     1       4.816   7.205  -0.058  1.00  0.00    -0.084 Cl
ENDBRANCH   7  14
TORSDOF 3
ENDMDL
MODEL 2
REMARK VINA RESULT:    -4.418      0.097      2.022
REMARK INTER + INTRA:          -5.347
REMARK INTER:                  -5.066
REMARK INTRA:                  -0.281
REMARK UNBOUND:                -0.283
REMARK SMILES O=C(O)c1ccc2nc(-c3cc(Cl)cc(Cl)c3)oc2c1
REMARK SMILES IDX 5 1 6 2 20 3 8 4 18 5 4 6 9 7 7 8 19 9 2 10 1 11 3 12 10 14
REMARK SMILES IDX 11 15 17 16 12 17 15 18 14 19 13 20 16 21
REMARK H PARENT 3 13
ROOT
ATOM      1  C   UNL     1       8.572  15.636   1.826  1.00  0.00     0.018 A 
ATOM      2  C   UNL     1       8.649  14.807   0.748  1.00  0.00     0.033 A 
ATOM      3  C   UNL     1       7.730  13.819   3.194  1.00  0.00     0.065 A 
ATOM      4  N   UNL     1       8.232  12.430   0.001  1.00  0.00    -0.209 NA
ATOM      5  O   UNL     1       7.512  11.670   1.908  1.00  0.00    -0.436 OA
ATOM      6  C   UNL     1       8.114  15.155   3.061  1.00  0.00     0.063 A 
ATOM      7  C   UNL     1       7.785  11.368   0.625  1.00  0.00     0.227 A 
ATOM      8  C   UNL     1       8.267  13.465   0.867  1.00  0.00     0.110 A 
ATOM      9  C   UNL     1       7.802  12.976   2.101  1.00  0.00     0.156 A 
ENDROOT
BRANCH   6  10
ATOM     10  C   UNL     1       8.041  16.060   4.222  1.00  0.00     0.335 C 
ATOM     11  O   UNL     1       8.979  16.140   4.989  1.00  0.00    -0.246 OA
BRANCH  10  12
ATOM     12  O   UNL     1       6.933  16.797   4.433  1.00  0.00    -0.478 OA
ATOM     13  H   UNL     1       6.156  16.586   3.898  1.00  0.00     0.297 HD
ENDBRANCH  10  12
ENDBRANCH   6  10
BRANCH   7  14
ATOM     14  C   UNL     1       7.605  10.037   0.009  1.00  0.00     0.040 A 
ATOM     15  C   UNL     1       6.428   9.318   0.224  1.00  0.00     0.034 A 
ATOM     16  C   UNL     1       8.612   9.493  -0.790  1.00  0.00     0.034 A 
ATOM     17  C   UNL     1       6.266   8.075  -0.355  1.00  0.00     0.043 A 
ATOM     18  C   UNL     1       8.438   8.250  -1.364  1.00  0.00     0.043 A 
ATOM     19  C   UNL     1       7.269   7.542  -1.147  1.00  0.00     0.041 A 
ATOM     20  Cl  UNL     1       4.803   7.180  -0.089  1.00  0.00    -0.084 Cl
ATOM     21  Cl  UNL     1       9.690   7.572  -2.358  1.00  0.00    -0.084 Cl
ENDBRANCH   7  14
TORSDOF 3
ENDMDL
MODEL 3
REMARK VINA RESULT:    -4.279      3.856      7.561
REMARK INTER + INTRA:          -5.188
REMARK INTER:                  -4.908
REMARK INTRA:                  -0.279
REMARK UNBOUND:                -0.283
REMARK SMILES O=C(O)c1ccc2nc(-c3cc(Cl)cc(Cl)c3)oc2c1
REMARK SMILES IDX 5 1 6 2 20 3 8 4 18 5 4 6 9 7 7 8 19 9 2 10 1 11 3 12 10 14
REMARK SMILES IDX 11 15 17 16 12 17 15 18 14 19 13 20 16 21
REMARK H PARENT 3 13
ROOT
ATOM      1  C   UNL     1       7.839   7.746  -1.034  1.00  0.00     0.018 A 
ATOM      2  C   UNL     1       8.656   8.837  -1.012  1.00  0.00     0.033 A 
ATOM      3  C   UNL     1       6.094   9.001   0.089  1.00  0.00     0.065 A 
ATOM      4  N   UNL     1       8.776  11.249  -0.271  1.00  0.00    -0.209 NA
ATOM      5  O   UNL     1       6.781  11.367   0.589  1.00  0.00    -0.436 OA
ATOM      6  C   UNL     1       6.550   7.814  -0.487  1.00  0.00     0.063 A 
ATOM      7  C   UNL     1       7.923  12.035   0.338  1.00  0.00     0.227 A 
ATOM      8  C   UNL     1       8.211  10.034  -0.437  1.00  0.00     0.110 A 
ATOM      9  C   UNL     1       6.922  10.108   0.118  1.00  0.00     0.156 A 
ENDROOT
BRANCH   6  10
ATOM     10  C   UNL     1       5.673   6.630  -0.522  1.00  0.00     0.335 C 
ATOM     11  O   UNL     1       5.914   5.675   0.189  1.00  0.00    -0.246 OA
BRANCH  10  12
ATOM     12  O   UNL     1       4.605   6.606  -1.344  1.00  0.00    -0.478 OA
ATOM     13  H   UNL     1       4.352   7.440  -1.761  1.00  0.00     0.297 HD
ENDBRANCH  10  12
ENDBRANCH   6  10
BRANCH   7  14
ATOM     14  C   UNL     1       8.177  13.446   0.696  1.00  0.00     0.040 A 
ATOM     15  C   UNL     1       8.185  13.839   2.035  1.00  0.00     0.034 A 
ATOM     16  C   UNL     1       8.411  14.391  -0.305  1.00  0.00     0.034 A 
ATOM     17  C   UNL     1       8.424  15.158   2.363  1.00  0.00     0.043 A 
ATOM     18  C   UNL     1       8.649  15.707   0.036  1.00  0.00     0.043 A 
ATOM     19  C   UNL     1       8.655  16.091   1.366  1.00  0.00     0.041 A 
ATOM     20  Cl  UNL     1       8.435  15.649   4.028  1.00  0.00    -0.084 Cl
ATOM     21  Cl  UNL     1       8.939  16.885  -1.207  1.00  0.00    -0.084 Cl
ENDBRANCH   7  14
TORSDOF 3
ENDMDL
MODEL 4
REMARK VINA RESULT:    -4.271      3.853      7.419
REMARK INTER + INTRA:          -5.178
REMARK INTER:                  -4.899
REMARK INTRA:                  -0.279
REMARK UNBOUND:                -0.283
REMARK SMILES O=C(O)c1ccc2nc(-c3cc(Cl)cc(Cl)c3)oc2c1
REMARK SMILES IDX 5 1 6 2 20 3 8 4 18 5 4 6 9 7 7 8 19 9 2 10 1 11 3 12 10 14
REMARK SMILES IDX 11 15 17 16 12 17 15 18 14 19 13 20 16 21
REMARK H PARENT 3 13
ROOT
ATOM      1  C   UNL     1       7.826   7.752  -1.031  1.00  0.00     0.018 A 
ATOM      2  C   UNL     1       8.645   8.842  -1.012  1.00  0.00     0.033 A 
ATOM      3  C   UNL     1       6.089   9.007   0.104  1.00  0.00     0.065 A 
ATOM      4  N   UNL     1       8.772  11.253  -0.267  1.00  0.00    -0.209 NA
ATOM      5  O   UNL     1       6.782  11.372   0.604  1.00  0.00    -0.436 OA
ATOM      6  C   UNL     1       6.540   7.821  -0.477  1.00  0.00     0.063 A 
ATOM      7  C   UNL     1       7.923  12.039   0.347  1.00  0.00     0.227 A 
ATOM      8  C   UNL     1       8.205  10.038  -0.432  1.00  0.00     0.110 A 
ATOM      9  C   UNL     1       6.918  10.114   0.130  1.00  0.00     0.156 A 
ENDROOT
BRANCH   6  10
ATOM     10  C   UNL     1       5.662   6.638  -0.509  1.00  0.00     0.335 C 
ATOM     11  O   UNL     1       5.867   5.709   0.247  1.00  0.00    -0.246 OA
BRANCH  10  12
ATOM     12  O   UNL     1       4.632   6.585  -1.377  1.00  0.00    -0.478 OA
ATOM     13  H   UNL     1       4.032   5.832  -1.302  1.00  0.00     0.297 HD
ENDBRANCH  10  12
ENDBRANCH   6  10
BRANCH   7  14
ATOM     14  C   UNL     1       8.181  13.448   0.707  1.00  0.00     0.040 A 
ATOM     15  C   UNL     1       8.426  14.393  -0.291  1.00  0.00     0.034 A 
ATOM     16  C   UNL     1       8.182  13.841   2.047  1.00  0.00     0.034 A 
ATOM     17  C   UNL     1       8.666  15.709   0.051  1.00  0.00     0.043 A 
ATOM     18  C   UNL     1       8.422  15.160   2.376  1.00  0.00     0.043 A 
ATOM     19  C   UNL     1       8.665  16.092   1.381  1.00  0.00     0.041 A 
ATOM     20  Cl  UNL     1       8.970  16.885  -1.189  1.00  0.00    -0.084 Cl
ATOM     21  Cl  UNL     1       8.423  15.650   4.042  1.00  0.00    -0.084 Cl
ENDBRANCH   7  14
TORSDOF 3
ENDMDL
MODEL 5
REMARK VINA RESULT:    -4.202      5.052      6.697
REMARK INTER + INTRA:          -5.099
REMARK INTER:                  -4.804
REMARK INTRA:                  -0.296
REMARK UNBOUND:                -0.283
REMARK SMILES O=C(O)c1ccc2nc(-c3cc(Cl)cc(Cl)c3)oc2c1
REMARK SMILES IDX 5 1 6 2 20 3 8 4 18 5 4 6 9 7 7 8 19 9 2 10 1 11 3 12 10 14
REMARK SMILES IDX 11 15 17 16 12 17 15 18 14 19 13 20 16 21
REMARK H PARENT 3 13
ROOT
ATOM      1  C   UNL     1       8.980  10.407  -0.674  1.00  0.00     0.018 A 
ATOM      2  C   UNL     1       7.722  10.126  -0.231  1.00  0.00     0.033 A 
ATOM      3  C   UNL     1       9.207   8.149  -1.531  1.00  0.00     0.065 A 
ATOM      4  N   UNL     1       5.993   8.288  -0.107  1.00  0.00    -0.209 NA
ATOM      5  O   UNL     1       7.158   6.753  -1.116  1.00  0.00    -0.436 OA
ATOM      6  C   UNL     1       9.736   9.425  -1.330  1.00  0.00     0.063 A 
ATOM      7  C   UNL     1       5.987   7.045  -0.520  1.00  0.00     0.227 A 
ATOM      8  C   UNL     1       7.179   8.850  -0.426  1.00  0.00     0.110 A 
ATOM      9  C   UNL     1       7.933   7.859  -1.078  1.00  0.00     0.156 A 
ENDROOT
BRANCH   6  10
ATOM     10  C   UNL     1      11.093   9.742  -1.811  1.00  0.00     0.335 C 
ATOM     11  O   UNL     1      11.771   8.878  -2.330  1.00  0.00    -0.246 OA
BRANCH  10  12
ATOM     12  O   UNL     1      11.583  10.991  -1.674  1.00  0.00    -0.478 OA
ATOM     13  H   UNL     1      11.325  11.479  -0.880  1.00  0.00     0.297 HD
ENDBRANCH  10  12
ENDBRANCH   6  10
BRANCH   7  14
ATOM     14  C   UNL     1       4.861   6.103  -0.354  1.00  0.00     0.040 A 
ATOM     15  C   UNL     1       3.554   6.582  -0.261  1.00  0.00     0.034 A 
ATOM     16  C   UNL     1       5.101   4.729  -0.289  1.00  0.00     0.034 A 
ATOM     17  C   UNL     1       2.505   5.697  -0.107  1.00  0.00     0.043 A 
ATOM     18  C   UNL     1       4.045   3.853  -0.135  1.00  0.00     0.043 A 
ATOM     19  C   UNL     1       2.750   4.335  -0.043  1.00  0.00     0.041 A 
ATOM     20  Cl  UNL     1       0.879   6.290   0.009  1.00  0.00    -0.084 Cl
ATOM     21  Cl  UNL     1       4.341   2.144  -0.054  1.00  0.00    -0.084 Cl
ENDBRANCH   7  14
TORSDOF 3
ENDMDL
MODEL 6
REMARK VINA RESULT:    -4.198      5.050      6.535
REMARK INTER + INTRA:          -5.094
REMARK INTER:                  -4.799
REMARK INTRA:                  -0.296
REMARK UNBOUND:                -0.283
REMARK SMILES O=C(O)c1ccc2nc(-c3cc(Cl)cc(Cl)c3)oc2c1
REMARK SMILES IDX 5 1 6 2 20 3 8 4 18 5 4 6 9 7 7 8 19 9 2 10 1 11 3 12 10 14
REMARK SMILES IDX 11 15 17 16 12 17 15 18 14 19 13 20 16 21
REMARK H PARENT 3 13
ROOT
ATOM      1  C   UNL     1       8.975  10.403  -0.669  1.00  0.00     0.018 A 
ATOM      2  C   UNL     1       7.717  10.121  -0.226  1.00  0.00     0.033 A 
ATOM      3  C   UNL     1       9.204   8.147  -1.527  1.00  0.00     0.065 A 
ATOM      4  N   UNL     1       5.990   8.282  -0.104  1.00  0.00    -0.209 NA
ATOM      5  O   UNL     1       7.157   6.748  -1.113  1.00  0.00    -0.436 OA
ATOM      6  C   UNL     1       9.732   9.423  -1.325  1.00  0.00     0.063 A 
ATOM      7  C   UNL     1       5.985   7.039  -0.517  1.00  0.00     0.227 A 
ATOM      8  C   UNL     1       7.175   8.845  -0.422  1.00  0.00     0.110 A 
ATOM      9  C   UNL     1       7.931   7.855  -1.074  1.00  0.00     0.156 A 
ENDROOT
BRANCH   6  10
ATOM     10  C   UNL     1      11.089   9.742  -1.805  1.00  0.00     0.335 C 
ATOM     11  O   UNL     1      11.765   8.880  -2.333  1.00  0.00    -0.246 OA
BRANCH  10  12
ATOM     12  O   UNL     1      11.582  10.988  -1.658  1.00  0.00    -0.478 OA
ATOM     13  H   UNL     1      11.674  11.320  -0.755  1.00  0.00     0.297 HD
ENDBRANCH  10  12
ENDBRANCH   6  10
BRANCH   7  14
ATOM     14  C   UNL     1       4.860   6.095  -0.352  1.00  0.00     0.040 A 
ATOM     15  C   UNL     1       5.099   4.722  -0.293  1.00  0.00     0.034 A 
ATOM     16  C   UNL     1       3.552   6.575  -0.254  1.00  0.00     0.034 A 
ATOM     17  C   UNL     1       4.043   3.846  -0.137  1.00  0.00     0.043 A 
ATOM     18  C   UNL     1       2.505   5.689  -0.099  1.00  0.00     0.043 A 
ATOM     19  C   UNL     1       2.749   4.328  -0.041  1.00  0.00     0.041 A 
ATOM     20  Cl  UNL     1       4.339   2.137  -0.063  1.00  0.00    -0.084 Cl
ATOM     21  Cl  UNL     1       0.878   6.284   0.023  1.00  0.00    -0.084 Cl
ENDBRANCH   7  14
TORSDOF 3
ENDMDL
MODEL 7
REMARK VINA RESULT:    -4.172      5.208      8.846
REMARK INTER + INTRA:          -5.064
REMARK INTER:                  -4.767
REMARK INTRA:                  -0.297
REMARK UNBOUND:                -0.283
REMARK SMILES O=C(O)c1ccc2nc(-c3cc(Cl)cc(Cl)c3)oc2c1
REMARK SMILES IDX 5 1 6 2 20 3 8 4 18 5 4 6 9 7 7 8 19 9 2 10 1 11 3 12 10 14
REMARK SMILES IDX 11 15 17 16 12 17 15 18 14 19 13 20 16 21
REMARK H PARENT 3 13
ROOT
ATOM      1  C   UNL     1       2.379   5.162   0.168  1.00  0.00     0.018 A 
ATOM      2  C   UNL     1       2.813   6.453   0.213  1.00  0.00     0.033 A 
ATOM      3  C   UNL     1       4.610   4.407  -0.408  1.00  0.00     0.065 A 
ATOM      4  N   UNL     1       4.862   7.901  -0.086  1.00  0.00    -0.209 NA
ATOM      5  O   UNL     1       6.254   6.301  -0.573  1.00  0.00    -0.436 OA
ATOM      6  C   UNL     1       3.269   4.124  -0.140  1.00  0.00     0.063 A 
ATOM      7  C   UNL     1       6.105   7.627  -0.394  1.00  0.00     0.227 A 
ATOM      8  C   UNL     1       4.155   6.751  -0.054  1.00  0.00     0.110 A 
ATOM      9  C   UNL     1       5.053   5.716  -0.369  1.00  0.00     0.156 A 
ENDROOT
BRANCH   6  10
ATOM     10  C   UNL     1       2.790   2.731  -0.179  1.00  0.00     0.335 C 
ATOM     11  O   UNL     1       1.636   2.478   0.107  1.00  0.00    -0.246 OA
BRANCH  10  12
ATOM     12  O   UNL     1       3.630   1.738  -0.531  1.00  0.00    -0.478 OA
ATOM     13  H   UNL     1       3.603   1.446  -1.452  1.00  0.00     0.297 HD
ENDBRANCH  10  12
ENDBRANCH   6  10
BRANCH   7  14
ATOM     14  C   UNL     1       7.185   8.628  -0.525  1.00  0.00     0.040 A 
ATOM     15  C   UNL     1       8.352   8.313  -1.222  1.00  0.00     0.034 A 
ATOM     16  C   UNL     1       7.041   9.892   0.049  1.00  0.00     0.034 A 
ATOM     17  C   UNL     1       9.356   9.252  -1.342  1.00  0.00     0.043 A 
ATOM     18  C   UNL     1       8.053  10.823  -0.077  1.00  0.00     0.043 A 
ATOM     19  C   UNL     1       9.208  10.505  -0.771  1.00  0.00     0.041 A 
ATOM     20  Cl  UNL     1      10.808   8.863  -2.210  1.00  0.00    -0.084 Cl
ATOM     21  Cl  UNL     1       7.876  12.397   0.636  1.00  0.00    -0.084 Cl
ENDBRANCH   7  14
TORSDOF 3
ENDMDL
MODEL 8
REMARK VINA RESULT:    -4.163      3.295      5.081
REMARK INTER + INTRA:          -5.054
REMARK INTER:                  -4.771
REMARK INTRA:                  -0.284
REMARK UNBOUND:                -0.283
REMARK SMILES O=C(O)c1ccc2nc(-c3cc(Cl)cc(Cl)c3)oc2c1
REMARK SMILES IDX 5 1 6 2 20 3 8 4 18 5 4 6 9 7 7 8 19 9 2 10 1 11 3 12 10 14
REMARK SMILES IDX 11 15 17 16 12 17 15 18 14 19 13 20 16 21
REMARK H PARENT 3 13
ROOT
ATOM      1  C   UNL     1       8.900  10.702  -0.658  1.00  0.00     0.018 A 
ATOM      2  C   UNL     1       8.691   9.384  -0.932  1.00  0.00     0.033 A 
ATOM      3  C   UNL     1       6.794  10.812   0.539  1.00  0.00     0.065 A 
ATOM      4  N   UNL     1       7.055   7.490  -0.588  1.00  0.00    -0.209 NA
ATOM      5  O   UNL     1       5.580   8.610   0.553  1.00  0.00    -0.436 OA
ATOM      6  C   UNL     1       7.958  11.432   0.081  1.00  0.00     0.063 A 
ATOM      7  C   UNL     1       5.900   7.414   0.026  1.00  0.00     0.227 A 
ATOM      8  C   UNL     1       7.528   8.749  -0.477  1.00  0.00     0.110 A 
ATOM      9  C   UNL     1       6.576   9.475   0.260  1.00  0.00     0.156 A 
ENDROOT
BRANCH   6  10
ATOM     10  C   UNL     1       8.197  12.856   0.375  1.00  0.00     0.335 C 
ATOM     11  O   UNL     1       7.870  13.706  -0.429  1.00  0.00    -0.246 OA
BRANCH  10  12
ATOM     12  O   UNL     1       8.781  13.216   1.536  1.00  0.00    -0.478 OA
ATOM     13  H   UNL     1       8.716  12.593   2.272  1.00  0.00     0.297 HD
ENDBRANCH  10  12
ENDBRANCH   6  10
BRANCH   7  14
ATOM     14  C   UNL     1       5.071   6.194   0.123  1.00  0.00     0.040 A 
ATOM     15  C   UNL     1       5.676   4.938   0.172  1.00  0.00     0.034 A 
ATOM     16  C   UNL     1       3.679   6.295   0.166  1.00  0.00     0.034 A 
ATOM     17  C   UNL     1       4.896   3.802   0.264  1.00  0.00     0.043 A 
ATOM     18  C   UNL     1       2.910   5.153   0.258  1.00  0.00     0.043 A 
ATOM     19  C   UNL     1       3.516   3.909   0.306  1.00  0.00     0.041 A 
ATOM     20  Cl  UNL     1       5.645   2.238   0.325  1.00  0.00    -0.084 Cl
ATOM     21  Cl  UNL     1       1.179   5.276   0.312  1.00  0.00    -0.084 Cl
ENDBRANCH   7  14
TORSDOF 3
ENDMDL
MODEL 9
REMARK VINA RESULT:    -4.160      3.293      5.353
REMARK INTER + INTRA:          -5.051
REMARK INTER:                  -4.767
REMARK INTRA:                  -0.284
REMARK UNBOUND:                -0.283
REMARK SMILES O=C(O)c1ccc2nc(-c3cc(Cl)cc(Cl)c3)oc2c1
REMARK SMILES IDX 5 1 6 2 20 3 8 4 18 5 4 6 9 7 7 8 19 9 2 10 1 11 3 12 10 14
REMARK SMILES IDX 11 15 17 16 12 17 15 18 14 19 13 20 16 21
REMARK H PARENT 3 13
ROOT
ATOM      1  C   UNL     1       8.888  10.708  -0.669  1.00  0.00     0.018 A 
ATOM      2  C   UNL     1       8.669   9.393  -0.950  1.00  0.00     0.033 A 
ATOM      3  C   UNL     1       6.795  10.822   0.550  1.00  0.00     0.065 A 
ATOM      4  N   UNL     1       7.025   7.506  -0.604  1.00  0.00    -0.209 NA
ATOM      5  O   UNL     1       5.568   8.627   0.559  1.00  0.00    -0.436 OA
ATOM      6  C   UNL     1       7.958  11.438   0.084  1.00  0.00     0.063 A 
ATOM      7  C   UNL     1       5.876   7.433   0.020  1.00  0.00     0.227 A 
ATOM      8  C   UNL     1       7.507   8.762  -0.489  1.00  0.00     0.110 A 
ATOM      9  C   UNL     1       6.566   9.488   0.263  1.00  0.00     0.156 A 
ENDROOT
BRANCH   6  10
ATOM     10  C   UNL     1       8.208  12.859   0.387  1.00  0.00     0.335 C 
ATOM     11  O   UNL     1       7.882  13.716  -0.410  1.00  0.00    -0.246 OA
BRANCH  10  12
ATOM     12  O   UNL     1       8.800  13.207   1.547  1.00  0.00    -0.478 OA
ATOM     13  H   UNL     1       9.750  13.047   1.620  1.00  0.00     0.297 HD
ENDBRANCH  10  12
ENDBRANCH   6  10
BRANCH   7  14
ATOM     14  C   UNL     1       5.041   6.217   0.117  1.00  0.00     0.040 A 
ATOM     15  C   UNL     1       3.651   6.324   0.172  1.00  0.00     0.034 A 
ATOM     16  C   UNL     1       5.641   4.957   0.154  1.00  0.00     0.034 A 
ATOM     17  C   UNL     1       2.876   5.185   0.261  1.00  0.00     0.043 A 
ATOM     18  C   UNL     1       4.855   3.825   0.243  1.00  0.00     0.043 A 
ATOM     19  C   UNL     1       3.477   3.938   0.298  1.00  0.00     0.041 A 
ATOM     20  Cl  UNL     1       1.147   5.316   0.329  1.00  0.00    -0.084 Cl
ATOM     21  Cl  UNL     1       5.599   2.256   0.290  1.00  0.00    -0.084 Cl
ENDBRANCH   7  14
TORSDOF 3
ENDMDL
