MODEL 1
REMARK VINA RESULT:    -5.733      0.000      0.000
REMARK INTER + INTRA:          -8.583
REMARK INTER:                  -7.912
REMARK INTRA:                  -0.671
REMARK UNBOUND:                -0.671
REMARK SMILES Cc1n[nH]c(C)c1CCCOc1cc(C(=O)O)ccc1F
REMARK SMILES IDX 11 1 12 2 14 3 18 4 13 5 19 6 20 7 21 8 15 9 16 10 17 11
REMARK SMILES IDX 10 13 9 14 8 15 7 16 5 17 2 18 4 19 3 20 6 21 1 22
REMARK H PARENT 17 12 4 23
ROOT
ATOM      1  O   UNL     1       1.789   4.816   5.358  1.00  0.00    -0.490 OA
ENDROOT
BRANCH   1   2
ATOM      2  C   UNL     1       1.248   3.752   4.707  1.00  0.00     0.155 A 
ATOM      3  C   UNL     1       0.117   1.630   4.755  1.00  0.00     0.063 A 
ATOM      4  C   UNL     1       0.140   1.591   3.359  1.00  0.00     0.019 A 
ATOM      5  C   UNL     1       0.676   2.720   5.427  1.00  0.00     0.065 A 
ATOM      6  C   UNL     1       0.707   2.628   2.649  1.00  0.00     0.044 A 
ATOM      7  C   UNL     1       1.256   3.710   3.317  1.00  0.00     0.165 A 
ATOM      8  F   UNL     1       1.811   4.723   2.616  1.00  0.00    -0.203 F 
BRANCH   3   9
ATOM      9  C   UNL     1      -0.490   0.522   5.518  1.00  0.00     0.335 C 
ATOM     10  O   UNL     1      -0.174  -0.625   5.278  1.00  0.00    -0.246 OA
BRANCH   9  11
ATOM     11  O   UNL     1      -1.390   0.785   6.486  1.00  0.00    -0.478 OA
ATOM     12  H   UNL     1      -1.161   0.511   7.385  1.00  0.00     0.297 HD
ENDBRANCH   9  11
ENDBRANCH   3   9
ENDBRANCH   1   2
BRANCH   1  13
ATOM     13  C   UNL     1       3.099   4.645   5.905  1.00  0.00     0.230 C 
BRANCH  13  14
ATOM     14  C   UNL     1       3.265   5.556   7.123  1.00  0.00     0.046 C 
BRANCH  14  15
ATOM     15  C   UNL     1       1.976   5.544   7.948  1.00  0.00     0.043 C 
BRANCH  15  16
ATOM     16  C   UNL     1       2.177   6.349   9.206  1.00  0.00    -0.004 A 
ATOM     17  C   UNL     1       2.536   5.861  10.416  1.00  0.00     0.036 A 
ATOM     18  C   UNL     1       2.032   7.735   9.328  1.00  0.00     0.063 A 
ATOM     19  N   UNL     1       2.608   6.899  11.274  1.00  0.00    -0.282 N 
ATOM     20  N   UNL     1       2.283   8.065  10.568  1.00  0.00    -0.181 NA
ATOM     21  C   UNL     1       2.806   4.416  10.745  1.00  0.00     0.066 C 
ATOM     22  C   UNL     1       1.640   8.684   8.223  1.00  0.00     0.069 C 
ATOM     23  H   UNL     1       2.843   6.848  12.214  1.00  0.00     0.190 HD
ENDBRANCH  15  16
ENDBRANCH  14  15
ENDBRANCH  13  14
ENDBRANCH   1  13
TORSDOF 7
ENDMDL
MODEL 2
REMARK VINA RESULT:    -5.717      2.077      3.651
REMARK INTER + INTRA:          -8.560
REMARK INTER:                  -7.887
REMARK INTRA:                  -0.673
REMARK UNBOUND:                -0.671
REMARK SMILES Cc1n[nH]c(C)c1CCCOc1cc(C(=O)O)ccc1F
REMARK SMILES IDX 11 1 12 2 14 3 18 4 13 5 19 6 20 7 21 8 15 9 16 10 17 11
REMARK SMILES IDX 10 13 9 14 8 15 7 16 5 17 2 18 4 19 3 20 6 21 1 22
REMARK H PARENT 17 12 4 23
ROOT
ATOM      1  O   UNL     1       0.270   2.769   7.169  1.00  0.00    -0.490 OA
ENDROOT
BRANCH   1   2
ATOM      2  C   UNL     1       0.297   2.434   5.852  1.00  0.00     0.155 A 
ATOM      3  C   UNL     1       0.877   2.953   3.577  1.00  0.00     0.063 A 
ATOM      4  C   UNL     1       0.350   1.726   3.166  1.00  0.00     0.019 A 
ATOM      5  C   UNL     1       0.847   3.303   4.929  1.00  0.00     0.065 A 
ATOM      6  C   UNL     1      -0.191   0.863   4.095  1.00  0.00     0.044 A 
ATOM      7  C   UNL     1      -0.215   1.210   5.436  1.00  0.00     0.165 A 
ATOM      8  F   UNL     1      -0.748   0.360   6.341  1.00  0.00    -0.203 F 
BRANCH   3   9
ATOM      9  C   UNL     1       1.458   3.879   2.585  1.00  0.00     0.335 C 
ATOM     10  O   UNL     1       2.558   4.358   2.772  1.00  0.00    -0.246 OA
BRANCH   9  11
ATOM     11  O   UNL     1       0.770   4.188   1.468  1.00  0.00    -0.478 OA
ATOM     12  H   UNL     1       0.043   4.820   1.561  1.00  0.00     0.297 HD
ENDBRANCH   9  11
ENDBRANCH   3   9
ENDBRANCH   1   2
BRANCH   1  13
ATOM     13  C   UNL     1      -0.600   3.837   7.550  1.00  0.00     0.230 C 
BRANCH  13  14
ATOM     14  C   UNL     1       0.004   4.588   8.738  1.00  0.00     0.046 C 
BRANCH  14  15
ATOM     15  C   UNL     1       1.465   4.927   8.437  1.00  0.00     0.043 C 
BRANCH  15  16
ATOM     16  C   UNL     1       1.999   5.846   9.505  1.00  0.00    -0.004 A 
ATOM     17  C   UNL     1       1.993   7.199   9.466  1.00  0.00     0.036 A 
ATOM     18  C   UNL     1       2.581   5.453  10.714  1.00  0.00     0.063 A 
ATOM     19  N   UNL     1       2.558   7.645  10.608  1.00  0.00    -0.282 N 
ATOM     20  N   UNL     1       2.923   6.530  11.373  1.00  0.00    -0.181 NA
ATOM     21  C   UNL     1       1.454   8.054   8.350  1.00  0.00     0.066 C 
ATOM     22  C   UNL     1       2.789   4.032  11.174  1.00  0.00     0.069 C 
ATOM     23  H   UNL     1       2.690   8.574  10.855  1.00  0.00     0.190 HD
ENDBRANCH  15  16
ENDBRANCH  14  15
ENDBRANCH  13  14
ENDBRANCH   1  13
TORSDOF 7
ENDMDL
MODEL 3
REMARK VINA RESULT:    -5.646      0.144      1.774
REMARK INTER + INTRA:          -8.462
REMARK INTER:                  -7.832
REMARK INTRA:                  -0.629
REMARK UNBOUND:                -0.671
REMARK SMILES Cc1n[nH]c(C)c1CCCOc1cc(C(=O)O)ccc1F
REMARK SMILES IDX 11 1 12 2 14 3 18 4 13 5 19 6 20 7 21 8 15 9 16 10 17 11
REMARK SMILES IDX 10 13 9 14 8 15 7 16 5 17 2 18 4 19 3 20 6 21 1 22
REMARK H PARENT 17 12 4 23
ROOT
ATOM      1  O   UNL     1       1.729   4.752   5.427  1.00  0.00    -0.490 OA
ENDROOT
BRANCH   1   2
ATOM      2  C   UNL     1       1.199   3.698   4.752  1.00  0.00     0.155 A 
ATOM      3  C   UNL     1       0.072   1.574   4.749  1.00  0.00     0.063 A 
ATOM      4  C   UNL     1       0.114   1.558   3.352  1.00  0.00     0.019 A 
ATOM      5  C   UNL     1       0.619   2.653   5.446  1.00  0.00     0.065 A 
ATOM      6  C   UNL     1       0.689   2.608   2.668  1.00  0.00     0.044 A 
ATOM      7  C   UNL     1       1.227   3.679   3.362  1.00  0.00     0.165 A 
ATOM      8  F   UNL     1       1.789   4.705   2.685  1.00  0.00    -0.203 F 
BRANCH   3   9
ATOM      9  C   UNL     1      -0.543   0.452   5.484  1.00  0.00     0.335 C 
ATOM     10  O   UNL     1      -0.189  -0.688   5.261  1.00  0.00    -0.246 OA
BRANCH   9  11
ATOM     11  O   UNL     1      -1.493   0.693   6.409  1.00  0.00    -0.478 OA
ATOM     12  H   UNL     1      -2.373   0.326   6.241  1.00  0.00     0.297 HD
ENDBRANCH   9  11
ENDBRANCH   3   9
ENDBRANCH   1   2
BRANCH   1  13
ATOM     13  C   UNL     1       3.082   4.625   5.871  1.00  0.00     0.230 C 
BRANCH  13  14
ATOM     14  C   UNL     1       3.290   5.480   7.123  1.00  0.00     0.046 C 
BRANCH  14  15
ATOM     15  C   UNL     1       2.051   5.385   8.017  1.00  0.00     0.043 C 
BRANCH  15  16
ATOM     16  C   UNL     1       2.265   6.207   9.261  1.00  0.00    -0.004 A 
ATOM     17  C   UNL     1       2.104   7.547   9.368  1.00  0.00     0.036 A 
ATOM     18  C   UNL     1       2.659   5.720  10.512  1.00  0.00     0.063 A 
ATOM     19  N   UNL     1       2.393   7.896  10.639  1.00  0.00    -0.282 N 
ATOM     20  N   UNL     1       2.743   6.732  11.337  1.00  0.00    -0.181 NA
ATOM     21  C   UNL     1       1.679   8.481   8.265  1.00  0.00     0.066 C 
ATOM     22  C   UNL     1       2.950   4.280  10.848  1.00  0.00     0.069 C 
ATOM     23  H   UNL     1       2.364   8.793  11.005  1.00  0.00     0.190 HD
ENDBRANCH  15  16
ENDBRANCH  14  15
ENDBRANCH  13  14
ENDBRANCH   1  13
TORSDOF 7
ENDMDL
MODEL 4
REMARK VINA RESULT:    -4.662      3.809      7.211
REMARK INTER + INTRA:          -7.104
REMARK INTER:                  -6.250
REMARK INTRA:                  -0.855
REMARK UNBOUND:                -0.671
REMARK SMILES Cc1n[nH]c(C)c1CCCOc1cc(C(=O)O)ccc1F
REMARK SMILES IDX 11 1 12 2 14 3 18 4 13 5 19 6 20 7 21 8 15 9 16 10 17 11
REMARK SMILES IDX 10 13 9 14 8 15 7 16 5 17 2 18 4 19 3 20 6 21 1 22
REMARK H PARENT 17 12 4 23
ROOT
ATOM      1  O   UNL     1       1.391   3.678   7.871  1.00  0.00    -0.490 OA
ENDROOT
BRANCH   1   2
ATOM      2  C   UNL     1       1.714   4.773   8.609  1.00  0.00     0.155 A 
ATOM      3  C   UNL     1       1.769   7.161   8.887  1.00  0.00     0.063 A 
ATOM      4  C   UNL     1       2.373   6.997  10.137  1.00  0.00     0.019 A 
ATOM      5  C   UNL     1       1.441   6.038   8.124  1.00  0.00     0.065 A 
ATOM      6  C   UNL     1       2.636   5.731  10.615  1.00  0.00     0.044 A 
ATOM      7  C   UNL     1       2.305   4.619   9.858  1.00  0.00     0.165 A 
ATOM      8  F   UNL     1       2.565   3.380  10.332  1.00  0.00    -0.203 F 
BRANCH   3   9
ATOM      9  C   UNL     1       1.486   8.515   8.373  1.00  0.00     0.335 C 
ATOM     10  O   UNL     1       2.324   9.107   7.725  1.00  0.00    -0.246 OA
BRANCH   9  11
ATOM     11  O   UNL     1       0.292   9.092   8.618  1.00  0.00    -0.478 OA
ATOM     12  H   UNL     1      -0.463   8.501   8.745  1.00  0.00     0.297 HD
ENDBRANCH   9  11
ENDBRANCH   3   9
ENDBRANCH   1   2
BRANCH   1  13
ATOM     13  C   UNL     1       0.167   3.730   7.134  1.00  0.00     0.230 C 
BRANCH  13  14
ATOM     14  C   UNL     1       0.056   2.492   6.243  1.00  0.00     0.046 C 
BRANCH  14  15
ATOM     15  C   UNL     1       1.423   2.179   5.631  1.00  0.00     0.043 C 
BRANCH  15  16
ATOM     16  C   UNL     1       1.577   2.927   4.333  1.00  0.00    -0.004 A 
ATOM     17  C   UNL     1       2.395   3.983   4.114  1.00  0.00     0.036 A 
ATOM     18  C   UNL     1       0.904   2.650   3.138  1.00  0.00     0.063 A 
ATOM     19  N   UNL     1       2.240   4.364   2.829  1.00  0.00    -0.282 N 
ATOM     20  N   UNL     1       1.296   3.515   2.238  1.00  0.00    -0.181 NA
ATOM     21  C   UNL     1       3.314   4.618   5.125  1.00  0.00     0.066 C 
ATOM     22  C   UNL     1      -0.107   1.552   2.927  1.00  0.00     0.069 C 
ATOM     23  H   UNL     1       2.701   5.097   2.392  1.00  0.00     0.190 HD
ENDBRANCH  15  16
ENDBRANCH  14  15
ENDBRANCH  13  14
ENDBRANCH   1  13
TORSDOF 7
ENDMDL
MODEL 5
REMARK VINA RESULT:    -4.658      3.808      7.179
REMARK INTER + INTRA:          -7.099
REMARK INTER:                  -6.251
REMARK INTRA:                  -0.849
REMARK UNBOUND:                -0.671
REMARK SMILES Cc1n[nH]c(C)c1CCCOc1cc(C(=O)O)ccc1F
REMARK SMILES IDX 11 1 12 2 14 3 18 4 13 5 19 6 20 7 21 8 15 9 16 10 17 11
REMARK SMILES IDX 10 13 9 14 8 15 7 16 5 17 2 18 4 19 3 20 6 21 1 22
REMARK H PARENT 17 12 4 23
ROOT
ATOM      1  O   UNL     1       1.329   3.710   7.836  1.00  0.00    -0.490 OA
ENDROOT
BRANCH   1   2
ATOM      2  C   UNL     1       1.667   4.800   8.574  1.00  0.00     0.155 A 
ATOM      3  C   UNL     1       1.740   7.187   8.860  1.00  0.00     0.063 A 
ATOM      4  C   UNL     1       2.358   7.015  10.101  1.00  0.00     0.019 A 
ATOM      5  C   UNL     1       1.395   6.069   8.097  1.00  0.00     0.065 A 
ATOM      6  C   UNL     1       2.620   5.746  10.571  1.00  0.00     0.044 A 
ATOM      7  C   UNL     1       2.273   4.638   9.815  1.00  0.00     0.165 A 
ATOM      8  F   UNL     1       2.532   3.397  10.281  1.00  0.00    -0.203 F 
BRANCH   3   9
ATOM      9  C   UNL     1       1.457   8.544   8.354  1.00  0.00     0.335 C 
ATOM     10  O   UNL     1       2.302   9.145   7.722  1.00  0.00    -0.246 OA
BRANCH   9  11
ATOM     11  O   UNL     1       0.259   9.114   8.589  1.00  0.00    -0.478 OA
ATOM     12  H   UNL     1      -0.457   8.530   8.874  1.00  0.00     0.297 HD
ENDBRANCH   9  11
ENDBRANCH   3   9
ENDBRANCH   1   2
BRANCH   1  13
ATOM     13  C   UNL     1       0.112   3.785   7.088  1.00  0.00     0.230 C 
BRANCH  13  14
ATOM     14  C   UNL     1      -0.016   2.546   6.200  1.00  0.00     0.046 C 
BRANCH  14  15
ATOM     15  C   UNL     1       1.357   2.179   5.634  1.00  0.00     0.043 C 
BRANCH  15  16
ATOM     16  C   UNL     1       1.570   2.894   4.325  1.00  0.00    -0.004 A 
ATOM     17  C   UNL     1       0.945   2.619   3.157  1.00  0.00     0.036 A 
ATOM     18  C   UNL     1       2.444   3.963   4.104  1.00  0.00     0.063 A 
ATOM     19  N   UNL     1       1.411   3.479   2.228  1.00  0.00    -0.282 N 
ATOM     20  N   UNL     1       2.355   4.310   2.845  1.00  0.00    -0.181 NA
ATOM     21  C   UNL     1      -0.088   1.545   2.934  1.00  0.00     0.066 C 
ATOM     22  C   UNL     1       3.343   4.598   5.134  1.00  0.00     0.069 C 
ATOM     23  H   UNL     1       1.142   3.515   1.297  1.00  0.00     0.190 HD
ENDBRANCH  15  16
ENDBRANCH  14  15
ENDBRANCH  13  14
ENDBRANCH   1  13
TORSDOF 7
ENDMDL
MODEL 6
REMARK VINA RESULT:    -4.649      3.788      6.717
REMARK INTER + INTRA:          -7.086
REMARK INTER:                  -6.257
REMARK INTRA:                  -0.829
REMARK UNBOUND:                -0.671
REMARK SMILES Cc1n[nH]c(C)c1CCCOc1cc(C(=O)O)ccc1F
REMARK SMILES IDX 11 1 12 2 14 3 18 4 13 5 19 6 20 7 21 8 15 9 16 10 17 11
REMARK SMILES IDX 10 13 9 14 8 15 7 16 5 17 2 18 4 19 3 20 6 21 1 22
REMARK H PARENT 17 12 4 23
ROOT
ATOM      1  O   UNL     1       1.385   5.407   6.618  1.00  0.00    -0.490 OA
ENDROOT
BRANCH   1   2
ATOM      2  C   UNL     1       1.722   5.810   7.873  1.00  0.00     0.155 A 
ATOM      3  C   UNL     1       2.483   5.298  10.096  1.00  0.00     0.063 A 
ATOM      4  C   UNL     1       2.417   6.654  10.426  1.00  0.00     0.019 A 
ATOM      5  C   UNL     1       2.132   4.880   8.810  1.00  0.00     0.065 A 
ATOM      6  C   UNL     1       2.013   7.575   9.482  1.00  0.00     0.044 A 
ATOM      7  C   UNL     1       1.670   7.159   8.207  1.00  0.00     0.165 A 
ATOM      8  F   UNL     1       1.275   8.066   7.286  1.00  0.00    -0.203 F 
BRANCH   3   9
ATOM      9  C   UNL     1       2.915   4.310  11.103  1.00  0.00     0.335 C 
ATOM     10  O   UNL     1       2.092   3.745  11.793  1.00  0.00    -0.246 OA
BRANCH   9  11
ATOM     11  O   UNL     1       4.225   4.030  11.253  1.00  0.00    -0.478 OA
ATOM     12  H   UNL     1       4.461   3.106  11.416  1.00  0.00     0.297 HD
ENDBRANCH   9  11
ENDBRANCH   3   9
ENDBRANCH   1   2
BRANCH   1  13
ATOM     13  C   UNL     1       2.230   4.435   6.000  1.00  0.00     0.230 C 
BRANCH  13  14
ATOM     14  C   UNL     1       1.654   4.052   4.636  1.00  0.00     0.046 C 
BRANCH  14  15
ATOM     15  C   UNL     1       0.130   3.950   4.737  1.00  0.00     0.043 C 
BRANCH  15  16
ATOM     16  C   UNL     1      -0.252   2.561   5.178  1.00  0.00    -0.004 A 
ATOM     17  C   UNL     1      -0.756   2.220   6.387  1.00  0.00     0.036 A 
ATOM     18  C   UNL     1      -0.156   1.397   4.408  1.00  0.00     0.063 A 
ATOM     19  N   UNL     1      -0.965   0.886   6.384  1.00  0.00    -0.282 N 
ATOM     20  N   UNL     1      -0.576   0.391   5.132  1.00  0.00    -0.181 NA
ATOM     21  C   UNL     1      -1.035   3.160   7.530  1.00  0.00     0.066 C 
ATOM     22  C   UNL     1       0.356   1.313   2.993  1.00  0.00     0.069 C 
ATOM     23  H   UNL     1      -1.320   0.363   7.119  1.00  0.00     0.190 HD
ENDBRANCH  15  16
ENDBRANCH  14  15
ENDBRANCH  13  14
ENDBRANCH   1  13
TORSDOF 7
ENDMDL
MODEL 7
REMARK VINA RESULT:    -4.527      3.799      6.735
REMARK INTER + INTRA:          -6.919
REMARK INTER:                  -6.089
REMARK INTRA:                  -0.829
REMARK UNBOUND:                -0.671
REMARK SMILES Cc1n[nH]c(C)c1CCCOc1cc(C(=O)O)ccc1F
REMARK SMILES IDX 11 1 12 2 14 3 18 4 13 5 19 6 20 7 21 8 15 9 16 10 17 11
REMARK SMILES IDX 10 13 9 14 8 15 7 16 5 17 2 18 4 19 3 20 6 21 1 22
REMARK H PARENT 17 12 4 23
ROOT
ATOM      1  O   UNL     1       1.441   5.340   6.684  1.00  0.00    -0.490 OA
ENDROOT
BRANCH   1   2
ATOM      2  C   UNL     1       1.765   5.747   7.940  1.00  0.00     0.155 A 
ATOM      3  C   UNL     1       2.502   5.243  10.173  1.00  0.00     0.063 A 
ATOM      4  C   UNL     1       2.432   6.600  10.499  1.00  0.00     0.019 A 
ATOM      5  C   UNL     1       2.165   4.821   8.885  1.00  0.00     0.065 A 
ATOM      6  C   UNL     1       2.038   7.517   9.548  1.00  0.00     0.044 A 
ATOM      7  C   UNL     1       1.709   7.097   8.270  1.00  0.00     0.165 A 
ATOM      8  F   UNL     1       1.323   8.001   7.342  1.00  0.00    -0.203 F 
BRANCH   3   9
ATOM      9  C   UNL     1       2.924   4.258  11.188  1.00  0.00     0.335 C 
ATOM     10  O   UNL     1       3.082   4.604  12.341  1.00  0.00    -0.246 OA
BRANCH   9  11
ATOM     11  O   UNL     1       3.128   2.973  10.837  1.00  0.00    -0.478 OA
ATOM     12  H   UNL     1       3.732   2.811  10.098  1.00  0.00     0.297 HD
ENDBRANCH   9  11
ENDBRANCH   3   9
ENDBRANCH   1   2
BRANCH   1  13
ATOM     13  C   UNL     1       2.283   4.352   6.085  1.00  0.00     0.230 C 
BRANCH  13  14
ATOM     14  C   UNL     1       1.740   3.992   4.701  1.00  0.00     0.046 C 
BRANCH  14  15
ATOM     15  C   UNL     1       0.211   3.961   4.746  1.00  0.00     0.043 C 
BRANCH  15  16
ATOM     16  C   UNL     1      -0.253   2.590   5.166  1.00  0.00    -0.004 A 
ATOM     17  C   UNL     1      -0.186   1.463   4.419  1.00  0.00     0.036 A 
ATOM     18  C   UNL     1      -0.822   2.255   6.399  1.00  0.00     0.063 A 
ATOM     19  N   UNL     1      -0.701   0.453   5.151  1.00  0.00    -0.282 N 
ATOM     20  N   UNL     1      -1.098   0.977   6.388  1.00  0.00    -0.181 NA
ATOM     21  C   UNL     1       0.365   1.356   3.021  1.00  0.00     0.066 C 
ATOM     22  C   UNL     1      -1.085   3.207   7.538  1.00  0.00     0.069 C 
ATOM     23  H   UNL     1      -0.783  -0.471   4.870  1.00  0.00     0.190 HD
ENDBRANCH  15  16
ENDBRANCH  14  15
ENDBRANCH  13  14
ENDBRANCH   1  13
TORSDOF 7
ENDMDL
MODEL 8
REMARK VINA RESULT:    -4.449      3.841      7.224
REMARK INTER + INTRA:          -6.811
REMARK INTER:                  -6.203
REMARK INTRA:                  -0.607
REMARK UNBOUND:                -0.671
REMARK SMILES Cc1n[nH]c(C)c1CCCOc1cc(C(=O)O)ccc1F
REMARK SMILES IDX 11 1 12 2 14 3 18 4 13 5 19 6 20 7 21 8 15 9 16 10 17 11
REMARK SMILES IDX 10 13 9 14 8 15 7 16 5 17 2 18 4 19 3 20 6 21 1 22
REMARK H PARENT 17 12 4 23
ROOT
ATOM      1  O   UNL     1       1.240   5.221   6.431  1.00  0.00    -0.490 OA
ENDROOT
BRANCH   1   2
ATOM      2  C   UNL     1       1.606   5.705   7.647  1.00  0.00     0.155 A 
ATOM      3  C   UNL     1       1.955   7.560   9.137  1.00  0.00     0.063 A 
ATOM      4  C   UNL     1       2.346   6.674  10.143  1.00  0.00     0.019 A 
ATOM      5  C   UNL     1       1.584   7.067   7.884  1.00  0.00     0.065 A 
ATOM      6  C   UNL     1       2.359   5.316   9.900  1.00  0.00     0.044 A 
ATOM      7  C   UNL     1       1.986   4.829   8.658  1.00  0.00     0.165 A 
ATOM      8  F   UNL     1       2.000   3.498   8.426  1.00  0.00    -0.203 F 
BRANCH   3   9
ATOM      9  C   UNL     1       1.940   9.014   9.394  1.00  0.00     0.335 C 
ATOM     10  O   UNL     1       1.584   9.781   8.524  1.00  0.00    -0.246 OA
BRANCH   9  11
ATOM     11  O   UNL     1       2.316   9.488  10.599  1.00  0.00    -0.478 OA
ATOM     12  H   UNL     1       2.670  10.388  10.626  1.00  0.00     0.297 HD
ENDBRANCH   9  11
ENDBRANCH   3   9
ENDBRANCH   1   2
BRANCH   1  13
ATOM     13  C   UNL     1       2.228   4.491   5.700  1.00  0.00     0.230 C 
BRANCH  13  14
ATOM     14  C   UNL     1       1.604   3.927   4.422  1.00  0.00     0.046 C 
BRANCH  14  15
ATOM     15  C   UNL     1       0.087   3.825   4.598  1.00  0.00     0.043 C 
BRANCH  15  16
ATOM     16  C   UNL     1      -0.273   2.440   5.069  1.00  0.00    -0.004 A 
ATOM     17  C   UNL     1      -0.781   2.118   6.282  1.00  0.00     0.036 A 
ATOM     18  C   UNL     1      -0.149   1.260   4.328  1.00  0.00     0.063 A 
ATOM     19  N   UNL     1      -0.964   0.781   6.309  1.00  0.00    -0.282 N 
ATOM     20  N   UNL     1      -0.556   0.264   5.072  1.00  0.00    -0.181 NA
ATOM     21  C   UNL     1      -1.087   3.079   7.400  1.00  0.00     0.066 C 
ATOM     22  C   UNL     1       0.376   1.153   2.919  1.00  0.00     0.069 C 
ATOM     23  H   UNL     1      -1.316   0.268   7.053  1.00  0.00     0.190 HD
ENDBRANCH  15  16
ENDBRANCH  14  15
ENDBRANCH  13  14
ENDBRANCH   1  13
TORSDOF 7
ENDMDL
MODEL 9
REMARK VINA RESULT:    -4.392      3.942      6.969
REMARK INTER + INTRA:          -6.732
REMARK INTER:                  -6.010
REMARK INTRA:                  -0.722
REMARK UNBOUND:                -0.671
REMARK SMILES Cc1n[nH]c(C)c1CCCOc1cc(C(=O)O)ccc1F
REMARK SMILES IDX 11 1 12 2 14 3 18 4 13 5 19 6 20 7 21 8 15 9 16 10 17 11
REMARK SMILES IDX 10 13 9 14 8 15 7 16 5 17 2 18 4 19 3 20 6 21 1 22
REMARK H PARENT 17 12 4 23
ROOT
ATOM      1  O   UNL     1       1.403   3.776   7.554  1.00  0.00    -0.490 OA
ENDROOT
BRANCH   1   2
ATOM      2  C   UNL     1       1.752   4.679   8.509  1.00  0.00     0.155 A 
ATOM      3  C   UNL     1       2.600   5.173  10.704  1.00  0.00     0.063 A 
ATOM      4  C   UNL     1       2.469   6.539  10.443  1.00  0.00     0.019 A 
ATOM      5  C   UNL     1       2.237   4.243   9.728  1.00  0.00     0.065 A 
ATOM      6  C   UNL     1       1.989   6.965   9.222  1.00  0.00     0.044 A 
ATOM      7  C   UNL     1       1.635   6.041   8.253  1.00  0.00     0.165 A 
ATOM      8  F   UNL     1       1.166   6.464   7.059  1.00  0.00    -0.203 F 
BRANCH   3   9
ATOM      9  C   UNL     1       3.114   4.714  12.010  1.00  0.00     0.335 C 
ATOM     10  O   UNL     1       2.849   5.334  13.019  1.00  0.00    -0.246 OA
BRANCH   9  11
ATOM     11  O   UNL     1       3.871   3.602  12.082  1.00  0.00    -0.478 OA
ATOM     12  H   UNL     1       3.709   2.916  11.419  1.00  0.00     0.297 HD
ENDBRANCH   9  11
ENDBRANCH   3   9
ENDBRANCH   1   2
BRANCH   1  13
ATOM     13  C   UNL     1       0.006   3.621   7.288  1.00  0.00     0.230 C 
BRANCH  13  14
ATOM     14  C   UNL     1      -0.183   2.693   6.086  1.00  0.00     0.046 C 
BRANCH  14  15
ATOM     15  C   UNL     1       1.185   2.247   5.566  1.00  0.00     0.043 C 
BRANCH  15  16
ATOM     16  C   UNL     1       1.462   2.911   4.243  1.00  0.00    -0.004 A 
ATOM     17  C   UNL     1       0.871   2.612   3.063  1.00  0.00     0.036 A 
ATOM     18  C   UNL     1       2.370   3.951   4.017  1.00  0.00     0.063 A 
ATOM     19  N   UNL     1       1.392   3.429   2.123  1.00  0.00    -0.282 N 
ATOM     20  N   UNL     1       2.334   4.257   2.746  1.00  0.00    -0.181 NA
ATOM     21  C   UNL     1      -0.181   1.557   2.838  1.00  0.00     0.066 C 
ATOM     22  C   UNL     1       3.249   4.598   5.058  1.00  0.00     0.069 C 
ATOM     23  H   UNL     1       1.156   3.440   1.182  1.00  0.00     0.190 HD
ENDBRANCH  15  16
ENDBRANCH  14  15
ENDBRANCH  13  14
ENDBRANCH   1  13
TORSDOF 7
ENDMDL
