MODEL 1
REMARK VINA RESULT:    -4.334      0.000      0.000
REMARK INTER + INTRA:          -5.249
REMARK INTER:                  -4.967
REMARK INTRA:                  -0.281
REMARK UNBOUND:                -0.281
REMARK SMILES O=C(O)c1ccc2nc(-c3cc(Cl)cc(Cl)c3)oc2c1
REMARK SMILES IDX 5 1 6 2 20 3 8 4 18 5 4 6 9 7 7 8 19 9 2 10 1 11 3 12 10 14
REMARK SMILES IDX 11 15 17 16 12 17 15 18 14 19 13 20 16 21
REMARK H PARENT 3 13
ROOT
ATOM      1  C   UNL     1       4.753   4.964  15.603  1.00  0.00     0.018 A 
ATOM      2  C   UNL     1       3.803   5.599  14.861  1.00  0.00     0.033 A 
ATOM      3  C   UNL     1       5.526   3.772  13.638  1.00  0.00     0.065 A 
ATOM      4  N   UNL     1       2.873   5.792  12.520  1.00  0.00    -0.209 NA
ATOM      5  O   UNL     1       4.216   4.364  11.576  1.00  0.00    -0.436 OA
ATOM      6  C   UNL     1       5.627   4.046  15.003  1.00  0.00     0.063 A 
ATOM      7  C   UNL     1       3.189   5.214  11.388  1.00  0.00     0.227 A 
ATOM      8  C   UNL     1       3.691   5.333  13.491  1.00  0.00     0.110 A 
ATOM      9  C   UNL     1       4.560   4.410  12.882  1.00  0.00     0.156 A 
ENDROOT
BRANCH   6  10
ATOM     10  C   UNL     1       6.655   3.370  15.816  1.00  0.00     0.335 C 
ATOM     11  O   UNL     1       7.723   3.912  16.016  1.00  0.00    -0.246 OA
BRANCH  10  12
ATOM     12  O   UNL     1       6.409   2.151  16.335  1.00  0.00    -0.478 OA
ATOM     13  H   UNL     1       6.719   1.987  17.236  1.00  0.00     0.297 HD
ENDBRANCH  10  12
ENDBRANCH   6  10
BRANCH   7  14
ATOM     14  C   UNL     1       2.517   5.459  10.095  1.00  0.00     0.040 A 
ATOM     15  C   UNL     1       2.231   6.764   9.690  1.00  0.00     0.034 A 
ATOM     16  C   UNL     1       2.164   4.386   9.274  1.00  0.00     0.034 A 
ATOM     17  C   UNL     1       1.603   6.986   8.480  1.00  0.00     0.043 A 
ATOM     18  C   UNL     1       1.538   4.621   8.067  1.00  0.00     0.043 A 
ATOM     19  C   UNL     1       1.256   5.917   7.671  1.00  0.00     0.041 A 
ATOM     20  Cl  UNL     1       1.247   8.608   7.973  1.00  0.00    -0.084 Cl
ATOM     21  Cl  UNL     1       1.099   3.288   7.045  1.00  0.00    -0.084 Cl
ENDBRANCH   7  14
TORSDOF 3
ENDMDL
MODEL 2
REMARK VINA RESULT:    -4.334      0.009      2.019
REMARK INTER + INTRA:          -5.248
REMARK INTER:                  -4.967
REMARK INTRA:                  -0.281
REMARK UNBOUND:                -0.281
REMARK SMILES O=C(O)c1ccc2nc(-c3cc(Cl)cc(Cl)c3)oc2c1
REMARK SMILES IDX 5 1 6 2 20 3 8 4 18 5 4 6 9 7 7 8 19 9 2 10 1 11 3 12 10 14
REMARK SMILES IDX 11 15 17 16 12 17 15 18 14 19 13 20 16 21
REMARK H PARENT 3 13
ROOT
ATOM      1  C   UNL     1       4.759   4.965  15.602  1.00  0.00     0.018 A 
ATOM      2  C   UNL     1       3.809   5.600  14.860  1.00  0.00     0.033 A 
ATOM      3  C   UNL     1       5.530   3.771  13.638  1.00  0.00     0.065 A 
ATOM      4  N   UNL     1       2.877   5.793  12.519  1.00  0.00    -0.209 NA
ATOM      5  O   UNL     1       4.219   4.363  11.576  1.00  0.00    -0.436 OA
ATOM      6  C   UNL     1       5.631   4.046  15.003  1.00  0.00     0.063 A 
ATOM      7  C   UNL     1       3.193   5.214  11.387  1.00  0.00     0.227 A 
ATOM      8  C   UNL     1       3.696   5.334  13.490  1.00  0.00     0.110 A 
ATOM      9  C   UNL     1       4.564   4.409  12.882  1.00  0.00     0.156 A 
ENDROOT
BRANCH   6  10
ATOM     10  C   UNL     1       6.659   3.370  15.815  1.00  0.00     0.335 C 
ATOM     11  O   UNL     1       7.736   3.902  15.997  1.00  0.00    -0.246 OA
BRANCH  10  12
ATOM     12  O   UNL     1       6.404   2.162  16.355  1.00  0.00    -0.478 OA
ATOM     13  H   UNL     1       7.140   1.712  16.791  1.00  0.00     0.297 HD
ENDBRANCH  10  12
ENDBRANCH   6  10
BRANCH   7  14
ATOM     14  C   UNL     1       2.520   5.458  10.094  1.00  0.00     0.040 A 
ATOM     15  C   UNL     1       2.167   4.386   9.274  1.00  0.00     0.034 A 
ATOM     16  C   UNL     1       2.236   6.764   9.689  1.00  0.00     0.034 A 
ATOM     17  C   UNL     1       1.538   4.622   8.067  1.00  0.00     0.043 A 
ATOM     18  C   UNL     1       1.607   6.987   8.481  1.00  0.00     0.043 A 
ATOM     19  C   UNL     1       1.259   5.919   7.671  1.00  0.00     0.041 A 
ATOM     20  Cl  UNL     1       1.097   3.290   7.045  1.00  0.00    -0.084 Cl
ATOM     21  Cl  UNL     1       1.253   8.609   7.974  1.00  0.00    -0.084 Cl
ENDBRANCH   7  14
TORSDOF 3
ENDMDL
MODEL 3
REMARK VINA RESULT:    -4.078      3.467      5.249
REMARK INTER + INTRA:          -4.956
REMARK INTER:                  -4.660
REMARK INTRA:                  -0.295
REMARK UNBOUND:                -0.281
REMARK SMILES O=C(O)c1ccc2nc(-c3cc(Cl)cc(Cl)c3)oc2c1
REMARK SMILES IDX 5 1 6 2 20 3 8 4 18 5 4 6 9 7 7 8 19 9 2 10 1 11 3 12 10 14
REMARK SMILES IDX 11 15 17 16 12 17 15 18 14 19 13 20 16 21
REMARK H PARENT 3 13
ROOT
ATOM      1  C   UNL     1       2.466   7.125  10.655  1.00  0.00     0.018 A 
ATOM      2  C   UNL     1       2.077   7.140   9.349  1.00  0.00     0.033 A 
ATOM      3  C   UNL     1       2.543   4.702  10.630  1.00  0.00     0.065 A 
ATOM      4  N   UNL     1       1.544   5.637   7.389  1.00  0.00    -0.209 NA
ATOM      5  O   UNL     1       1.904   3.742   8.395  1.00  0.00    -0.436 OA
ATOM      6  C   UNL     1       2.705   5.910  11.311  1.00  0.00     0.063 A 
ATOM      7  C   UNL     1       1.543   4.336   7.242  1.00  0.00     0.227 A 
ATOM      8  C   UNL     1       1.910   5.936   8.654  1.00  0.00     0.110 A 
ATOM      9  C   UNL     1       2.144   4.712   9.306  1.00  0.00     0.156 A 
ENDROOT
BRANCH   6  10
ATOM     10  C   UNL     1       3.131   5.907  12.722  1.00  0.00     0.335 C 
ATOM     11  O   UNL     1       3.214   4.858  13.329  1.00  0.00    -0.246 OA
BRANCH  10  12
ATOM     12  O   UNL     1       3.427   7.067  13.339  1.00  0.00    -0.478 OA
ATOM     13  H   UNL     1       4.169   7.059  13.959  1.00  0.00     0.297 HD
ENDBRANCH  10  12
ENDBRANCH   6  10
BRANCH   7  14
ATOM     14  C   UNL     1       1.195   3.624   5.995  1.00  0.00     0.040 A 
ATOM     15  C   UNL     1       1.480   4.201   4.756  1.00  0.00     0.034 A 
ATOM     16  C   UNL     1       0.580   2.372   6.051  1.00  0.00     0.034 A 
ATOM     17  C   UNL     1       1.154   3.531   3.594  1.00  0.00     0.043 A 
ATOM     18  C   UNL     1       0.258   1.712   4.882  1.00  0.00     0.043 A 
ATOM     19  C   UNL     1       0.543   2.289   3.656  1.00  0.00     0.041 A 
ATOM     20  Cl  UNL     1       1.507   4.246   2.052  1.00  0.00    -0.084 Cl
ATOM     21  Cl  UNL     1      -0.507   0.155   4.949  1.00  0.00    -0.084 Cl
ENDBRANCH   7  14
TORSDOF 3
ENDMDL
MODEL 4
REMARK VINA RESULT:    -4.072      3.468      5.493
REMARK INTER + INTRA:          -4.949
REMARK INTER:                  -4.654
REMARK INTRA:                  -0.295
REMARK UNBOUND:                -0.281
REMARK SMILES O=C(O)c1ccc2nc(-c3cc(Cl)cc(Cl)c3)oc2c1
REMARK SMILES IDX 5 1 6 2 20 3 8 4 18 5 4 6 9 7 7 8 19 9 2 10 1 11 3 12 10 14
REMARK SMILES IDX 11 15 17 16 12 17 15 18 14 19 13 20 16 21
REMARK H PARENT 3 13
ROOT
ATOM      1  C   UNL     1       2.466   7.125  10.668  1.00  0.00     0.018 A 
ATOM      2  C   UNL     1       2.080   7.143   9.361  1.00  0.00     0.033 A 
ATOM      3  C   UNL     1       2.546   4.702  10.636  1.00  0.00     0.065 A 
ATOM      4  N   UNL     1       1.551   5.645   7.396  1.00  0.00    -0.209 NA
ATOM      5  O   UNL     1       1.912   3.748   8.398  1.00  0.00    -0.436 OA
ATOM      6  C   UNL     1       2.706   5.908  11.321  1.00  0.00     0.063 A 
ATOM      7  C   UNL     1       1.552   4.344   7.246  1.00  0.00     0.227 A 
ATOM      8  C   UNL     1       1.915   5.940   8.663  1.00  0.00     0.110 A 
ATOM      9  C   UNL     1       2.149   4.715   9.312  1.00  0.00     0.156 A 
ENDROOT
BRANCH   6  10
ATOM     10  C   UNL     1       3.130   5.902  12.732  1.00  0.00     0.335 C 
ATOM     11  O   UNL     1       3.161   4.857  13.352  1.00  0.00    -0.246 OA
BRANCH  10  12
ATOM     12  O   UNL     1       3.482   7.054  13.336  1.00  0.00    -0.478 OA
ATOM     13  H   UNL     1       3.023   7.856  13.053  1.00  0.00     0.297 HD
ENDBRANCH  10  12
ENDBRANCH   6  10
BRANCH   7  14
ATOM     14  C   UNL     1       1.207   3.636   5.996  1.00  0.00     0.040 A 
ATOM     15  C   UNL     1       0.592   2.384   6.046  1.00  0.00     0.034 A 
ATOM     16  C   UNL     1       1.496   4.216   4.759  1.00  0.00     0.034 A 
ATOM     17  C   UNL     1       0.271   1.728   4.874  1.00  0.00     0.043 A 
ATOM     18  C   UNL     1       1.171   3.550   3.595  1.00  0.00     0.043 A 
ATOM     19  C   UNL     1       0.561   2.309   3.651  1.00  0.00     0.041 A 
ATOM     20  Cl  UNL     1      -0.494   0.171   4.934  1.00  0.00    -0.084 Cl
ATOM     21  Cl  UNL     1       1.529   4.271   2.056  1.00  0.00    -0.084 Cl
ENDBRANCH   7  14
TORSDOF 3
ENDMDL
MODEL 5
REMARK VINA RESULT:    -4.063      5.406      6.676
REMARK INTER + INTRA:          -4.938
REMARK INTER:                  -4.655
REMARK INTRA:                  -0.283
REMARK UNBOUND:                -0.281
REMARK SMILES O=C(O)c1ccc2nc(-c3cc(Cl)cc(Cl)c3)oc2c1
REMARK SMILES IDX 5 1 6 2 20 3 8 4 18 5 4 6 9 7 7 8 19 9 2 10 1 11 3 12 10 14
REMARK SMILES IDX 11 15 17 16 12 17 15 18 14 19 13 20 16 21
REMARK H PARENT 3 13
ROOT
ATOM      1  C   UNL     1       2.469   7.565  10.503  1.00  0.00     0.018 A 
ATOM      2  C   UNL     1       2.365   6.244  10.182  1.00  0.00     0.033 A 
ATOM      3  C   UNL     1       1.647   8.187   8.308  1.00  0.00     0.065 A 
ATOM      4  N   UNL     1       1.695   4.670   8.324  1.00  0.00    -0.209 NA
ATOM      5  O   UNL     1       1.143   6.189   6.868  1.00  0.00    -0.436 OA
ATOM      6  C   UNL     1       2.110   8.551   9.574  1.00  0.00     0.063 A 
ATOM      7  C   UNL     1       1.246   4.869   7.110  1.00  0.00     0.227 A 
ATOM      8  C   UNL     1       1.901   5.865   8.917  1.00  0.00     0.110 A 
ATOM      9  C   UNL     1       1.545   6.849   7.977  1.00  0.00     0.156 A 
ENDROOT
BRANCH   6  10
ATOM     10  C   UNL     1       2.222   9.976   9.934  1.00  0.00     0.335 C 
ATOM     11  O   UNL     1       3.260  10.574   9.734  1.00  0.00    -0.246 OA
BRANCH  10  12
ATOM     12  O   UNL     1       1.172  10.616  10.487  1.00  0.00    -0.478 OA
ATOM     13  H   UNL     1       0.293  10.385  10.156  1.00  0.00     0.297 HD
ENDBRANCH  10  12
ENDBRANCH   6  10
BRANCH   7  14
ATOM     14  C   UNL     1       0.902   3.801   6.148  1.00  0.00     0.040 A 
ATOM     15  C   UNL     1       1.166   3.971   4.788  1.00  0.00     0.034 A 
ATOM     16  C   UNL     1       0.311   2.618   6.596  1.00  0.00     0.034 A 
ATOM     17  C   UNL     1       0.844   2.968   3.895  1.00  0.00     0.043 A 
ATOM     18  C   UNL     1      -0.007   1.624   5.693  1.00  0.00     0.043 A 
ATOM     19  C   UNL     1       0.258   1.798   4.346  1.00  0.00     0.041 A 
ATOM     20  Cl  UNL     1       1.173   3.177   2.203  1.00  0.00    -0.084 Cl
ATOM     21  Cl  UNL     1      -0.742   0.152   6.249  1.00  0.00    -0.084 Cl
ENDBRANCH   7  14
TORSDOF 3
ENDMDL
MODEL 6
REMARK VINA RESULT:    -4.057      5.408      6.807
REMARK INTER + INTRA:          -4.931
REMARK INTER:                  -4.648
REMARK INTRA:                  -0.283
REMARK UNBOUND:                -0.281
REMARK SMILES O=C(O)c1ccc2nc(-c3cc(Cl)cc(Cl)c3)oc2c1
REMARK SMILES IDX 5 1 6 2 20 3 8 4 18 5 4 6 9 7 7 8 19 9 2 10 1 11 3 12 10 14
REMARK SMILES IDX 11 15 17 16 12 17 15 18 14 19 13 20 16 21
REMARK H PARENT 3 13
ROOT
ATOM      1  C   UNL     1       2.470   7.563  10.502  1.00  0.00     0.018 A 
ATOM      2  C   UNL     1       2.364   6.243  10.181  1.00  0.00     0.033 A 
ATOM      3  C   UNL     1       1.651   8.187   8.307  1.00  0.00     0.065 A 
ATOM      4  N   UNL     1       1.695   4.670   8.321  1.00  0.00    -0.209 NA
ATOM      5  O   UNL     1       1.147   6.190   6.865  1.00  0.00    -0.436 OA
ATOM      6  C   UNL     1       2.114   8.550   9.573  1.00  0.00     0.063 A 
ATOM      7  C   UNL     1       1.247   4.870   7.107  1.00  0.00     0.227 A 
ATOM      8  C   UNL     1       1.902   5.865   8.915  1.00  0.00     0.110 A 
ATOM      9  C   UNL     1       1.548   6.849   7.975  1.00  0.00     0.156 A 
ENDROOT
BRANCH   6  10
ATOM     10  C   UNL     1       2.226   9.975   9.934  1.00  0.00     0.335 C 
ATOM     11  O   UNL     1       3.261  10.575   9.723  1.00  0.00    -0.246 OA
BRANCH  10  12
ATOM     12  O   UNL     1       1.181  10.612  10.498  1.00  0.00    -0.478 OA
ATOM     13  H   UNL     1       0.506  10.963   9.902  1.00  0.00     0.297 HD
ENDBRANCH  10  12
ENDBRANCH   6  10
BRANCH   7  14
ATOM     14  C   UNL     1       0.903   3.802   6.144  1.00  0.00     0.040 A 
ATOM     15  C   UNL     1       0.314   2.619   6.591  1.00  0.00     0.034 A 
ATOM     16  C   UNL     1       1.168   3.974   4.784  1.00  0.00     0.034 A 
ATOM     17  C   UNL     1      -0.005   1.626   5.686  1.00  0.00     0.043 A 
ATOM     18  C   UNL     1       0.844   2.974   3.889  1.00  0.00     0.043 A 
ATOM     19  C   UNL     1       0.260   1.802   4.339  1.00  0.00     0.041 A 
ATOM     20  Cl  UNL     1      -0.739   0.153   6.239  1.00  0.00    -0.084 Cl
ATOM     21  Cl  UNL     1       1.172   3.186   2.197  1.00  0.00    -0.084 Cl
ENDBRANCH   7  14
TORSDOF 3
ENDMDL
MODEL 7
REMARK VINA RESULT:    -4.023      5.254      9.335
REMARK INTER + INTRA:          -4.892
REMARK INTER:                  -4.604
REMARK INTRA:                  -0.288
REMARK UNBOUND:                -0.281
REMARK SMILES O=C(O)c1ccc2nc(-c3cc(Cl)cc(Cl)c3)oc2c1
REMARK SMILES IDX 5 1 6 2 20 3 8 4 18 5 4 6 9 7 7 8 19 9 2 10 1 11 3 12 10 14
REMARK SMILES IDX 11 15 17 16 12 17 15 18 14 19 13 20 16 21
REMARK H PARENT 3 13
ROOT
ATOM      1  C   UNL     1       1.031   3.320   2.554  1.00  0.00     0.018 A 
ATOM      2  C   UNL     1       1.497   4.377   3.276  1.00  0.00     0.033 A 
ATOM      3  C   UNL     1       0.486   2.134   4.597  1.00  0.00     0.065 A 
ATOM      4  N   UNL     1       1.850   5.205   5.637  1.00  0.00    -0.209 NA
ATOM      5  O   UNL     1       1.065   3.452   6.658  1.00  0.00    -0.436 OA
ATOM      6  C   UNL     1       0.519   2.188   3.202  1.00  0.00     0.063 A 
ATOM      7  C   UNL     1       1.607   4.675   6.809  1.00  0.00     0.227 A 
ATOM      8  C   UNL     1       1.470   4.336   4.675  1.00  0.00     0.110 A 
ATOM      9  C   UNL     1       0.962   3.203   5.334  1.00  0.00     0.156 A 
ENDROOT
BRANCH   6  10
ATOM     10  C   UNL     1       0.012   1.052   2.410  1.00  0.00     0.335 C 
ATOM     11  O   UNL     1       0.470  -0.060   2.582  1.00  0.00    -0.246 OA
BRANCH  10  12
ATOM     12  O   UNL     1      -0.958   1.248   1.496  1.00  0.00    -0.478 OA
ATOM     13  H   UNL     1      -1.618   1.925   1.694  1.00  0.00     0.297 HD
ENDBRANCH  10  12
ENDBRANCH   6  10
BRANCH   7  14
ATOM     14  C   UNL     1       1.887   5.324   8.107  1.00  0.00     0.040 A 
ATOM     15  C   UNL     1       2.223   4.551   9.219  1.00  0.00     0.034 A 
ATOM     16  C   UNL     1       1.817   6.714   8.224  1.00  0.00     0.034 A 
ATOM     17  C   UNL     1       2.485   5.164  10.429  1.00  0.00     0.043 A 
ATOM     18  C   UNL     1       2.081   7.315   9.439  1.00  0.00     0.043 A 
ATOM     19  C   UNL     1       2.413   6.543  10.539  1.00  0.00     0.041 A 
ATOM     20  Cl  UNL     1       2.903   4.205  11.814  1.00  0.00    -0.084 Cl
ATOM     21  Cl  UNL     1       1.994   9.043   9.587  1.00  0.00    -0.084 Cl
ENDBRANCH   7  14
TORSDOF 3
ENDMDL
MODEL 8
REMARK VINA RESULT:    -4.017      5.268      9.171
REMARK INTER + INTRA:          -4.885
REMARK INTER:                  -4.597
REMARK INTRA:                  -0.287
REMARK UNBOUND:                -0.281
REMARK SMILES O=C(O)c1ccc2nc(-c3cc(Cl)cc(Cl)c3)oc2c1
REMARK SMILES IDX 5 1 6 2 20 3 8 4 18 5 4 6 9 7 7 8 19 9 2 10 1 11 3 12 10 14
REMARK SMILES IDX 11 15 17 16 12 17 15 18 14 19 13 20 16 21
REMARK H PARENT 3 13
ROOT
ATOM      1  C   UNL     1       1.061   3.302   2.534  1.00  0.00     0.018 A 
ATOM      2  C   UNL     1       1.536   4.355   3.257  1.00  0.00     0.033 A 
ATOM      3  C   UNL     1       0.471   2.136   4.576  1.00  0.00     0.065 A 
ATOM      4  N   UNL     1       1.875   5.189   5.617  1.00  0.00    -0.209 NA
ATOM      5  O   UNL     1       1.048   3.454   6.638  1.00  0.00    -0.436 OA
ATOM      6  C   UNL     1       0.522   2.182   3.182  1.00  0.00     0.063 A 
ATOM      7  C   UNL     1       1.609   4.669   6.790  1.00  0.00     0.227 A 
ATOM      8  C   UNL     1       1.491   4.322   4.656  1.00  0.00     0.110 A 
ATOM      9  C   UNL     1       0.957   3.200   5.313  1.00  0.00     0.156 A 
ENDROOT
BRANCH   6  10
ATOM     10  C   UNL     1       0.006   1.052   2.389  1.00  0.00     0.335 C 
ATOM     11  O   UNL     1       0.467  -0.061   2.546  1.00  0.00    -0.246 OA
BRANCH  10  12
ATOM     12  O   UNL     1      -0.978   1.252   1.490  1.00  0.00    -0.478 OA
ATOM     13  H   UNL     1      -0.988   0.675   0.715  1.00  0.00     0.297 HD
ENDBRANCH  10  12
ENDBRANCH   6  10
BRANCH   7  14
ATOM     14  C   UNL     1       1.885   5.319   8.087  1.00  0.00     0.040 A 
ATOM     15  C   UNL     1       1.821   6.708   8.203  1.00  0.00     0.034 A 
ATOM     16  C   UNL     1       2.212   4.546   9.203  1.00  0.00     0.034 A 
ATOM     17  C   UNL     1       2.079   7.310   9.418  1.00  0.00     0.043 A 
ATOM     18  C   UNL     1       2.468   5.159  10.413  1.00  0.00     0.043 A 
ATOM     19  C   UNL     1       2.403   6.538  10.521  1.00  0.00     0.041 A 
ATOM     20  Cl  UNL     1       1.999   9.038   9.565  1.00  0.00    -0.084 Cl
ATOM     21  Cl  UNL     1       2.875   4.200  11.802  1.00  0.00    -0.084 Cl
ENDBRANCH   7  14
TORSDOF 3
ENDMDL
MODEL 9
REMARK VINA RESULT:    -3.678      6.659      7.575
REMARK INTER + INTRA:          -4.496
REMARK INTER:                  -4.219
REMARK INTRA:                  -0.278
REMARK UNBOUND:                -0.281
REMARK SMILES O=C(O)c1ccc2nc(-c3cc(Cl)cc(Cl)c3)oc2c1
REMARK SMILES IDX 5 1 6 2 20 3 8 4 18 5 4 6 9 7 7 8 19 9 2 10 1 11 3 12 10 14
REMARK SMILES IDX 11 15 17 16 12 17 15 18 14 19 13 20 16 21
REMARK H PARENT 3 13
ROOT
ATOM      1  C   UNL     1       6.062  11.620  15.451  1.00  0.00     0.018 A 
ATOM      2  C   UNL     1       5.003  10.911  14.968  1.00  0.00     0.033 A 
ATOM      3  C   UNL     1       5.708  13.337  13.776  1.00  0.00     0.065 A 
ATOM      4  N   UNL     1       3.206  10.934  13.192  1.00  0.00    -0.209 NA
ATOM      5  O   UNL     1       3.765  12.822  12.266  1.00  0.00    -0.436 OA
ATOM      6  C   UNL     1       6.426  12.840  14.865  1.00  0.00     0.063 A 
ATOM      7  C   UNL     1       2.909  11.782  12.240  1.00  0.00     0.227 A 
ATOM      8  C   UNL     1       4.274  11.398  13.876  1.00  0.00     0.110 A 
ATOM      9  C   UNL     1       4.637  12.618  13.279  1.00  0.00     0.156 A 
ENDROOT
BRANCH   6  10
ATOM     10  C   UNL     1       7.569  13.601  15.401  1.00  0.00     0.335 C 
ATOM     11  O   UNL     1       7.483  14.145  16.484  1.00  0.00    -0.246 OA
BRANCH  10  12
ATOM     12  O   UNL     1       8.710  13.696  14.689  1.00  0.00    -0.478 OA
ATOM     13  H   UNL     1       8.854  13.032  14.001  1.00  0.00     0.297 HD
ENDBRANCH  10  12
ENDBRANCH   6  10
BRANCH   7  14
ATOM     14  C   UNL     1       1.799  11.622  11.278  1.00  0.00     0.040 A 
ATOM     15  C   UNL     1       0.630  12.368  11.426  1.00  0.00     0.034 A 
ATOM     16  C   UNL     1       1.916  10.721  10.217  1.00  0.00     0.034 A 
ATOM     17  C   UNL     1      -0.404  12.215  10.523  1.00  0.00     0.043 A 
ATOM     18  C   UNL     1       0.876  10.576   9.321  1.00  0.00     0.043 A 
ATOM     19  C   UNL     1      -0.282  11.320   9.474  1.00  0.00     0.041 A 
ATOM     20  Cl  UNL     1      -1.859  13.143  10.705  1.00  0.00    -0.084 Cl
ATOM     21  Cl  UNL     1       1.019   9.457   8.002  1.00  0.00    -0.084 Cl
ENDBRANCH   7  14
TORSDOF 3
ENDMDL
