MODEL 1
REMARK VINA RESULT:    -3.700      0.000      0.000
REMARK INTER + INTRA:          -4.538
REMARK INTER:                  -4.241
REMARK INTRA:                  -0.296
REMARK UNBOUND:                -0.296
REMARK SMILES O=C(O)c1ccc2nc(-c3cc(Cl)cc(Cl)c3)oc2c1
REMARK SMILES IDX 5 1 6 2 20 3 8 4 18 5 4 6 9 7 7 8 19 9 2 10 1 11 3 12 10 14
REMARK SMILES IDX 11 15 17 16 12 17 15 18 14 19 13 20 16 21
REMARK H PARENT 3 13
ROOT
ATOM      1  C   UNL     1      11.287  -4.837   7.387  1.00  0.00     0.018 A 
ATOM      2  C   UNL     1      10.854  -4.686   6.104  1.00  0.00     0.033 A 
ATOM      3  C   UNL     1       9.229  -3.863   8.221  1.00  0.00     0.065 A 
ATOM      4  N   UNL     1       8.916  -3.847   4.717  1.00  0.00    -0.209 NA
ATOM      5  O   UNL     1       7.659  -3.204   6.372  1.00  0.00    -0.436 OA
ATOM      6  C   UNL     1      10.482  -4.430   8.460  1.00  0.00     0.063 A 
ATOM      7  C   UNL     1       7.766  -3.305   5.034  1.00  0.00     0.227 A 
ATOM      8  C   UNL     1       9.599  -4.119   5.850  1.00  0.00     0.110 A 
ATOM      9  C   UNL     1       8.788  -3.704   6.920  1.00  0.00     0.156 A 
ENDROOT
BRANCH   6  10
ATOM     10  C   UNL     1      10.959  -4.604   9.844  1.00  0.00     0.335 C 
ATOM     11  O   UNL     1      10.250  -4.279  10.776  1.00  0.00    -0.246 OA
BRANCH  10  12
ATOM     12  O   UNL     1      12.182  -5.121  10.076  1.00  0.00    -0.478 OA
ATOM     13  H   UNL     1      12.845  -5.008   9.383  1.00  0.00     0.297 HD
ENDBRANCH  10  12
ENDBRANCH   6  10
BRANCH   7  14
ATOM     14  C   UNL     1       6.740  -2.870   4.065  1.00  0.00     0.040 A 
ATOM     15  C   UNL     1       6.673  -3.459   2.801  1.00  0.00     0.034 A 
ATOM     16  C   UNL     1       5.832  -1.866   4.409  1.00  0.00     0.034 A 
ATOM     17  C   UNL     1       5.711  -3.048   1.900  1.00  0.00     0.043 A 
ATOM     18  C   UNL     1       4.875  -1.463   3.500  1.00  0.00     0.043 A 
ATOM     19  C   UNL     1       4.814  -2.052   2.248  1.00  0.00     0.041 A 
ATOM     20  Cl  UNL     1       5.626  -3.779   0.329  1.00  0.00    -0.084 Cl
ATOM     21  Cl  UNL     1       3.745  -0.215   3.926  1.00  0.00    -0.084 Cl
ENDBRANCH   7  14
TORSDOF 3
ENDMDL
MODEL 2
REMARK VINA RESULT:    -3.690      0.010      2.019
REMARK INTER + INTRA:          -4.526
REMARK INTER:                  -4.230
REMARK INTRA:                  -0.296
REMARK UNBOUND:                -0.296
REMARK SMILES O=C(O)c1ccc2nc(-c3cc(Cl)cc(Cl)c3)oc2c1
REMARK SMILES IDX 5 1 6 2 20 3 8 4 18 5 4 6 9 7 7 8 19 9 2 10 1 11 3 12 10 14
REMARK SMILES IDX 11 15 17 16 12 17 15 18 14 19 13 20 16 21
REMARK H PARENT 3 13
ROOT
ATOM      1  C   UNL     1      11.290  -4.834   7.393  1.00  0.00     0.018 A 
ATOM      2  C   UNL     1      10.859  -4.682   6.110  1.00  0.00     0.033 A 
ATOM      3  C   UNL     1       9.227  -3.870   8.226  1.00  0.00     0.065 A 
ATOM      4  N   UNL     1       8.920  -3.847   4.721  1.00  0.00    -0.209 NA
ATOM      5  O   UNL     1       7.657  -3.213   6.375  1.00  0.00    -0.436 OA
ATOM      6  C   UNL     1      10.481  -4.433   8.466  1.00  0.00     0.063 A 
ATOM      7  C   UNL     1       7.768  -3.311   5.037  1.00  0.00     0.227 A 
ATOM      8  C   UNL     1       9.603  -4.119   5.854  1.00  0.00     0.110 A 
ATOM      9  C   UNL     1       8.787  -3.710   6.924  1.00  0.00     0.156 A 
ENDROOT
BRANCH   6  10
ATOM     10  C   UNL     1      10.956  -4.608   9.850  1.00  0.00     0.335 C 
ATOM     11  O   UNL     1      10.246  -4.284  10.781  1.00  0.00    -0.246 OA
BRANCH  10  12
ATOM     12  O   UNL     1      12.178  -5.126  10.084  1.00  0.00    -0.478 OA
ATOM     13  H   UNL     1      12.631  -4.838  10.888  1.00  0.00     0.297 HD
ENDBRANCH  10  12
ENDBRANCH   6  10
BRANCH   7  14
ATOM     14  C   UNL     1       6.741  -2.877   4.066  1.00  0.00     0.040 A 
ATOM     15  C   UNL     1       5.833  -1.875   4.408  1.00  0.00     0.034 A 
ATOM     16  C   UNL     1       6.676  -3.470   2.804  1.00  0.00     0.034 A 
ATOM     17  C   UNL     1       4.877  -1.473   3.496  1.00  0.00     0.043 A 
ATOM     18  C   UNL     1       5.716  -3.060   1.901  1.00  0.00     0.043 A 
ATOM     19  C   UNL     1       4.818  -2.065   2.246  1.00  0.00     0.041 A 
ATOM     20  Cl  UNL     1       3.746  -0.225   3.918  1.00  0.00    -0.084 Cl
ATOM     21  Cl  UNL     1       5.634  -3.795   0.330  1.00  0.00    -0.084 Cl
ENDBRANCH   7  14
TORSDOF 3
ENDMDL
MODEL 3
REMARK VINA RESULT:    -3.657      1.825      3.221
REMARK INTER + INTRA:          -4.487
REMARK INTER:                  -4.191
REMARK INTRA:                  -0.296
REMARK UNBOUND:                -0.296
REMARK SMILES O=C(O)c1ccc2nc(-c3cc(Cl)cc(Cl)c3)oc2c1
REMARK SMILES IDX 5 1 6 2 20 3 8 4 18 5 4 6 9 7 7 8 19 9 2 10 1 11 3 12 10 14
REMARK SMILES IDX 11 15 17 16 12 17 15 18 14 19 13 20 16 21
REMARK H PARENT 3 13
ROOT
ATOM      1  C   UNL     1      11.314  -4.909   7.341  1.00  0.00     0.018 A 
ATOM      2  C   UNL     1      10.100  -4.289   7.363  1.00  0.00     0.033 A 
ATOM      3  C   UNL     1      11.304  -4.892   4.916  1.00  0.00     0.065 A 
ATOM      4  N   UNL     1       8.286  -3.359   5.872  1.00  0.00    -0.209 NA
ATOM      5  O   UNL     1       9.228  -3.837   3.970  1.00  0.00    -0.436 OA
ATOM      6  C   UNL     1      11.932  -5.216   6.121  1.00  0.00     0.063 A 
ATOM      7  C   UNL     1       8.155  -3.289   4.570  1.00  0.00     0.227 A 
ATOM      8  C   UNL     1       9.460  -3.959   6.163  1.00  0.00     0.110 A 
ATOM      9  C   UNL     1      10.071  -4.268   4.934  1.00  0.00     0.156 A 
ENDROOT
BRANCH   6  10
ATOM     10  C   UNL     1      13.247  -5.880   6.109  1.00  0.00     0.335 C 
ATOM     11  O   UNL     1      13.773  -6.169   5.053  1.00  0.00    -0.246 OA
BRANCH  10  12
ATOM     12  O   UNL     1      13.867  -6.169   7.271  1.00  0.00    -0.478 OA
ATOM     13  H   UNL     1      13.683  -7.033   7.663  1.00  0.00     0.297 HD
ENDBRANCH  10  12
ENDBRANCH   6  10
BRANCH   7  14
ATOM     14  C   UNL     1       6.998  -2.697   3.866  1.00  0.00     0.040 A 
ATOM     15  C   UNL     1       6.228  -1.713   4.487  1.00  0.00     0.034 A 
ATOM     16  C   UNL     1       6.672  -3.122   2.576  1.00  0.00     0.034 A 
ATOM     17  C   UNL     1       5.149  -1.164   3.823  1.00  0.00     0.043 A 
ATOM     18  C   UNL     1       5.591  -2.564   1.923  1.00  0.00     0.043 A 
ATOM     19  C   UNL     1       4.831  -1.589   2.544  1.00  0.00     0.041 A 
ATOM     20  Cl  UNL     1       4.190   0.061   4.592  1.00  0.00    -0.084 Cl
ATOM     21  Cl  UNL     1       5.183  -3.090   0.319  1.00  0.00    -0.084 Cl
ENDBRANCH   7  14
TORSDOF 3
ENDMDL
MODEL 4
REMARK VINA RESULT:    -3.652      1.843      2.546
REMARK INTER + INTRA:          -4.482
REMARK INTER:                  -4.186
REMARK INTRA:                  -0.296
REMARK UNBOUND:                -0.296
REMARK SMILES O=C(O)c1ccc2nc(-c3cc(Cl)cc(Cl)c3)oc2c1
REMARK SMILES IDX 5 1 6 2 20 3 8 4 18 5 4 6 9 7 7 8 19 9 2 10 1 11 3 12 10 14
REMARK SMILES IDX 11 15 17 16 12 17 15 18 14 19 13 20 16 21
REMARK H PARENT 3 13
ROOT
ATOM      1  C   UNL     1      11.321  -4.925   7.313  1.00  0.00     0.018 A 
ATOM      2  C   UNL     1      10.104  -4.312   7.342  1.00  0.00     0.033 A 
ATOM      3  C   UNL     1      11.316  -4.872   4.889  1.00  0.00     0.065 A 
ATOM      4  N   UNL     1       8.288  -3.368   5.861  1.00  0.00    -0.209 NA
ATOM      5  O   UNL     1       9.237  -3.812   3.954  1.00  0.00    -0.436 OA
ATOM      6  C   UNL     1      11.942  -5.211   6.089  1.00  0.00     0.063 A 
ATOM      7  C   UNL     1       8.159  -3.279   4.560  1.00  0.00     0.227 A 
ATOM      8  C   UNL     1       9.465  -3.967   6.145  1.00  0.00     0.110 A 
ATOM      9  C   UNL     1      10.079  -4.254   4.914  1.00  0.00     0.156 A 
ENDROOT
BRANCH   6  10
ATOM     10  C   UNL     1      13.261  -5.869   6.071  1.00  0.00     0.335 C 
ATOM     11  O   UNL     1      13.763  -6.192   5.013  1.00  0.00    -0.246 OA
BRANCH  10  12
ATOM     12  O   UNL     1      13.910  -6.112   7.227  1.00  0.00    -0.478 OA
ATOM     13  H   UNL     1      14.871  -6.006   7.222  1.00  0.00     0.297 HD
ENDBRANCH  10  12
ENDBRANCH   6  10
BRANCH   7  14
ATOM     14  C   UNL     1       7.002  -2.682   3.863  1.00  0.00     0.040 A 
ATOM     15  C   UNL     1       6.659  -3.110   2.579  1.00  0.00     0.034 A 
ATOM     16  C   UNL     1       6.246  -1.686   4.485  1.00  0.00     0.034 A 
ATOM     17  C   UNL     1       5.576  -2.549   1.933  1.00  0.00     0.043 A 
ATOM     18  C   UNL     1       5.165  -1.133   3.829  1.00  0.00     0.043 A 
ATOM     19  C   UNL     1       4.831  -1.562   2.556  1.00  0.00     0.041 A 
ATOM     20  Cl  UNL     1       5.147  -3.080   0.337  1.00  0.00    -0.084 Cl
ATOM     21  Cl  UNL     1       4.224   0.106   4.601  1.00  0.00    -0.084 Cl
ENDBRANCH   7  14
TORSDOF 3
ENDMDL
MODEL 5
REMARK VINA RESULT:    -3.357      4.287      7.653
REMARK INTER + INTRA:          -4.144
REMARK INTER:                  -3.858
REMARK INTRA:                  -0.287
REMARK UNBOUND:                -0.296
REMARK SMILES O=C(O)c1ccc2nc(-c3cc(Cl)cc(Cl)c3)oc2c1
REMARK SMILES IDX 5 1 6 2 20 3 8 4 18 5 4 6 9 7 7 8 19 9 2 10 1 11 3 12 10 14
REMARK SMILES IDX 11 15 17 16 12 17 15 18 14 19 13 20 16 21
REMARK H PARENT 3 13
ROOT
ATOM      1  C   UNL     1       7.794  -1.817   3.853  1.00  0.00     0.018 A 
ATOM      2  C   UNL     1       8.360  -1.554   5.065  1.00  0.00     0.033 A 
ATOM      3  C   UNL     1       7.721  -4.184   4.376  1.00  0.00     0.065 A 
ATOM      4  N   UNL     1       9.159  -2.650   7.196  1.00  0.00    -0.209 NA
ATOM      5  O   UNL     1       8.662  -4.697   6.650  1.00  0.00    -0.436 OA
ATOM      6  C   UNL     1       7.466  -3.132   3.494  1.00  0.00     0.063 A 
ATOM      7  C   UNL     1       9.180  -3.896   7.600  1.00  0.00     0.227 A 
ATOM      8  C   UNL     1       8.621  -2.600   5.958  1.00  0.00     0.110 A 
ATOM      9  C   UNL     1       8.299  -3.922   5.604  1.00  0.00     0.156 A 
ENDROOT
BRANCH   6  10
ATOM     10  C   UNL     1       6.848  -3.404   2.184  1.00  0.00     0.335 C 
ATOM     11  O   UNL     1       6.986  -2.614   1.272  1.00  0.00    -0.246 OA
BRANCH  10  12
ATOM     12  O   UNL     1       6.130  -4.529   1.997  1.00  0.00    -0.478 OA
ATOM     13  H   UNL     1       5.209  -4.516   2.291  1.00  0.00     0.297 HD
ENDBRANCH  10  12
ENDBRANCH   6  10
BRANCH   7  14
ATOM     14  C   UNL     1       9.697  -4.354   8.907  1.00  0.00     0.040 A 
ATOM     15  C   UNL     1      11.066  -4.310   9.173  1.00  0.00     0.034 A 
ATOM     16  C   UNL     1       8.817  -4.833   9.879  1.00  0.00     0.034 A 
ATOM     17  C   UNL     1      11.542  -4.738  10.397  1.00  0.00     0.043 A 
ATOM     18  C   UNL     1       9.305  -5.259  11.098  1.00  0.00     0.043 A 
ATOM     19  C   UNL     1      10.664  -5.213  11.356  1.00  0.00     0.041 A 
ATOM     20  Cl  UNL     1      13.245  -4.684  10.731  1.00  0.00    -0.084 Cl
ATOM     21  Cl  UNL     1       8.213  -5.855  12.309  1.00  0.00    -0.084 Cl
ENDBRANCH   7  14
TORSDOF 3
ENDMDL
MODEL 6
REMARK VINA RESULT:    -3.337      4.302      7.765
REMARK INTER + INTRA:          -4.121
REMARK INTER:                  -3.835
REMARK INTRA:                  -0.286
REMARK UNBOUND:                -0.296
REMARK SMILES O=C(O)c1ccc2nc(-c3cc(Cl)cc(Cl)c3)oc2c1
REMARK SMILES IDX 5 1 6 2 20 3 8 4 18 5 4 6 9 7 7 8 19 9 2 10 1 11 3 12 10 14
REMARK SMILES IDX 11 15 17 16 12 17 15 18 14 19 13 20 16 21
REMARK H PARENT 3 13
ROOT
ATOM      1  C   UNL     1       7.802  -1.838   3.902  1.00  0.00     0.018 A 
ATOM      2  C   UNL     1       8.355  -1.571   5.119  1.00  0.00     0.033 A 
ATOM      3  C   UNL     1       7.766  -4.208   4.411  1.00  0.00     0.065 A 
ATOM      4  N   UNL     1       9.159  -2.666   7.250  1.00  0.00    -0.209 NA
ATOM      5  O   UNL     1       8.701  -4.718   6.688  1.00  0.00    -0.436 OA
ATOM      6  C   UNL     1       7.499  -3.156   3.534  1.00  0.00     0.063 A 
ATOM      7  C   UNL     1       9.198  -3.914   7.647  1.00  0.00     0.227 A 
ATOM      8  C   UNL     1       8.628  -2.618   6.009  1.00  0.00     0.110 A 
ATOM      9  C   UNL     1       8.332  -3.943   5.644  1.00  0.00     0.156 A 
ENDROOT
BRANCH   6  10
ATOM     10  C   UNL     1       6.895  -3.431   2.217  1.00  0.00     0.335 C 
ATOM     11  O   UNL     1       7.077  -2.663   1.294  1.00  0.00    -0.246 OA
BRANCH  10  12
ATOM     12  O   UNL     1       6.141  -4.533   2.039  1.00  0.00    -0.478 OA
ATOM     13  H   UNL     1       5.305  -4.577   2.523  1.00  0.00     0.297 HD
ENDBRANCH  10  12
ENDBRANCH   6  10
BRANCH   7  14
ATOM     14  C   UNL     1       9.714  -4.370   8.954  1.00  0.00     0.040 A 
ATOM     15  C   UNL     1       8.835  -4.843   9.929  1.00  0.00     0.034 A 
ATOM     16  C   UNL     1      11.085  -4.329   9.219  1.00  0.00     0.034 A 
ATOM     17  C   UNL     1       9.323  -5.269  11.148  1.00  0.00     0.043 A 
ATOM     18  C   UNL     1      11.561  -4.758  10.442  1.00  0.00     0.043 A 
ATOM     19  C   UNL     1      10.683  -5.226  11.405  1.00  0.00     0.041 A 
ATOM     20  Cl  UNL     1       8.231  -5.857  12.362  1.00  0.00    -0.084 Cl
ATOM     21  Cl  UNL     1      13.265  -4.708  10.773  1.00  0.00    -0.084 Cl
ENDBRANCH   7  14
TORSDOF 3
ENDMDL
MODEL 7
REMARK VINA RESULT:    -3.328      3.749      7.413
REMARK INTER + INTRA:          -4.111
REMARK INTER:                  -3.813
REMARK INTRA:                  -0.298
REMARK UNBOUND:                -0.296
REMARK SMILES O=C(O)c1ccc2nc(-c3cc(Cl)cc(Cl)c3)oc2c1
REMARK SMILES IDX 5 1 6 2 20 3 8 4 18 5 4 6 9 7 7 8 19 9 2 10 1 11 3 12 10 14
REMARK SMILES IDX 11 15 17 16 12 17 15 18 14 19 13 20 16 21
REMARK H PARENT 3 13
ROOT
ATOM      1  C   UNL     1       5.498  -2.400   1.678  1.00  0.00     0.018 A 
ATOM      2  C   UNL     1       6.682  -3.048   1.863  1.00  0.00     0.033 A 
ATOM      3  C   UNL     1       5.345  -1.949   4.055  1.00  0.00     0.065 A 
ATOM      4  N   UNL     1       8.349  -3.729   3.635  1.00  0.00    -0.209 NA
ATOM      5  O   UNL     1       7.299  -2.875   5.338  1.00  0.00    -0.436 OA
ATOM      6  C   UNL     1       4.815  -1.842   2.768  1.00  0.00     0.063 A 
ATOM      7  C   UNL     1       8.388  -3.555   4.932  1.00  0.00     0.227 A 
ATOM      8  C   UNL     1       7.225  -3.162   3.149  1.00  0.00     0.110 A 
ATOM      9  C   UNL     1       6.544  -2.609   4.248  1.00  0.00     0.156 A 
ENDROOT
BRANCH   6  10
ATOM     10  C   UNL     1       3.538  -1.139   2.554  1.00  0.00     0.335 C 
ATOM     11  O   UNL     1       3.034  -1.118   1.449  1.00  0.00    -0.246 OA
BRANCH  10  12
ATOM     12  O   UNL     1       2.928  -0.519   3.584  1.00  0.00    -0.478 OA
ATOM     13  H   UNL     1       3.471   0.069   4.126  1.00  0.00     0.297 HD
ENDBRANCH  10  12
ENDBRANCH   6  10
BRANCH   7  14
ATOM     14  C   UNL     1       9.467  -4.036   5.820  1.00  0.00     0.040 A 
ATOM     15  C   UNL     1      10.641  -4.558   5.277  1.00  0.00     0.034 A 
ATOM     16  C   UNL     1       9.314  -3.970   7.207  1.00  0.00     0.034 A 
ATOM     17  C   UNL     1      11.646  -5.005   6.112  1.00  0.00     0.043 A 
ATOM     18  C   UNL     1      10.326  -4.420   8.031  1.00  0.00     0.043 A 
ATOM     19  C   UNL     1      11.489  -4.937   7.486  1.00  0.00     0.041 A 
ATOM     20  Cl  UNL     1      13.108  -5.654   5.438  1.00  0.00    -0.084 Cl
ATOM     21  Cl  UNL     1      10.139  -4.339   9.755  1.00  0.00    -0.084 Cl
ENDBRANCH   7  14
TORSDOF 3
ENDMDL
MODEL 8
REMARK VINA RESULT:    -3.298      3.749      7.646
REMARK INTER + INTRA:          -4.076
REMARK INTER:                  -3.778
REMARK INTRA:                  -0.298
REMARK UNBOUND:                -0.296
REMARK SMILES O=C(O)c1ccc2nc(-c3cc(Cl)cc(Cl)c3)oc2c1
REMARK SMILES IDX 5 1 6 2 20 3 8 4 18 5 4 6 9 7 7 8 19 9 2 10 1 11 3 12 10 14
REMARK SMILES IDX 11 15 17 16 12 17 15 18 14 19 13 20 16 21
REMARK H PARENT 3 13
ROOT
ATOM      1  C   UNL     1       5.520  -2.328   1.707  1.00  0.00     0.018 A 
ATOM      2  C   UNL     1       6.714  -2.960   1.880  1.00  0.00     0.033 A 
ATOM      3  C   UNL     1       5.344  -1.955   4.097  1.00  0.00     0.065 A 
ATOM      4  N   UNL     1       8.381  -3.671   3.640  1.00  0.00    -0.209 NA
ATOM      5  O   UNL     1       7.306  -2.890   5.362  1.00  0.00    -0.436 OA
ATOM      6  C   UNL     1       4.822  -1.816   2.810  1.00  0.00     0.063 A 
ATOM      7  C   UNL     1       8.408  -3.539   4.943  1.00  0.00     0.227 A 
ATOM      8  C   UNL     1       7.250  -3.107   3.165  1.00  0.00     0.110 A 
ATOM      9  C   UNL     1       6.554  -2.601   4.277  1.00  0.00     0.156 A 
ENDROOT
BRANCH   6  10
ATOM     10  C   UNL     1       3.533  -1.128   2.610  1.00  0.00     0.335 C 
ATOM     11  O   UNL     1       3.000  -1.143   1.519  1.00  0.00    -0.246 OA
BRANCH  10  12
ATOM     12  O   UNL     1       2.948  -0.481   3.637  1.00  0.00    -0.478 OA
ATOM     13  H   UNL     1       2.768   0.461   3.518  1.00  0.00     0.297 HD
ENDBRANCH  10  12
ENDBRANCH   6  10
BRANCH   7  14
ATOM     14  C   UNL     1       9.490  -4.030   5.822  1.00  0.00     0.040 A 
ATOM     15  C   UNL     1       9.345  -3.976   7.209  1.00  0.00     0.034 A 
ATOM     16  C   UNL     1      10.661  -4.549   5.267  1.00  0.00     0.034 A 
ATOM     17  C   UNL     1      10.359  -4.437   8.025  1.00  0.00     0.043 A 
ATOM     18  C   UNL     1      11.668  -5.007   6.094  1.00  0.00     0.043 A 
ATOM     19  C   UNL     1      11.518  -4.951   7.469  1.00  0.00     0.041 A 
ATOM     20  Cl  UNL     1      10.180  -4.372   9.750  1.00  0.00    -0.084 Cl
ATOM     21  Cl  UNL     1      13.126  -5.653   5.406  1.00  0.00    -0.084 Cl
ENDBRANCH   7  14
TORSDOF 3
ENDMDL
MODEL 9
REMARK VINA RESULT:    -3.206      3.348      4.997
REMARK INTER + INTRA:          -3.971
REMARK INTER:                  -3.687
REMARK INTRA:                  -0.284
REMARK UNBOUND:                -0.296
REMARK SMILES O=C(O)c1ccc2nc(-c3cc(Cl)cc(Cl)c3)oc2c1
REMARK SMILES IDX 5 1 6 2 20 3 8 4 18 5 4 6 9 7 7 8 19 9 2 10 1 11 3 12 10 14
REMARK SMILES IDX 11 15 17 16 12 17 15 18 14 19 13 20 16 21
REMARK H PARENT 3 13
ROOT
ATOM      1  C   UNL     1      10.693  -5.592  12.812  1.00  0.00     0.018 A 
ATOM      2  C   UNL     1      11.301  -5.142  11.678  1.00  0.00     0.033 A 
ATOM      3  C   UNL     1       8.576  -5.757  11.640  1.00  0.00     0.065 A 
ATOM      4  N   UNL     1      10.874  -4.573   9.254  1.00  0.00    -0.209 NA
ATOM      5  O   UNL     1       8.751  -5.050   9.234  1.00  0.00    -0.436 OA
ATOM      6  C   UNL     1       9.327  -5.907  12.808  1.00  0.00     0.063 A 
ATOM      7  C   UNL     1       9.798  -4.613   8.508  1.00  0.00     0.227 A 
ATOM      8  C   UNL     1      10.560  -4.987  10.500  1.00  0.00     0.110 A 
ATOM      9  C   UNL     1       9.188  -5.296  10.489  1.00  0.00     0.156 A 
ENDROOT
BRANCH   6  10
ATOM     10  C   UNL     1       8.682  -6.398  14.038  1.00  0.00     0.335 C 
ATOM     11  O   UNL     1       7.849  -5.717  14.601  1.00  0.00    -0.246 OA
BRANCH  10  12
ATOM     12  O   UNL     1       9.017  -7.604  14.540  1.00  0.00    -0.478 OA
ATOM     13  H   UNL     1       9.511  -7.611  15.371  1.00  0.00     0.297 HD
ENDBRANCH  10  12
ENDBRANCH   6  10
BRANCH   7  14
ATOM     14  C   UNL     1       9.741  -4.234   7.081  1.00  0.00     0.040 A 
ATOM     15  C   UNL     1      10.760  -4.624   6.211  1.00  0.00     0.034 A 
ATOM     16  C   UNL     1       8.668  -3.482   6.598  1.00  0.00     0.034 A 
ATOM     17  C   UNL     1      10.701  -4.267   4.878  1.00  0.00     0.043 A 
ATOM     18  C   UNL     1       8.621  -3.131   5.264  1.00  0.00     0.043 A 
ATOM     19  C   UNL     1       9.634  -3.521   4.406  1.00  0.00     0.041 A 
ATOM     20  Cl  UNL     1      11.966  -4.753   3.794  1.00  0.00    -0.084 Cl
ATOM     21  Cl  UNL     1       7.287  -2.196   4.661  1.00  0.00    -0.084 Cl
ENDBRANCH   7  14
TORSDOF 3
ENDMDL
