MODEL 1
REMARK VINA RESULT:    -5.364      0.000      0.000
REMARK INTER + INTRA:          -7.876
REMARK INTER:                  -7.402
REMARK INTRA:                  -0.473
REMARK UNBOUND:                -0.473
REMARK SMILES Cc1n[nH]c(C)c1CCCOc1cc(C(=O)O)ccc1F
REMARK SMILES IDX 11 1 12 2 14 3 18 4 13 5 19 6 20 7 21 8 15 9 16 10 17 11
REMARK SMILES IDX 10 13 9 14 8 15 7 16 5 17 2 18 4 19 3 20 6 21 1 22
REMARK H PARENT 17 12 4 23
ROOT
ATOM      1  O   UNL     1       5.931  -4.950   4.166  1.00  0.00    -0.490 OA
ENDROOT
BRANCH   1   2
ATOM      2  C   UNL     1       5.594  -3.763   3.595  1.00  0.00     0.155 A 
ATOM      3  C   UNL     1       5.023  -1.436   3.798  1.00  0.00     0.063 A 
ATOM      4  C   UNL     1       4.919  -1.344   2.407  1.00  0.00     0.019 A 
ATOM      5  C   UNL     1       5.363  -2.655   4.388  1.00  0.00     0.065 A 
ATOM      6  C   UNL     1       5.158  -2.454   1.624  1.00  0.00     0.044 A 
ATOM      7  C   UNL     1       5.499  -3.660   2.211  1.00  0.00     0.165 A 
ATOM      8  F   UNL     1       5.732  -4.744   1.438  1.00  0.00    -0.203 F 
BRANCH   3   9
ATOM      9  C   UNL     1       4.769  -0.250   4.639  1.00  0.00     0.335 C 
ATOM     10  O   UNL     1       4.483  -0.387   5.811  1.00  0.00    -0.246 OA
BRANCH   9  11
ATOM     11  O   UNL     1       4.861   0.985   4.108  1.00  0.00    -0.478 OA
ATOM     12  H   UNL     1       5.467   1.604   4.538  1.00  0.00     0.297 HD
ENDBRANCH   9  11
ENDBRANCH   3   9
ENDBRANCH   1   2
BRANCH   1  13
ATOM     13  C   UNL     1       7.214  -5.488   3.838  1.00  0.00     0.230 C 
BRANCH  13  14
ATOM     14  C   UNL     1       8.073  -5.564   5.102  1.00  0.00     0.046 C 
BRANCH  14  15
ATOM     15  C   UNL     1       8.886  -4.275   5.245  1.00  0.00     0.043 C 
BRANCH  15  16
ATOM     16  C   UNL     1      10.068  -4.523   6.145  1.00  0.00    -0.004 A 
ATOM     17  C   UNL     1      10.079  -4.407   7.494  1.00  0.00     0.036 A 
ATOM     18  C   UNL     1      11.345  -4.920   5.736  1.00  0.00     0.063 A 
ATOM     19  N   UNL     1      11.322  -4.713   7.922  1.00  0.00    -0.282 N 
ATOM     20  N   UNL     1      12.100  -5.028   6.800  1.00  0.00    -0.181 NA
ATOM     21  C   UNL     1       8.914  -4.008   8.361  1.00  0.00     0.066 C 
ATOM     22  C   UNL     1      11.781  -5.169   4.315  1.00  0.00     0.069 C 
ATOM     23  H   UNL     1      11.624  -4.715   8.843  1.00  0.00     0.190 HD
ENDBRANCH  15  16
ENDBRANCH  14  15
ENDBRANCH  13  14
ENDBRANCH   1  13
TORSDOF 7
ENDMDL
MODEL 2
REMARK VINA RESULT:    -5.342      2.340      3.952
REMARK INTER + INTRA:          -7.845
REMARK INTER:                  -7.358
REMARK INTRA:                  -0.488
REMARK UNBOUND:                -0.473
REMARK SMILES Cc1n[nH]c(C)c1CCCOc1cc(C(=O)O)ccc1F
REMARK SMILES IDX 11 1 12 2 14 3 18 4 13 5 19 6 20 7 21 8 15 9 16 10 17 11
REMARK SMILES IDX 10 13 9 14 8 15 7 16 5 17 2 18 4 19 3 20 6 21 1 22
REMARK H PARENT 17 12 4 23
ROOT
ATOM      1  O   UNL     1       8.054  -0.708   3.947  1.00  0.00    -0.490 OA
ENDROOT
BRANCH   1   2
ATOM      2  C   UNL     1       6.922  -1.218   3.394  1.00  0.00     0.155 A 
ATOM      3  C   UNL     1       5.838  -2.784   1.925  1.00  0.00     0.063 A 
ATOM      4  C   UNL     1       4.596  -2.253   2.282  1.00  0.00     0.019 A 
ATOM      5  C   UNL     1       7.004  -2.259   2.487  1.00  0.00     0.065 A 
ATOM      6  C   UNL     1       4.524  -1.219   3.192  1.00  0.00     0.044 A 
ATOM      7  C   UNL     1       5.681  -0.704   3.752  1.00  0.00     0.165 A 
ATOM      8  F   UNL     1       5.603   0.309   4.643  1.00  0.00    -0.203 F 
BRANCH   3   9
ATOM      9  C   UNL     1       5.919  -3.890   0.952  1.00  0.00     0.335 C 
ATOM     10  O   UNL     1       6.964  -4.121   0.379  1.00  0.00    -0.246 OA
BRANCH   9  11
ATOM     11  O   UNL     1       4.834  -4.650   0.704  1.00  0.00    -0.478 OA
ATOM     12  H   UNL     1       4.551  -5.254   1.405  1.00  0.00     0.297 HD
ENDBRANCH   9  11
ENDBRANCH   3   9
ENDBRANCH   1   2
BRANCH   1  13
ATOM     13  C   UNL     1       8.209  -0.858   5.361  1.00  0.00     0.230 C 
BRANCH  13  14
ATOM     14  C   UNL     1       9.396  -1.779   5.648  1.00  0.00     0.046 C 
BRANCH  14  15
ATOM     15  C   UNL     1       8.892  -3.209   5.857  1.00  0.00     0.043 C 
BRANCH  15  16
ATOM     16  C   UNL     1       9.907  -3.989   6.652  1.00  0.00    -0.004 A 
ATOM     17  C   UNL     1      10.998  -4.615   6.154  1.00  0.00     0.036 A 
ATOM     18  C   UNL     1       9.892  -4.188   8.037  1.00  0.00     0.063 A 
ATOM     19  N   UNL     1      11.647  -5.196   7.185  1.00  0.00    -0.282 N 
ATOM     20  N   UNL     1      10.930  -4.917   8.356  1.00  0.00    -0.181 NA
ATOM     21  C   UNL     1      11.415  -4.657   4.707  1.00  0.00     0.066 C 
ATOM     22  C   UNL     1       8.851  -3.664   8.993  1.00  0.00     0.069 C 
ATOM     23  H   UNL     1      12.463  -5.715   7.126  1.00  0.00     0.190 HD
ENDBRANCH  15  16
ENDBRANCH  14  15
ENDBRANCH  13  14
ENDBRANCH   1  13
TORSDOF 7
ENDMDL
MODEL 3
REMARK VINA RESULT:    -5.230      0.171      1.776
REMARK INTER + INTRA:          -7.690
REMARK INTER:                  -7.107
REMARK INTRA:                  -0.583
REMARK UNBOUND:                -0.473
REMARK SMILES Cc1n[nH]c(C)c1CCCOc1cc(C(=O)O)ccc1F
REMARK SMILES IDX 11 1 12 2 14 3 18 4 13 5 19 6 20 7 21 8 15 9 16 10 17 11
REMARK SMILES IDX 10 13 9 14 8 15 7 16 5 17 2 18 4 19 3 20 6 21 1 22
REMARK H PARENT 17 12 4 23
ROOT
ATOM      1  O   UNL     1       5.990  -4.937   4.054  1.00  0.00    -0.490 OA
ENDROOT
BRANCH   1   2
ATOM      2  C   UNL     1       5.622  -3.748   3.505  1.00  0.00     0.155 A 
ATOM      3  C   UNL     1       5.020  -1.433   3.751  1.00  0.00     0.063 A 
ATOM      4  C   UNL     1       4.879  -1.327   2.364  1.00  0.00     0.019 A 
ATOM      5  C   UNL     1       5.393  -2.653   4.318  1.00  0.00     0.065 A 
ATOM      6  C   UNL     1       5.115  -2.423   1.562  1.00  0.00     0.044 A 
ATOM      7  C   UNL     1       5.490  -3.631   2.126  1.00  0.00     0.165 A 
ATOM      8  F   UNL     1       5.720  -4.701   1.334  1.00  0.00    -0.203 F 
BRANCH   3   9
ATOM      9  C   UNL     1       4.768  -0.262   4.613  1.00  0.00     0.335 C 
ATOM     10  O   UNL     1       4.506  -0.417   5.788  1.00  0.00    -0.246 OA
BRANCH   9  11
ATOM     11  O   UNL     1       4.837   0.981   4.097  1.00  0.00    -0.478 OA
ATOM     12  H   UNL     1       5.097   1.057   3.168  1.00  0.00     0.297 HD
ENDBRANCH   9  11
ENDBRANCH   3   9
ENDBRANCH   1   2
BRANCH   1  13
ATOM     13  C   UNL     1       7.352  -5.336   3.882  1.00  0.00     0.230 C 
BRANCH  13  14
ATOM     14  C   UNL     1       8.069  -5.294   5.232  1.00  0.00     0.046 C 
BRANCH  14  15
ATOM     15  C   UNL     1       9.081  -4.146   5.237  1.00  0.00     0.043 C 
BRANCH  15  16
ATOM     16  C   UNL     1      10.265  -4.523   6.089  1.00  0.00    -0.004 A 
ATOM     17  C   UNL     1      11.466  -4.954   5.639  1.00  0.00     0.036 A 
ATOM     18  C   UNL     1      10.319  -4.483   7.487  1.00  0.00     0.063 A 
ATOM     19  N   UNL     1      12.250  -5.185   6.713  1.00  0.00    -0.282 N 
ATOM     20  N   UNL     1      11.506  -4.886   7.862  1.00  0.00    -0.181 NA
ATOM     21  C   UNL     1      11.858  -5.142   4.196  1.00  0.00     0.066 C 
ATOM     22  C   UNL     1       9.199  -4.060   8.403  1.00  0.00     0.069 C 
ATOM     23  H   UNL     1      13.166  -5.502   6.693  1.00  0.00     0.190 HD
ENDBRANCH  15  16
ENDBRANCH  14  15
ENDBRANCH  13  14
ENDBRANCH   1  13
TORSDOF 7
ENDMDL
MODEL 4
REMARK VINA RESULT:    -4.429      4.982      7.961
REMARK INTER + INTRA:          -6.585
REMARK INTER:                  -5.942
REMARK INTRA:                  -0.643
REMARK UNBOUND:                -0.473
REMARK SMILES Cc1n[nH]c(C)c1CCCOc1cc(C(=O)O)ccc1F
REMARK SMILES IDX 11 1 12 2 14 3 18 4 13 5 19 6 20 7 21 8 15 9 16 10 17 11
REMARK SMILES IDX 10 13 9 14 8 15 7 16 5 17 2 18 4 19 3 20 6 21 1 22
REMARK H PARENT 17 12 4 23
ROOT
ATOM      1  O   UNL     1       9.292  -3.686   8.021  1.00  0.00    -0.490 OA
ENDROOT
BRANCH   1   2
ATOM      2  C   UNL     1       9.657  -4.248   9.204  1.00  0.00     0.155 A 
ATOM      3  C   UNL     1      11.364  -4.905  10.765  1.00  0.00     0.063 A 
ATOM      4  C   UNL     1      10.381  -5.389  11.632  1.00  0.00     0.019 A 
ATOM      5  C   UNL     1      10.993  -4.333   9.546  1.00  0.00     0.065 A 
ATOM      6  C   UNL     1       9.049  -5.294  11.285  1.00  0.00     0.044 A 
ATOM      7  C   UNL     1       8.684  -4.721  10.078  1.00  0.00     0.165 A 
ATOM      8  F   UNL     1       7.377  -4.631   9.744  1.00  0.00    -0.203 F 
BRANCH   3   9
ATOM      9  C   UNL     1      12.790  -5.005  11.133  1.00  0.00     0.335 C 
ATOM     10  O   UNL     1      13.107  -5.417  12.230  1.00  0.00    -0.246 OA
BRANCH   9  11
ATOM     11  O   UNL     1      13.740  -4.644  10.248  1.00  0.00    -0.478 OA
ATOM     12  H   UNL     1      14.020  -3.718  10.257  1.00  0.00     0.297 HD
ENDBRANCH   9  11
ENDBRANCH   3   9
ENDBRANCH   1   2
BRANCH   1  13
ATOM     13  C   UNL     1       9.697  -4.364   6.829  1.00  0.00     0.230 C 
BRANCH  13  14
ATOM     14  C   UNL     1       9.258  -3.554   5.608  1.00  0.00     0.046 C 
BRANCH  14  15
ATOM     15  C   UNL     1       7.754  -3.284   5.690  1.00  0.00     0.043 C 
BRANCH  15  16
ATOM     16  C   UNL     1       7.231  -2.934   4.321  1.00  0.00    -0.004 A 
ATOM     17  C   UNL     1       6.623  -3.783   3.459  1.00  0.00     0.036 A 
ATOM     18  C   UNL     1       7.282  -1.673   3.718  1.00  0.00     0.063 A 
ATOM     19  N   UNL     1       6.307  -3.084   2.348  1.00  0.00    -0.282 N 
ATOM     20  N   UNL     1       6.735  -1.763   2.533  1.00  0.00    -0.181 NA
ATOM     21  C   UNL     1       6.348  -5.244   3.698  1.00  0.00     0.066 C 
ATOM     22  C   UNL     1       7.876  -0.427   4.324  1.00  0.00     0.069 C 
ATOM     23  H   UNL     1       5.863  -3.436   1.561  1.00  0.00     0.190 HD
ENDBRANCH  15  16
ENDBRANCH  14  15
ENDBRANCH  13  14
ENDBRANCH   1  13
TORSDOF 7
ENDMDL
MODEL 5
REMARK VINA RESULT:    -4.410      4.996      7.947
REMARK INTER + INTRA:          -6.558
REMARK INTER:                  -5.949
REMARK INTRA:                  -0.609
REMARK UNBOUND:                -0.473
REMARK SMILES Cc1n[nH]c(C)c1CCCOc1cc(C(=O)O)ccc1F
REMARK SMILES IDX 11 1 12 2 14 3 18 4 13 5 19 6 20 7 21 8 15 9 16 10 17 11
REMARK SMILES IDX 10 13 9 14 8 15 7 16 5 17 2 18 4 19 3 20 6 21 1 22
REMARK H PARENT 17 12 4 23
ROOT
ATOM      1  O   UNL     1       9.227  -3.702   8.093  1.00  0.00    -0.490 OA
ENDROOT
BRANCH   1   2
ATOM      2  C   UNL     1       9.623  -4.266   9.265  1.00  0.00     0.155 A 
ATOM      3  C   UNL     1      11.370  -4.900  10.791  1.00  0.00     0.063 A 
ATOM      4  C   UNL     1      10.411  -5.413  11.669  1.00  0.00     0.019 A 
ATOM      5  C   UNL     1      10.967  -4.324   9.585  1.00  0.00     0.065 A 
ATOM      6  C   UNL     1       9.073  -5.345  11.345  1.00  0.00     0.044 A 
ATOM      7  C   UNL     1       8.675  -4.769  10.149  1.00  0.00     0.165 A 
ATOM      8  F   UNL     1       7.362  -4.706   9.837  1.00  0.00    -0.203 F 
BRANCH   3   9
ATOM      9  C   UNL     1      12.803  -4.971  11.136  1.00  0.00     0.335 C 
ATOM     10  O   UNL     1      13.145  -5.328  12.245  1.00  0.00    -0.246 OA
BRANCH   9  11
ATOM     11  O   UNL     1      13.733  -4.645  10.217  1.00  0.00    -0.478 OA
ATOM     12  H   UNL     1      14.573  -5.125  10.252  1.00  0.00     0.297 HD
ENDBRANCH   9  11
ENDBRANCH   3   9
ENDBRANCH   1   2
BRANCH   1  13
ATOM     13  C   UNL     1       9.615  -4.368   6.889  1.00  0.00     0.230 C 
BRANCH  13  14
ATOM     14  C   UNL     1       9.223  -3.511   5.684  1.00  0.00     0.046 C 
BRANCH  14  15
ATOM     15  C   UNL     1       7.717  -3.241   5.719  1.00  0.00     0.043 C 
BRANCH  15  16
ATOM     16  C   UNL     1       7.235  -2.899   4.333  1.00  0.00    -0.004 A 
ATOM     17  C   UNL     1       7.310  -1.684   3.741  1.00  0.00     0.036 A 
ATOM     18  C   UNL     1       6.637  -3.782   3.428  1.00  0.00     0.063 A 
ATOM     19  N   UNL     1       6.772  -1.793   2.508  1.00  0.00    -0.282 N 
ATOM     20  N   UNL     1       6.353  -3.118   2.336  1.00  0.00    -0.181 NA
ATOM     21  C   UNL     1       7.890  -0.434   4.350  1.00  0.00     0.066 C 
ATOM     22  C   UNL     1       6.356  -5.242   3.672  1.00  0.00     0.069 C 
ATOM     23  H   UNL     1       6.690  -1.079   1.856  1.00  0.00     0.190 HD
ENDBRANCH  15  16
ENDBRANCH  14  15
ENDBRANCH  13  14
ENDBRANCH   1  13
TORSDOF 7
ENDMDL
MODEL 6
REMARK VINA RESULT:    -4.217      3.818      6.506
REMARK INTER + INTRA:          -6.293
REMARK INTER:                  -5.581
REMARK INTRA:                  -0.712
REMARK UNBOUND:                -0.473
REMARK SMILES Cc1n[nH]c(C)c1CCCOc1cc(C(=O)O)ccc1F
REMARK SMILES IDX 11 1 12 2 14 3 18 4 13 5 19 6 20 7 21 8 15 9 16 10 17 11
REMARK SMILES IDX 10 13 9 14 8 15 7 16 5 17 2 18 4 19 3 20 6 21 1 22
REMARK H PARENT 17 12 4 23
ROOT
ATOM      1  O   UNL     1       8.573  -3.672   4.191  1.00  0.00    -0.490 OA
ENDROOT
BRANCH   1   2
ATOM      2  C   UNL     1       9.352  -4.001   5.255  1.00  0.00     0.155 A 
ATOM      3  C   UNL     1       9.680  -4.168   7.631  1.00  0.00     0.063 A 
ATOM      4  C   UNL     1      10.958  -4.690   7.415  1.00  0.00     0.019 A 
ATOM      5  C   UNL     1       8.878  -3.823   6.541  1.00  0.00     0.065 A 
ATOM      6  C   UNL     1      11.420  -4.869   6.128  1.00  0.00     0.044 A 
ATOM      7  C   UNL     1      10.621  -4.532   5.048  1.00  0.00     0.165 A 
ATOM      8  F   UNL     1      11.080  -4.710   3.790  1.00  0.00    -0.203 F 
BRANCH   3   9
ATOM      9  C   UNL     1       9.182  -3.975   9.007  1.00  0.00     0.335 C 
ATOM     10  O   UNL     1       7.997  -3.801   9.205  1.00  0.00    -0.246 OA
BRANCH   9  11
ATOM     11  O   UNL     1      10.042  -3.998  10.044  1.00  0.00    -0.478 OA
ATOM     12  H   UNL     1      10.955  -3.732   9.864  1.00  0.00     0.297 HD
ENDBRANCH   9  11
ENDBRANCH   3   9
ENDBRANCH   1   2
BRANCH   1  13
ATOM     13  C   UNL     1       7.327  -4.362   4.062  1.00  0.00     0.230 C 
BRANCH  13  14
ATOM     14  C   UNL     1       6.545  -3.783   2.881  1.00  0.00     0.046 C 
BRANCH  14  15
ATOM     15  C   UNL     1       7.078  -2.388   2.550  1.00  0.00     0.043 C 
BRANCH  15  16
ATOM     16  C   UNL     1       6.259  -1.351   3.274  1.00  0.00    -0.004 A 
ATOM     17  C   UNL     1       4.954  -1.070   3.052  1.00  0.00     0.036 A 
ATOM     18  C   UNL     1       6.711  -0.514   4.300  1.00  0.00     0.063 A 
ATOM     19  N   UNL     1       4.595  -0.085   3.902  1.00  0.00    -0.282 N 
ATOM     20  N   UNL     1       5.717   0.250   4.672  1.00  0.00    -0.181 NA
ATOM     21  C   UNL     1       4.062  -1.737   2.038  1.00  0.00     0.066 C 
ATOM     22  C   UNL     1       8.107  -0.488   4.869  1.00  0.00     0.069 C 
ATOM     23  H   UNL     1       3.717   0.320   3.968  1.00  0.00     0.190 HD
ENDBRANCH  15  16
ENDBRANCH  14  15
ENDBRANCH  13  14
ENDBRANCH   1  13
TORSDOF 7
ENDMDL
MODEL 7
REMARK VINA RESULT:    -4.209      3.928      7.000
REMARK INTER + INTRA:          -6.281
REMARK INTER:                  -5.439
REMARK INTRA:                  -0.843
REMARK UNBOUND:                -0.473
REMARK SMILES Cc1n[nH]c(C)c1CCCOc1cc(C(=O)O)ccc1F
REMARK SMILES IDX 11 1 12 2 14 3 18 4 13 5 19 6 20 7 21 8 15 9 16 10 17 11
REMARK SMILES IDX 10 13 9 14 8 15 7 16 5 17 2 18 4 19 3 20 6 21 1 22
REMARK H PARENT 17 12 4 23
ROOT
ATOM      1  O   UNL     1       7.695  -2.732   5.872  1.00  0.00    -0.490 OA
ENDROOT
BRANCH   1   2
ATOM      2  C   UNL     1       8.816  -3.422   6.210  1.00  0.00     0.155 A 
ATOM      3  C   UNL     1      10.865  -4.513   5.580  1.00  0.00     0.063 A 
ATOM      4  C   UNL     1      11.107  -4.823   6.921  1.00  0.00     0.019 A 
ATOM      5  C   UNL     1       9.711  -3.809   5.229  1.00  0.00     0.065 A 
ATOM      6  C   UNL     1      10.212  -4.428   7.893  1.00  0.00     0.044 A 
ATOM      7  C   UNL     1       9.071  -3.725   7.543  1.00  0.00     0.165 A 
ATOM      8  F   UNL     1       8.198  -3.341   8.500  1.00  0.00    -0.203 F 
BRANCH   3   9
ATOM      9  C   UNL     1      11.821  -4.934   4.538  1.00  0.00     0.335 C 
ATOM     10  O   UNL     1      11.751  -6.049   4.063  1.00  0.00    -0.246 OA
BRANCH   9  11
ATOM     11  O   UNL     1      12.769  -4.078   4.109  1.00  0.00    -0.478 OA
ATOM     12  H   UNL     1      12.522  -3.468   3.400  1.00  0.00     0.297 HD
ENDBRANCH   9  11
ENDBRANCH   3   9
ENDBRANCH   1   2
BRANCH   1  13
ATOM     13  C   UNL     1       7.848  -1.664   4.934  1.00  0.00     0.230 C 
BRANCH  13  14
ATOM     14  C   UNL     1       6.491  -1.336   4.310  1.00  0.00     0.046 C 
BRANCH  14  15
ATOM     15  C   UNL     1       5.589  -2.570   4.372  1.00  0.00     0.043 C 
BRANCH  15  16
ATOM     16  C   UNL     1       5.549  -3.234   3.020  1.00  0.00    -0.004 A 
ATOM     17  C   UNL     1       6.030  -4.463   2.722  1.00  0.00     0.036 A 
ATOM     18  C   UNL     1       5.003  -2.691   1.853  1.00  0.00     0.063 A 
ATOM     19  N   UNL     1       5.803  -4.687   1.411  1.00  0.00    -0.282 N 
ATOM     20  N   UNL     1       5.160  -3.558   0.886  1.00  0.00    -0.181 NA
ATOM     21  C   UNL     1       6.700  -5.411   3.682  1.00  0.00     0.066 C 
ATOM     22  C   UNL     1       4.356  -1.335   1.727  1.00  0.00     0.069 C 
ATOM     23  H   UNL     1       6.042  -5.487   0.918  1.00  0.00     0.190 HD
ENDBRANCH  15  16
ENDBRANCH  14  15
ENDBRANCH  13  14
ENDBRANCH   1  13
TORSDOF 7
ENDMDL
MODEL 8
REMARK VINA RESULT:    -4.044      3.929      6.912
REMARK INTER + INTRA:          -6.054
REMARK INTER:                  -5.342
REMARK INTRA:                  -0.712
REMARK UNBOUND:                -0.473
REMARK SMILES Cc1n[nH]c(C)c1CCCOc1cc(C(=O)O)ccc1F
REMARK SMILES IDX 11 1 12 2 14 3 18 4 13 5 19 6 20 7 21 8 15 9 16 10 17 11
REMARK SMILES IDX 10 13 9 14 8 15 7 16 5 17 2 18 4 19 3 20 6 21 1 22
REMARK H PARENT 17 12 4 23
ROOT
ATOM      1  O   UNL     1       7.546  -3.935   5.066  1.00  0.00    -0.490 OA
ENDROOT
BRANCH   1   2
ATOM      2  C   UNL     1       8.784  -4.174   5.575  1.00  0.00     0.155 A 
ATOM      3  C   UNL     1      11.106  -4.709   5.254  1.00  0.00     0.063 A 
ATOM      4  C   UNL     1      11.307  -4.649   6.636  1.00  0.00     0.019 A 
ATOM      5  C   UNL     1       9.835  -4.469   4.728  1.00  0.00     0.065 A 
ATOM      6  C   UNL     1      10.253  -4.348   7.473  1.00  0.00     0.044 A 
ATOM      7  C   UNL     1       8.995  -4.106   6.948  1.00  0.00     0.165 A 
ATOM      8  F   UNL     1       7.967  -3.811   7.774  1.00  0.00    -0.203 F 
BRANCH   3   9
ATOM      9  C   UNL     1      12.231  -5.031   4.355  1.00  0.00     0.335 C 
ATOM     10  O   UNL     1      12.115  -4.877   3.157  1.00  0.00    -0.246 OA
BRANCH   9  11
ATOM     11  O   UNL     1      13.391  -5.489   4.866  1.00  0.00    -0.478 OA
ATOM     12  H   UNL     1      14.140  -5.564   4.257  1.00  0.00     0.297 HD
ENDBRANCH   9  11
ENDBRANCH   3   9
ENDBRANCH   1   2
BRANCH   1  13
ATOM     13  C   UNL     1       7.142  -4.725   3.944  1.00  0.00     0.230 C 
BRANCH  13  14
ATOM     14  C   UNL     1       6.238  -3.892   3.034  1.00  0.00     0.046 C 
BRANCH  14  15
ATOM     15  C   UNL     1       6.936  -2.574   2.689  1.00  0.00     0.043 C 
BRANCH  15  16
ATOM     16  C   UNL     1       6.194  -1.429   3.328  1.00  0.00    -0.004 A 
ATOM     17  C   UNL     1       4.924  -1.052   3.053  1.00  0.00     0.036 A 
ATOM     18  C   UNL     1       6.693  -0.573   4.315  1.00  0.00     0.063 A 
ATOM     19  N   UNL     1       4.632   0.010   3.833  1.00  0.00    -0.282 N 
ATOM     20  N   UNL     1       5.760   0.295   4.614  1.00  0.00    -0.181 NA
ATOM     21  C   UNL     1       4.001  -1.700   2.054  1.00  0.00     0.066 C 
ATOM     22  C   UNL     1       8.072  -0.632   4.921  1.00  0.00     0.069 C 
ATOM     23  H   UNL     1       3.790   0.492   3.850  1.00  0.00     0.190 HD
ENDBRANCH  15  16
ENDBRANCH  14  15
ENDBRANCH  13  14
ENDBRANCH   1  13
TORSDOF 7
ENDMDL
MODEL 9
REMARK VINA RESULT:    -3.851      8.120     10.186
REMARK INTER + INTRA:          -5.787
REMARK INTER:                  -4.143
REMARK INTRA:                  -1.644
REMARK UNBOUND:                -0.473
REMARK SMILES Cc1n[nH]c(C)c1CCCOc1cc(C(=O)O)ccc1F
REMARK SMILES IDX 11 1 12 2 14 3 18 4 13 5 19 6 20 7 21 8 15 9 16 10 17 11
REMARK SMILES IDX 10 13 9 14 8 15 7 16 5 17 2 18 4 19 3 20 6 21 1 22
REMARK H PARENT 17 12 4 23
ROOT
ATOM      1  O   UNL     1      11.283  -8.474  14.091  1.00  0.00    -0.490 OA
ENDROOT
BRANCH   1   2
ATOM      2  C   UNL     1      10.462  -7.767  13.270  1.00  0.00     0.155 A 
ATOM      3  C   UNL     1      10.121  -5.996  11.680  1.00  0.00     0.063 A 
ATOM      4  C   UNL     1       8.770  -6.341  11.590  1.00  0.00     0.019 A 
ATOM      5  C   UNL     1      10.966  -6.716  12.526  1.00  0.00     0.065 A 
ATOM      6  C   UNL     1       8.277  -7.395  12.331  1.00  0.00     0.044 A 
ATOM      7  C   UNL     1       9.118  -8.111  13.166  1.00  0.00     0.165 A 
ATOM      8  F   UNL     1       8.630  -9.142  13.890  1.00  0.00    -0.203 F 
BRANCH   3   9
ATOM      9  C   UNL     1      10.652  -4.869  10.887  1.00  0.00     0.335 C 
ATOM     10  O   UNL     1       9.945  -3.913  10.642  1.00  0.00    -0.246 OA
BRANCH   9  11
ATOM     11  O   UNL     1      11.923  -4.899  10.442  1.00  0.00    -0.478 OA
ATOM     12  H   UNL     1      12.068  -4.677   9.512  1.00  0.00     0.297 HD
ENDBRANCH   9  11
ENDBRANCH   3   9
ENDBRANCH   1   2
BRANCH   1  13
ATOM     13  C   UNL     1      12.499  -7.840  14.495  1.00  0.00     0.230 C 
BRANCH  13  14
ATOM     14  C   UNL     1      13.686  -8.564  13.857  1.00  0.00     0.046 C 
BRANCH  14  15
ATOM     15  C   UNL     1      14.909  -7.643  13.864  1.00  0.00     0.043 C 
BRANCH  15  16
ATOM     16  C   UNL     1      14.697  -6.517  12.886  1.00  0.00    -0.004 A 
ATOM     17  C   UNL     1      14.757  -6.612  11.538  1.00  0.00     0.036 A 
ATOM     18  C   UNL     1      14.396  -5.190  13.211  1.00  0.00     0.063 A 
ATOM     19  N   UNL     1      14.510  -5.387  11.028  1.00  0.00    -0.282 N 
ATOM     20  N   UNL     1      14.291  -4.510  12.099  1.00  0.00    -0.181 NA
ATOM     21  C   UNL     1      15.047  -7.861  10.747  1.00  0.00     0.066 C 
ATOM     22  C   UNL     1      14.234  -4.637  14.604  1.00  0.00     0.069 C 
ATOM     23  H   UNL     1      14.489  -5.154  10.087  1.00  0.00     0.190 HD
ENDBRANCH  15  16
ENDBRANCH  14  15
ENDBRANCH  13  14
ENDBRANCH   1  13
TORSDOF 7
ENDMDL
