MODEL 1
REMARK VINA RESULT:    -5.377      0.000      0.000
REMARK INTER + INTRA:          -7.746
REMARK INTER:                  -7.420
REMARK INTRA:                  -0.325
REMARK UNBOUND:                -0.325
REMARK SMILES Cc1n[nH]c(C)c1CCCOc1cc(C(=O)O)ccc1F
REMARK SMILES IDX 11 1 12 2 14 3 18 4 13 5 19 6 20 7 21 8 15 9 16 10 17 11
REMARK SMILES IDX 10 13 9 14 8 15 7 16 5 17 2 18 4 19 3 20 6 21 1 22
REMARK H PARENT 17 12 4 23
ROOT
ATOM      1  O   UNL     1       7.065   3.840  -3.077  1.00  0.00    -0.490 OA
ENDROOT
BRANCH   1   2
ATOM      2  C   UNL     1       6.646   2.696  -2.473  1.00  0.00     0.155 A 
ATOM      3  C   UNL     1       6.832   0.322  -2.139  1.00  0.00     0.063 A 
ATOM      4  C   UNL     1       5.782   0.373  -1.219  1.00  0.00     0.019 A 
ATOM      5  C   UNL     1       7.262   1.494  -2.766  1.00  0.00     0.065 A 
ATOM      6  C   UNL     1       5.178   1.578  -0.928  1.00  0.00     0.044 A 
ATOM      7  C   UNL     1       5.609   2.739  -1.548  1.00  0.00     0.165 A 
ATOM      8  F   UNL     1       5.013   3.917  -1.258  1.00  0.00    -0.203 F 
BRANCH   3   9
ATOM      9  C   UNL     1       7.481  -0.966  -2.452  1.00  0.00     0.335 C 
ATOM     10  O   UNL     1       8.229  -1.054  -3.404  1.00  0.00    -0.246 OA
BRANCH   9  11
ATOM     11  O   UNL     1       7.248  -2.043  -1.677  1.00  0.00    -0.478 OA
ATOM     12  H   UNL     1       7.417  -1.947  -0.729  1.00  0.00     0.297 HD
ENDBRANCH   9  11
ENDBRANCH   3   9
ENDBRANCH   1   2
BRANCH   1  13
ATOM     13  C   UNL     1       7.440   4.924  -2.224  1.00  0.00     0.230 C 
BRANCH  13  14
ATOM     14  C   UNL     1       8.941   5.185  -2.364  1.00  0.00     0.046 C 
BRANCH  14  15
ATOM     15  C   UNL     1       9.710   4.265  -1.413  1.00  0.00     0.043 C 
BRANCH  15  16
ATOM     16  C   UNL     1      11.128   4.755  -1.277  1.00  0.00    -0.004 A 
ATOM     17  C   UNL     1      12.162   4.437  -2.091  1.00  0.00     0.036 A 
ATOM     18  C   UNL     1      11.608   5.623  -0.291  1.00  0.00     0.063 A 
ATOM     19  N   UNL     1      13.259   5.076  -1.632  1.00  0.00    -0.282 N 
ATOM     20  N   UNL     1      12.886   5.811  -0.499  1.00  0.00    -0.181 NA
ATOM     21  C   UNL     1      12.100   3.532  -3.294  1.00  0.00     0.066 C 
ATOM     22  C   UNL     1      10.796   6.228   0.826  1.00  0.00     0.069 C 
ATOM     23  H   UNL     1      14.147   5.034  -2.018  1.00  0.00     0.190 HD
ENDBRANCH  15  16
ENDBRANCH  14  15
ENDBRANCH  13  14
ENDBRANCH   1  13
TORSDOF 7
ENDMDL
MODEL 2
REMARK VINA RESULT:    -5.348      0.160      1.773
REMARK INTER + INTRA:          -7.706
REMARK INTER:                  -7.212
REMARK INTRA:                  -0.494
REMARK UNBOUND:                -0.325
REMARK SMILES Cc1n[nH]c(C)c1CCCOc1cc(C(=O)O)ccc1F
REMARK SMILES IDX 11 1 12 2 14 3 18 4 13 5 19 6 20 7 21 8 15 9 16 10 17 11
REMARK SMILES IDX 10 13 9 14 8 15 7 16 5 17 2 18 4 19 3 20 6 21 1 22
REMARK H PARENT 17 12 4 23
ROOT
ATOM      1  O   UNL     1       7.023   3.850  -3.015  1.00  0.00    -0.490 OA
ENDROOT
BRANCH   1   2
ATOM      2  C   UNL     1       6.603   2.690  -2.444  1.00  0.00     0.155 A 
ATOM      3  C   UNL     1       6.824   0.316  -2.135  1.00  0.00     0.063 A 
ATOM      4  C   UNL     1       5.736   0.332  -1.258  1.00  0.00     0.019 A 
ATOM      5  C   UNL     1       7.254   1.504  -2.728  1.00  0.00     0.065 A 
ATOM      6  C   UNL     1       5.096   1.521  -0.976  1.00  0.00     0.044 A 
ATOM      7  C   UNL     1       5.528   2.699  -1.561  1.00  0.00     0.165 A 
ATOM      8  F   UNL     1       4.897   3.861  -1.280  1.00  0.00    -0.203 F 
BRANCH   3   9
ATOM      9  C   UNL     1       7.511  -0.955  -2.439  1.00  0.00     0.335 C 
ATOM     10  O   UNL     1       8.261  -1.027  -3.391  1.00  0.00    -0.246 OA
BRANCH   9  11
ATOM     11  O   UNL     1       7.310  -2.033  -1.656  1.00  0.00    -0.478 OA
ATOM     12  H   UNL     1       7.948  -2.184  -0.945  1.00  0.00     0.297 HD
ENDBRANCH   9  11
ENDBRANCH   3   9
ENDBRANCH   1   2
BRANCH   1  13
ATOM     13  C   UNL     1       7.536   4.857  -2.138  1.00  0.00     0.230 C 
BRANCH  13  14
ATOM     14  C   UNL     1       9.038   5.021  -2.375  1.00  0.00     0.046 C 
BRANCH  14  15
ATOM     15  C   UNL     1       9.811   4.239  -1.310  1.00  0.00     0.043 C 
BRANCH  15  16
ATOM     16  C   UNL     1      11.180   4.844  -1.137  1.00  0.00    -0.004 A 
ATOM     17  C   UNL     1      11.555   5.698  -0.156  1.00  0.00     0.036 A 
ATOM     18  C   UNL     1      12.290   4.617  -1.958  1.00  0.00     0.063 A 
ATOM     19  N   UNL     1      12.854   6.005  -0.353  1.00  0.00    -0.282 N 
ATOM     20  N   UNL     1      13.292   5.318  -1.493  1.00  0.00    -0.181 NA
ATOM     21  C   UNL     1      10.680   6.212   0.957  1.00  0.00     0.066 C 
ATOM     22  C   UNL     1      12.322   3.729  -3.175  1.00  0.00     0.069 C 
ATOM     23  H   UNL     1      13.390   6.598   0.196  1.00  0.00     0.190 HD
ENDBRANCH  15  16
ENDBRANCH  14  15
ENDBRANCH  13  14
ENDBRANCH   1  13
TORSDOF 7
ENDMDL
MODEL 3
REMARK VINA RESULT:    -5.298      2.213      3.841
REMARK INTER + INTRA:          -7.637
REMARK INTER:                  -7.027
REMARK INTRA:                  -0.610
REMARK UNBOUND:                -0.325
REMARK SMILES Cc1n[nH]c(C)c1CCCOc1cc(C(=O)O)ccc1F
REMARK SMILES IDX 11 1 12 2 14 3 18 4 13 5 19 6 20 7 21 8 15 9 16 10 17 11
REMARK SMILES IDX 10 13 9 14 8 15 7 16 5 17 2 18 4 19 3 20 6 21 1 22
REMARK H PARENT 17 12 4 23
ROOT
ATOM      1  O   UNL     1       8.932   1.163  -1.840  1.00  0.00    -0.490 OA
ENDROOT
BRANCH   1   2
ATOM      2  C   UNL     1       7.583   1.095  -1.678  1.00  0.00     0.155 A 
ATOM      3  C   UNL     1       5.496   2.137  -1.098  1.00  0.00     0.063 A 
ATOM      4  C   UNL     1       4.828   0.938  -1.363  1.00  0.00     0.019 A 
ATOM      5  C   UNL     1       6.881   2.209  -1.258  1.00  0.00     0.065 A 
ATOM      6  C   UNL     1       5.537  -0.166  -1.788  1.00  0.00     0.044 A 
ATOM      7  C   UNL     1       6.910  -0.091  -1.951  1.00  0.00     0.165 A 
ATOM      8  F   UNL     1       7.598  -1.176  -2.367  1.00  0.00    -0.203 F 
BRANCH   3   9
ATOM      9  C   UNL     1       4.740   3.321  -0.643  1.00  0.00     0.335 C 
ATOM     10  O   UNL     1       5.048   3.878   0.390  1.00  0.00    -0.246 OA
BRANCH   9  11
ATOM     11  O   UNL     1       3.712   3.787  -1.380  1.00  0.00    -0.478 OA
ATOM     12  H   UNL     1       3.573   3.380  -2.247  1.00  0.00     0.297 HD
ENDBRANCH   9  11
ENDBRANCH   3   9
ENDBRANCH   1   2
BRANCH   1  13
ATOM     13  C   UNL     1       9.735   1.002  -0.668  1.00  0.00     0.230 C 
BRANCH  13  14
ATOM     14  C   UNL     1      10.918   1.970  -0.725  1.00  0.00     0.046 C 
BRANCH  14  15
ATOM     15  C   UNL     1      10.551   3.173  -1.596  1.00  0.00     0.043 C 
BRANCH  15  16
ATOM     16  C   UNL     1      11.692   4.158  -1.599  1.00  0.00    -0.004 A 
ATOM     17  C   UNL     1      11.877   5.165  -0.714  1.00  0.00     0.036 A 
ATOM     18  C   UNL     1      12.750   4.190  -2.514  1.00  0.00     0.063 A 
ATOM     19  N   UNL     1      13.008   5.814  -1.060  1.00  0.00    -0.282 N 
ATOM     20  N   UNL     1      13.535   5.186  -2.195  1.00  0.00    -0.181 NA
ATOM     21  C   UNL     1      10.981   5.499   0.450  1.00  0.00     0.066 C 
ATOM     22  C   UNL     1      12.944   3.246  -3.673  1.00  0.00     0.069 C 
ATOM     23  H   UNL     1      13.388   6.581  -0.603  1.00  0.00     0.190 HD
ENDBRANCH  15  16
ENDBRANCH  14  15
ENDBRANCH  13  14
ENDBRANCH   1  13
TORSDOF 7
ENDMDL
MODEL 4
REMARK VINA RESULT:    -5.267      2.224      3.420
REMARK INTER + INTRA:          -7.594
REMARK INTER:                  -6.963
REMARK INTRA:                  -0.631
REMARK UNBOUND:                -0.325
REMARK SMILES Cc1n[nH]c(C)c1CCCOc1cc(C(=O)O)ccc1F
REMARK SMILES IDX 11 1 12 2 14 3 18 4 13 5 19 6 20 7 21 8 15 9 16 10 17 11
REMARK SMILES IDX 10 13 9 14 8 15 7 16 5 17 2 18 4 19 3 20 6 21 1 22
REMARK H PARENT 17 12 4 23
ROOT
ATOM      1  O   UNL     1       8.962   1.222  -1.842  1.00  0.00    -0.490 OA
ENDROOT
BRANCH   1   2
ATOM      2  C   UNL     1       7.614   1.138  -1.682  1.00  0.00     0.155 A 
ATOM      3  C   UNL     1       5.513   2.153  -1.100  1.00  0.00     0.063 A 
ATOM      4  C   UNL     1       4.861   0.947  -1.369  1.00  0.00     0.019 A 
ATOM      5  C   UNL     1       6.898   2.242  -1.259  1.00  0.00     0.065 A 
ATOM      6  C   UNL     1       5.583  -0.148  -1.796  1.00  0.00     0.044 A 
ATOM      7  C   UNL     1       6.956  -0.055  -1.958  1.00  0.00     0.165 A 
ATOM      8  F   UNL     1       7.658  -1.131  -2.376  1.00  0.00    -0.203 F 
BRANCH   3   9
ATOM      9  C   UNL     1       4.743   3.326  -0.644  1.00  0.00     0.335 C 
ATOM     10  O   UNL     1       5.046   3.888   0.388  1.00  0.00    -0.246 OA
BRANCH   9  11
ATOM     11  O   UNL     1       3.707   3.778  -1.378  1.00  0.00    -0.478 OA
ATOM     12  H   UNL     1       3.034   3.131  -1.632  1.00  0.00     0.297 HD
ENDBRANCH   9  11
ENDBRANCH   3   9
ENDBRANCH   1   2
BRANCH   1  13
ATOM     13  C   UNL     1       9.767   1.040  -0.675  1.00  0.00     0.230 C 
BRANCH  13  14
ATOM     14  C   UNL     1      10.962   1.994  -0.726  1.00  0.00     0.046 C 
BRANCH  14  15
ATOM     15  C   UNL     1      10.608   3.209  -1.586  1.00  0.00     0.043 C 
BRANCH  15  16
ATOM     16  C   UNL     1      11.799   4.127  -1.674  1.00  0.00    -0.004 A 
ATOM     17  C   UNL     1      12.777   4.075  -2.608  1.00  0.00     0.036 A 
ATOM     18  C   UNL     1      12.087   5.188  -0.809  1.00  0.00     0.063 A 
ATOM     19  N   UNL     1      13.656   5.064  -2.339  1.00  0.00    -0.282 N 
ATOM     20  N   UNL     1      13.203   5.746  -1.202  1.00  0.00    -0.181 NA
ATOM     21  C   UNL     1      12.868   3.091  -3.744  1.00  0.00     0.066 C 
ATOM     22  C   UNL     1      11.260   5.608   0.380  1.00  0.00     0.069 C 
ATOM     23  H   UNL     1      14.459   5.266  -2.843  1.00  0.00     0.190 HD
ENDBRANCH  15  16
ENDBRANCH  14  15
ENDBRANCH  13  14
ENDBRANCH   1  13
TORSDOF 7
ENDMDL
MODEL 5
REMARK VINA RESULT:    -4.867      3.687      5.600
REMARK INTER + INTRA:          -7.042
REMARK INTER:                  -6.463
REMARK INTRA:                  -0.579
REMARK UNBOUND:                -0.325
REMARK SMILES Cc1n[nH]c(C)c1CCCOc1cc(C(=O)O)ccc1F
REMARK SMILES IDX 11 1 12 2 14 3 18 4 13 5 19 6 20 7 21 8 15 9 16 10 17 11
REMARK SMILES IDX 10 13 9 14 8 15 7 16 5 17 2 18 4 19 3 20 6 21 1 22
REMARK H PARENT 17 12 4 23
ROOT
ATOM      1  O   UNL     1      11.639   5.062  -0.639  1.00  0.00    -0.490 OA
ENDROOT
BRANCH   1   2
ATOM      2  C   UNL     1      10.577   4.337  -1.081  1.00  0.00     0.155 A 
ATOM      3  C   UNL     1       8.380   4.233  -2.053  1.00  0.00     0.063 A 
ATOM      4  C   UNL     1       8.422   2.838  -1.987  1.00  0.00     0.019 A 
ATOM      5  C   UNL     1       9.467   4.981  -1.595  1.00  0.00     0.065 A 
ATOM      6  C   UNL     1       9.535   2.204  -1.478  1.00  0.00     0.044 A 
ATOM      7  C   UNL     1      10.614   2.948  -1.029  1.00  0.00     0.165 A 
ATOM      8  F   UNL     1      11.703   2.321  -0.531  1.00  0.00    -0.203 F 
BRANCH   3   9
ATOM      9  C   UNL     1       7.190   4.914  -2.598  1.00  0.00     0.335 C 
ATOM     10  O   UNL     1       6.149   4.304  -2.732  1.00  0.00    -0.246 OA
BRANCH   9  11
ATOM     11  O   UNL     1       7.257   6.215  -2.941  1.00  0.00    -0.478 OA
ATOM     12  H   UNL     1       7.968   6.475  -3.543  1.00  0.00     0.297 HD
ENDBRANCH   9  11
ENDBRANCH   3   9
ENDBRANCH   1   2
BRANCH   1  13
ATOM     13  C   UNL     1      11.595   5.518   0.716  1.00  0.00     0.230 C 
BRANCH  13  14
ATOM     14  C   UNL     1      11.770   7.037   0.747  1.00  0.00     0.046 C 
BRANCH  14  15
ATOM     15  C   UNL     1      13.261   7.379   0.734  1.00  0.00     0.043 C 
BRANCH  15  16
ATOM     16  C   UNL     1      13.558   8.375   1.825  1.00  0.00    -0.004 A 
ATOM     17  C   UNL     1      13.707   9.711   1.665  1.00  0.00     0.036 A 
ATOM     18  C   UNL     1      13.724   8.083   3.183  1.00  0.00     0.063 A 
ATOM     19  N   UNL     1      13.964  10.244   2.878  1.00  0.00    -0.282 N 
ATOM     20  N   UNL     1      13.973   9.202   3.814  1.00  0.00    -0.181 NA
ATOM     21  C   UNL     1      13.604  10.467   0.366  1.00  0.00     0.066 C 
ATOM     22  C   UNL     1      13.641   6.715   3.809  1.00  0.00     0.069 C 
ATOM     23  H   UNL     1      14.115  11.183   3.068  1.00  0.00     0.190 HD
ENDBRANCH  15  16
ENDBRANCH  14  15
ENDBRANCH  13  14
ENDBRANCH   1  13
TORSDOF 7
ENDMDL
MODEL 6
REMARK VINA RESULT:    -4.866      3.705      5.672
REMARK INTER + INTRA:          -7.040
REMARK INTER:                  -6.467
REMARK INTRA:                  -0.573
REMARK UNBOUND:                -0.325
REMARK SMILES Cc1n[nH]c(C)c1CCCOc1cc(C(=O)O)ccc1F
REMARK SMILES IDX 11 1 12 2 14 3 18 4 13 5 19 6 20 7 21 8 15 9 16 10 17 11
REMARK SMILES IDX 10 13 9 14 8 15 7 16 5 17 2 18 4 19 3 20 6 21 1 22
REMARK H PARENT 17 12 4 23
ROOT
ATOM      1  O   UNL     1      11.646   5.090  -0.618  1.00  0.00    -0.490 OA
ENDROOT
BRANCH   1   2
ATOM      2  C   UNL     1      10.586   4.366  -1.065  1.00  0.00     0.155 A 
ATOM      3  C   UNL     1       8.393   4.262  -2.046  1.00  0.00     0.063 A 
ATOM      4  C   UNL     1       8.434   2.867  -1.982  1.00  0.00     0.019 A 
ATOM      5  C   UNL     1       9.478   5.010  -1.583  1.00  0.00     0.065 A 
ATOM      6  C   UNL     1       9.547   2.233  -1.470  1.00  0.00     0.044 A 
ATOM      7  C   UNL     1      10.624   2.976  -1.016  1.00  0.00     0.165 A 
ATOM      8  F   UNL     1      11.710   2.349  -0.515  1.00  0.00    -0.203 F 
BRANCH   3   9
ATOM      9  C   UNL     1       7.204   4.944  -2.594  1.00  0.00     0.335 C 
ATOM     10  O   UNL     1       6.166   4.332  -2.740  1.00  0.00    -0.246 OA
BRANCH   9  11
ATOM     11  O   UNL     1       7.270   6.248  -2.927  1.00  0.00    -0.478 OA
ATOM     12  H   UNL     1       6.995   6.887  -2.255  1.00  0.00     0.297 HD
ENDBRANCH   9  11
ENDBRANCH   3   9
ENDBRANCH   1   2
BRANCH   1  13
ATOM     13  C   UNL     1      11.589   5.558   0.732  1.00  0.00     0.230 C 
BRANCH  13  14
ATOM     14  C   UNL     1      11.790   7.074   0.754  1.00  0.00     0.046 C 
BRANCH  14  15
ATOM     15  C   UNL     1      13.287   7.390   0.784  1.00  0.00     0.043 C 
BRANCH  15  16
ATOM     16  C   UNL     1      13.571   8.376   1.887  1.00  0.00    -0.004 A 
ATOM     17  C   UNL     1      13.725   8.081   3.199  1.00  0.00     0.036 A 
ATOM     18  C   UNL     1      13.728   9.758   1.736  1.00  0.00     0.063 A 
ATOM     19  N   UNL     1      13.965   9.236   3.855  1.00  0.00    -0.282 N 
ATOM     20  N   UNL     1      13.957  10.275   2.916  1.00  0.00    -0.181 NA
ATOM     21  C   UNL     1      13.645   6.709   3.816  1.00  0.00     0.066 C 
ATOM     22  C   UNL     1      13.636  10.521   0.439  1.00  0.00     0.069 C 
ATOM     23  H   UNL     1      14.115   9.330   4.809  1.00  0.00     0.190 HD
ENDBRANCH  15  16
ENDBRANCH  14  15
ENDBRANCH  13  14
ENDBRANCH   1  13
TORSDOF 7
ENDMDL
MODEL 7
REMARK VINA RESULT:    -4.781      3.373      4.721
REMARK INTER + INTRA:          -6.923
REMARK INTER:                  -6.323
REMARK INTRA:                  -0.600
REMARK UNBOUND:                -0.325
REMARK SMILES Cc1n[nH]c(C)c1CCCOc1cc(C(=O)O)ccc1F
REMARK SMILES IDX 11 1 12 2 14 3 18 4 13 5 19 6 20 7 21 8 15 9 16 10 17 11
REMARK SMILES IDX 10 13 9 14 8 15 7 16 5 17 2 18 4 19 3 20 6 21 1 22
REMARK H PARENT 17 12 4 23
ROOT
ATOM      1  O   UNL     1      11.180   5.034  -0.877  1.00  0.00    -0.490 OA
ENDROOT
BRANCH   1   2
ATOM      2  C   UNL     1      10.180   4.163  -1.177  1.00  0.00     0.155 A 
ATOM      3  C   UNL     1       9.244   1.950  -1.096  1.00  0.00     0.063 A 
ATOM      4  C   UNL     1       8.121   2.403  -1.793  1.00  0.00     0.019 A 
ATOM      5  C   UNL     1      10.275   2.840  -0.789  1.00  0.00     0.065 A 
ATOM      6  C   UNL     1       8.032   3.726  -2.171  1.00  0.00     0.044 A 
ATOM      7  C   UNL     1       9.054   4.608  -1.861  1.00  0.00     0.165 A 
ATOM      8  F   UNL     1       8.960   5.904  -2.234  1.00  0.00    -0.203 F 
BRANCH   3   9
ATOM      9  C   UNL     1       9.342   0.534  -0.690  1.00  0.00     0.335 C 
ATOM     10  O   UNL     1       8.487  -0.257  -1.031  1.00  0.00    -0.246 OA
BRANCH   9  11
ATOM     11  O   UNL     1      10.386   0.118   0.055  1.00  0.00    -0.478 OA
ATOM     12  H   UNL     1      11.258   0.134  -0.364  1.00  0.00     0.297 HD
ENDBRANCH   9  11
ENDBRANCH   3   9
ENDBRANCH   1   2
BRANCH   1  13
ATOM     13  C   UNL     1      11.356   5.369   0.502  1.00  0.00     0.230 C 
BRANCH  13  14
ATOM     14  C   UNL     1      11.583   6.875   0.636  1.00  0.00     0.046 C 
BRANCH  14  15
ATOM     15  C   UNL     1      13.086   7.165   0.648  1.00  0.00     0.043 C 
BRANCH  15  16
ATOM     16  C   UNL     1      13.400   8.141   1.753  1.00  0.00    -0.004 A 
ATOM     17  C   UNL     1      13.547   7.839   3.064  1.00  0.00     0.036 A 
ATOM     18  C   UNL     1      13.599   9.517   1.604  1.00  0.00     0.063 A 
ATOM     19  N   UNL     1      13.822   8.985   3.722  1.00  0.00    -0.282 N 
ATOM     20  N   UNL     1      13.845  10.025   2.784  1.00  0.00    -0.181 NA
ATOM     21  C   UNL     1      13.426   6.469   3.679  1.00  0.00     0.066 C 
ATOM     22  C   UNL     1      13.529  10.285   0.308  1.00  0.00     0.069 C 
ATOM     23  H   UNL     1      13.976   9.073   4.675  1.00  0.00     0.190 HD
ENDBRANCH  15  16
ENDBRANCH  14  15
ENDBRANCH  13  14
ENDBRANCH   1  13
TORSDOF 7
ENDMDL
MODEL 8
REMARK VINA RESULT:    -4.780      3.391      4.696
REMARK INTER + INTRA:          -6.921
REMARK INTER:                  -6.315
REMARK INTRA:                  -0.606
REMARK UNBOUND:                -0.325
REMARK SMILES Cc1n[nH]c(C)c1CCCOc1cc(C(=O)O)ccc1F
REMARK SMILES IDX 11 1 12 2 14 3 18 4 13 5 19 6 20 7 21 8 15 9 16 10 17 11
REMARK SMILES IDX 10 13 9 14 8 15 7 16 5 17 2 18 4 19 3 20 6 21 1 22
REMARK H PARENT 17 12 4 23
ROOT
ATOM      1  O   UNL     1      11.229   5.028  -0.842  1.00  0.00    -0.490 OA
ENDROOT
BRANCH   1   2
ATOM      2  C   UNL     1      10.229   4.160  -1.151  1.00  0.00     0.155 A 
ATOM      3  C   UNL     1       9.289   1.948  -1.081  1.00  0.00     0.063 A 
ATOM      4  C   UNL     1       8.170   2.405  -1.782  1.00  0.00     0.019 A 
ATOM      5  C   UNL     1      10.320   2.835  -0.767  1.00  0.00     0.065 A 
ATOM      6  C   UNL     1       8.085   3.730  -2.156  1.00  0.00     0.044 A 
ATOM      7  C   UNL     1       9.107   4.609  -1.839  1.00  0.00     0.165 A 
ATOM      8  F   UNL     1       9.017   5.906  -2.207  1.00  0.00    -0.203 F 
BRANCH   3   9
ATOM      9  C   UNL     1       9.383   0.530  -0.680  1.00  0.00     0.335 C 
ATOM     10  O   UNL     1       8.523  -0.256  -1.021  1.00  0.00    -0.246 OA
BRANCH   9  11
ATOM     11  O   UNL     1      10.427   0.108   0.060  1.00  0.00    -0.478 OA
ATOM     12  H   UNL     1      10.868   0.768   0.614  1.00  0.00     0.297 HD
ENDBRANCH   9  11
ENDBRANCH   3   9
ENDBRANCH   1   2
BRANCH   1  13
ATOM     13  C   UNL     1      11.363   5.401   0.532  1.00  0.00     0.230 C 
BRANCH  13  14
ATOM     14  C   UNL     1      11.579   6.912   0.630  1.00  0.00     0.046 C 
BRANCH  14  15
ATOM     15  C   UNL     1      13.079   7.214   0.620  1.00  0.00     0.043 C 
BRANCH  15  16
ATOM     16  C   UNL     1      13.406   8.176   1.733  1.00  0.00    -0.004 A 
ATOM     17  C   UNL     1      13.607   9.508   1.602  1.00  0.00     0.036 A 
ATOM     18  C   UNL     1      13.549   7.851   3.086  1.00  0.00     0.063 A 
ATOM     19  N   UNL     1      13.874  10.006   2.827  1.00  0.00    -0.282 N 
ATOM     20  N   UNL     1      13.836   8.945   3.742  1.00  0.00    -0.181 NA
ATOM     21  C   UNL     1      13.543  10.293   0.318  1.00  0.00     0.066 C 
ATOM     22  C   UNL     1      13.409   6.474   3.684  1.00  0.00     0.069 C 
ATOM     23  H   UNL     1      14.060  10.934   3.038  1.00  0.00     0.190 HD
ENDBRANCH  15  16
ENDBRANCH  14  15
ENDBRANCH  13  14
ENDBRANCH   1  13
TORSDOF 7
ENDMDL
MODEL 9
REMARK VINA RESULT:    -4.439      4.776      8.187
REMARK INTER + INTRA:          -6.452
REMARK INTER:                  -5.799
REMARK INTRA:                  -0.653
REMARK UNBOUND:                -0.325
REMARK SMILES Cc1n[nH]c(C)c1CCCOc1cc(C(=O)O)ccc1F
REMARK SMILES IDX 11 1 12 2 14 3 18 4 13 5 19 6 20 7 21 8 15 9 16 10 17 11
REMARK SMILES IDX 10 13 9 14 8 15 7 16 5 17 2 18 4 19 3 20 6 21 1 22
REMARK H PARENT 17 12 4 23
ROOT
ATOM      1  O   UNL     1      10.965   5.774  -0.054  1.00  0.00    -0.490 OA
ENDROOT
BRANCH   1   2
ATOM      2  C   UNL     1      11.849   6.460   0.719  1.00  0.00     0.155 A 
ATOM      3  C   UNL     1      13.643   8.047   0.932  1.00  0.00     0.063 A 
ATOM      4  C   UNL     1      13.639   7.860   2.317  1.00  0.00     0.019 A 
ATOM      5  C   UNL     1      12.740   7.341   0.134  1.00  0.00     0.065 A 
ATOM      6  C   UNL     1      12.742   6.984   2.891  1.00  0.00     0.044 A 
ATOM      7  C   UNL     1      11.844   6.288   2.099  1.00  0.00     0.165 A 
ATOM      8  F   UNL     1      10.968   5.431   2.668  1.00  0.00    -0.203 F 
BRANCH   3   9
ATOM      9  C   UNL     1      14.601   8.984   0.314  1.00  0.00     0.335 C 
ATOM     10  O   UNL     1      15.215   9.769   1.006  1.00  0.00    -0.246 OA
BRANCH   9  11
ATOM     11  O   UNL     1      14.798   8.963  -1.019  1.00  0.00    -0.478 OA
ATOM     12  H   UNL     1      14.853   9.818  -1.469  1.00  0.00     0.297 HD
ENDBRANCH   9  11
ENDBRANCH   3   9
ENDBRANCH   1   2
BRANCH   1  13
ATOM     13  C   UNL     1      11.467   4.638  -0.761  1.00  0.00     0.230 C 
BRANCH  13  14
ATOM     14  C   UNL     1      10.349   4.031  -1.610  1.00  0.00     0.046 C 
BRANCH  14  15
ATOM     15  C   UNL     1       9.182   3.630  -0.705  1.00  0.00     0.043 C 
BRANCH  15  16
ATOM     16  C   UNL     1       8.316   2.624  -1.418  1.00  0.00    -0.004 A 
ATOM     17  C   UNL     1       7.313   2.906  -2.281  1.00  0.00     0.036 A 
ATOM     18  C   UNL     1       8.411   1.232  -1.309  1.00  0.00     0.063 A 
ATOM     19  N   UNL     1       6.787   1.735  -2.698  1.00  0.00    -0.282 N 
ATOM     20  N   UNL     1       7.490   0.699  -2.070  1.00  0.00    -0.181 NA
ATOM     21  C   UNL     1       6.863   4.281  -2.701  1.00  0.00     0.066 C 
ATOM     22  C   UNL     1       9.395   0.478  -0.452  1.00  0.00     0.069 C 
ATOM     23  H   UNL     1       6.052   1.629  -3.321  1.00  0.00     0.190 HD
ENDBRANCH  15  16
ENDBRANCH  14  15
ENDBRANCH  13  14
ENDBRANCH   1  13
TORSDOF 7
ENDMDL
