MODEL 1
REMARK VINA RESULT:    -4.207      0.000      0.000
REMARK INTER + INTRA:          -5.104
REMARK INTER:                  -4.822
REMARK INTRA:                  -0.282
REMARK UNBOUND:                -0.282
REMARK SMILES O=C(O)c1ccc2nc(-c3cc(Cl)cc(Cl)c3)oc2c1
REMARK SMILES IDX 5 1 6 2 20 3 8 4 18 5 4 6 9 7 7 8 19 9 2 10 1 11 3 12 10 14
REMARK SMILES IDX 11 15 17 16 12 17 15 18 14 19 13 20 16 21
REMARK H PARENT 3 13
ROOT
ATOM      1  C   UNL     1      14.300   9.060   2.972  1.00  0.00     0.018 A 
ATOM      2  C   UNL     1      14.048   8.700   1.682  1.00  0.00     0.033 A 
ATOM      3  C   UNL     1      12.987   7.186   3.776  1.00  0.00     0.065 A 
ATOM      4  N   UNL     1      12.847   6.987   0.267  1.00  0.00    -0.209 NA
ATOM      5  O   UNL     1      12.019   5.816   1.903  1.00  0.00    -0.436 OA
ATOM      6  C   UNL     1      13.775   8.309   4.034  1.00  0.00     0.063 A 
ATOM      7  C   UNL     1      12.113   5.945   0.566  1.00  0.00     0.227 A 
ATOM      8  C   UNL     1      13.259   7.576   1.410  1.00  0.00     0.110 A 
ATOM      9  C   UNL     1      12.726   6.821   2.468  1.00  0.00     0.156 A 
ENDROOT
BRANCH   6  10
ATOM     10  C   UNL     1      14.059   8.704   5.425  1.00  0.00     0.335 C 
ATOM     11  O   UNL     1      15.079   8.329   5.967  1.00  0.00    -0.246 OA
BRANCH  10  12
ATOM     12  O   UNL     1      13.186   9.482   6.097  1.00  0.00    -0.478 OA
ATOM     13  H   UNL     1      12.339   9.084   6.337  1.00  0.00     0.297 HD
ENDBRANCH  10  12
ENDBRANCH   6  10
BRANCH   7  14
ATOM     14  C   UNL     1      11.480   5.043  -0.419  1.00  0.00     0.040 A 
ATOM     15  C   UNL     1      10.167   4.611  -0.232  1.00  0.00     0.034 A 
ATOM     16  C   UNL     1      12.196   4.619  -1.541  1.00  0.00     0.034 A 
ATOM     17  C   UNL     1       9.581   3.769  -1.157  1.00  0.00     0.043 A 
ATOM     18  C   UNL     1      11.599   3.777  -2.458  1.00  0.00     0.043 A 
ATOM     19  C   UNL     1      10.296   3.353  -2.267  1.00  0.00     0.041 A 
ATOM     20  Cl  UNL     1       7.947   3.231  -0.927  1.00  0.00    -0.084 Cl
ATOM     21  Cl  UNL     1      12.487   3.249  -3.854  1.00  0.00    -0.084 Cl
ENDBRANCH   7  14
TORSDOF 3
ENDMDL
MODEL 2
REMARK VINA RESULT:    -4.202      0.004      2.019
REMARK INTER + INTRA:          -5.098
REMARK INTER:                  -4.816
REMARK INTRA:                  -0.282
REMARK UNBOUND:                -0.282
REMARK SMILES O=C(O)c1ccc2nc(-c3cc(Cl)cc(Cl)c3)oc2c1
REMARK SMILES IDX 5 1 6 2 20 3 8 4 18 5 4 6 9 7 7 8 19 9 2 10 1 11 3 12 10 14
REMARK SMILES IDX 11 15 17 16 12 17 15 18 14 19 13 20 16 21
REMARK H PARENT 3 13
ROOT
ATOM      1  C   UNL     1      14.302   9.060   2.974  1.00  0.00     0.018 A 
ATOM      2  C   UNL     1      14.050   8.700   1.684  1.00  0.00     0.033 A 
ATOM      3  C   UNL     1      12.990   7.185   3.777  1.00  0.00     0.065 A 
ATOM      4  N   UNL     1      12.849   6.987   0.268  1.00  0.00    -0.209 NA
ATOM      5  O   UNL     1      12.022   5.815   1.904  1.00  0.00    -0.436 OA
ATOM      6  C   UNL     1      13.778   8.308   4.035  1.00  0.00     0.063 A 
ATOM      7  C   UNL     1      12.116   5.944   0.567  1.00  0.00     0.227 A 
ATOM      8  C   UNL     1      13.261   7.576   1.411  1.00  0.00     0.110 A 
ATOM      9  C   UNL     1      12.728   6.820   2.470  1.00  0.00     0.156 A 
ENDROOT
BRANCH   6  10
ATOM     10  C   UNL     1      14.061   8.703   5.427  1.00  0.00     0.335 C 
ATOM     11  O   UNL     1      15.082   8.328   5.969  1.00  0.00    -0.246 OA
BRANCH  10  12
ATOM     12  O   UNL     1      13.188   9.479   6.099  1.00  0.00    -0.478 OA
ATOM     13  H   UNL     1      12.362   9.702   5.649  1.00  0.00     0.297 HD
ENDBRANCH  10  12
ENDBRANCH   6  10
BRANCH   7  14
ATOM     14  C   UNL     1      11.483   5.042  -0.418  1.00  0.00     0.040 A 
ATOM     15  C   UNL     1      12.196   4.622  -1.542  1.00  0.00     0.034 A 
ATOM     16  C   UNL     1      10.170   4.609  -0.229  1.00  0.00     0.034 A 
ATOM     17  C   UNL     1      11.599   3.778  -2.458  1.00  0.00     0.043 A 
ATOM     18  C   UNL     1       9.585   3.766  -1.152  1.00  0.00     0.043 A 
ATOM     19  C   UNL     1      10.297   3.352  -2.265  1.00  0.00     0.041 A 
ATOM     20  Cl  UNL     1      12.484   3.253  -3.857  1.00  0.00    -0.084 Cl
ATOM     21  Cl  UNL     1       7.951   3.225  -0.918  1.00  0.00    -0.084 Cl
ENDBRANCH   7  14
TORSDOF 3
ENDMDL
MODEL 3
REMARK VINA RESULT:    -3.817      3.849      7.474
REMARK INTER + INTRA:          -4.657
REMARK INTER:                  -4.377
REMARK INTRA:                  -0.279
REMARK UNBOUND:                -0.282
REMARK SMILES O=C(O)c1ccc2nc(-c3cc(Cl)cc(Cl)c3)oc2c1
REMARK SMILES IDX 5 1 6 2 20 3 8 4 18 5 4 6 9 7 7 8 19 9 2 10 1 11 3 12 10 14
REMARK SMILES IDX 11 15 17 16 12 17 15 18 14 19 13 20 16 21
REMARK H PARENT 3 13
ROOT
ATOM      1  C   UNL     1      10.707   3.228  -2.319  1.00  0.00     0.018 A 
ATOM      2  C   UNL     1      11.837   3.927  -2.015  1.00  0.00     0.033 A 
ATOM      3  C   UNL     1       9.471   4.443  -0.623  1.00  0.00     0.065 A 
ATOM      4  N   UNL     1      12.743   5.730  -0.495  1.00  0.00    -0.209 NA
ATOM      5  O   UNL     1      10.897   6.122   0.588  1.00  0.00    -0.436 OA
ATOM      6  C   UNL     1       9.512   3.478  -1.630  1.00  0.00     0.063 A 
ATOM      7  C   UNL     1      12.195   6.453   0.450  1.00  0.00     0.227 A 
ATOM      8  C   UNL     1      11.810   4.899  -1.007  1.00  0.00     0.110 A 
ATOM      9  C   UNL     1      10.616   5.151  -0.308  1.00  0.00     0.156 A 
ENDROOT
BRANCH   6  10
ATOM     10  C   UNL     1       8.295   2.720  -1.972  1.00  0.00     0.335 C 
ATOM     11  O   UNL     1       8.261   1.517  -1.805  1.00  0.00    -0.246 OA
BRANCH  10  12
ATOM     12  O   UNL     1       7.219   3.360  -2.470  1.00  0.00    -0.478 OA
ATOM     13  H   UNL     1       6.473   3.497  -1.871  1.00  0.00     0.297 HD
ENDBRANCH  10  12
ENDBRANCH   6  10
BRANCH   7  14
ATOM     14  C   UNL     1      12.899   7.479   1.247  1.00  0.00     0.040 A 
ATOM     15  C   UNL     1      13.153   7.262   2.602  1.00  0.00     0.034 A 
ATOM     16  C   UNL     1      13.311   8.671   0.647  1.00  0.00     0.034 A 
ATOM     17  C   UNL     1      13.812   8.225   3.341  1.00  0.00     0.043 A 
ATOM     18  C   UNL     1      13.969   9.626   1.396  1.00  0.00     0.043 A 
ATOM     19  C   UNL     1      14.218   9.404   2.740  1.00  0.00     0.041 A 
ATOM     20  Cl  UNL     1      14.131   7.957   5.026  1.00  0.00    -0.084 Cl
ATOM     21  Cl  UNL     1      14.482  11.108   0.652  1.00  0.00    -0.084 Cl
ENDBRANCH   7  14
TORSDOF 3
ENDMDL
MODEL 4
REMARK VINA RESULT:    -3.812      3.849      7.606
REMARK INTER + INTRA:          -4.651
REMARK INTER:                  -4.372
REMARK INTRA:                  -0.279
REMARK UNBOUND:                -0.282
REMARK SMILES O=C(O)c1ccc2nc(-c3cc(Cl)cc(Cl)c3)oc2c1
REMARK SMILES IDX 5 1 6 2 20 3 8 4 18 5 4 6 9 7 7 8 19 9 2 10 1 11 3 12 10 14
REMARK SMILES IDX 11 15 17 16 12 17 15 18 14 19 13 20 16 21
REMARK H PARENT 3 13
ROOT
ATOM      1  C   UNL     1      10.712   3.229  -2.320  1.00  0.00     0.018 A 
ATOM      2  C   UNL     1      11.840   3.933  -2.022  1.00  0.00     0.033 A 
ATOM      3  C   UNL     1       9.480   4.435  -0.615  1.00  0.00     0.065 A 
ATOM      4  N   UNL     1      12.745   5.739  -0.505  1.00  0.00    -0.209 NA
ATOM      5  O   UNL     1      10.904   6.120   0.590  1.00  0.00    -0.436 OA
ATOM      6  C   UNL     1       9.519   3.471  -1.624  1.00  0.00     0.063 A 
ATOM      7  C   UNL     1      12.199   6.458   0.444  1.00  0.00     0.227 A 
ATOM      8  C   UNL     1      11.814   4.903  -1.013  1.00  0.00     0.110 A 
ATOM      9  C   UNL     1      10.623   5.149  -0.307  1.00  0.00     0.156 A 
ENDROOT
BRANCH   6  10
ATOM     10  C   UNL     1       8.304   2.707  -1.959  1.00  0.00     0.335 C 
ATOM     11  O   UNL     1       8.254   1.514  -1.731  1.00  0.00    -0.246 OA
BRANCH  10  12
ATOM     12  O   UNL     1       7.248   3.330  -2.518  1.00  0.00    -0.478 OA
ATOM     13  H   UNL     1       7.339   3.605  -3.440  1.00  0.00     0.297 HD
ENDBRANCH  10  12
ENDBRANCH   6  10
BRANCH   7  14
ATOM     14  C   UNL     1      12.902   7.487   1.238  1.00  0.00     0.040 A 
ATOM     15  C   UNL     1      13.313   8.677   0.636  1.00  0.00     0.034 A 
ATOM     16  C   UNL     1      13.159   7.272   2.593  1.00  0.00     0.034 A 
ATOM     17  C   UNL     1      13.969   9.635   1.384  1.00  0.00     0.043 A 
ATOM     18  C   UNL     1      13.815   8.237   3.330  1.00  0.00     0.043 A 
ATOM     19  C   UNL     1      14.220   9.416   2.727  1.00  0.00     0.041 A 
ATOM     20  Cl  UNL     1      14.480  11.117   0.637  1.00  0.00    -0.084 Cl
ATOM     21  Cl  UNL     1      14.135   7.972   5.016  1.00  0.00    -0.084 Cl
ENDBRANCH   7  14
TORSDOF 3
ENDMDL
MODEL 5
REMARK VINA RESULT:    -3.578      1.373      1.874
REMARK INTER + INTRA:          -4.382
REMARK INTER:                  -4.089
REMARK INTRA:                  -0.294
REMARK UNBOUND:                -0.282
REMARK SMILES O=C(O)c1ccc2nc(-c3cc(Cl)cc(Cl)c3)oc2c1
REMARK SMILES IDX 5 1 6 2 20 3 8 4 18 5 4 6 9 7 7 8 19 9 2 10 1 11 3 12 10 14
REMARK SMILES IDX 11 15 17 16 12 17 15 18 14 19 13 20 16 21
REMARK H PARENT 3 13
ROOT
ATOM      1  C   UNL     1      13.764   8.278   3.984  1.00  0.00     0.018 A 
ATOM      2  C   UNL     1      12.927   7.238   3.710  1.00  0.00     0.033 A 
ATOM      3  C   UNL     1      14.214   8.571   1.619  1.00  0.00     0.065 A 
ATOM      4  N   UNL     1      11.967   5.871   1.815  1.00  0.00    -0.209 NA
ATOM      5  O   UNL     1      12.977   6.911   0.193  1.00  0.00    -0.436 OA
ATOM      6  C   UNL     1      14.415   8.958   2.945  1.00  0.00     0.063 A 
ATOM      7  C   UNL     1      12.126   5.919   0.515  1.00  0.00     0.227 A 
ATOM      8  C   UNL     1      12.717   6.839   2.384  1.00  0.00     0.110 A 
ATOM      9  C   UNL     1      13.370   7.512   1.337  1.00  0.00     0.156 A 
ENDROOT
BRANCH   6  10
ATOM     10  C   UNL     1      15.312  10.086   3.254  1.00  0.00     0.335 C 
ATOM     11  O   UNL     1      15.692  10.821   2.364  1.00  0.00    -0.246 OA
BRANCH  10  12
ATOM     12  O   UNL     1      15.713  10.302   4.523  1.00  0.00    -0.478 OA
ATOM     13  H   UNL     1      15.937  11.211   4.763  1.00  0.00     0.297 HD
ENDBRANCH  10  12
ENDBRANCH   6  10
BRANCH   7  14
ATOM     14  C   UNL     1      11.467   5.017  -0.452  1.00  0.00     0.040 A 
ATOM     15  C   UNL     1      10.154   4.597  -0.238  1.00  0.00     0.034 A 
ATOM     16  C   UNL     1      12.158   4.582  -1.585  1.00  0.00     0.034 A 
ATOM     17  C   UNL     1       9.544   3.755  -1.146  1.00  0.00     0.043 A 
ATOM     18  C   UNL     1      11.537   3.740  -2.487  1.00  0.00     0.043 A 
ATOM     19  C   UNL     1      10.234   3.326  -2.268  1.00  0.00     0.041 A 
ATOM     20  Cl  UNL     1       7.911   3.231  -0.882  1.00  0.00    -0.084 Cl
ATOM     21  Cl  UNL     1      12.394   3.197  -3.896  1.00  0.00    -0.084 Cl
ENDBRANCH   7  14
TORSDOF 3
ENDMDL
MODEL 6
REMARK VINA RESULT:    -3.338      4.015      7.973
REMARK INTER + INTRA:          -4.108
REMARK INTER:                  -3.818
REMARK INTRA:                  -0.290
REMARK UNBOUND:                -0.282
REMARK SMILES O=C(O)c1ccc2nc(-c3cc(Cl)cc(Cl)c3)oc2c1
REMARK SMILES IDX 5 1 6 2 20 3 8 4 18 5 4 6 9 7 7 8 19 9 2 10 1 11 3 12 10 14
REMARK SMILES IDX 11 15 17 16 12 17 15 18 14 19 13 20 16 21
REMARK H PARENT 3 13
ROOT
ATOM      1  C   UNL     1       7.906   3.208  -2.461  1.00  0.00     0.018 A 
ATOM      2  C   UNL     1       8.295   4.460  -2.088  1.00  0.00     0.033 A 
ATOM      3  C   UNL     1       9.709   2.235  -1.165  1.00  0.00     0.065 A 
ATOM      4  N   UNL     1      10.009   5.711  -0.717  1.00  0.00    -0.209 NA
ATOM      5  O   UNL     1      11.108   3.973  -0.007  1.00  0.00    -0.436 OA
ATOM      6  C   UNL     1       8.604   2.082  -2.005  1.00  0.00     0.063 A 
ATOM      7  C   UNL     1      11.020   5.316   0.016  1.00  0.00     0.227 A 
ATOM      8  C   UNL     1       9.401   4.627  -1.245  1.00  0.00     0.110 A 
ATOM      9  C   UNL     1      10.110   3.503  -0.787  1.00  0.00     0.156 A 
ENDROOT
BRANCH   6  10
ATOM     10  C   UNL     1       8.171   0.733  -2.411  1.00  0.00     0.335 C 
ATOM     11  O   UNL     1       7.550   0.580  -3.444  1.00  0.00    -0.246 OA
BRANCH  10  12
ATOM     12  O   UNL     1       8.461  -0.331  -1.636  1.00  0.00    -0.478 OA
ATOM     13  H   UNL     1       8.382  -0.212  -0.680  1.00  0.00     0.297 HD
ENDBRANCH  10  12
ENDBRANCH   6  10
BRANCH   7  14
ATOM     14  C   UNL     1      11.930   6.214   0.758  1.00  0.00     0.040 A 
ATOM     15  C   UNL     1      12.503   7.315   0.120  1.00  0.00     0.034 A 
ATOM     16  C   UNL     1      12.220   5.963   2.100  1.00  0.00     0.034 A 
ATOM     17  C   UNL     1      13.351   8.150   0.819  1.00  0.00     0.043 A 
ATOM     18  C   UNL     1      13.069   6.805   2.789  1.00  0.00     0.043 A 
ATOM     19  C   UNL     1      13.635   7.896   2.150  1.00  0.00     0.041 A 
ATOM     20  Cl  UNL     1      14.065   9.520   0.028  1.00  0.00    -0.084 Cl
ATOM     21  Cl  UNL     1      13.431   6.495   4.459  1.00  0.00    -0.084 Cl
ENDBRANCH   7  14
TORSDOF 3
ENDMDL
MODEL 7
REMARK VINA RESULT:    -3.322      4.010      7.823
REMARK INTER + INTRA:          -4.090
REMARK INTER:                  -3.800
REMARK INTRA:                  -0.290
REMARK UNBOUND:                -0.282
REMARK SMILES O=C(O)c1ccc2nc(-c3cc(Cl)cc(Cl)c3)oc2c1
REMARK SMILES IDX 5 1 6 2 20 3 8 4 18 5 4 6 9 7 7 8 19 9 2 10 1 11 3 12 10 14
REMARK SMILES IDX 11 15 17 16 12 17 15 18 14 19 13 20 16 21
REMARK H PARENT 3 13
ROOT
ATOM      1  C   UNL     1       7.931   3.190  -2.432  1.00  0.00     0.018 A 
ATOM      2  C   UNL     1       8.325   4.441  -2.060  1.00  0.00     0.033 A 
ATOM      3  C   UNL     1       9.732   2.212  -1.137  1.00  0.00     0.065 A 
ATOM      4  N   UNL     1      10.047   5.688  -0.695  1.00  0.00    -0.209 NA
ATOM      5  O   UNL     1      11.140   3.947   0.016  1.00  0.00    -0.436 OA
ATOM      6  C   UNL     1       8.626   2.062  -1.975  1.00  0.00     0.063 A 
ATOM      7  C   UNL     1      11.057   5.290   0.037  1.00  0.00     0.227 A 
ATOM      8  C   UNL     1       9.433   4.605  -1.220  1.00  0.00     0.110 A 
ATOM      9  C   UNL     1      10.139   3.479  -0.761  1.00  0.00     0.156 A 
ENDROOT
BRANCH   6  10
ATOM     10  C   UNL     1       8.187   0.714  -2.378  1.00  0.00     0.335 C 
ATOM     11  O   UNL     1       7.569   0.561  -3.413  1.00  0.00    -0.246 OA
BRANCH  10  12
ATOM     12  O   UNL     1       8.469  -0.349  -1.599  1.00  0.00    -0.478 OA
ATOM     13  H   UNL     1       8.287  -1.224  -1.967  1.00  0.00     0.297 HD
ENDBRANCH  10  12
ENDBRANCH   6  10
BRANCH   7  14
ATOM     14  C   UNL     1      11.971   6.185   0.777  1.00  0.00     0.040 A 
ATOM     15  C   UNL     1      12.251   5.946   2.123  1.00  0.00     0.034 A 
ATOM     16  C   UNL     1      12.559   7.275   0.130  1.00  0.00     0.034 A 
ATOM     17  C   UNL     1      13.107   6.786   2.807  1.00  0.00     0.043 A 
ATOM     18  C   UNL     1      13.413   8.107   0.826  1.00  0.00     0.043 A 
ATOM     19  C   UNL     1      13.686   7.865   2.161  1.00  0.00     0.041 A 
ATOM     20  Cl  UNL     1      13.456   6.489   4.482  1.00  0.00    -0.084 Cl
ATOM     21  Cl  UNL     1      14.144   9.463   0.024  1.00  0.00    -0.084 Cl
ENDBRANCH   7  14
TORSDOF 3
ENDMDL
MODEL 8
REMARK VINA RESULT:    -3.084      5.176      6.786
REMARK INTER + INTRA:          -3.817
REMARK INTER:                  -3.521
REMARK INTRA:                  -0.296
REMARK UNBOUND:                -0.282
REMARK SMILES O=C(O)c1ccc2nc(-c3cc(Cl)cc(Cl)c3)oc2c1
REMARK SMILES IDX 5 1 6 2 20 3 8 4 18 5 4 6 9 7 7 8 19 9 2 10 1 11 3 12 10 14
REMARK SMILES IDX 11 15 17 16 12 17 15 18 14 19 13 20 16 21
REMARK H PARENT 3 13
ROOT
ATOM      1  C   UNL     1      12.968   5.221  -1.444  1.00  0.00     0.018 A 
ATOM      2  C   UNL     1      11.755   5.093  -0.835  1.00  0.00     0.033 A 
ATOM      3  C   UNL     1      12.361   3.522  -3.065  1.00  0.00     0.065 A 
ATOM      4  N   UNL     1       9.569   3.831  -0.947  1.00  0.00    -0.209 NA
ATOM      5  O   UNL     1      10.051   2.607  -2.680  1.00  0.00    -0.436 OA
ATOM      6  C   UNL     1      13.286   4.441  -2.565  1.00  0.00     0.063 A 
ATOM      7  C   UNL     1       9.120   2.902  -1.754  1.00  0.00     0.227 A 
ATOM      8  C   UNL     1      10.819   4.174  -1.326  1.00  0.00     0.110 A 
ATOM      9  C   UNL     1      11.132   3.385  -2.447  1.00  0.00     0.156 A 
ENDROOT
BRANCH   6  10
ATOM     10  C   UNL     1      14.598   4.594  -3.219  1.00  0.00     0.335 C 
ATOM     11  O   UNL     1      14.898   3.878  -4.153  1.00  0.00    -0.246 OA
BRANCH  10  12
ATOM     12  O   UNL     1      15.466   5.527  -2.779  1.00  0.00    -0.478 OA
ATOM     13  H   UNL     1      15.260   6.449  -2.982  1.00  0.00     0.297 HD
ENDBRANCH  10  12
ENDBRANCH   6  10
BRANCH   7  14
ATOM     14  C   UNL     1       7.787   2.270  -1.659  1.00  0.00     0.040 A 
ATOM     15  C   UNL     1       7.591   0.973  -2.134  1.00  0.00     0.034 A 
ATOM     16  C   UNL     1       6.719   2.971  -1.096  1.00  0.00     0.034 A 
ATOM     17  C   UNL     1       6.344   0.388  -2.042  1.00  0.00     0.043 A 
ATOM     18  C   UNL     1       5.476   2.375  -1.010  1.00  0.00     0.043 A 
ATOM     19  C   UNL     1       5.288   1.087  -1.482  1.00  0.00     0.041 A 
ATOM     20  Cl  UNL     1       6.098  -1.227  -2.630  1.00  0.00    -0.084 Cl
ATOM     21  Cl  UNL     1       4.146   3.244  -0.309  1.00  0.00    -0.084 Cl
ENDBRANCH   7  14
TORSDOF 3
ENDMDL
MODEL 9
REMARK VINA RESULT:    -3.080      5.177      6.626
REMARK INTER + INTRA:          -3.812
REMARK INTER:                  -3.516
REMARK INTRA:                  -0.296
REMARK UNBOUND:                -0.282
REMARK SMILES O=C(O)c1ccc2nc(-c3cc(Cl)cc(Cl)c3)oc2c1
REMARK SMILES IDX 5 1 6 2 20 3 8 4 18 5 4 6 9 7 7 8 19 9 2 10 1 11 3 12 10 14
REMARK SMILES IDX 11 15 17 16 12 17 15 18 14 19 13 20 16 21
REMARK H PARENT 3 13
ROOT
ATOM      1  C   UNL     1      12.969   5.223  -1.451  1.00  0.00     0.018 A 
ATOM      2  C   UNL     1      11.758   5.093  -0.841  1.00  0.00     0.033 A 
ATOM      3  C   UNL     1      12.362   3.526  -3.073  1.00  0.00     0.065 A 
ATOM      4  N   UNL     1       9.572   3.831  -0.952  1.00  0.00    -0.209 NA
ATOM      5  O   UNL     1      10.052   2.610  -2.687  1.00  0.00    -0.436 OA
ATOM      6  C   UNL     1      13.286   4.445  -2.574  1.00  0.00     0.063 A 
ATOM      7  C   UNL     1       9.122   2.903  -1.759  1.00  0.00     0.227 A 
ATOM      8  C   UNL     1      10.821   4.175  -1.332  1.00  0.00     0.110 A 
ATOM      9  C   UNL     1      11.133   3.387  -2.454  1.00  0.00     0.156 A 
ENDROOT
BRANCH   6  10
ATOM     10  C   UNL     1      14.598   4.598  -3.229  1.00  0.00     0.335 C 
ATOM     11  O   UNL     1      14.886   3.902  -4.181  1.00  0.00    -0.246 OA
BRANCH  10  12
ATOM     12  O   UNL     1      15.478   5.510  -2.770  1.00  0.00    -0.478 OA
ATOM     13  H   UNL     1      15.889   5.331  -1.914  1.00  0.00     0.297 HD
ENDBRANCH  10  12
ENDBRANCH   6  10
BRANCH   7  14
ATOM     14  C   UNL     1       7.790   2.271  -1.664  1.00  0.00     0.040 A 
ATOM     15  C   UNL     1       6.721   2.969  -1.101  1.00  0.00     0.034 A 
ATOM     16  C   UNL     1       7.596   0.971  -2.138  1.00  0.00     0.034 A 
ATOM     17  C   UNL     1       5.478   2.373  -1.016  1.00  0.00     0.043 A 
ATOM     18  C   UNL     1       6.349   0.386  -2.047  1.00  0.00     0.043 A 
ATOM     19  C   UNL     1       5.292   1.084  -1.487  1.00  0.00     0.041 A 
ATOM     20  Cl  UNL     1       4.147   3.240  -0.317  1.00  0.00    -0.084 Cl
ATOM     21  Cl  UNL     1       6.105  -1.229  -2.635  1.00  0.00    -0.084 Cl
ENDBRANCH   7  14
TORSDOF 3
ENDMDL
