MODEL 1
REMARK VINA RESULT:    -5.602      0.000      0.000
REMARK INTER + INTRA:          -8.020
REMARK INTER:                  -7.731
REMARK INTRA:                  -0.289
REMARK UNBOUND:                -0.289
REMARK SMILES Cc1n[nH]c(C)c1CCCOc1cc(C(=O)O)ccc1F
REMARK SMILES IDX 11 1 12 2 14 3 18 4 13 5 19 6 20 7 21 8 15 9 16 10 17 11
REMARK SMILES IDX 10 13 9 14 8 15 7 16 5 17 2 18 4 19 3 20 6 21 1 22
REMARK H PARENT 17 12 4 23
ROOT
ATOM      1  O   UNL     1       6.308  -2.449  -8.010  1.00  0.00    -0.490 OA
ENDROOT
BRANCH   1   2
ATOM      2  C   UNL     1       5.225  -1.759  -7.562  1.00  0.00     0.155 A 
ATOM      3  C   UNL     1       4.065   0.321  -7.235  1.00  0.00     0.063 A 
ATOM      4  C   UNL     1       3.000  -0.369  -6.649  1.00  0.00     0.019 A 
ATOM      5  C   UNL     1       5.180  -0.383  -7.691  1.00  0.00     0.065 A 
ATOM      6  C   UNL     1       3.051  -1.742  -6.530  1.00  0.00     0.044 A 
ATOM      7  C   UNL     1       4.157  -2.439  -6.988  1.00  0.00     0.165 A 
ATOM      8  F   UNL     1       4.201  -3.784  -6.868  1.00  0.00    -0.203 F 
BRANCH   3   9
ATOM      9  C   UNL     1       4.013   1.791  -7.365  1.00  0.00     0.335 C 
ATOM     10  O   UNL     1       5.036   2.423  -7.527  1.00  0.00    -0.246 OA
BRANCH   9  11
ATOM     11  O   UNL     1       2.828   2.430  -7.309  1.00  0.00    -0.478 OA
ATOM     12  H   UNL     1       2.481   2.786  -8.139  1.00  0.00     0.297 HD
ENDBRANCH   9  11
ENDBRANCH   3   9
ENDBRANCH   1   2
BRANCH   1  13
ATOM     13  C   UNL     1       6.058  -3.545  -8.894  1.00  0.00     0.230 C 
BRANCH  13  14
ATOM     14  C   UNL     1       6.764  -3.293 -10.228  1.00  0.00     0.046 C 
BRANCH  14  15
ATOM     15  C   UNL     1       5.890  -2.396 -11.106  1.00  0.00     0.043 C 
BRANCH  15  16
ATOM     16  C   UNL     1       6.421  -2.399 -12.516  1.00  0.00    -0.004 A 
ATOM     17  C   UNL     1       7.355  -1.557 -13.017  1.00  0.00     0.036 A 
ATOM     18  C   UNL     1       6.042  -3.277 -13.537  1.00  0.00     0.063 A 
ATOM     19  N   UNL     1       7.555  -1.887 -14.310  1.00  0.00    -0.282 N 
ATOM     20  N   UNL     1       6.716  -2.967 -14.614  1.00  0.00    -0.181 NA
ATOM     21  C   UNL     1       8.048  -0.451 -12.265  1.00  0.00     0.066 C 
ATOM     22  C   UNL     1       5.024  -4.383 -13.419  1.00  0.00     0.069 C 
ATOM     23  H   UNL     1       8.169  -1.452 -14.922  1.00  0.00     0.190 HD
ENDBRANCH  15  16
ENDBRANCH  14  15
ENDBRANCH  13  14
ENDBRANCH   1  13
TORSDOF 7
ENDMDL
MODEL 2
REMARK VINA RESULT:    -5.594      2.239      3.812
REMARK INTER + INTRA:          -8.008
REMARK INTER:                  -7.362
REMARK INTRA:                  -0.645
REMARK UNBOUND:                -0.289
REMARK SMILES Cc1n[nH]c(C)c1CCCOc1cc(C(=O)O)ccc1F
REMARK SMILES IDX 11 1 12 2 14 3 18 4 13 5 19 6 20 7 21 8 15 9 16 10 17 11
REMARK SMILES IDX 10 13 9 14 8 15 7 16 5 17 2 18 4 19 3 20 6 21 1 22
REMARK H PARENT 17 12 4 23
ROOT
ATOM      1  O   UNL     1       4.806   0.190  -9.478  1.00  0.00    -0.490 OA
ENDROOT
BRANCH   1   2
ATOM      2  C   UNL     1       4.213  -0.235  -8.330  1.00  0.00     0.155 A 
ATOM      3  C   UNL     1       3.412  -2.018  -6.930  1.00  0.00     0.063 A 
ATOM      4  C   UNL     1       3.009  -1.081  -5.974  1.00  0.00     0.019 A 
ATOM      5  C   UNL     1       4.017  -1.586  -8.112  1.00  0.00     0.065 A 
ATOM      6  C   UNL     1       3.215   0.264  -6.198  1.00  0.00     0.044 A 
ATOM      7  C   UNL     1       3.819   0.690  -7.369  1.00  0.00     0.165 A 
ATOM      8  F   UNL     1       4.018   2.009  -7.582  1.00  0.00    -0.203 F 
BRANCH   3   9
ATOM      9  C   UNL     1       3.194  -3.458  -6.693  1.00  0.00     0.335 C 
ATOM     10  O   UNL     1       2.588  -4.123  -7.508  1.00  0.00    -0.246 OA
BRANCH   9  11
ATOM     11  O   UNL     1       3.674  -4.037  -5.575  1.00  0.00    -0.478 OA
ATOM     12  H   UNL     1       4.324  -3.534  -5.064  1.00  0.00     0.297 HD
ENDBRANCH   9  11
ENDBRANCH   3   9
ENDBRANCH   1   2
BRANCH   1  13
ATOM     13  C   UNL     1       3.990   0.232 -10.652  1.00  0.00     0.230 C 
BRANCH  13  14
ATOM     14  C   UNL     1       4.836  -0.133 -11.873  1.00  0.00     0.046 C 
BRANCH  14  15
ATOM     15  C   UNL     1       5.911  -1.143 -11.465  1.00  0.00     0.043 C 
BRANCH  15  16
ATOM     16  C   UNL     1       6.648  -1.616 -12.691  1.00  0.00    -0.004 A 
ATOM     17  C   UNL     1       6.319  -2.682 -13.457  1.00  0.00     0.036 A 
ATOM     18  C   UNL     1       7.791  -1.026 -13.243  1.00  0.00     0.063 A 
ATOM     19  N   UNL     1       7.225  -2.768 -14.454  1.00  0.00    -0.282 N 
ATOM     20  N   UNL     1       8.141  -1.719 -14.296  1.00  0.00    -0.181 NA
ATOM     21  C   UNL     1       5.151  -3.607 -13.237  1.00  0.00     0.066 C 
ATOM     22  C   UNL     1       8.503   0.191 -12.710  1.00  0.00     0.069 C 
ATOM     23  H   UNL     1       7.239  -3.437 -15.156  1.00  0.00     0.190 HD
ENDBRANCH  15  16
ENDBRANCH  14  15
ENDBRANCH  13  14
ENDBRANCH   1  13
TORSDOF 7
ENDMDL
MODEL 3
REMARK VINA RESULT:    -4.803      3.246      4.590
REMARK INTER + INTRA:          -6.917
REMARK INTER:                  -6.346
REMARK INTRA:                  -0.571
REMARK UNBOUND:                -0.289
REMARK SMILES Cc1n[nH]c(C)c1CCCOc1cc(C(=O)O)ccc1F
REMARK SMILES IDX 11 1 12 2 14 3 18 4 13 5 19 6 20 7 21 8 15 9 16 10 17 11
REMARK SMILES IDX 10 13 9 14 8 15 7 16 5 17 2 18 4 19 3 20 6 21 1 22
REMARK H PARENT 17 12 4 23
ROOT
ATOM      1  O   UNL     1       6.201  -2.744 -12.535  1.00  0.00    -0.490 OA
ENDROOT
BRANCH   1   2
ATOM      2  C   UNL     1       5.787  -2.254 -11.336  1.00  0.00     0.155 A 
ATOM      3  C   UNL     1       4.547  -0.639 -10.056  1.00  0.00     0.063 A 
ATOM      4  C   UNL     1       4.945  -1.274  -8.877  1.00  0.00     0.019 A 
ATOM      5  C   UNL     1       4.974  -1.137 -11.289  1.00  0.00     0.065 A 
ATOM      6  C   UNL     1       5.751  -2.391  -8.933  1.00  0.00     0.044 A 
ATOM      7  C   UNL     1       6.169  -2.886 -10.158  1.00  0.00     0.165 A 
ATOM      8  F   UNL     1       6.959  -3.981 -10.206  1.00  0.00    -0.203 F 
BRANCH   3   9
ATOM      9  C   UNL     1       3.684   0.557  -9.999  1.00  0.00     0.335 C 
ATOM     10  O   UNL     1       3.452   1.088  -8.932  1.00  0.00    -0.246 OA
BRANCH   9  11
ATOM     11  O   UNL     1       3.159   1.063 -11.132  1.00  0.00    -0.478 OA
ATOM     12  H   UNL     1       3.137   2.026 -11.214  1.00  0.00     0.297 HD
ENDBRANCH   9  11
ENDBRANCH   3   9
ENDBRANCH   1   2
BRANCH   1  13
ATOM     13  C   UNL     1       5.189  -3.234 -13.418  1.00  0.00     0.230 C 
BRANCH  13  14
ATOM     14  C   UNL     1       5.633  -4.575 -14.007  1.00  0.00     0.046 C 
BRANCH  14  15
ATOM     15  C   UNL     1       6.211  -4.351 -15.406  1.00  0.00     0.043 C 
BRANCH  15  16
ATOM     16  C   UNL     1       5.704  -5.421 -16.337  1.00  0.00    -0.004 A 
ATOM     17  C   UNL     1       4.483  -5.456 -16.920  1.00  0.00     0.036 A 
ATOM     18  C   UNL     1       6.414  -6.550 -16.758  1.00  0.00     0.063 A 
ATOM     19  N   UNL     1       4.420  -6.571 -17.677  1.00  0.00    -0.282 N 
ATOM     20  N   UNL     1       5.643  -7.244 -17.555  1.00  0.00    -0.181 NA
ATOM     21  C   UNL     1       3.390  -4.432 -16.754  1.00  0.00     0.066 C 
ATOM     22  C   UNL     1       7.820  -6.912 -16.352  1.00  0.00     0.069 C 
ATOM     23  H   UNL     1       3.662  -6.857 -18.210  1.00  0.00     0.190 HD
ENDBRANCH  15  16
ENDBRANCH  14  15
ENDBRANCH  13  14
ENDBRANCH   1  13
TORSDOF 7
ENDMDL
MODEL 4
REMARK VINA RESULT:    -4.800      3.180      4.456
REMARK INTER + INTRA:          -6.913
REMARK INTER:                  -6.354
REMARK INTRA:                  -0.559
REMARK UNBOUND:                -0.289
REMARK SMILES Cc1n[nH]c(C)c1CCCOc1cc(C(=O)O)ccc1F
REMARK SMILES IDX 11 1 12 2 14 3 18 4 13 5 19 6 20 7 21 8 15 9 16 10 17 11
REMARK SMILES IDX 10 13 9 14 8 15 7 16 5 17 2 18 4 19 3 20 6 21 1 22
REMARK H PARENT 17 12 4 23
ROOT
ATOM      1  O   UNL     1       6.243  -2.782 -12.399  1.00  0.00    -0.490 OA
ENDROOT
BRANCH   1   2
ATOM      2  C   UNL     1       5.806  -2.288 -11.210  1.00  0.00     0.155 A 
ATOM      3  C   UNL     1       4.542  -0.668  -9.961  1.00  0.00     0.063 A 
ATOM      4  C   UNL     1       4.916  -1.299  -8.771  1.00  0.00     0.019 A 
ATOM      5  C   UNL     1       4.993  -1.170 -11.183  1.00  0.00     0.065 A 
ATOM      6  C   UNL     1       5.722  -2.417  -8.809  1.00  0.00     0.044 A 
ATOM      7  C   UNL     1       6.164  -2.916 -10.023  1.00  0.00     0.165 A 
ATOM      8  F   UNL     1       6.953  -4.013 -10.052  1.00  0.00    -0.203 F 
BRANCH   3   9
ATOM      9  C   UNL     1       3.679   0.529  -9.925  1.00  0.00     0.335 C 
ATOM     10  O   UNL     1       3.479   1.103  -8.874  1.00  0.00    -0.246 OA
BRANCH   9  11
ATOM     11  O   UNL     1       3.118   0.989 -11.060  1.00  0.00    -0.478 OA
ATOM     12  H   UNL     1       2.234   0.662 -11.277  1.00  0.00     0.297 HD
ENDBRANCH   9  11
ENDBRANCH   3   9
ENDBRANCH   1   2
BRANCH   1  13
ATOM     13  C   UNL     1       5.245  -3.181 -13.342  1.00  0.00     0.230 C 
BRANCH  13  14
ATOM     14  C   UNL     1       5.626  -4.534 -13.945  1.00  0.00     0.046 C 
BRANCH  14  15
ATOM     15  C   UNL     1       6.229  -4.321 -15.335  1.00  0.00     0.043 C 
BRANCH  15  16
ATOM     16  C   UNL     1       5.714  -5.381 -16.274  1.00  0.00    -0.004 A 
ATOM     17  C   UNL     1       6.397  -6.471 -16.696  1.00  0.00     0.036 A 
ATOM     18  C   UNL     1       4.444  -5.416 -16.859  1.00  0.00     0.063 A 
ATOM     19  N   UNL     1       5.589  -7.167 -17.524  1.00  0.00    -0.282 N 
ATOM     20  N   UNL     1       4.370  -6.482 -17.614  1.00  0.00    -0.181 NA
ATOM     21  C   UNL     1       7.805  -6.840 -16.311  1.00  0.00     0.066 C 
ATOM     22  C   UNL     1       3.352  -4.395 -16.663  1.00  0.00     0.069 C 
ATOM     23  H   UNL     1       5.814  -7.994 -17.977  1.00  0.00     0.190 HD
ENDBRANCH  15  16
ENDBRANCH  14  15
ENDBRANCH  13  14
ENDBRANCH   1  13
TORSDOF 7
ENDMDL
MODEL 5
REMARK VINA RESULT:    -4.786      3.597      5.432
REMARK INTER + INTRA:          -6.894
REMARK INTER:                  -6.311
REMARK INTRA:                  -0.583
REMARK UNBOUND:                -0.289
REMARK SMILES Cc1n[nH]c(C)c1CCCOc1cc(C(=O)O)ccc1F
REMARK SMILES IDX 11 1 12 2 14 3 18 4 13 5 19 6 20 7 21 8 15 9 16 10 17 11
REMARK SMILES IDX 10 13 9 14 8 15 7 16 5 17 2 18 4 19 3 20 6 21 1 22
REMARK H PARENT 17 12 4 23
ROOT
ATOM      1  O   UNL     1       6.058  -2.616 -13.072  1.00  0.00    -0.490 OA
ENDROOT
BRANCH   1   2
ATOM      2  C   UNL     1       5.767  -2.166 -11.822  1.00  0.00     0.155 A 
ATOM      3  C   UNL     1       5.735  -2.493  -9.440  1.00  0.00     0.063 A 
ATOM      4  C   UNL     1       5.174  -1.223  -9.278  1.00  0.00     0.019 A 
ATOM      5  C   UNL     1       6.030  -2.961 -10.722  1.00  0.00     0.065 A 
ATOM      6  C   UNL     1       4.921  -0.435 -10.381  1.00  0.00     0.044 A 
ATOM      7  C   UNL     1       5.220  -0.899 -11.651  1.00  0.00     0.165 A 
ATOM      8  F   UNL     1       4.969  -0.122 -12.727  1.00  0.00    -0.203 F 
BRANCH   3   9
ATOM      9  C   UNL     1       6.008  -3.339  -8.262  1.00  0.00     0.335 C 
ATOM     10  O   UNL     1       5.385  -3.167  -7.234  1.00  0.00    -0.246 OA
BRANCH   9  11
ATOM     11  O   UNL     1       6.943  -4.306  -8.330  1.00  0.00    -0.478 OA
ATOM     12  H   UNL     1       7.855  -4.050  -8.133  1.00  0.00     0.297 HD
ENDBRANCH   9  11
ENDBRANCH   3   9
ENDBRANCH   1   2
BRANCH   1  13
ATOM     13  C   UNL     1       5.067  -3.416 -13.720  1.00  0.00     0.230 C 
BRANCH  13  14
ATOM     14  C   UNL     1       5.706  -4.712 -14.223  1.00  0.00     0.046 C 
BRANCH  14  15
ATOM     15  C   UNL     1       6.264  -4.493 -15.631  1.00  0.00     0.043 C 
BRANCH  15  16
ATOM     16  C   UNL     1       5.767  -5.583 -16.544  1.00  0.00    -0.004 A 
ATOM     17  C   UNL     1       6.452  -6.692 -16.908  1.00  0.00     0.036 A 
ATOM     18  C   UNL     1       4.512  -5.632 -17.162  1.00  0.00     0.063 A 
ATOM     19  N   UNL     1       5.663  -7.413 -17.731  1.00  0.00    -0.282 N 
ATOM     20  N   UNL     1       4.451  -6.725 -17.878  1.00  0.00    -0.181 NA
ATOM     21  C   UNL     1       7.847  -7.056 -16.471  1.00  0.00     0.066 C 
ATOM     22  C   UNL     1       3.423  -4.597 -17.033  1.00  0.00     0.069 C 
ATOM     23  H   UNL     1       5.893  -8.258 -18.147  1.00  0.00     0.190 HD
ENDBRANCH  15  16
ENDBRANCH  14  15
ENDBRANCH  13  14
ENDBRANCH   1  13
TORSDOF 7
ENDMDL
MODEL 6
REMARK VINA RESULT:    -4.625      3.620      5.184
REMARK INTER + INTRA:          -6.671
REMARK INTER:                  -6.238
REMARK INTRA:                  -0.433
REMARK UNBOUND:                -0.289
REMARK SMILES Cc1n[nH]c(C)c1CCCOc1cc(C(=O)O)ccc1F
REMARK SMILES IDX 11 1 12 2 14 3 18 4 13 5 19 6 20 7 21 8 15 9 16 10 17 11
REMARK SMILES IDX 10 13 9 14 8 15 7 16 5 17 2 18 4 19 3 20 6 21 1 22
REMARK H PARENT 17 12 4 23
ROOT
ATOM      1  O   UNL     1       6.185  -0.440 -12.556  1.00  0.00    -0.490 OA
ENDROOT
BRANCH   1   2
ATOM      2  C   UNL     1       5.417  -0.563 -11.441  1.00  0.00     0.155 A 
ATOM      3  C   UNL     1       4.973  -1.594  -9.314  1.00  0.00     0.063 A 
ATOM      4  C   UNL     1       3.839  -0.791  -9.166  1.00  0.00     0.019 A 
ATOM      5  C   UNL     1       5.762  -1.474 -10.460  1.00  0.00     0.065 A 
ATOM      6  C   UNL     1       3.506   0.120 -10.146  1.00  0.00     0.044 A 
ATOM      7  C   UNL     1       4.293   0.240 -11.280  1.00  0.00     0.165 A 
ATOM      8  F   UNL     1       3.961   1.135 -12.237  1.00  0.00    -0.203 F 
BRANCH   3   9
ATOM      9  C   UNL     1       5.332  -2.570  -8.267  1.00  0.00     0.335 C 
ATOM     10  O   UNL     1       6.226  -3.368  -8.460  1.00  0.00    -0.246 OA
BRANCH   9  11
ATOM     11  O   UNL     1       4.672  -2.570  -7.092  1.00  0.00    -0.478 OA
ATOM     12  H   UNL     1       5.134  -2.941  -6.328  1.00  0.00     0.297 HD
ENDBRANCH   9  11
ENDBRANCH   3   9
ENDBRANCH   1   2
BRANCH   1  13
ATOM     13  C   UNL     1       7.548  -0.859 -12.453  1.00  0.00     0.230 C 
BRANCH  13  14
ATOM     14  C   UNL     1       8.441   0.119 -13.219  1.00  0.00     0.046 C 
BRANCH  14  15
ATOM     15  C   UNL     1       9.109  -0.608 -14.388  1.00  0.00     0.043 C 
BRANCH  15  16
ATOM     16  C   UNL     1      10.337   0.152 -14.817  1.00  0.00    -0.004 A 
ATOM     17  C   UNL     1      11.519   0.194 -14.158  1.00  0.00     0.036 A 
ATOM     18  C   UNL     1      10.460   0.934 -15.971  1.00  0.00     0.063 A 
ATOM     19  N   UNL     1      12.357   0.980 -14.866  1.00  0.00    -0.282 N 
ATOM     20  N   UNL     1      11.667   1.436 -15.998  1.00  0.00    -0.181 NA
ATOM     21  C   UNL     1      11.841  -0.510 -12.866  1.00  0.00     0.066 C 
ATOM     22  C   UNL     1       9.382   1.167 -16.999  1.00  0.00     0.069 C 
ATOM     23  H   UNL     1      13.274   1.193 -14.633  1.00  0.00     0.190 HD
ENDBRANCH  15  16
ENDBRANCH  14  15
ENDBRANCH  13  14
ENDBRANCH   1  13
TORSDOF 7
ENDMDL
MODEL 7
REMARK VINA RESULT:    -4.540      4.992      7.921
REMARK INTER + INTRA:          -6.554
REMARK INTER:                  -5.884
REMARK INTRA:                  -0.670
REMARK UNBOUND:                -0.289
REMARK SMILES Cc1n[nH]c(C)c1CCCOc1cc(C(=O)O)ccc1F
REMARK SMILES IDX 11 1 12 2 14 3 18 4 13 5 19 6 20 7 21 8 15 9 16 10 17 11
REMARK SMILES IDX 10 13 9 14 8 15 7 16 5 17 2 18 4 19 3 20 6 21 1 22
REMARK H PARENT 17 12 4 23
ROOT
ATOM      1  O   UNL     1       7.557  -0.403 -12.635  1.00  0.00    -0.490 OA
ENDROOT
BRANCH   1   2
ATOM      2  C   UNL     1       8.706  -0.280 -13.351  1.00  0.00     0.155 A 
ATOM      3  C   UNL     1       9.865  -0.298 -15.458  1.00  0.00     0.063 A 
ATOM      4  C   UNL     1      11.064  -0.017 -14.797  1.00  0.00     0.019 A 
ATOM      5  C   UNL     1       8.684  -0.430 -14.726  1.00  0.00     0.065 A 
ATOM      6  C   UNL     1      11.075   0.136 -13.426  1.00  0.00     0.044 A 
ATOM      7  C   UNL     1       9.901   0.011 -12.702  1.00  0.00     0.165 A 
ATOM      8  F   UNL     1       9.919   0.162 -11.360  1.00  0.00    -0.203 F 
BRANCH   3   9
ATOM      9  C   UNL     1       9.850  -0.462 -16.925  1.00  0.00     0.335 C 
ATOM     10  O   UNL     1      10.832  -0.177 -17.579  1.00  0.00    -0.246 OA
BRANCH   9  11
ATOM     11  O   UNL     1       8.746  -0.935 -17.538  1.00  0.00    -0.478 OA
ATOM     12  H   UNL     1       8.074  -1.347 -16.976  1.00  0.00     0.297 HD
ENDBRANCH   9  11
ENDBRANCH   3   9
ENDBRANCH   1   2
BRANCH   1  13
ATOM     13  C   UNL     1       7.052  -1.726 -12.441  1.00  0.00     0.230 C 
BRANCH  13  14
ATOM     14  C   UNL     1       5.735  -1.660 -11.664  1.00  0.00     0.046 C 
BRANCH  14  15
ATOM     15  C   UNL     1       5.949  -0.882 -10.364  1.00  0.00     0.043 C 
BRANCH  15  16
ATOM     16  C   UNL     1       4.842  -1.207  -9.396  1.00  0.00    -0.004 A 
ATOM     17  C   UNL     1       3.648  -0.576  -9.310  1.00  0.00     0.036 A 
ATOM     18  C   UNL     1       4.863  -2.219  -8.430  1.00  0.00     0.063 A 
ATOM     19  N   UNL     1       2.942  -1.163  -8.321  1.00  0.00    -0.282 N 
ATOM     20  N   UNL     1       3.728  -2.190  -7.781  1.00  0.00    -0.181 NA
ATOM     21  C   UNL     1       3.189   0.577 -10.165  1.00  0.00     0.066 C 
ATOM     22  C   UNL     1       6.003  -3.172  -8.174  1.00  0.00     0.069 C 
ATOM     23  H   UNL     1       2.049  -0.918  -8.034  1.00  0.00     0.190 HD
ENDBRANCH  15  16
ENDBRANCH  14  15
ENDBRANCH  13  14
ENDBRANCH   1  13
TORSDOF 7
ENDMDL
MODEL 8
REMARK VINA RESULT:    -4.539      4.985      7.955
REMARK INTER + INTRA:          -6.553
REMARK INTER:                  -5.885
REMARK INTRA:                  -0.668
REMARK UNBOUND:                -0.289
REMARK SMILES Cc1n[nH]c(C)c1CCCOc1cc(C(=O)O)ccc1F
REMARK SMILES IDX 11 1 12 2 14 3 18 4 13 5 19 6 20 7 21 8 15 9 16 10 17 11
REMARK SMILES IDX 10 13 9 14 8 15 7 16 5 17 2 18 4 19 3 20 6 21 1 22
REMARK H PARENT 17 12 4 23
ROOT
ATOM      1  O   UNL     1       7.526  -0.415 -12.653  1.00  0.00    -0.490 OA
ENDROOT
BRANCH   1   2
ATOM      2  C   UNL     1       8.682  -0.293 -13.358  1.00  0.00     0.155 A 
ATOM      3  C   UNL     1       9.871  -0.363 -15.447  1.00  0.00     0.063 A 
ATOM      4  C   UNL     1      11.053  -0.029 -14.781  1.00  0.00     0.019 A 
ATOM      5  C   UNL     1       8.682  -0.494 -14.725  1.00  0.00     0.065 A 
ATOM      6  C   UNL     1      11.042   0.176 -13.417  1.00  0.00     0.044 A 
ATOM      7  C   UNL     1       9.861   0.050 -12.705  1.00  0.00     0.165 A 
ATOM      8  F   UNL     1       9.856   0.252 -11.369  1.00  0.00    -0.203 F 
BRANCH   3   9
ATOM      9  C   UNL     1       9.879  -0.582 -16.906  1.00  0.00     0.335 C 
ATOM     10  O   UNL     1      10.923  -0.525 -17.523  1.00  0.00    -0.246 OA
BRANCH   9  11
ATOM     11  O   UNL     1       8.728  -0.853 -17.553  1.00  0.00    -0.478 OA
ATOM     12  H   UNL     1       8.026  -0.190 -17.496  1.00  0.00     0.297 HD
ENDBRANCH   9  11
ENDBRANCH   3   9
ENDBRANCH   1   2
BRANCH   1  13
ATOM     13  C   UNL     1       7.015  -1.738 -12.468  1.00  0.00     0.230 C 
BRANCH  13  14
ATOM     14  C   UNL     1       5.716  -1.674 -11.664  1.00  0.00     0.046 C 
BRANCH  14  15
ATOM     15  C   UNL     1       5.967  -0.941 -10.344  1.00  0.00     0.043 C 
BRANCH  15  16
ATOM     16  C   UNL     1       4.845  -1.236  -9.383  1.00  0.00    -0.004 A 
ATOM     17  C   UNL     1       4.843  -2.198  -8.431  1.00  0.00     0.036 A 
ATOM     18  C   UNL     1       3.623  -0.559  -9.313  1.00  0.00     0.063 A 
ATOM     19  N   UNL     1       3.659  -2.136  -7.786  1.00  0.00    -0.282 N 
ATOM     20  N   UNL     1       2.909  -1.102  -8.361  1.00  0.00    -0.181 NA
ATOM     21  C   UNL     1       5.962  -3.164  -8.144  1.00  0.00     0.066 C 
ATOM     22  C   UNL     1       3.197   0.590 -10.191  1.00  0.00     0.069 C 
ATOM     23  H   UNL     1       3.378  -2.707  -7.055  1.00  0.00     0.190 HD
ENDBRANCH  15  16
ENDBRANCH  14  15
ENDBRANCH  13  14
ENDBRANCH   1  13
TORSDOF 7
ENDMDL
MODEL 9
REMARK VINA RESULT:    -4.508      4.704      8.181
REMARK INTER + INTRA:          -6.510
REMARK INTER:                  -5.834
REMARK INTRA:                  -0.676
REMARK UNBOUND:                -0.289
REMARK SMILES Cc1n[nH]c(C)c1CCCOc1cc(C(=O)O)ccc1F
REMARK SMILES IDX 11 1 12 2 14 3 18 4 13 5 19 6 20 7 21 8 15 9 16 10 17 11
REMARK SMILES IDX 10 13 9 14 8 15 7 16 5 17 2 18 4 19 3 20 6 21 1 22
REMARK H PARENT 17 12 4 23
ROOT
ATOM      1  O   UNL     1       5.477  -3.469 -13.036  1.00  0.00    -0.490 OA
ENDROOT
BRANCH   1   2
ATOM      2  C   UNL     1       5.442  -4.081 -14.250  1.00  0.00     0.155 A 
ATOM      3  C   UNL     1       6.581  -5.046 -16.135  1.00  0.00     0.063 A 
ATOM      4  C   UNL     1       5.348  -5.340 -16.724  1.00  0.00     0.019 A 
ATOM      5  C   UNL     1       6.621  -4.413 -14.891  1.00  0.00     0.065 A 
ATOM      6  C   UNL     1       4.178  -5.010 -16.074  1.00  0.00     0.044 A 
ATOM      7  C   UNL     1       4.220  -4.387 -14.838  1.00  0.00     0.165 A 
ATOM      8  F   UNL     1       3.069  -4.067 -14.206  1.00  0.00    -0.203 F 
BRANCH   3   9
ATOM      9  C   UNL     1       7.836  -5.398 -16.827  1.00  0.00     0.335 C 
ATOM     10  O   UNL     1       7.874  -6.362 -17.563  1.00  0.00    -0.246 OA
BRANCH   9  11
ATOM     11  O   UNL     1       8.938  -4.644 -16.647  1.00  0.00    -0.478 OA
ATOM     12  H   UNL     1       8.837  -3.834 -16.128  1.00  0.00     0.297 HD
ENDBRANCH   9  11
ENDBRANCH   3   9
ENDBRANCH   1   2
BRANCH   1  13
ATOM     13  C   UNL     1       6.239  -2.263 -12.940  1.00  0.00     0.230 C 
BRANCH  13  14
ATOM     14  C   UNL     1       6.264  -1.791 -11.485  1.00  0.00     0.046 C 
BRANCH  14  15
ATOM     15  C   UNL     1       4.969  -2.215 -10.789  1.00  0.00     0.043 C 
BRANCH  15  16
ATOM     16  C   UNL     1       4.820  -1.455  -9.497  1.00  0.00    -0.004 A 
ATOM     17  C   UNL     1       5.284  -1.843  -8.286  1.00  0.00     0.036 A 
ATOM     18  C   UNL     1       4.182  -0.220  -9.337  1.00  0.00     0.063 A 
ATOM     19  N   UNL     1       4.946  -0.890  -7.392  1.00  0.00    -0.282 N 
ATOM     20  N   UNL     1       4.251   0.116  -8.075  1.00  0.00    -0.181 NA
ATOM     21  C   UNL     1       6.042  -3.110  -7.990  1.00  0.00     0.066 C 
ATOM     22  C   UNL     1       3.518   0.580 -10.430  1.00  0.00     0.069 C 
ATOM     23  H   UNL     1       5.148  -0.901  -6.443  1.00  0.00     0.190 HD
ENDBRANCH  15  16
ENDBRANCH  14  15
ENDBRANCH  13  14
ENDBRANCH   1  13
TORSDOF 7
ENDMDL
