MODEL 1
REMARK VINA RESULT:    -4.310      0.000      0.000
REMARK INTER + INTRA:          -5.222
REMARK INTER:                  -4.940
REMARK INTRA:                  -0.282
REMARK UNBOUND:                -0.282
REMARK SMILES O=C(O)c1ccc2nc(-c3cc(Cl)cc(Cl)c3)oc2c1
REMARK SMILES IDX 5 1 6 2 20 3 8 4 18 5 4 6 9 7 7 8 19 9 2 10 1 11 3 12 10 14
REMARK SMILES IDX 11 15 17 16 12 17 15 18 14 19 13 20 16 21
REMARK H PARENT 3 13
ROOT
ATOM      1  C   UNL     1       5.236  -6.399 -17.890  1.00  0.00     0.018 A 
ATOM      2  C   UNL     1       6.156  -5.856 -17.045  1.00  0.00     0.033 A 
ATOM      3  C   UNL     1       3.447  -5.257 -16.717  1.00  0.00     0.065 A 
ATOM      4  N   UNL     1       6.401  -4.330 -15.046  1.00  0.00    -0.209 NA
ATOM      5  O   UNL     1       4.288  -3.873 -14.794  1.00  0.00    -0.436 OA
ATOM      6  C   UNL     1       3.873  -6.107 -17.740  1.00  0.00     0.063 A 
ATOM      7  C   UNL     1       5.533  -3.662 -14.327  1.00  0.00     0.227 A 
ATOM      8  C   UNL     1       5.742  -5.002 -16.015  1.00  0.00     0.110 A 
ATOM      9  C   UNL     1       4.377  -4.708 -15.854  1.00  0.00     0.156 A 
ENDROOT
BRANCH   6  10
ATOM     10  C   UNL     1       2.888  -6.696 -18.664  1.00  0.00     0.335 C 
ATOM     11  O   UNL     1       2.387  -6.012 -19.534  1.00  0.00    -0.246 OA
BRANCH  10  12
ATOM     12  O   UNL     1       2.542  -7.993 -18.544  1.00  0.00    -0.478 OA
ATOM     13  H   UNL     1       2.055  -8.387 -19.280  1.00  0.00     0.297 HD
ENDBRANCH  10  12
ENDBRANCH   6  10
BRANCH   7  14
ATOM     14  C   UNL     1       5.872  -2.806 -13.171  1.00  0.00     0.040 A 
ATOM     15  C   UNL     1       6.911  -1.880 -13.266  1.00  0.00     0.034 A 
ATOM     16  C   UNL     1       5.152  -2.920 -11.980  1.00  0.00     0.034 A 
ATOM     17  C   UNL     1       7.222  -1.081 -12.183  1.00  0.00     0.043 A 
ATOM     18  C   UNL     1       5.472  -2.116 -10.904  1.00  0.00     0.043 A 
ATOM     19  C   UNL     1       6.505  -1.200 -11.004  1.00  0.00     0.041 A 
ATOM     20  Cl  UNL     1       8.515   0.071 -12.298  1.00  0.00    -0.084 Cl
ATOM     21  Cl  UNL     1       4.579  -2.256  -9.422  1.00  0.00    -0.084 Cl
ENDBRANCH   7  14
TORSDOF 3
ENDMDL
MODEL 2
REMARK VINA RESULT:    -4.300      0.007      2.019
REMARK INTER + INTRA:          -5.210
REMARK INTER:                  -4.929
REMARK INTRA:                  -0.282
REMARK UNBOUND:                -0.282
REMARK SMILES O=C(O)c1ccc2nc(-c3cc(Cl)cc(Cl)c3)oc2c1
REMARK SMILES IDX 5 1 6 2 20 3 8 4 18 5 4 6 9 7 7 8 19 9 2 10 1 11 3 12 10 14
REMARK SMILES IDX 11 15 17 16 12 17 15 18 14 19 13 20 16 21
REMARK H PARENT 3 13
ROOT
ATOM      1  C   UNL     1       5.238  -6.399 -17.895  1.00  0.00     0.018 A 
ATOM      2  C   UNL     1       6.157  -5.857 -17.047  1.00  0.00     0.033 A 
ATOM      3  C   UNL     1       3.448  -5.255 -16.725  1.00  0.00     0.065 A 
ATOM      4  N   UNL     1       6.399  -4.332 -15.047  1.00  0.00    -0.209 NA
ATOM      5  O   UNL     1       4.287  -3.872 -14.801  1.00  0.00    -0.436 OA
ATOM      6  C   UNL     1       3.875  -6.105 -17.747  1.00  0.00     0.063 A 
ATOM      7  C   UNL     1       5.531  -3.663 -14.330  1.00  0.00     0.227 A 
ATOM      8  C   UNL     1       5.742  -5.003 -16.018  1.00  0.00     0.110 A 
ATOM      9  C   UNL     1       4.377  -4.706 -15.860  1.00  0.00     0.156 A 
ENDROOT
BRANCH   6  10
ATOM     10  C   UNL     1       2.891  -6.692 -18.674  1.00  0.00     0.335 C 
ATOM     11  O   UNL     1       2.385  -6.005 -19.539  1.00  0.00    -0.246 OA
BRANCH  10  12
ATOM     12  O   UNL     1       2.551  -7.992 -18.562  1.00  0.00    -0.478 OA
ATOM     13  H   UNL     1       2.820  -8.579 -19.281  1.00  0.00     0.297 HD
ENDBRANCH  10  12
ENDBRANCH   6  10
BRANCH   7  14
ATOM     14  C   UNL     1       5.868  -2.807 -13.174  1.00  0.00     0.040 A 
ATOM     15  C   UNL     1       5.147  -2.919 -11.984  1.00  0.00     0.034 A 
ATOM     16  C   UNL     1       6.910  -1.882 -13.268  1.00  0.00     0.034 A 
ATOM     17  C   UNL     1       5.468  -2.116 -10.907  1.00  0.00     0.043 A 
ATOM     18  C   UNL     1       7.221  -1.085 -12.184  1.00  0.00     0.043 A 
ATOM     19  C   UNL     1       6.502  -1.201 -11.007  1.00  0.00     0.041 A 
ATOM     20  Cl  UNL     1       4.573  -2.254  -9.427  1.00  0.00    -0.084 Cl
ATOM     21  Cl  UNL     1       8.516   0.066 -12.299  1.00  0.00    -0.084 Cl
ENDBRANCH   7  14
TORSDOF 3
ENDMDL
MODEL 3
REMARK VINA RESULT:    -4.005      5.829      8.253
REMARK INTER + INTRA:          -4.872
REMARK INTER:                  -4.595
REMARK INTRA:                  -0.277
REMARK UNBOUND:                -0.282
REMARK SMILES O=C(O)c1ccc2nc(-c3cc(Cl)cc(Cl)c3)oc2c1
REMARK SMILES IDX 5 1 6 2 20 3 8 4 18 5 4 6 9 7 7 8 19 9 2 10 1 11 3 12 10 14
REMARK SMILES IDX 11 15 17 16 12 17 15 18 14 19 13 20 16 21
REMARK H PARENT 3 13
ROOT
ATOM      1  C   UNL     1      10.739  -0.070 -18.826  1.00  0.00     0.018 A 
ATOM      2  C   UNL     1      10.378  -1.284 -19.330  1.00  0.00     0.033 A 
ATOM      3  C   UNL     1       9.632  -0.584 -16.730  1.00  0.00     0.065 A 
ATOM      4  N   UNL     1       9.142  -3.413 -18.762  1.00  0.00    -0.209 NA
ATOM      5  O   UNL     1       8.560  -2.858 -16.741  1.00  0.00    -0.436 OA
ATOM      6  C   UNL     1      10.373   0.295 -17.523  1.00  0.00     0.063 A 
ATOM      7  C   UNL     1       8.507  -3.813 -17.688  1.00  0.00     0.227 A 
ATOM      8  C   UNL     1       9.634  -2.174 -18.546  1.00  0.00     0.110 A 
ATOM      9  C   UNL     1       9.259  -1.814 -17.239  1.00  0.00     0.156 A 
ENDROOT
BRANCH   6  10
ATOM     10  C   UNL     1      10.775   1.608 -16.987  1.00  0.00     0.335 C 
ATOM     11  O   UNL     1      10.150   2.604 -17.290  1.00  0.00    -0.246 OA
BRANCH  10  12
ATOM     12  O   UNL     1      11.835   1.704 -16.160  1.00  0.00    -0.478 OA
ATOM     13  H   UNL     1      12.576   1.105 -16.325  1.00  0.00     0.297 HD
ENDBRANCH  10  12
ENDBRANCH   6  10
BRANCH   7  14
ATOM     14  C   UNL     1       7.832  -5.119 -17.540  1.00  0.00     0.040 A 
ATOM     15  C   UNL     1       8.369  -6.094 -16.700  1.00  0.00     0.034 A 
ATOM     16  C   UNL     1       6.654  -5.381 -18.242  1.00  0.00     0.034 A 
ATOM     17  C   UNL     1       7.733  -7.312 -16.565  1.00  0.00     0.043 A 
ATOM     18  C   UNL     1       6.027  -6.603 -18.099  1.00  0.00     0.043 A 
ATOM     19  C   UNL     1       6.565  -7.567 -17.264  1.00  0.00     0.041 A 
ATOM     20  Cl  UNL     1       8.399  -8.527 -15.520  1.00  0.00    -0.084 Cl
ATOM     21  Cl  UNL     1       4.561  -6.931 -18.971  1.00  0.00    -0.084 Cl
ENDBRANCH   7  14
TORSDOF 3
ENDMDL
MODEL 4
REMARK VINA RESULT:    -4.000      5.828      8.264
REMARK INTER + INTRA:          -4.866
REMARK INTER:                  -4.589
REMARK INTRA:                  -0.277
REMARK UNBOUND:                -0.282
REMARK SMILES O=C(O)c1ccc2nc(-c3cc(Cl)cc(Cl)c3)oc2c1
REMARK SMILES IDX 5 1 6 2 20 3 8 4 18 5 4 6 9 7 7 8 19 9 2 10 1 11 3 12 10 14
REMARK SMILES IDX 11 15 17 16 12 17 15 18 14 19 13 20 16 21
REMARK H PARENT 3 13
ROOT
ATOM      1  C   UNL     1      10.738  -0.077 -18.832  1.00  0.00     0.018 A 
ATOM      2  C   UNL     1      10.376  -1.291 -19.334  1.00  0.00     0.033 A 
ATOM      3  C   UNL     1       9.627  -0.586 -16.737  1.00  0.00     0.065 A 
ATOM      4  N   UNL     1       9.138  -3.419 -18.765  1.00  0.00    -0.209 NA
ATOM      5  O   UNL     1       8.555  -2.860 -16.745  1.00  0.00    -0.436 OA
ATOM      6  C   UNL     1      10.371   0.290 -17.529  1.00  0.00     0.063 A 
ATOM      7  C   UNL     1       8.502  -3.816 -17.691  1.00  0.00     0.227 A 
ATOM      8  C   UNL     1       9.631  -2.180 -18.550  1.00  0.00     0.110 A 
ATOM      9  C   UNL     1       9.255  -1.817 -17.244  1.00  0.00     0.156 A 
ENDROOT
BRANCH   6  10
ATOM     10  C   UNL     1      10.772   1.604 -16.995  1.00  0.00     0.335 C 
ATOM     11  O   UNL     1      10.147   2.600 -17.300  1.00  0.00    -0.246 OA
BRANCH  10  12
ATOM     12  O   UNL     1      11.833   1.701 -16.169  1.00  0.00    -0.478 OA
ATOM     13  H   UNL     1      11.896   2.498 -15.627  1.00  0.00     0.297 HD
ENDBRANCH  10  12
ENDBRANCH   6  10
BRANCH   7  14
ATOM     14  C   UNL     1       7.826  -5.121 -17.542  1.00  0.00     0.040 A 
ATOM     15  C   UNL     1       6.639  -5.379 -18.229  1.00  0.00     0.034 A 
ATOM     16  C   UNL     1       8.372  -6.102 -16.711  1.00  0.00     0.034 A 
ATOM     17  C   UNL     1       6.012  -6.601 -18.086  1.00  0.00     0.043 A 
ATOM     18  C   UNL     1       7.736  -7.320 -16.577  1.00  0.00     0.043 A 
ATOM     19  C   UNL     1       6.559  -7.569 -17.261  1.00  0.00     0.041 A 
ATOM     20  Cl  UNL     1       4.536  -6.923 -18.940  1.00  0.00    -0.084 Cl
ATOM     21  Cl  UNL     1       8.414  -8.541 -15.545  1.00  0.00    -0.084 Cl
ENDBRANCH   7  14
TORSDOF 3
ENDMDL
MODEL 5
REMARK VINA RESULT:    -3.922      3.850      7.591
REMARK INTER + INTRA:          -4.777
REMARK INTER:                  -4.495
REMARK INTRA:                  -0.281
REMARK UNBOUND:                -0.282
REMARK SMILES O=C(O)c1ccc2nc(-c3cc(Cl)cc(Cl)c3)oc2c1
REMARK SMILES IDX 5 1 6 2 20 3 8 4 18 5 4 6 9 7 7 8 19 9 2 10 1 11 3 12 10 14
REMARK SMILES IDX 11 15 17 16 12 17 15 18 14 19 13 20 16 21
REMARK H PARENT 3 13
ROOT
ATOM      1  C   UNL     1       6.680  -0.908 -11.474  1.00  0.00     0.018 A 
ATOM      2  C   UNL     1       7.057  -1.279 -12.730  1.00  0.00     0.033 A 
ATOM      3  C   UNL     1       5.163  -2.796 -11.348  1.00  0.00     0.065 A 
ATOM      4  N   UNL     1       6.663  -3.016 -14.522  1.00  0.00    -0.209 NA
ATOM      5  O   UNL     1       5.185  -4.189 -13.440  1.00  0.00    -0.436 OA
ATOM      6  C   UNL     1       5.732  -1.661 -10.767  1.00  0.00     0.063 A 
ATOM      7  C   UNL     1       5.884  -4.067 -14.584  1.00  0.00     0.227 A 
ATOM      8  C   UNL     1       6.495  -2.415 -13.324  1.00  0.00     0.110 A 
ATOM      9  C   UNL     1       5.539  -3.172 -12.624  1.00  0.00     0.156 A 
ENDROOT
BRANCH   6  10
ATOM     10  C   UNL     1       5.336  -1.254  -9.407  1.00  0.00     0.335 C 
ATOM     11  O   UNL     1       4.901  -0.137  -9.210  1.00  0.00    -0.246 OA
BRANCH  10  12
ATOM     12  O   UNL     1       5.457  -2.120  -8.382  1.00  0.00    -0.478 OA
ATOM     13  H   UNL     1       6.341  -2.240  -8.010  1.00  0.00     0.297 HD
ENDBRANCH  10  12
ENDBRANCH   6  10
BRANCH   7  14
ATOM     14  C   UNL     1       5.788  -4.982 -15.740  1.00  0.00     0.040 A 
ATOM     15  C   UNL     1       4.589  -5.100 -16.443  1.00  0.00     0.034 A 
ATOM     16  C   UNL     1       6.897  -5.735 -16.132  1.00  0.00     0.034 A 
ATOM     17  C   UNL     1       4.505  -5.957 -17.523  1.00  0.00     0.043 A 
ATOM     18  C   UNL     1       6.802  -6.588 -17.213  1.00  0.00     0.043 A 
ATOM     19  C   UNL     1       5.609  -6.700 -17.906  1.00  0.00     0.041 A 
ATOM     20  Cl  UNL     1       3.014  -6.104 -18.399  1.00  0.00    -0.084 Cl
ATOM     21  Cl  UNL     1       8.180  -7.524 -17.702  1.00  0.00    -0.084 Cl
ENDBRANCH   7  14
TORSDOF 3
ENDMDL
MODEL 6
REMARK VINA RESULT:    -3.921      3.851      7.452
REMARK INTER + INTRA:          -4.775
REMARK INTER:                  -4.495
REMARK INTRA:                  -0.281
REMARK UNBOUND:                -0.282
REMARK SMILES O=C(O)c1ccc2nc(-c3cc(Cl)cc(Cl)c3)oc2c1
REMARK SMILES IDX 5 1 6 2 20 3 8 4 18 5 4 6 9 7 7 8 19 9 2 10 1 11 3 12 10 14
REMARK SMILES IDX 11 15 17 16 12 17 15 18 14 19 13 20 16 21
REMARK H PARENT 3 13
ROOT
ATOM      1  C   UNL     1       6.692  -0.910 -11.480  1.00  0.00     0.018 A 
ATOM      2  C   UNL     1       7.073  -1.283 -12.734  1.00  0.00     0.033 A 
ATOM      3  C   UNL     1       5.167  -2.791 -11.357  1.00  0.00     0.065 A 
ATOM      4  N   UNL     1       6.678  -3.020 -14.525  1.00  0.00    -0.209 NA
ATOM      5  O   UNL     1       5.191  -4.187 -13.448  1.00  0.00    -0.436 OA
ATOM      6  C   UNL     1       5.739  -1.658 -10.775  1.00  0.00     0.063 A 
ATOM      7  C   UNL     1       5.896  -4.068 -14.589  1.00  0.00     0.227 A 
ATOM      8  C   UNL     1       6.508  -2.417 -13.329  1.00  0.00     0.110 A 
ATOM      9  C   UNL     1       5.547  -3.170 -12.631  1.00  0.00     0.156 A 
ENDROOT
BRANCH   6  10
ATOM     10  C   UNL     1       5.340  -1.249  -9.417  1.00  0.00     0.335 C 
ATOM     11  O   UNL     1       4.830  -0.161  -9.236  1.00  0.00    -0.246 OA
BRANCH  10  12
ATOM     12  O   UNL     1       5.541  -2.080  -8.375  1.00  0.00    -0.478 OA
ATOM     13  H   UNL     1       5.410  -1.714  -7.490  1.00  0.00     0.297 HD
ENDBRANCH  10  12
ENDBRANCH   6  10
BRANCH   7  14
ATOM     14  C   UNL     1       5.800  -4.984 -15.745  1.00  0.00     0.040 A 
ATOM     15  C   UNL     1       6.907  -5.738 -16.136  1.00  0.00     0.034 A 
ATOM     16  C   UNL     1       4.600  -5.099 -16.450  1.00  0.00     0.034 A 
ATOM     17  C   UNL     1       6.811  -6.593 -17.216  1.00  0.00     0.043 A 
ATOM     18  C   UNL     1       4.516  -5.958 -17.528  1.00  0.00     0.043 A 
ATOM     19  C   UNL     1       5.618  -6.702 -17.911  1.00  0.00     0.041 A 
ATOM     20  Cl  UNL     1       8.187  -7.531 -17.704  1.00  0.00    -0.084 Cl
ATOM     21  Cl  UNL     1       3.025  -6.102 -18.406  1.00  0.00    -0.084 Cl
ENDBRANCH   7  14
TORSDOF 3
ENDMDL
MODEL 7
REMARK VINA RESULT:    -3.825      3.540      5.349
REMARK INTER + INTRA:          -4.666
REMARK INTER:                  -4.370
REMARK INTRA:                  -0.296
REMARK UNBOUND:                -0.282
REMARK SMILES O=C(O)c1ccc2nc(-c3cc(Cl)cc(Cl)c3)oc2c1
REMARK SMILES IDX 5 1 6 2 20 3 8 4 18 5 4 6 9 7 7 8 19 9 2 10 1 11 3 12 10 14
REMARK SMILES IDX 11 15 17 16 12 17 15 18 14 19 13 20 16 21
REMARK H PARENT 3 13
ROOT
ATOM      1  C   UNL     1       7.283  -2.278 -14.038  1.00  0.00     0.018 A 
ATOM      2  C   UNL     1       7.226  -1.431 -12.972  1.00  0.00     0.033 A 
ATOM      3  C   UNL     1       5.438  -3.571 -13.140  1.00  0.00     0.065 A 
ATOM      4  N   UNL     1       5.984  -0.986 -10.818  1.00  0.00    -0.209 NA
ATOM      5  O   UNL     1       4.598  -2.657 -10.954  1.00  0.00    -0.436 OA
ATOM      6  C   UNL     1       6.391  -3.355 -14.138  1.00  0.00     0.063 A 
ATOM      7  C   UNL     1       4.988  -1.595 -10.224  1.00  0.00     0.227 A 
ATOM      8  C   UNL     1       6.276  -1.637 -11.964  1.00  0.00     0.110 A 
ATOM      9  C   UNL     1       5.381  -2.717 -12.054  1.00  0.00     0.156 A 
ENDROOT
BRANCH   6  10
ATOM     10  C   UNL     1       6.458  -4.260 -15.299  1.00  0.00     0.335 C 
ATOM     11  O   UNL     1       5.695  -5.202 -15.379  1.00  0.00    -0.246 OA
BRANCH  10  12
ATOM     12  O   UNL     1       7.366  -4.045 -16.271  1.00  0.00    -0.478 OA
ATOM     13  H   UNL     1       7.080  -4.196 -17.181  1.00  0.00     0.297 HD
ENDBRANCH  10  12
ENDBRANCH   6  10
BRANCH   7  14
ATOM     14  C   UNL     1       4.384  -1.179  -8.941  1.00  0.00     0.040 A 
ATOM     15  C   UNL     1       4.445   0.155  -8.538  1.00  0.00     0.034 A 
ATOM     16  C   UNL     1       3.750  -2.120  -8.128  1.00  0.00     0.034 A 
ATOM     17  C   UNL     1       3.877   0.538  -7.339  1.00  0.00     0.043 A 
ATOM     18  C   UNL     1       3.186  -1.725  -6.931  1.00  0.00     0.043 A 
ATOM     19  C   UNL     1       3.249  -0.400  -6.537  1.00  0.00     0.041 A 
ATOM     20  Cl  UNL     1       3.950   2.198  -6.836  1.00  0.00    -0.084 Cl
ATOM     21  Cl  UNL     1       2.396  -2.894  -5.918  1.00  0.00    -0.084 Cl
ENDBRANCH   7  14
TORSDOF 3
ENDMDL
MODEL 8
REMARK VINA RESULT:    -3.814      3.550      5.633
REMARK INTER + INTRA:          -4.653
REMARK INTER:                  -4.357
REMARK INTRA:                  -0.296
REMARK UNBOUND:                -0.282
REMARK SMILES O=C(O)c1ccc2nc(-c3cc(Cl)cc(Cl)c3)oc2c1
REMARK SMILES IDX 5 1 6 2 20 3 8 4 18 5 4 6 9 7 7 8 19 9 2 10 1 11 3 12 10 14
REMARK SMILES IDX 11 15 17 16 12 17 15 18 14 19 13 20 16 21
REMARK H PARENT 3 13
ROOT
ATOM      1  C   UNL     1       7.275  -2.260 -14.015  1.00  0.00     0.018 A 
ATOM      2  C   UNL     1       7.215  -1.418 -12.944  1.00  0.00     0.033 A 
ATOM      3  C   UNL     1       5.440  -3.568 -13.120  1.00  0.00     0.065 A 
ATOM      4  N   UNL     1       5.972  -0.989 -10.787  1.00  0.00    -0.209 NA
ATOM      5  O   UNL     1       4.596  -2.669 -10.929  1.00  0.00    -0.436 OA
ATOM      6  C   UNL     1       6.390  -3.342 -14.117  1.00  0.00     0.063 A 
ATOM      7  C   UNL     1       4.981  -1.607 -10.195  1.00  0.00     0.227 A 
ATOM      8  C   UNL     1       6.267  -1.633 -11.937  1.00  0.00     0.110 A 
ATOM      9  C   UNL     1       5.378  -2.719 -12.030  1.00  0.00     0.156 A 
ENDROOT
BRANCH   6  10
ATOM     10  C   UNL     1       6.461  -4.242 -15.283  1.00  0.00     0.335 C 
ATOM     11  O   UNL     1       5.673  -5.161 -15.389  1.00  0.00    -0.246 OA
BRANCH  10  12
ATOM     12  O   UNL     1       7.400  -4.047 -16.229  1.00  0.00    -0.478 OA
ATOM     13  H   UNL     1       7.387  -3.198 -16.692  1.00  0.00     0.297 HD
ENDBRANCH  10  12
ENDBRANCH   6  10
BRANCH   7  14
ATOM     14  C   UNL     1       4.375  -1.200  -8.910  1.00  0.00     0.040 A 
ATOM     15  C   UNL     1       3.728  -2.143  -8.110  1.00  0.00     0.034 A 
ATOM     16  C   UNL     1       4.447   0.130  -8.492  1.00  0.00     0.034 A 
ATOM     17  C   UNL     1       3.165  -1.756  -6.910  1.00  0.00     0.043 A 
ATOM     18  C   UNL     1       3.880   0.505  -7.291  1.00  0.00     0.043 A 
ATOM     19  C   UNL     1       3.240  -0.435  -6.501  1.00  0.00     0.041 A 
ATOM     20  Cl  UNL     1       2.361  -2.927  -5.912  1.00  0.00    -0.084 Cl
ATOM     21  Cl  UNL     1       3.969   2.159  -6.769  1.00  0.00    -0.084 Cl
ENDBRANCH   7  14
TORSDOF 3
ENDMDL
MODEL 9
REMARK VINA RESULT:    -3.787      5.021      6.691
REMARK INTER + INTRA:          -4.622
REMARK INTER:                  -4.326
REMARK INTRA:                  -0.296
REMARK UNBOUND:                -0.282
REMARK SMILES O=C(O)c1ccc2nc(-c3cc(Cl)cc(Cl)c3)oc2c1
REMARK SMILES IDX 5 1 6 2 20 3 8 4 18 5 4 6 9 7 7 8 19 9 2 10 1 11 3 12 10 14
REMARK SMILES IDX 11 15 17 16 12 17 15 18 14 19 13 20 16 21
REMARK H PARENT 3 13
ROOT
ATOM      1  C   UNL     1       7.059  -2.423 -14.055  1.00  0.00     0.018 A 
ATOM      2  C   UNL     1       6.118  -2.845 -13.163  1.00  0.00     0.033 A 
ATOM      3  C   UNL     1       7.668  -0.594 -12.583  1.00  0.00     0.065 A 
ATOM      4  N   UNL     1       5.099  -2.322 -10.912  1.00  0.00    -0.209 NA
ATOM      5  O   UNL     1       6.306  -0.567 -10.470  1.00  0.00    -0.436 OA
ATOM      6  C   UNL     1       7.845  -1.296 -13.777  1.00  0.00     0.063 A 
ATOM      7  C   UNL     1       5.328  -1.380 -10.030  1.00  0.00     0.227 A 
ATOM      8  C   UNL     1       5.930  -2.150 -11.962  1.00  0.00     0.110 A 
ATOM      9  C   UNL     1       6.711  -1.016 -11.678  1.00  0.00     0.156 A 
ENDROOT
BRANCH   6  10
ATOM     10  C   UNL     1       8.864  -0.853 -14.746  1.00  0.00     0.335 C 
ATOM     11  O   UNL     1       9.619   0.054 -14.461  1.00  0.00    -0.246 OA
BRANCH  10  12
ATOM     12  O   UNL     1       8.956  -1.453 -15.949  1.00  0.00    -0.478 OA
ATOM     13  H   UNL     1       8.149  -1.847 -16.307  1.00  0.00     0.297 HD
ENDBRANCH  10  12
ENDBRANCH   6  10
BRANCH   7  14
ATOM     14  C   UNL     1       4.616  -1.233  -8.744  1.00  0.00     0.040 A 
ATOM     15  C   UNL     1       4.023  -2.342  -8.140  1.00  0.00     0.034 A 
ATOM     16  C   UNL     1       4.532   0.018  -8.129  1.00  0.00     0.034 A 
ATOM     17  C   UNL     1       3.360  -2.198  -6.937  1.00  0.00     0.043 A 
ATOM     18  C   UNL     1       3.867   0.149  -6.927  1.00  0.00     0.043 A 
ATOM     19  C   UNL     1       3.281  -0.955  -6.332  1.00  0.00     0.041 A 
ATOM     20  Cl  UNL     1       2.623  -3.577  -6.183  1.00  0.00    -0.084 Cl
ATOM     21  Cl  UNL     1       3.762   1.704  -6.160  1.00  0.00    -0.084 Cl
ENDBRANCH   7  14
TORSDOF 3
ENDMDL
