MODEL 1
REMARK VINA RESULT:    -4.702      0.000      0.000
REMARK INTER + INTRA:          -5.684
REMARK INTER:                  -5.389
REMARK INTRA:                  -0.295
REMARK UNBOUND:                -0.295
REMARK SMILES O=C(O)c1ccc2nc(-c3cc(Cl)cc(Cl)c3)oc2c1
REMARK SMILES IDX 5 1 6 2 20 3 8 4 18 5 4 6 9 7 7 8 19 9 2 10 1 11 3 12 10 14
REMARK SMILES IDX 11 15 17 16 12 17 15 18 14 19 13 20 16 21
REMARK H PARENT 3 13
ROOT
ATOM      1  C   UNL     1      -2.134   1.407   2.834  1.00  0.00     0.018 A 
ATOM      2  C   UNL     1      -0.780   1.329   2.704  1.00  0.00     0.033 A 
ATOM      3  C   UNL     1      -2.386  -0.745   1.744  1.00  0.00     0.065 A 
ATOM      4  N   UNL     1       1.078  -0.138   1.821  1.00  0.00    -0.209 NA
ATOM      5  O   UNL     1      -0.181  -1.747   1.072  1.00  0.00    -0.436 OA
ATOM      6  C   UNL     1      -2.953   0.373   2.360  1.00  0.00     0.063 A 
ATOM      7  C   UNL     1       1.081  -1.301   1.219  1.00  0.00     0.227 A 
ATOM      8  C   UNL     1      -0.198   0.214   2.088  1.00  0.00     0.110 A 
ATOM      9  C   UNL     1      -1.013  -0.825   1.605  1.00  0.00     0.156 A 
ENDROOT
BRANCH   6  10
ATOM     10  C   UNL     1      -4.416   0.465   2.512  1.00  0.00     0.335 C 
ATOM     11  O   UNL     1      -4.965   1.548   2.463  1.00  0.00    -0.246 OA
BRANCH  10  12
ATOM     12  O   UNL     1      -5.146  -0.652   2.708  1.00  0.00    -0.478 OA
ATOM     13  H   UNL     1      -4.857  -1.451   2.247  1.00  0.00     0.297 HD
ENDBRANCH  10  12
ENDBRANCH   6  10
BRANCH   7  14
ATOM     14  C   UNL     1       2.292  -2.018   0.767  1.00  0.00     0.040 A 
ATOM     15  C   UNL     1       3.557  -1.491   1.030  1.00  0.00     0.034 A 
ATOM     16  C   UNL     1       2.174  -3.224   0.074  1.00  0.00     0.034 A 
ATOM     17  C   UNL     1       4.685  -2.166   0.607  1.00  0.00     0.043 A 
ATOM     18  C   UNL     1       3.309  -3.890  -0.344  1.00  0.00     0.043 A 
ATOM     19  C   UNL     1       4.561  -3.362  -0.080  1.00  0.00     0.041 A 
ATOM     20  Cl  UNL     1       6.260  -1.514   0.933  1.00  0.00    -0.084 Cl
ATOM     21  Cl  UNL     1       3.165  -5.391  -1.206  1.00  0.00    -0.084 Cl
ENDBRANCH   7  14
TORSDOF 3
ENDMDL
MODEL 2
REMARK VINA RESULT:    -4.676      0.020      2.020
REMARK INTER + INTRA:          -5.654
REMARK INTER:                  -5.359
REMARK INTRA:                  -0.295
REMARK UNBOUND:                -0.295
REMARK SMILES O=C(O)c1ccc2nc(-c3cc(Cl)cc(Cl)c3)oc2c1
REMARK SMILES IDX 5 1 6 2 20 3 8 4 18 5 4 6 9 7 7 8 19 9 2 10 1 11 3 12 10 14
REMARK SMILES IDX 11 15 17 16 12 17 15 18 14 19 13 20 16 21
REMARK H PARENT 3 13
ROOT
ATOM      1  C   UNL     1      -2.133   1.413   2.835  1.00  0.00     0.018 A 
ATOM      2  C   UNL     1      -0.779   1.340   2.694  1.00  0.00     0.033 A 
ATOM      3  C   UNL     1      -2.384  -0.754   1.775  1.00  0.00     0.065 A 
ATOM      4  N   UNL     1       1.078  -0.130   1.814  1.00  0.00    -0.209 NA
ATOM      5  O   UNL     1      -0.180  -1.754   1.097  1.00  0.00    -0.436 OA
ATOM      6  C   UNL     1      -2.951   0.369   2.381  1.00  0.00     0.063 A 
ATOM      7  C   UNL     1       1.081  -1.301   1.227  1.00  0.00     0.227 A 
ATOM      8  C   UNL     1      -0.197   0.219   2.088  1.00  0.00     0.110 A 
ATOM      9  C   UNL     1      -1.012  -0.829   1.625  1.00  0.00     0.156 A 
ENDROOT
BRANCH   6  10
ATOM     10  C   UNL     1      -4.413   0.457   2.545  1.00  0.00     0.335 C 
ATOM     11  O   UNL     1      -4.964   1.539   2.513  1.00  0.00    -0.246 OA
BRANCH  10  12
ATOM     12  O   UNL     1      -5.139  -0.663   2.730  1.00  0.00    -0.478 OA
ATOM     13  H   UNL     1      -4.651  -1.482   2.892  1.00  0.00     0.297 HD
ENDBRANCH  10  12
ENDBRANCH   6  10
BRANCH   7  14
ATOM     14  C   UNL     1       2.292  -2.018   0.775  1.00  0.00     0.040 A 
ATOM     15  C   UNL     1       2.175  -3.225   0.084  1.00  0.00     0.034 A 
ATOM     16  C   UNL     1       3.558  -1.490   1.038  1.00  0.00     0.034 A 
ATOM     17  C   UNL     1       3.309  -3.889  -0.337  1.00  0.00     0.043 A 
ATOM     18  C   UNL     1       4.685  -2.164   0.612  1.00  0.00     0.043 A 
ATOM     19  C   UNL     1       4.562  -3.361  -0.073  1.00  0.00     0.041 A 
ATOM     20  Cl  UNL     1       3.166  -5.390  -1.197  1.00  0.00    -0.084 Cl
ATOM     21  Cl  UNL     1       6.260  -1.510   0.937  1.00  0.00    -0.084 Cl
ENDBRANCH   7  14
TORSDOF 3
ENDMDL
MODEL 3
REMARK VINA RESULT:    -4.247     14.737     16.071
REMARK INTER + INTRA:          -5.162
REMARK INTER:                  -4.880
REMARK INTRA:                  -0.282
REMARK UNBOUND:                -0.295
REMARK SMILES O=C(O)c1ccc2nc(-c3cc(Cl)cc(Cl)c3)oc2c1
REMARK SMILES IDX 5 1 6 2 20 3 8 4 18 5 4 6 9 7 7 8 19 9 2 10 1 11 3 12 10 14
REMARK SMILES IDX 11 15 17 16 12 17 15 18 14 19 13 20 16 21
REMARK H PARENT 3 13
ROOT
ATOM      1  C   UNL     1       1.824   4.290 -15.806  1.00  0.00     0.018 A 
ATOM      2  C   UNL     1       0.671   4.391 -15.086  1.00  0.00     0.033 A 
ATOM      3  C   UNL     1       2.700   2.676 -14.223  1.00  0.00     0.065 A 
ATOM      4  N   UNL     1      -0.492   3.529 -13.016  1.00  0.00    -0.209 NA
ATOM      5  O   UNL     1       1.095   2.199 -12.348  1.00  0.00    -0.436 OA
ATOM      6  C   UNL     1       2.850   3.431 -15.387  1.00  0.00     0.063 A 
ATOM      7  C   UNL     1      -0.138   2.673 -12.089  1.00  0.00     0.227 A 
ATOM      8  C   UNL     1       0.508   3.638 -13.916  1.00  0.00     0.110 A 
ATOM      9  C   UNL     1       1.535   2.779 -13.486  1.00  0.00     0.156 A 
ENDROOT
BRANCH   6  10
ATOM     10  C   UNL     1       4.089   3.326 -16.178  1.00  0.00     0.335 C 
ATOM     11  O   UNL     1       4.185   2.481 -17.046  1.00  0.00    -0.246 OA
BRANCH  10  12
ATOM     12  O   UNL     1       5.116   4.165 -15.938  1.00  0.00    -0.478 OA
ATOM     13  H   UNL     1       5.860   3.814 -15.430  1.00  0.00     0.297 HD
ENDBRANCH  10  12
ENDBRANCH   6  10
BRANCH   7  14
ATOM     14  C   UNL     1      -0.970   2.288 -10.930  1.00  0.00     0.040 A 
ATOM     15  C   UNL     1      -2.331   2.031 -11.098  1.00  0.00     0.034 A 
ATOM     16  C   UNL     1      -0.396   2.180  -9.661  1.00  0.00     0.034 A 
ATOM     17  C   UNL     1      -3.102   1.670 -10.011  1.00  0.00     0.043 A 
ATOM     18  C   UNL     1      -1.178   1.818  -8.582  1.00  0.00     0.043 A 
ATOM     19  C   UNL     1      -2.527   1.565  -8.756  1.00  0.00     0.041 A 
ATOM     20  Cl  UNL     1      -4.795   1.349 -10.218  1.00  0.00    -0.084 Cl
ATOM     21  Cl  UNL     1      -0.467   1.684  -7.004  1.00  0.00    -0.084 Cl
ENDBRANCH   7  14
TORSDOF 3
ENDMDL
MODEL 4
REMARK VINA RESULT:    -4.241     14.721     15.960
REMARK INTER + INTRA:          -5.156
REMARK INTER:                  -4.875
REMARK INTRA:                  -0.281
REMARK UNBOUND:                -0.295
REMARK SMILES O=C(O)c1ccc2nc(-c3cc(Cl)cc(Cl)c3)oc2c1
REMARK SMILES IDX 5 1 6 2 20 3 8 4 18 5 4 6 9 7 7 8 19 9 2 10 1 11 3 12 10 14
REMARK SMILES IDX 11 15 17 16 12 17 15 18 14 19 13 20 16 21
REMARK H PARENT 3 13
ROOT
ATOM      1  C   UNL     1       1.815   4.295 -15.785  1.00  0.00     0.018 A 
ATOM      2  C   UNL     1       0.666   4.397 -15.060  1.00  0.00     0.033 A 
ATOM      3  C   UNL     1       2.689   2.665 -14.216  1.00  0.00     0.065 A 
ATOM      4  N   UNL     1      -0.495   3.526 -12.992  1.00  0.00    -0.209 NA
ATOM      5  O   UNL     1       1.087   2.183 -12.339  1.00  0.00    -0.436 OA
ATOM      6  C   UNL     1       2.839   3.428 -15.375  1.00  0.00     0.063 A 
ATOM      7  C   UNL     1      -0.142   2.662 -12.072  1.00  0.00     0.227 A 
ATOM      8  C   UNL     1       0.503   3.637 -13.895  1.00  0.00     0.110 A 
ATOM      9  C   UNL     1       1.526   2.769 -13.475  1.00  0.00     0.156 A 
ENDROOT
BRANCH   6  10
ATOM     10  C   UNL     1       4.075   3.322 -16.171  1.00  0.00     0.335 C 
ATOM     11  O   UNL     1       4.168   2.476 -17.037  1.00  0.00    -0.246 OA
BRANCH  10  12
ATOM     12  O   UNL     1       5.102   4.163 -15.937  1.00  0.00    -0.478 OA
ATOM     13  H   UNL     1       5.983   3.771 -15.870  1.00  0.00     0.297 HD
ENDBRANCH  10  12
ENDBRANCH   6  10
BRANCH   7  14
ATOM     14  C   UNL     1      -0.972   2.273 -10.913  1.00  0.00     0.040 A 
ATOM     15  C   UNL     1      -0.397   2.154  -9.647  1.00  0.00     0.034 A 
ATOM     16  C   UNL     1      -2.335   2.020 -11.081  1.00  0.00     0.034 A 
ATOM     17  C   UNL     1      -1.178   1.791  -8.568  1.00  0.00     0.043 A 
ATOM     18  C   UNL     1      -3.106   1.658  -9.995  1.00  0.00     0.043 A 
ATOM     19  C   UNL     1      -2.529   1.542  -8.741  1.00  0.00     0.041 A 
ATOM     20  Cl  UNL     1      -0.465   1.644  -6.993  1.00  0.00    -0.084 Cl
ATOM     21  Cl  UNL     1      -4.801   1.344 -10.201  1.00  0.00    -0.084 Cl
ENDBRANCH   7  14
TORSDOF 3
ENDMDL
MODEL 5
REMARK VINA RESULT:    -3.519     14.082     14.477
REMARK INTER + INTRA:          -4.329
REMARK INTER:                  -4.047
REMARK INTRA:                  -0.282
REMARK UNBOUND:                -0.295
REMARK SMILES O=C(O)c1ccc2nc(-c3cc(Cl)cc(Cl)c3)oc2c1
REMARK SMILES IDX 5 1 6 2 20 3 8 4 18 5 4 6 9 7 7 8 19 9 2 10 1 11 3 12 10 14
REMARK SMILES IDX 11 15 17 16 12 17 15 18 14 19 13 20 16 21
REMARK H PARENT 3 13
ROOT
ATOM      1  C   UNL     1      -2.682   1.468  -9.015  1.00  0.00     0.018 A 
ATOM      2  C   UNL     1      -2.771   1.719 -10.351  1.00  0.00     0.033 A 
ATOM      3  C   UNL     1      -0.410   2.313  -8.982  1.00  0.00     0.065 A 
ATOM      4  N   UNL     1      -1.472   2.623 -12.321  1.00  0.00    -0.209 NA
ATOM      5  O   UNL     1       0.365   3.078 -11.248  1.00  0.00    -0.436 OA
ATOM      6  C   UNL     1      -1.505   1.762  -8.314  1.00  0.00     0.063 A 
ATOM      7  C   UNL     1      -0.258   3.101 -12.441  1.00  0.00     0.227 A 
ATOM      8  C   UNL     1      -1.680   2.272 -11.034  1.00  0.00     0.110 A 
ATOM      9  C   UNL     1      -0.494   2.565 -10.339  1.00  0.00     0.156 A 
ENDROOT
BRANCH   6  10
ATOM     10  C   UNL     1      -1.423   1.491  -6.867  1.00  0.00     0.335 C 
ATOM     11  O   UNL     1      -1.164   0.372  -6.472  1.00  0.00    -0.246 OA
BRANCH  10  12
ATOM     12  O   UNL     1      -1.636   2.485  -5.982  1.00  0.00    -0.478 OA
ATOM     13  H   UNL     1      -2.466   2.462  -5.487  1.00  0.00     0.297 HD
ENDBRANCH  10  12
ENDBRANCH   6  10
BRANCH   7  14
ATOM     14  C   UNL     1       0.338   3.592 -13.701  1.00  0.00     0.040 A 
ATOM     15  C   UNL     1       1.630   3.208 -14.061  1.00  0.00     0.034 A 
ATOM     16  C   UNL     1      -0.390   4.442 -14.535  1.00  0.00     0.034 A 
ATOM     17  C   UNL     1       2.182   3.669 -15.240  1.00  0.00     0.043 A 
ATOM     18  C   UNL     1       0.172   4.897 -15.712  1.00  0.00     0.043 A 
ATOM     19  C   UNL     1       1.455   4.512 -16.063  1.00  0.00     0.041 A 
ATOM     20  Cl  UNL     1       3.789   3.192 -15.690  1.00  0.00    -0.084 Cl
ATOM     21  Cl  UNL     1      -0.731   5.954 -16.751  1.00  0.00    -0.084 Cl
ENDBRANCH   7  14
TORSDOF 3
ENDMDL
MODEL 6
REMARK VINA RESULT:    -3.511     14.079     14.502
REMARK INTER + INTRA:          -4.319
REMARK INTER:                  -4.037
REMARK INTRA:                  -0.281
REMARK UNBOUND:                -0.295
REMARK SMILES O=C(O)c1ccc2nc(-c3cc(Cl)cc(Cl)c3)oc2c1
REMARK SMILES IDX 5 1 6 2 20 3 8 4 18 5 4 6 9 7 7 8 19 9 2 10 1 11 3 12 10 14
REMARK SMILES IDX 11 15 17 16 12 17 15 18 14 19 13 20 16 21
REMARK H PARENT 3 13
ROOT
ATOM      1  C   UNL     1      -2.676   1.464  -9.009  1.00  0.00     0.018 A 
ATOM      2  C   UNL     1      -2.768   1.718 -10.345  1.00  0.00     0.033 A 
ATOM      3  C   UNL     1      -0.402   2.306  -8.980  1.00  0.00     0.065 A 
ATOM      4  N   UNL     1      -1.473   2.624 -12.316  1.00  0.00    -0.209 NA
ATOM      5  O   UNL     1       0.368   3.074 -11.247  1.00  0.00    -0.436 OA
ATOM      6  C   UNL     1      -1.496   1.755  -8.310  1.00  0.00     0.063 A 
ATOM      7  C   UNL     1      -0.259   3.100 -12.438  1.00  0.00     0.227 A 
ATOM      8  C   UNL     1      -1.678   2.270 -11.029  1.00  0.00     0.110 A 
ATOM      9  C   UNL     1      -0.489   2.561 -10.336  1.00  0.00     0.156 A 
ENDROOT
BRANCH   6  10
ATOM     10  C   UNL     1      -1.411   1.482  -6.864  1.00  0.00     0.335 C 
ATOM     11  O   UNL     1      -1.090   0.377  -6.473  1.00  0.00    -0.246 OA
BRANCH  10  12
ATOM     12  O   UNL     1      -1.691   2.456  -5.976  1.00  0.00    -0.478 OA
ATOM     13  H   UNL     1      -1.242   3.303  -6.097  1.00  0.00     0.297 HD
ENDBRANCH  10  12
ENDBRANCH   6  10
BRANCH   7  14
ATOM     14  C   UNL     1       0.335   3.592 -13.699  1.00  0.00     0.040 A 
ATOM     15  C   UNL     1      -0.392   4.443 -14.532  1.00  0.00     0.034 A 
ATOM     16  C   UNL     1       1.627   3.206 -14.061  1.00  0.00     0.034 A 
ATOM     17  C   UNL     1       0.169   4.900 -15.707  1.00  0.00     0.043 A 
ATOM     18  C   UNL     1       2.178   3.670 -15.240  1.00  0.00     0.043 A 
ATOM     19  C   UNL     1       1.450   4.514 -16.061  1.00  0.00     0.041 A 
ATOM     20  Cl  UNL     1      -0.734   5.959 -16.745  1.00  0.00    -0.084 Cl
ATOM     21  Cl  UNL     1       3.784   3.191 -15.693  1.00  0.00    -0.084 Cl
ENDBRANCH   7  14
TORSDOF 3
ENDMDL
MODEL 7
REMARK VINA RESULT:    -3.473     10.925     11.504
REMARK INTER + INTRA:          -4.275
REMARK INTER:                  -3.980
REMARK INTRA:                  -0.296
REMARK UNBOUND:                -0.295
REMARK SMILES O=C(O)c1ccc2nc(-c3cc(Cl)cc(Cl)c3)oc2c1
REMARK SMILES IDX 5 1 6 2 20 3 8 4 18 5 4 6 9 7 7 8 19 9 2 10 1 11 3 12 10 14
REMARK SMILES IDX 11 15 17 16 12 17 15 18 14 19 13 20 16 21
REMARK H PARENT 3 13
ROOT
ATOM      1  C   UNL     1      -2.360   2.370 -12.010  1.00  0.00     0.018 A 
ATOM      2  C   UNL     1      -1.385   2.400 -11.058  1.00  0.00     0.033 A 
ATOM      3  C   UNL     1      -3.923   1.429 -10.414  1.00  0.00     0.065 A 
ATOM      4  N   UNL     1      -0.916   1.849  -8.638  1.00  0.00    -0.209 NA
ATOM      5  O   UNL     1      -2.894   1.089  -8.145  1.00  0.00    -0.436 OA
ATOM      6  C   UNL     1      -3.639   1.888 -11.701  1.00  0.00     0.063 A 
ATOM      7  C   UNL     1      -1.656   1.343  -7.683  1.00  0.00     0.227 A 
ATOM      8  C   UNL     1      -1.656   1.942  -9.763  1.00  0.00     0.110 A 
ATOM      9  C   UNL     1      -2.936   1.452  -9.447  1.00  0.00     0.156 A 
ENDROOT
BRANCH   6  10
ATOM     10  C   UNL     1      -4.687   1.866 -12.738  1.00  0.00     0.335 C 
ATOM     11  O   UNL     1      -5.805   1.478 -12.463  1.00  0.00    -0.246 OA
BRANCH  10  12
ATOM     12  O   UNL     1      -4.406   2.277 -13.990  1.00  0.00    -0.478 OA
ATOM     13  H   UNL     1      -3.474   2.408 -14.210  1.00  0.00     0.297 HD
ENDBRANCH  10  12
ENDBRANCH   6  10
BRANCH   7  14
ATOM     14  C   UNL     1      -1.197   1.088  -6.301  1.00  0.00     0.040 A 
ATOM     15  C   UNL     1      -1.771   0.061  -5.550  1.00  0.00     0.034 A 
ATOM     16  C   UNL     1      -0.188   1.874  -5.742  1.00  0.00     0.034 A 
ATOM     17  C   UNL     1      -1.337  -0.173  -4.260  1.00  0.00     0.043 A 
ATOM     18  C   UNL     1       0.238   1.630  -4.451  1.00  0.00     0.043 A 
ATOM     19  C   UNL     1      -0.336   0.610  -3.712  1.00  0.00     0.041 A 
ATOM     20  Cl  UNL     1      -2.049  -1.450  -3.325  1.00  0.00    -0.084 Cl
ATOM     21  Cl  UNL     1       1.493   2.606  -3.754  1.00  0.00    -0.084 Cl
ENDBRANCH   7  14
TORSDOF 3
ENDMDL
MODEL 8
REMARK VINA RESULT:    -3.466     10.923     11.342
REMARK INTER + INTRA:          -4.268
REMARK INTER:                  -3.972
REMARK INTRA:                  -0.296
REMARK UNBOUND:                -0.295
REMARK SMILES O=C(O)c1ccc2nc(-c3cc(Cl)cc(Cl)c3)oc2c1
REMARK SMILES IDX 5 1 6 2 20 3 8 4 18 5 4 6 9 7 7 8 19 9 2 10 1 11 3 12 10 14
REMARK SMILES IDX 11 15 17 16 12 17 15 18 14 19 13 20 16 21
REMARK H PARENT 3 13
ROOT
ATOM      1  C   UNL     1      -2.408   2.358 -12.009  1.00  0.00     0.018 A 
ATOM      2  C   UNL     1      -1.426   2.394 -11.065  1.00  0.00     0.033 A 
ATOM      3  C   UNL     1      -3.954   1.412 -10.398  1.00  0.00     0.065 A 
ATOM      4  N   UNL     1      -0.935   1.851  -8.647  1.00  0.00    -0.209 NA
ATOM      5  O   UNL     1      -2.905   1.083  -8.137  1.00  0.00    -0.436 OA
ATOM      6  C   UNL     1      -3.683   1.870 -11.689  1.00  0.00     0.063 A 
ATOM      7  C   UNL     1      -1.665   1.343  -7.685  1.00  0.00     0.227 A 
ATOM      8  C   UNL     1      -1.685   1.938  -9.767  1.00  0.00     0.110 A 
ATOM      9  C   UNL     1      -2.959   1.443  -9.439  1.00  0.00     0.156 A 
ENDROOT
BRANCH   6  10
ATOM     10  C   UNL     1      -4.739   1.841 -12.717  1.00  0.00     0.335 C 
ATOM     11  O   UNL     1      -5.851   1.442 -12.434  1.00  0.00    -0.246 OA
BRANCH  10  12
ATOM     12  O   UNL     1      -4.471   2.257 -13.971  1.00  0.00    -0.478 OA
ATOM     13  H   UNL     1      -3.789   1.775 -14.457  1.00  0.00     0.297 HD
ENDBRANCH  10  12
ENDBRANCH   6  10
BRANCH   7  14
ATOM     14  C   UNL     1      -1.194   1.093  -6.307  1.00  0.00     0.040 A 
ATOM     15  C   UNL     1      -0.190   1.889  -5.754  1.00  0.00     0.034 A 
ATOM     16  C   UNL     1      -1.752   0.059  -5.553  1.00  0.00     0.034 A 
ATOM     17  C   UNL     1       0.245   1.651  -4.465  1.00  0.00     0.043 A 
ATOM     18  C   UNL     1      -1.309  -0.169  -4.266  1.00  0.00     0.043 A 
ATOM     19  C   UNL     1      -0.312   0.624  -3.723  1.00  0.00     0.041 A 
ATOM     20  Cl  UNL     1       1.493   2.640  -3.775  1.00  0.00    -0.084 Cl
ATOM     21  Cl  UNL     1      -2.001  -1.455  -3.327  1.00  0.00    -0.084 Cl
ENDBRANCH   7  14
TORSDOF 3
ENDMDL
MODEL 9
REMARK VINA RESULT:    -3.435     13.126     14.305
REMARK INTER + INTRA:          -4.232
REMARK INTER:                  -3.944
REMARK INTRA:                  -0.288
REMARK UNBOUND:                -0.295
REMARK SMILES O=C(O)c1ccc2nc(-c3cc(Cl)cc(Cl)c3)oc2c1
REMARK SMILES IDX 5 1 6 2 20 3 8 4 18 5 4 6 9 7 7 8 19 9 2 10 1 11 3 12 10 14
REMARK SMILES IDX 11 15 17 16 12 17 15 18 14 19 13 20 16 21
REMARK H PARENT 3 13
ROOT
ATOM      1  C   UNL     1      -0.857   1.937  -7.689  1.00  0.00     0.018 A 
ATOM      2  C   UNL     1      -1.614   2.727  -8.502  1.00  0.00     0.033 A 
ATOM      3  C   UNL     1      -1.812  -0.052  -8.695  1.00  0.00     0.065 A 
ATOM      4  N   UNL     1      -3.343   2.653 -10.343  1.00  0.00    -0.209 NA
ATOM      5  O   UNL     1      -3.495   0.487 -10.483  1.00  0.00    -0.436 OA
ATOM      6  C   UNL     1      -0.945   0.541  -7.776  1.00  0.00     0.063 A 
ATOM      7  C   UNL     1      -3.936   1.665 -10.965  1.00  0.00     0.227 A 
ATOM      8  C   UNL     1      -2.488   2.146  -9.428  1.00  0.00     0.110 A 
ATOM      9  C   UNL     1      -2.585   0.746  -9.518  1.00  0.00     0.156 A 
ENDROOT
BRANCH   6  10
ATOM     10  C   UNL     1      -0.117  -0.304  -6.896  1.00  0.00     0.335 C 
ATOM     11  O   UNL     1      -0.350  -1.492  -6.800  1.00  0.00    -0.246 OA
BRANCH  10  12
ATOM     12  O   UNL     1       0.898   0.242  -6.197  1.00  0.00    -0.478 OA
ATOM     13  H   UNL     1       1.503   0.821  -6.680  1.00  0.00     0.297 HD
ENDBRANCH  10  12
ENDBRANCH   6  10
BRANCH   7  14
ATOM     14  C   UNL     1      -4.941   1.820 -12.037  1.00  0.00     0.040 A 
ATOM     15  C   UNL     1      -4.620   1.488 -13.353  1.00  0.00     0.034 A 
ATOM     16  C   UNL     1      -6.217   2.301 -11.735  1.00  0.00     0.034 A 
ATOM     17  C   UNL     1      -5.564   1.635 -14.350  1.00  0.00     0.043 A 
ATOM     18  C   UNL     1      -7.153   2.443 -12.741  1.00  0.00     0.043 A 
ATOM     19  C   UNL     1      -6.827   2.112 -14.045  1.00  0.00     0.041 A 
ATOM     20  Cl  UNL     1      -5.166   1.222 -15.988  1.00  0.00    -0.084 Cl
ATOM     21  Cl  UNL     1      -8.740   3.041 -12.369  1.00  0.00    -0.084 Cl
ENDBRANCH   7  14
TORSDOF 3
ENDMDL
