MODEL 1
REMARK VINA RESULT:    -5.348      0.000      0.000
REMARK INTER + INTRA:          -7.870
REMARK INTER:                  -7.380
REMARK INTRA:                  -0.489
REMARK UNBOUND:                -0.489
REMARK SMILES Cc1n[nH]c(C)c1CCCOc1cc(C(=O)O)ccc1F
REMARK SMILES IDX 11 1 12 2 14 3 18 4 13 5 19 6 20 7 21 8 15 9 16 10 17 11
REMARK SMILES IDX 10 13 9 14 8 15 7 16 5 17 2 18 4 19 3 20 6 21 1 22
REMARK H PARENT 17 12 4 23
ROOT
ATOM      1  O   UNL     1      -0.260  -1.115  -7.214  1.00  0.00    -0.490 OA
ENDROOT
BRANCH   1   2
ATOM      2  C   UNL     1      -0.333  -0.501  -6.003  1.00  0.00     0.155 A 
ATOM      3  C   UNL     1       0.297   1.292  -4.530  1.00  0.00     0.063 A 
ATOM      4  C   UNL     1      -0.505   0.743  -3.526  1.00  0.00     0.019 A 
ATOM      5  C   UNL     1       0.379   0.661  -5.774  1.00  0.00     0.065 A 
ATOM      6  C   UNL     1      -1.216  -0.414  -3.766  1.00  0.00     0.044 A 
ATOM      7  C   UNL     1      -1.137  -1.035  -5.002  1.00  0.00     0.165 A 
ATOM      8  F   UNL     1      -1.836  -2.168  -5.231  1.00  0.00    -0.203 F 
BRANCH   3   9
ATOM      9  C   UNL     1       1.059   2.530  -4.276  1.00  0.00     0.335 C 
ATOM     10  O   UNL     1       2.000   2.821  -4.986  1.00  0.00    -0.246 OA
BRANCH   9  11
ATOM     11  O   UNL     1       0.705   3.342  -3.260  1.00  0.00    -0.478 OA
ATOM     12  H   UNL     1       0.618   4.284  -3.461  1.00  0.00     0.297 HD
ENDBRANCH   9  11
ENDBRANCH   3   9
ENDBRANCH   1   2
BRANCH   1  13
ATOM     13  C   UNL     1      -1.451  -1.134  -8.005  1.00  0.00     0.230 C 
BRANCH  13  14
ATOM     14  C   UNL     1      -1.252  -0.263  -9.246  1.00  0.00     0.046 C 
BRANCH  14  15
ATOM     15  C   UNL     1      -1.944   1.086  -9.040  1.00  0.00     0.043 C 
BRANCH  15  16
ATOM     16  C   UNL     1      -2.265   1.697 -10.379  1.00  0.00    -0.004 A 
ATOM     17  C   UNL     1      -1.397   2.351 -11.184  1.00  0.00     0.036 A 
ATOM     18  C   UNL     1      -3.512   1.684 -11.012  1.00  0.00     0.063 A 
ATOM     19  N   UNL     1      -2.072   2.743 -12.285  1.00  0.00    -0.282 N 
ATOM     20  N   UNL     1      -3.399   2.316 -12.152  1.00  0.00    -0.181 NA
ATOM     21  C   UNL     1       0.063   2.597 -10.903  1.00  0.00     0.066 C 
ATOM     22  C   UNL     1      -4.773   1.059 -10.470  1.00  0.00     0.069 C 
ATOM     23  H   UNL     1      -1.703   3.235 -13.036  1.00  0.00     0.190 HD
ENDBRANCH  15  16
ENDBRANCH  14  15
ENDBRANCH  13  14
ENDBRANCH   1  13
TORSDOF 7
ENDMDL
MODEL 2
REMARK VINA RESULT:    -5.327      2.166      3.805
REMARK INTER + INTRA:          -7.841
REMARK INTER:                  -7.228
REMARK INTRA:                  -0.613
REMARK UNBOUND:                -0.489
REMARK SMILES Cc1n[nH]c(C)c1CCCOc1cc(C(=O)O)ccc1F
REMARK SMILES IDX 11 1 12 2 14 3 18 4 13 5 19 6 20 7 21 8 15 9 16 10 17 11
REMARK SMILES IDX 10 13 9 14 8 15 7 16 5 17 2 18 4 19 3 20 6 21 1 22
REMARK H PARENT 17 12 4 23
ROOT
ATOM      1  O   UNL     1      -0.328   2.317  -6.552  1.00  0.00    -0.490 OA
ENDROOT
BRANCH   1   2
ATOM      2  C   UNL     1      -0.440   1.455  -5.507  1.00  0.00     0.155 A 
ATOM      3  C   UNL     1      -1.362  -0.544  -4.539  1.00  0.00     0.063 A 
ATOM      4  C   UNL     1      -0.646  -0.301  -3.364  1.00  0.00     0.019 A 
ATOM      5  C   UNL     1      -1.254   0.343  -5.613  1.00  0.00     0.065 A 
ATOM      6  C   UNL     1       0.169   0.808  -3.270  1.00  0.00     0.044 A 
ATOM      7  C   UNL     1       0.278   1.683  -4.338  1.00  0.00     0.165 A 
ATOM      8  F   UNL     1       1.078   2.767  -4.240  1.00  0.00    -0.203 F 
BRANCH   3   9
ATOM      9  C   UNL     1      -2.235  -1.730  -4.643  1.00  0.00     0.335 C 
ATOM     10  O   UNL     1      -3.398  -1.602  -4.966  1.00  0.00    -0.246 OA
BRANCH   9  11
ATOM     11  O   UNL     1      -1.738  -2.955  -4.385  1.00  0.00    -0.478 OA
ATOM     12  H   UNL     1      -2.297  -3.712  -4.610  1.00  0.00     0.297 HD
ENDBRANCH   9  11
ENDBRANCH   3   9
ENDBRANCH   1   2
BRANCH   1  13
ATOM     13  C   UNL     1      -1.400   3.243  -6.746  1.00  0.00     0.230 C 
BRANCH  13  14
ATOM     14  C   UNL     1      -1.649   3.427  -8.244  1.00  0.00     0.046 C 
BRANCH  14  15
ATOM     15  C   UNL     1      -1.412   2.099  -8.967  1.00  0.00     0.043 C 
BRANCH  15  16
ATOM     16  C   UNL     1      -1.739   2.257 -10.429  1.00  0.00    -0.004 A 
ATOM     17  C   UNL     1      -2.936   2.005 -11.009  1.00  0.00     0.036 A 
ATOM     18  C   UNL     1      -0.862   2.695 -11.427  1.00  0.00     0.063 A 
ATOM     19  N   UNL     1      -2.818   2.269 -12.327  1.00  0.00    -0.282 N 
ATOM     20  N   UNL     1      -1.505   2.696 -12.566  1.00  0.00    -0.181 NA
ATOM     21  C   UNL     1      -4.178   1.519 -10.308  1.00  0.00     0.066 C 
ATOM     22  C   UNL     1       0.580   3.086 -11.226  1.00  0.00     0.069 C 
ATOM     23  H   UNL     1      -3.518   2.178 -12.992  1.00  0.00     0.190 HD
ENDBRANCH  15  16
ENDBRANCH  14  15
ENDBRANCH  13  14
ENDBRANCH   1  13
TORSDOF 7
ENDMDL
MODEL 3
REMARK VINA RESULT:    -5.299      0.626      1.876
REMARK INTER + INTRA:          -7.802
REMARK INTER:                  -7.160
REMARK INTRA:                  -0.642
REMARK UNBOUND:                -0.489
REMARK SMILES Cc1n[nH]c(C)c1CCCOc1cc(C(=O)O)ccc1F
REMARK SMILES IDX 11 1 12 2 14 3 18 4 13 5 19 6 20 7 21 8 15 9 16 10 17 11
REMARK SMILES IDX 10 13 9 14 8 15 7 16 5 17 2 18 4 19 3 20 6 21 1 22
REMARK H PARENT 17 12 4 23
ROOT
ATOM      1  O   UNL     1      -1.930  -0.139  -6.994  1.00  0.00    -0.490 OA
ENDROOT
BRANCH   1   2
ATOM      2  C   UNL     1      -1.331   0.084  -5.794  1.00  0.00     0.155 A 
ATOM      3  C   UNL     1       0.109   1.406  -4.394  1.00  0.00     0.063 A 
ATOM      4  C   UNL     1      -0.123   0.528  -3.332  1.00  0.00     0.019 A 
ATOM      5  C   UNL     1      -0.501   1.178  -5.629  1.00  0.00     0.065 A 
ATOM      6  C   UNL     1      -0.957  -0.557  -3.505  1.00  0.00     0.044 A 
ATOM      7  C   UNL     1      -1.565  -0.779  -4.729  1.00  0.00     0.165 A 
ATOM      8  F   UNL     1      -2.381  -1.843  -4.892  1.00  0.00    -0.203 F 
BRANCH   3   9
ATOM      9  C   UNL     1       1.001   2.568  -4.212  1.00  0.00     0.335 C 
ATOM     10  O   UNL     1       1.956   2.722  -4.945  1.00  0.00    -0.246 OA
BRANCH   9  11
ATOM     11  O   UNL     1       0.751   3.463  -3.235  1.00  0.00    -0.478 OA
ATOM     12  H   UNL     1       0.925   3.180  -2.326  1.00  0.00     0.297 HD
ENDBRANCH   9  11
ENDBRANCH   3   9
ENDBRANCH   1   2
BRANCH   1  13
ATOM     13  C   UNL     1      -1.163  -0.827  -7.985  1.00  0.00     0.230 C 
BRANCH  13  14
ATOM     14  C   UNL     1      -1.484  -0.254  -9.366  1.00  0.00     0.046 C 
BRANCH  14  15
ATOM     15  C   UNL     1      -2.015   1.173  -9.216  1.00  0.00     0.043 C 
BRANCH  15  16
ATOM     16  C   UNL     1      -2.362   1.726 -10.574  1.00  0.00    -0.004 A 
ATOM     17  C   UNL     1      -3.580   1.684 -11.162  1.00  0.00     0.036 A 
ATOM     18  C   UNL     1      -1.485   2.379 -11.446  1.00  0.00     0.063 A 
ATOM     19  N   UNL     1      -3.476   2.283 -12.367  1.00  0.00    -0.282 N 
ATOM     20  N   UNL     1      -2.150   2.708 -12.524  1.00  0.00    -0.181 NA
ATOM     21  C   UNL     1      -4.829   1.077 -10.578  1.00  0.00     0.066 C 
ATOM     22  C   UNL     1      -0.024   2.648 -11.193  1.00  0.00     0.069 C 
ATOM     23  H   UNL     1      -4.192   2.399 -13.011  1.00  0.00     0.190 HD
ENDBRANCH  15  16
ENDBRANCH  14  15
ENDBRANCH  13  14
ENDBRANCH   1  13
TORSDOF 7
ENDMDL
MODEL 4
REMARK VINA RESULT:    -4.487      3.915      6.972
REMARK INTER + INTRA:          -6.682
REMARK INTER:                  -5.857
REMARK INTRA:                  -0.825
REMARK UNBOUND:                -0.489
REMARK SMILES Cc1n[nH]c(C)c1CCCOc1cc(C(=O)O)ccc1F
REMARK SMILES IDX 11 1 12 2 14 3 18 4 13 5 19 6 20 7 21 8 15 9 16 10 17 11
REMARK SMILES IDX 10 13 9 14 8 15 7 16 5 17 2 18 4 19 3 20 6 21 1 22
REMARK H PARENT 17 12 4 23
ROOT
ATOM      1  O   UNL     1      -0.424   1.961  -8.072  1.00  0.00    -0.490 OA
ENDROOT
BRANCH   1   2
ATOM      2  C   UNL     1      -1.088   2.043  -9.256  1.00  0.00     0.155 A 
ATOM      3  C   UNL     1      -3.106   1.796 -10.540  1.00  0.00     0.063 A 
ATOM      4  C   UNL     1      -2.427   2.226 -11.683  1.00  0.00     0.019 A 
ATOM      5  C   UNL     1      -2.427   1.706  -9.323  1.00  0.00     0.065 A 
ATOM      6  C   UNL     1      -1.093   2.566 -11.605  1.00  0.00     0.044 A 
ATOM      7  C   UNL     1      -0.423   2.480 -10.396  1.00  0.00     0.165 A 
ATOM      8  F   UNL     1       0.885   2.815 -10.327  1.00  0.00    -0.203 F 
BRANCH   3   9
ATOM      9  C   UNL     1      -4.534   1.432 -10.620  1.00  0.00     0.335 C 
ATOM     10  O   UNL     1      -4.857   0.296 -10.900  1.00  0.00    -0.246 OA
BRANCH   9  11
ATOM     11  O   UNL     1      -5.480   2.360 -10.375  1.00  0.00    -0.478 OA
ATOM     12  H   UNL     1      -5.180   3.211 -10.025  1.00  0.00     0.297 HD
ENDBRANCH   9  11
ENDBRANCH   3   9
ENDBRANCH   1   2
BRANCH   1  13
ATOM     13  C   UNL     1      -1.131   2.383  -6.903  1.00  0.00     0.230 C 
BRANCH  13  14
ATOM     14  C   UNL     1      -0.302   2.051  -5.660  1.00  0.00     0.046 C 
BRANCH  14  15
ATOM     15  C   UNL     1       0.382   0.696  -5.850  1.00  0.00     0.043 C 
BRANCH  15  16
ATOM     16  C   UNL     1      -0.542  -0.403  -5.393  1.00  0.00    -0.004 A 
ATOM     17  C   UNL     1      -0.926  -0.641  -4.117  1.00  0.00     0.036 A 
ATOM     18  C   UNL     1      -1.160  -1.353  -6.213  1.00  0.00     0.063 A 
ATOM     19  N   UNL     1      -1.752  -1.708  -4.129  1.00  0.00    -0.282 N 
ATOM     20  N   UNL     1      -1.880  -2.140  -5.455  1.00  0.00    -0.181 NA
ATOM     21  C   UNL     1      -0.507   0.145  -2.903  1.00  0.00     0.066 C 
ATOM     22  C   UNL     1      -1.012  -1.460  -7.709  1.00  0.00     0.069 C 
ATOM     23  H   UNL     1      -2.181  -2.106  -3.355  1.00  0.00     0.190 HD
ENDBRANCH  15  16
ENDBRANCH  14  15
ENDBRANCH  13  14
ENDBRANCH   1  13
TORSDOF 7
ENDMDL
MODEL 5
REMARK VINA RESULT:    -4.457      3.781      6.481
REMARK INTER + INTRA:          -6.640
REMARK INTER:                  -5.810
REMARK INTRA:                  -0.830
REMARK UNBOUND:                -0.489
REMARK SMILES Cc1n[nH]c(C)c1CCCOc1cc(C(=O)O)ccc1F
REMARK SMILES IDX 11 1 12 2 14 3 18 4 13 5 19 6 20 7 21 8 15 9 16 10 17 11
REMARK SMILES IDX 10 13 9 14 8 15 7 16 5 17 2 18 4 19 3 20 6 21 1 22
REMARK H PARENT 17 12 4 23
ROOT
ATOM      1  O   UNL     1      -2.404   0.770  -7.963  1.00  0.00    -0.490 OA
ENDROOT
BRANCH   1   2
ATOM      2  C   UNL     1      -2.272   1.323  -9.198  1.00  0.00     0.155 A 
ATOM      3  C   UNL     1      -0.907   2.344 -10.893  1.00  0.00     0.063 A 
ATOM      4  C   UNL     1      -2.023   2.440 -11.729  1.00  0.00     0.019 A 
ATOM      5  C   UNL     1      -1.039   1.781  -9.622  1.00  0.00     0.065 A 
ATOM      6  C   UNL     1      -3.247   1.975 -11.299  1.00  0.00     0.044 A 
ATOM      7  C   UNL     1      -3.375   1.413 -10.040  1.00  0.00     0.165 A 
ATOM      8  F   UNL     1      -4.578   0.959  -9.625  1.00  0.00    -0.203 F 
BRANCH   3   9
ATOM      9  C   UNL     1       0.406   2.840 -11.351  1.00  0.00     0.335 C 
ATOM     10  O   UNL     1       1.160   2.101 -11.949  1.00  0.00    -0.246 OA
BRANCH   9  11
ATOM     11  O   UNL     1       0.765   4.117 -11.109  1.00  0.00    -0.478 OA
ATOM     12  H   UNL     1       1.710   4.297 -11.015  1.00  0.00     0.297 HD
ENDBRANCH   9  11
ENDBRANCH   3   9
ENDBRANCH   1   2
BRANCH   1  13
ATOM     13  C   UNL     1      -1.335  -0.064  -7.508  1.00  0.00     0.230 C 
BRANCH  13  14
ATOM     14  C   UNL     1      -1.581  -0.457  -6.050  1.00  0.00     0.046 C 
BRANCH  14  15
ATOM     15  C   UNL     1      -2.127   0.749  -5.282  1.00  0.00     0.043 C 
BRANCH  15  16
ATOM     16  C   UNL     1      -0.980   1.583  -4.774  1.00  0.00    -0.004 A 
ATOM     17  C   UNL     1      -0.093   1.219  -3.819  1.00  0.00     0.036 A 
ATOM     18  C   UNL     1      -0.640   2.868  -5.210  1.00  0.00     0.063 A 
ATOM     19  N   UNL     1       0.773   2.240  -3.652  1.00  0.00    -0.282 N 
ATOM     20  N   UNL     1       0.406   3.266  -4.533  1.00  0.00    -0.181 NA
ATOM     21  C   UNL     1      -0.075  -0.091  -3.076  1.00  0.00     0.066 C 
ATOM     22  C   UNL     1      -1.363   3.662  -6.267  1.00  0.00     0.069 C 
ATOM     23  H   UNL     1       1.518   2.261  -3.031  1.00  0.00     0.190 HD
ENDBRANCH  15  16
ENDBRANCH  14  15
ENDBRANCH  13  14
ENDBRANCH   1  13
TORSDOF 7
ENDMDL
MODEL 6
REMARK VINA RESULT:    -4.449      5.089      7.988
REMARK INTER + INTRA:          -6.629
REMARK INTER:                  -5.973
REMARK INTRA:                  -0.656
REMARK UNBOUND:                -0.489
REMARK SMILES Cc1n[nH]c(C)c1CCCOc1cc(C(=O)O)ccc1F
REMARK SMILES IDX 11 1 12 2 14 3 18 4 13 5 19 6 20 7 21 8 15 9 16 10 17 11
REMARK SMILES IDX 10 13 9 14 8 15 7 16 5 17 2 18 4 19 3 20 6 21 1 22
REMARK H PARENT 17 12 4 23
ROOT
ATOM      1  O   UNL     1      -0.311   3.004 -10.829  1.00  0.00    -0.490 OA
ENDROOT
BRANCH   1   2
ATOM      2  C   UNL     1       0.194   3.180 -12.079  1.00  0.00     0.155 A 
ATOM      3  C   UNL     1       0.032   4.132 -14.281  1.00  0.00     0.063 A 
ATOM      4  C   UNL     1       1.248   3.535 -14.624  1.00  0.00     0.019 A 
ATOM      5  C   UNL     1      -0.493   3.950 -13.000  1.00  0.00     0.065 A 
ATOM      6  C   UNL     1       1.928   2.774 -13.697  1.00  0.00     0.044 A 
ATOM      7  C   UNL     1       1.408   2.598 -12.426  1.00  0.00     0.165 A 
ATOM      8  F   UNL     1       2.080   1.851 -11.522  1.00  0.00    -0.203 F 
BRANCH   3   9
ATOM      9  C   UNL     1      -0.699   4.948 -15.271  1.00  0.00     0.335 C 
ATOM     10  O   UNL     1      -0.122   5.378 -16.249  1.00  0.00    -0.246 OA
BRANCH   9  11
ATOM     11  O   UNL     1      -2.008   5.210 -15.092  1.00  0.00    -0.478 OA
ATOM     12  H   UNL     1      -2.268   6.142 -15.054  1.00  0.00     0.297 HD
ENDBRANCH   9  11
ENDBRANCH   3   9
ENDBRANCH   1   2
BRANCH   1  13
ATOM     13  C   UNL     1      -1.287   1.972 -10.663  1.00  0.00     0.230 C 
BRANCH  13  14
ATOM     14  C   UNL     1      -1.760   1.948  -9.209  1.00  0.00     0.046 C 
BRANCH  14  15
ATOM     15  C   UNL     1      -0.577   1.628  -8.292  1.00  0.00     0.043 C 
BRANCH  15  16
ATOM     16  C   UNL     1      -1.089   1.148  -6.959  1.00  0.00    -0.004 A 
ATOM     17  C   UNL     1      -1.233  -0.143  -6.579  1.00  0.00     0.036 A 
ATOM     18  C   UNL     1      -1.493   1.958  -5.892  1.00  0.00     0.063 A 
ATOM     19  N   UNL     1      -1.718  -0.149  -5.319  1.00  0.00    -0.282 N 
ATOM     20  N   UNL     1      -1.876   1.182  -4.911  1.00  0.00    -0.181 NA
ATOM     21  C   UNL     1      -0.911  -1.355  -7.413  1.00  0.00     0.066 C 
ATOM     22  C   UNL     1      -1.497   3.466  -5.880  1.00  0.00     0.069 C 
ATOM     23  H   UNL     1      -1.921  -0.936  -4.790  1.00  0.00     0.190 HD
ENDBRANCH  15  16
ENDBRANCH  14  15
ENDBRANCH  13  14
ENDBRANCH   1  13
TORSDOF 7
ENDMDL
MODEL 7
REMARK VINA RESULT:    -4.445      3.584      5.539
REMARK INTER + INTRA:          -6.624
REMARK INTER:                  -5.968
REMARK INTRA:                  -0.656
REMARK UNBOUND:                -0.489
REMARK SMILES Cc1n[nH]c(C)c1CCCOc1cc(C(=O)O)ccc1F
REMARK SMILES IDX 11 1 12 2 14 3 18 4 13 5 19 6 20 7 21 8 15 9 16 10 17 11
REMARK SMILES IDX 10 13 9 14 8 15 7 16 5 17 2 18 4 19 3 20 6 21 1 22
REMARK H PARENT 17 12 4 23
ROOT
ATOM      1  O   UNL     1      -3.044   1.808 -10.919  1.00  0.00    -0.490 OA
ENDROOT
BRANCH   1   2
ATOM      2  C   UNL     1      -2.345   1.478  -9.800  1.00  0.00     0.155 A 
ATOM      3  C   UNL     1      -1.297  -0.177  -8.405  1.00  0.00     0.063 A 
ATOM      4  C   UNL     1      -0.908   0.827  -7.514  1.00  0.00     0.019 A 
ATOM      5  C   UNL     1      -2.020   0.158  -9.553  1.00  0.00     0.065 A 
ATOM      6  C   UNL     1      -1.232   2.142  -7.773  1.00  0.00     0.044 A 
ATOM      7  C   UNL     1      -1.944   2.472  -8.914  1.00  0.00     0.165 A 
ATOM      8  F   UNL     1      -2.259   3.762  -9.162  1.00  0.00    -0.203 F 
BRANCH   3   9
ATOM      9  C   UNL     1      -0.952  -1.585  -8.131  1.00  0.00     0.335 C 
ATOM     10  O   UNL     1      -0.354  -1.878  -7.116  1.00  0.00    -0.246 OA
BRANCH   9  11
ATOM     11  O   UNL     1      -1.306  -2.547  -9.006  1.00  0.00    -0.478 OA
ATOM     12  H   UNL     1      -1.705  -2.259  -9.839  1.00  0.00     0.297 HD
ENDBRANCH   9  11
ENDBRANCH   3   9
ENDBRANCH   1   2
BRANCH   1  13
ATOM     13  C   UNL     1      -4.365   1.274 -11.040  1.00  0.00     0.230 C 
BRANCH  13  14
ATOM     14  C   UNL     1      -5.387   2.386 -10.798  1.00  0.00     0.046 C 
BRANCH  14  15
ATOM     15  C   UNL     1      -6.690   2.048 -11.525  1.00  0.00     0.043 C 
BRANCH  15  16
ATOM     16  C   UNL     1      -6.818   2.909 -12.755  1.00  0.00    -0.004 A 
ATOM     17  C   UNL     1      -6.478   2.553 -14.016  1.00  0.00     0.036 A 
ATOM     18  C   UNL     1      -7.316   4.216 -12.796  1.00  0.00     0.063 A 
ATOM     19  N   UNL     1      -6.745   3.600 -14.825  1.00  0.00    -0.282 N 
ATOM     20  N   UNL     1      -7.266   4.633 -14.035  1.00  0.00    -0.181 NA
ATOM     21  C   UNL     1      -5.905   1.226 -14.439  1.00  0.00     0.066 C 
ATOM     22  C   UNL     1      -7.812   5.011 -11.615  1.00  0.00     0.069 C 
ATOM     23  H   UNL     1      -6.601   3.631 -15.783  1.00  0.00     0.190 HD
ENDBRANCH  15  16
ENDBRANCH  14  15
ENDBRANCH  13  14
ENDBRANCH   1  13
TORSDOF 7
ENDMDL
MODEL 8
REMARK VINA RESULT:    -4.444      4.783      8.181
REMARK INTER + INTRA:          -6.622
REMARK INTER:                  -5.914
REMARK INTRA:                  -0.708
REMARK UNBOUND:                -0.489
REMARK SMILES Cc1n[nH]c(C)c1CCCOc1cc(C(=O)O)ccc1F
REMARK SMILES IDX 11 1 12 2 14 3 18 4 13 5 19 6 20 7 21 8 15 9 16 10 17 11
REMARK SMILES IDX 10 13 9 14 8 15 7 16 5 17 2 18 4 19 3 20 6 21 1 22
REMARK H PARENT 17 12 4 23
ROOT
ATOM      1  O   UNL     1      -3.547   1.266 -10.553  1.00  0.00    -0.490 OA
ENDROOT
BRANCH   1   2
ATOM      2  C   UNL     1      -4.544   1.610 -11.411  1.00  0.00     0.155 A 
ATOM      3  C   UNL     1      -5.386   1.827 -13.653  1.00  0.00     0.063 A 
ATOM      4  C   UNL     1      -6.597   2.307 -13.148  1.00  0.00     0.019 A 
ATOM      5  C   UNL     1      -4.358   1.479 -12.775  1.00  0.00     0.065 A 
ATOM      6  C   UNL     1      -6.776   2.429 -11.786  1.00  0.00     0.044 A 
ATOM      7  C   UNL     1      -5.757   2.077 -10.916  1.00  0.00     0.165 A 
ATOM      8  F   UNL     1      -5.938   2.199  -9.583  1.00  0.00    -0.203 F 
BRANCH   3   9
ATOM      9  C   UNL     1      -5.192   1.695 -15.110  1.00  0.00     0.335 C 
ATOM     10  O   UNL     1      -6.132   1.839 -15.864  1.00  0.00    -0.246 OA
BRANCH   9  11
ATOM     11  O   UNL     1      -3.968   1.422 -15.604  1.00  0.00    -0.478 OA
ATOM     12  H   UNL     1      -3.621   0.532 -15.450  1.00  0.00     0.297 HD
ENDBRANCH   9  11
ENDBRANCH   3   9
ENDBRANCH   1   2
BRANCH   1  13
ATOM     13  C   UNL     1      -2.371   2.078 -10.567  1.00  0.00     0.230 C 
BRANCH  13  14
ATOM     14  C   UNL     1      -1.413   1.607  -9.471  1.00  0.00     0.046 C 
BRANCH  14  15
ATOM     15  C   UNL     1      -2.212   1.240  -8.219  1.00  0.00     0.043 C 
BRANCH  15  16
ATOM     16  C   UNL     1      -1.272   1.074  -7.053  1.00  0.00    -0.004 A 
ATOM     17  C   UNL     1      -0.920   2.037  -6.170  1.00  0.00     0.036 A 
ATOM     18  C   UNL     1      -0.614  -0.105  -6.688  1.00  0.00     0.063 A 
ATOM     19  N   UNL     1      -0.064   1.489  -5.282  1.00  0.00    -0.282 N 
ATOM     20  N   UNL     1       0.116   0.144  -5.631  1.00  0.00    -0.181 NA
ATOM     21  C   UNL     1      -1.398   3.466  -6.177  1.00  0.00     0.066 C 
ATOM     22  C   UNL     1      -0.717  -1.431  -7.398  1.00  0.00     0.069 C 
ATOM     23  H   UNL     1       0.353   1.945  -4.535  1.00  0.00     0.190 HD
ENDBRANCH  15  16
ENDBRANCH  14  15
ENDBRANCH  13  14
ENDBRANCH   1  13
TORSDOF 7
ENDMDL
MODEL 9
REMARK VINA RESULT:    -4.309      3.644      5.011
REMARK INTER + INTRA:          -6.436
REMARK INTER:                  -5.773
REMARK INTRA:                  -0.663
REMARK UNBOUND:                -0.489
REMARK SMILES Cc1n[nH]c(C)c1CCCOc1cc(C(=O)O)ccc1F
REMARK SMILES IDX 11 1 12 2 14 3 18 4 13 5 19 6 20 7 21 8 15 9 16 10 17 11
REMARK SMILES IDX 10 13 9 14 8 15 7 16 5 17 2 18 4 19 3 20 6 21 1 22
REMARK H PARENT 17 12 4 23
ROOT
ATOM      1  O   UNL     1      -1.197   2.311 -10.934  1.00  0.00    -0.490 OA
ENDROOT
BRANCH   1   2
ATOM      2  C   UNL     1      -1.302   1.965  -9.623  1.00  0.00     0.155 A 
ATOM      3  C   UNL     1      -1.382   2.584  -7.301  1.00  0.00     0.063 A 
ATOM      4  C   UNL     1      -1.528   1.238  -6.952  1.00  0.00     0.019 A 
ATOM      5  C   UNL     1      -1.268   2.942  -8.646  1.00  0.00     0.065 A 
ATOM      6  C   UNL     1      -1.567   0.272  -7.934  1.00  0.00     0.044 A 
ATOM      7  C   UNL     1      -1.459   0.630  -9.268  1.00  0.00     0.165 A 
ATOM      8  F   UNL     1      -1.498  -0.322 -10.226  1.00  0.00    -0.203 F 
BRANCH   3   9
ATOM      9  C   UNL     1      -1.340   3.621  -6.252  1.00  0.00     0.335 C 
ATOM     10  O   UNL     1      -1.096   3.314  -5.103  1.00  0.00    -0.246 OA
BRANCH   9  11
ATOM     11  O   UNL     1      -1.568   4.910  -6.570  1.00  0.00    -0.478 OA
ATOM     12  H   UNL     1      -2.298   5.353  -6.115  1.00  0.00     0.297 HD
ENDBRANCH   9  11
ENDBRANCH   3   9
ENDBRANCH   1   2
BRANCH   1  13
ATOM     13  C   UNL     1      -0.017   3.018 -11.326  1.00  0.00     0.230 C 
BRANCH  13  14
ATOM     14  C   UNL     1       0.873   2.098 -12.163  1.00  0.00     0.046 C 
BRANCH  14  15
ATOM     15  C   UNL     1       1.889   2.940 -12.939  1.00  0.00     0.043 C 
BRANCH  15  16
ATOM     16  C   UNL     1       1.555   2.903 -14.408  1.00  0.00    -0.004 A 
ATOM     17  C   UNL     1       1.950   1.956 -15.291  1.00  0.00     0.036 A 
ATOM     18  C   UNL     1       0.776   3.837 -15.099  1.00  0.00     0.063 A 
ATOM     19  N   UNL     1       1.445   2.283 -16.498  1.00  0.00    -0.282 N 
ATOM     20  N   UNL     1       0.715   3.471 -16.353  1.00  0.00    -0.181 NA
ATOM     21  C   UNL     1       2.801   0.752 -14.980  1.00  0.00     0.066 C 
ATOM     22  C   UNL     1       0.129   5.061 -14.503  1.00  0.00     0.069 C 
ATOM     23  H   UNL     1       1.566   1.786 -17.322  1.00  0.00     0.190 HD
ENDBRANCH  15  16
ENDBRANCH  14  15
ENDBRANCH  13  14
ENDBRANCH   1  13
TORSDOF 7
ENDMDL
