MODEL 1
REMARK VINA RESULT:    -4.814      0.000      0.000
REMARK INTER + INTRA:          -5.805
REMARK INTER:                  -5.518
REMARK INTRA:                  -0.287
REMARK UNBOUND:                -0.287
REMARK SMILES O=C(O)c1ccc2nc(-c3cc(Cl)cc(Cl)c3)oc2c1
REMARK SMILES IDX 5 1 6 2 20 3 8 4 18 5 4 6 9 7 7 8 19 9 2 10 1 11 3 12 10 14
REMARK SMILES IDX 11 15 17 16 12 17 15 18 14 19 13 20 16 21
REMARK H PARENT 3 13
ROOT
ATOM      1  C   UNL     1       2.934  -0.573  -6.725  1.00  0.00     0.018 A 
ATOM      2  C   UNL     1       4.043  -0.058  -7.326  1.00  0.00     0.033 A 
ATOM      3  C   UNL     1       3.251  -2.677  -7.889  1.00  0.00     0.065 A 
ATOM      4  N   UNL     1       5.892  -0.613  -8.956  1.00  0.00    -0.209 NA
ATOM      5  O   UNL     1       5.265  -2.650  -9.392  1.00  0.00    -0.436 OA
ATOM      6  C   UNL     1       2.525  -1.886  -6.995  1.00  0.00     0.063 A 
ATOM      7  C   UNL     1       6.175  -1.690  -9.645  1.00  0.00     0.227 A 
ATOM      8  C   UNL     1       4.780  -0.840  -8.224  1.00  0.00     0.110 A 
ATOM      9  C   UNL     1       4.374  -2.156  -8.505  1.00  0.00     0.156 A 
ENDROOT
BRANCH   6  10
ATOM     10  C   UNL     1       1.327  -2.435  -6.334  1.00  0.00     0.335 C 
ATOM     11  O   UNL     1       0.635  -1.717  -5.639  1.00  0.00    -0.246 OA
BRANCH  10  12
ATOM     12  O   UNL     1       1.000  -3.732  -6.499  1.00  0.00    -0.478 OA
ATOM     13  H   UNL     1       0.799  -4.239  -5.702  1.00  0.00     0.297 HD
ENDBRANCH  10  12
ENDBRANCH   6  10
BRANCH   7  14
ATOM     14  C   UNL     1       7.322  -1.830 -10.566  1.00  0.00     0.040 A 
ATOM     15  C   UNL     1       7.184  -1.498 -11.914  1.00  0.00     0.034 A 
ATOM     16  C   UNL     1       8.550  -2.295 -10.089  1.00  0.00     0.034 A 
ATOM     17  C   UNL     1       8.260  -1.630 -12.769  1.00  0.00     0.043 A 
ATOM     18  C   UNL     1       9.618  -2.423 -10.954  1.00  0.00     0.043 A 
ATOM     19  C   UNL     1       9.475  -2.092 -12.290  1.00  0.00     0.041 A 
ATOM     20  Cl  UNL     1       8.090  -1.217 -14.446  1.00  0.00    -0.084 Cl
ATOM     21  Cl  UNL     1      11.146  -3.001 -10.364  1.00  0.00    -0.084 Cl
ENDBRANCH   7  14
TORSDOF 3
ENDMDL
MODEL 2
REMARK VINA RESULT:    -4.762      3.973      7.490
REMARK INTER + INTRA:          -5.744
REMARK INTER:                  -5.455
REMARK INTRA:                  -0.289
REMARK UNBOUND:                -0.287
REMARK SMILES O=C(O)c1ccc2nc(-c3cc(Cl)cc(Cl)c3)oc2c1
REMARK SMILES IDX 5 1 6 2 20 3 8 4 18 5 4 6 9 7 7 8 19 9 2 10 1 11 3 12 10 14
REMARK SMILES IDX 11 15 17 16 12 17 15 18 14 19 13 20 16 21
REMARK H PARENT 3 13
ROOT
ATOM      1  C   UNL     1       7.056  -1.363 -13.365  1.00  0.00     0.018 A 
ATOM      2  C   UNL     1       5.881  -1.326 -12.675  1.00  0.00     0.033 A 
ATOM      3  C   UNL     1       8.294  -1.578 -11.291  1.00  0.00     0.065 A 
ATOM      4  N   UNL     1       4.911  -1.405 -10.344  1.00  0.00    -0.209 NA
ATOM      5  O   UNL     1       6.795  -1.596  -9.273  1.00  0.00    -0.436 OA
ATOM      6  C   UNL     1       8.275  -1.491 -12.684  1.00  0.00     0.063 A 
ATOM      7  C   UNL     1       5.456  -1.514  -9.158  1.00  0.00     0.227 A 
ATOM      8  C   UNL     1       5.886  -1.413 -11.278  1.00  0.00     0.110 A 
ATOM      9  C   UNL     1       7.105  -1.537 -10.587  1.00  0.00     0.156 A 
ENDROOT
BRANCH   6  10
ATOM     10  C   UNL     1       9.539  -1.535 -13.442  1.00  0.00     0.335 C 
ATOM     11  O   UNL     1      10.353  -2.407 -13.213  1.00  0.00    -0.246 OA
BRANCH  10  12
ATOM     12  O   UNL     1       9.792  -0.608 -14.386  1.00  0.00    -0.478 OA
ATOM     13  H   UNL     1       9.962  -0.928 -15.282  1.00  0.00     0.297 HD
ENDBRANCH  10  12
ENDBRANCH   6  10
BRANCH   7  14
ATOM     14  C   UNL     1       4.711  -1.543  -7.883  1.00  0.00     0.040 A 
ATOM     15  C   UNL     1       3.436  -2.106  -7.828  1.00  0.00     0.034 A 
ATOM     16  C   UNL     1       5.280  -1.005  -6.727  1.00  0.00     0.034 A 
ATOM     17  C   UNL     1       2.745  -2.131  -6.633  1.00  0.00     0.043 A 
ATOM     18  C   UNL     1       4.580  -1.035  -5.537  1.00  0.00     0.043 A 
ATOM     19  C   UNL     1       3.315  -1.595  -5.490  1.00  0.00     0.041 A 
ATOM     20  Cl  UNL     1       1.159  -2.832  -6.562  1.00  0.00    -0.084 Cl
ATOM     21  Cl  UNL     1       5.286  -0.366  -4.099  1.00  0.00    -0.084 Cl
ENDBRANCH   7  14
TORSDOF 3
ENDMDL
MODEL 3
REMARK VINA RESULT:    -4.761      3.973      7.658
REMARK INTER + INTRA:          -5.743
REMARK INTER:                  -5.454
REMARK INTRA:                  -0.289
REMARK UNBOUND:                -0.287
REMARK SMILES O=C(O)c1ccc2nc(-c3cc(Cl)cc(Cl)c3)oc2c1
REMARK SMILES IDX 5 1 6 2 20 3 8 4 18 5 4 6 9 7 7 8 19 9 2 10 1 11 3 12 10 14
REMARK SMILES IDX 11 15 17 16 12 17 15 18 14 19 13 20 16 21
REMARK H PARENT 3 13
ROOT
ATOM      1  C   UNL     1       7.054  -1.364 -13.366  1.00  0.00     0.018 A 
ATOM      2  C   UNL     1       5.880  -1.328 -12.676  1.00  0.00     0.033 A 
ATOM      3  C   UNL     1       8.294  -1.578 -11.293  1.00  0.00     0.065 A 
ATOM      4  N   UNL     1       4.911  -1.406 -10.344  1.00  0.00    -0.209 NA
ATOM      5  O   UNL     1       6.796  -1.596  -9.274  1.00  0.00    -0.436 OA
ATOM      6  C   UNL     1       8.274  -1.491 -12.686  1.00  0.00     0.063 A 
ATOM      7  C   UNL     1       5.457  -1.515  -9.158  1.00  0.00     0.227 A 
ATOM      8  C   UNL     1       5.886  -1.414 -11.278  1.00  0.00     0.110 A 
ATOM      9  C   UNL     1       7.105  -1.537 -10.589  1.00  0.00     0.156 A 
ENDROOT
BRANCH   6  10
ATOM     10  C   UNL     1       9.537  -1.535 -13.444  1.00  0.00     0.335 C 
ATOM     11  O   UNL     1      10.352  -2.407 -13.217  1.00  0.00    -0.246 OA
BRANCH  10  12
ATOM     12  O   UNL     1       9.790  -0.606 -14.388  1.00  0.00    -0.478 OA
ATOM     13  H   UNL     1      10.125  -0.924 -15.238  1.00  0.00     0.297 HD
ENDBRANCH  10  12
ENDBRANCH   6  10
BRANCH   7  14
ATOM     14  C   UNL     1       4.713  -1.544  -7.882  1.00  0.00     0.040 A 
ATOM     15  C   UNL     1       5.281  -1.006  -6.727  1.00  0.00     0.034 A 
ATOM     16  C   UNL     1       3.438  -2.110  -7.828  1.00  0.00     0.034 A 
ATOM     17  C   UNL     1       4.580  -1.035  -5.538  1.00  0.00     0.043 A 
ATOM     18  C   UNL     1       2.746  -2.133  -6.633  1.00  0.00     0.043 A 
ATOM     19  C   UNL     1       3.316  -1.598  -5.490  1.00  0.00     0.041 A 
ATOM     20  Cl  UNL     1       5.284  -0.366  -4.099  1.00  0.00    -0.084 Cl
ATOM     21  Cl  UNL     1       1.160  -2.836  -6.563  1.00  0.00    -0.084 Cl
ENDBRANCH   7  14
TORSDOF 3
ENDMDL
MODEL 4
REMARK VINA RESULT:    -4.757      3.967      7.432
REMARK INTER + INTRA:          -5.739
REMARK INTER:                  -5.450
REMARK INTRA:                  -0.289
REMARK UNBOUND:                -0.287
REMARK SMILES O=C(O)c1ccc2nc(-c3cc(Cl)cc(Cl)c3)oc2c1
REMARK SMILES IDX 5 1 6 2 20 3 8 4 18 5 4 6 9 7 7 8 19 9 2 10 1 11 3 12 10 14
REMARK SMILES IDX 11 15 17 16 12 17 15 18 14 19 13 20 16 21
REMARK H PARENT 3 13
ROOT
ATOM      1  C   UNL     1       7.995  -1.573 -12.840  1.00  0.00     0.018 A 
ATOM      2  C   UNL     1       8.044  -1.598 -11.478  1.00  0.00     0.033 A 
ATOM      3  C   UNL     1       5.582  -1.348 -12.774  1.00  0.00     0.065 A 
ATOM      4  N   UNL     1       6.598  -1.497  -9.409  1.00  0.00    -0.209 NA
ATOM      5  O   UNL     1       4.684  -1.307 -10.426  1.00  0.00    -0.436 OA
ATOM      6  C   UNL     1       6.767  -1.446 -13.504  1.00  0.00     0.063 A 
ATOM      7  C   UNL     1       5.305  -1.381  -9.234  1.00  0.00     0.227 A 
ATOM      8  C   UNL     1       6.862  -1.501 -10.733  1.00  0.00     0.110 A 
ATOM      9  C   UNL     1       5.626  -1.378 -11.392  1.00  0.00     0.156 A 
ENDROOT
BRANCH   6  10
ATOM     10  C   UNL     1       6.728  -1.414 -14.977  1.00  0.00     0.335 C 
ATOM     11  O   UNL     1       6.089  -0.553 -15.549  1.00  0.00    -0.246 OA
BRANCH  10  12
ATOM     12  O   UNL     1       7.400  -2.339 -15.690  1.00  0.00    -0.478 OA
ATOM     13  H   UNL     1       8.230  -2.061 -16.099  1.00  0.00     0.297 HD
ENDBRANCH  10  12
ENDBRANCH   6  10
BRANCH   7  14
ATOM     14  C   UNL     1       4.628  -1.339  -7.920  1.00  0.00     0.040 A 
ATOM     15  C   UNL     1       5.269  -0.768  -6.820  1.00  0.00     0.034 A 
ATOM     16  C   UNL     1       3.346  -1.871  -7.776  1.00  0.00     0.034 A 
ATOM     17  C   UNL     1       4.631  -0.731  -5.596  1.00  0.00     0.043 A 
ATOM     18  C   UNL     1       2.718  -1.828  -6.547  1.00  0.00     0.043 A 
ATOM     19  C   UNL     1       3.359  -1.260  -5.459  1.00  0.00     0.041 A 
ATOM     20  Cl  UNL     1       5.426  -0.021  -4.225  1.00  0.00    -0.084 Cl
ATOM     21  Cl  UNL     1       1.123  -2.489  -6.365  1.00  0.00    -0.084 Cl
ENDBRANCH   7  14
TORSDOF 3
ENDMDL
MODEL 5
REMARK VINA RESULT:    -4.757      3.967      7.266
REMARK INTER + INTRA:          -5.739
REMARK INTER:                  -5.450
REMARK INTRA:                  -0.289
REMARK UNBOUND:                -0.287
REMARK SMILES O=C(O)c1ccc2nc(-c3cc(Cl)cc(Cl)c3)oc2c1
REMARK SMILES IDX 5 1 6 2 20 3 8 4 18 5 4 6 9 7 7 8 19 9 2 10 1 11 3 12 10 14
REMARK SMILES IDX 11 15 17 16 12 17 15 18 14 19 13 20 16 21
REMARK H PARENT 3 13
ROOT
ATOM      1  C   UNL     1       7.994  -1.573 -12.841  1.00  0.00     0.018 A 
ATOM      2  C   UNL     1       8.042  -1.598 -11.479  1.00  0.00     0.033 A 
ATOM      3  C   UNL     1       5.580  -1.347 -12.775  1.00  0.00     0.065 A 
ATOM      4  N   UNL     1       6.596  -1.497  -9.410  1.00  0.00    -0.209 NA
ATOM      5  O   UNL     1       4.682  -1.307 -10.427  1.00  0.00    -0.436 OA
ATOM      6  C   UNL     1       6.766  -1.445 -13.505  1.00  0.00     0.063 A 
ATOM      7  C   UNL     1       5.303  -1.381  -9.235  1.00  0.00     0.227 A 
ATOM      8  C   UNL     1       6.860  -1.501 -10.734  1.00  0.00     0.110 A 
ATOM      9  C   UNL     1       5.624  -1.378 -11.393  1.00  0.00     0.156 A 
ENDROOT
BRANCH   6  10
ATOM     10  C   UNL     1       6.727  -1.413 -14.978  1.00  0.00     0.335 C 
ATOM     11  O   UNL     1       6.089  -0.552 -15.550  1.00  0.00    -0.246 OA
BRANCH  10  12
ATOM     12  O   UNL     1       7.398  -2.340 -15.691  1.00  0.00    -0.478 OA
ATOM     13  H   UNL     1       8.324  -2.487 -15.458  1.00  0.00     0.297 HD
ENDBRANCH  10  12
ENDBRANCH   6  10
BRANCH   7  14
ATOM     14  C   UNL     1       4.626  -1.339  -7.922  1.00  0.00     0.040 A 
ATOM     15  C   UNL     1       3.344  -1.870  -7.777  1.00  0.00     0.034 A 
ATOM     16  C   UNL     1       5.268  -0.767  -6.822  1.00  0.00     0.034 A 
ATOM     17  C   UNL     1       2.717  -1.828  -6.547  1.00  0.00     0.043 A 
ATOM     18  C   UNL     1       4.631  -0.732  -5.597  1.00  0.00     0.043 A 
ATOM     19  C   UNL     1       3.359  -1.260  -5.459  1.00  0.00     0.041 A 
ATOM     20  Cl  UNL     1       1.122  -2.488  -6.364  1.00  0.00    -0.084 Cl
ATOM     21  Cl  UNL     1       5.428  -0.022  -4.227  1.00  0.00    -0.084 Cl
ENDBRANCH   7  14
TORSDOF 3
ENDMDL
MODEL 6
REMARK VINA RESULT:    -4.744      1.693      2.742
REMARK INTER + INTRA:          -5.725
REMARK INTER:                  -5.427
REMARK INTRA:                  -0.298
REMARK UNBOUND:                -0.287
REMARK SMILES O=C(O)c1ccc2nc(-c3cc(Cl)cc(Cl)c3)oc2c1
REMARK SMILES IDX 5 1 6 2 20 3 8 4 18 5 4 6 9 7 7 8 19 9 2 10 1 11 3 12 10 14
REMARK SMILES IDX 11 15 17 16 12 17 15 18 14 19 13 20 16 21
REMARK H PARENT 3 13
ROOT
ATOM      1  C   UNL     1       4.374  -1.435  -5.088  1.00  0.00     0.018 A 
ATOM      2  C   UNL     1       5.477  -1.430  -5.888  1.00  0.00     0.033 A 
ATOM      3  C   UNL     1       2.930  -1.451  -7.036  1.00  0.00     0.065 A 
ATOM      4  N   UNL     1       6.211  -1.428  -8.305  1.00  0.00    -0.209 NA
ATOM      5  O   UNL     1       4.224  -1.440  -9.192  1.00  0.00    -0.436 OA
ATOM      6  C   UNL     1       3.089  -1.448  -5.649  1.00  0.00     0.063 A 
ATOM      7  C   UNL     1       5.548  -1.433  -9.435  1.00  0.00     0.227 A 
ATOM      8  C   UNL     1       5.331  -1.432  -7.281  1.00  0.00     0.110 A 
ATOM      9  C   UNL     1       4.047  -1.440  -7.852  1.00  0.00     0.156 A 
ENDROOT
BRANCH   6  10
ATOM     10  C   UNL     1       1.904  -1.461  -4.773  1.00  0.00     0.335 C 
ATOM     11  O   UNL     1       2.036  -1.347  -3.571  1.00  0.00    -0.246 OA
BRANCH  10  12
ATOM     12  O   UNL     1       0.673  -1.599  -5.306  1.00  0.00    -0.478 OA
ATOM     13  H   UNL     1       0.418  -2.484  -5.598  1.00  0.00     0.297 HD
ENDBRANCH  10  12
ENDBRANCH   6  10
BRANCH   7  14
ATOM     14  C   UNL     1       6.164  -1.431 -10.779  1.00  0.00     0.040 A 
ATOM     15  C   UNL     1       7.538  -1.629 -10.920  1.00  0.00     0.034 A 
ATOM     16  C   UNL     1       5.373  -1.230 -11.911  1.00  0.00     0.034 A 
ATOM     17  C   UNL     1       8.107  -1.627 -12.178  1.00  0.00     0.043 A 
ATOM     18  C   UNL     1       5.953  -1.230 -13.164  1.00  0.00     0.043 A 
ATOM     19  C   UNL     1       7.317  -1.427 -13.298  1.00  0.00     0.041 A 
ATOM     20  Cl  UNL     1       9.816  -1.874 -12.357  1.00  0.00    -0.084 Cl
ATOM     21  Cl  UNL     1       4.971  -0.980 -14.574  1.00  0.00    -0.084 Cl
ENDBRANCH   7  14
TORSDOF 3
ENDMDL
MODEL 7
REMARK VINA RESULT:    -4.729      2.767      3.649
REMARK INTER + INTRA:          -5.707
REMARK INTER:                  -5.420
REMARK INTRA:                  -0.287
REMARK UNBOUND:                -0.287
REMARK SMILES O=C(O)c1ccc2nc(-c3cc(Cl)cc(Cl)c3)oc2c1
REMARK SMILES IDX 5 1 6 2 20 3 8 4 18 5 4 6 9 7 7 8 19 9 2 10 1 11 3 12 10 14
REMARK SMILES IDX 11 15 17 16 12 17 15 18 14 19 13 20 16 21
REMARK H PARENT 3 13
ROOT
ATOM      1  C   UNL     1       4.630  -2.258  -5.792  1.00  0.00     0.018 A 
ATOM      2  C   UNL     1       4.540  -2.791  -7.043  1.00  0.00     0.033 A 
ATOM      3  C   UNL     1       5.470  -0.178  -6.714  1.00  0.00     0.065 A 
ATOM      4  N   UNL     1       4.936  -2.279  -9.485  1.00  0.00    -0.209 NA
ATOM      5  O   UNL     1       5.664  -0.246  -9.220  1.00  0.00    -0.436 OA
ATOM      6  C   UNL     1       5.093  -0.947  -5.612  1.00  0.00     0.063 A 
ATOM      7  C   UNL     1       5.380  -1.217 -10.109  1.00  0.00     0.227 A 
ATOM      8  C   UNL     1       4.914  -2.031  -8.158  1.00  0.00     0.110 A 
ATOM      9  C   UNL     1       5.384  -0.717  -7.985  1.00  0.00     0.156 A 
ENDROOT
BRANCH   6  10
ATOM     10  C   UNL     1       5.181  -0.378  -4.255  1.00  0.00     0.335 C 
ATOM     11  O   UNL     1       4.838  -1.040  -3.296  1.00  0.00    -0.246 OA
BRANCH  10  12
ATOM     12  O   UNL     1       5.641   0.876  -4.077  1.00  0.00    -0.478 OA
ATOM     13  H   UNL     1       5.678   1.445  -4.858  1.00  0.00     0.297 HD
ENDBRANCH  10  12
ENDBRANCH   6  10
BRANCH   7  14
ATOM     14  C   UNL     1       5.547  -1.102 -11.573  1.00  0.00     0.040 A 
ATOM     15  C   UNL     1       4.481  -0.682 -12.369  1.00  0.00     0.034 A 
ATOM     16  C   UNL     1       6.773  -1.414 -12.165  1.00  0.00     0.034 A 
ATOM     17  C   UNL     1       4.643  -0.576 -13.736  1.00  0.00     0.043 A 
ATOM     18  C   UNL     1       6.923  -1.304 -13.532  1.00  0.00     0.043 A 
ATOM     19  C   UNL     1       5.861  -0.887 -14.317  1.00  0.00     0.041 A 
ATOM     20  Cl  UNL     1       3.319  -0.053 -14.729  1.00  0.00    -0.084 Cl
ATOM     21  Cl  UNL     1       8.446  -1.692 -14.271  1.00  0.00    -0.084 Cl
ENDBRANCH   7  14
TORSDOF 3
ENDMDL
MODEL 8
REMARK VINA RESULT:    -4.709      1.951      3.012
REMARK INTER + INTRA:          -5.684
REMARK INTER:                  -5.387
REMARK INTRA:                  -0.298
REMARK UNBOUND:                -0.287
REMARK SMILES O=C(O)c1ccc2nc(-c3cc(Cl)cc(Cl)c3)oc2c1
REMARK SMILES IDX 5 1 6 2 20 3 8 4 18 5 4 6 9 7 7 8 19 9 2 10 1 11 3 12 10 14
REMARK SMILES IDX 11 15 17 16 12 17 15 18 14 19 13 20 16 21
REMARK H PARENT 3 13
ROOT
ATOM      1  C   UNL     1       2.383  -1.448  -6.104  1.00  0.00     0.018 A 
ATOM      2  C   UNL     1       2.470  -1.468  -7.464  1.00  0.00     0.033 A 
ATOM      3  C   UNL     1       4.802  -1.414  -5.927  1.00  0.00     0.065 A 
ATOM      4  N   UNL     1       4.119  -1.480  -9.377  1.00  0.00    -0.209 NA
ATOM      5  O   UNL     1       5.931  -1.443  -8.173  1.00  0.00    -0.436 OA
ATOM      6  C   UNL     1       3.545  -1.418  -5.319  1.00  0.00     0.063 A 
ATOM      7  C   UNL     1       5.428  -1.467  -9.422  1.00  0.00     0.227 A 
ATOM      8  C   UNL     1       3.724  -1.464  -8.086  1.00  0.00     0.110 A 
ATOM      9  C   UNL     1       4.894  -1.440  -7.306  1.00  0.00     0.156 A 
ENDROOT
BRANCH   6  10
ATOM     10  C   UNL     1       3.439  -1.390  -3.849  1.00  0.00     0.335 C 
ATOM     11  O   UNL     1       2.348  -1.449  -3.318  1.00  0.00    -0.246 OA
BRANCH  10  12
ATOM     12  O   UNL     1       4.551  -1.297  -3.094  1.00  0.00    -0.478 OA
ATOM     13  H   UNL     1       4.464  -1.509  -2.156  1.00  0.00     0.297 HD
ENDBRANCH  10  12
ENDBRANCH   6  10
BRANCH   7  14
ATOM     14  C   UNL     1       6.234  -1.478 -10.660  1.00  0.00     0.040 A 
ATOM     15  C   UNL     1       7.615  -1.667 -10.597  1.00  0.00     0.034 A 
ATOM     16  C   UNL     1       5.616  -1.298 -11.899  1.00  0.00     0.034 A 
ATOM     17  C   UNL     1       8.362  -1.677 -11.758  1.00  0.00     0.043 A 
ATOM     18  C   UNL     1       6.373  -1.310 -13.054  1.00  0.00     0.043 A 
ATOM     19  C   UNL     1       7.743  -1.498 -12.984  1.00  0.00     0.041 A 
ATOM     20  Cl  UNL     1      10.080  -1.913 -11.682  1.00  0.00    -0.084 Cl
ATOM     21  Cl  UNL     1       5.607  -1.087 -14.595  1.00  0.00    -0.084 Cl
ENDBRANCH   7  14
TORSDOF 3
ENDMDL
MODEL 9
REMARK VINA RESULT:    -4.709      1.950      2.299
REMARK INTER + INTRA:          -5.684
REMARK INTER:                  -5.386
REMARK INTRA:                  -0.298
REMARK UNBOUND:                -0.287
REMARK SMILES O=C(O)c1ccc2nc(-c3cc(Cl)cc(Cl)c3)oc2c1
REMARK SMILES IDX 5 1 6 2 20 3 8 4 18 5 4 6 9 7 7 8 19 9 2 10 1 11 3 12 10 14
REMARK SMILES IDX 11 15 17 16 12 17 15 18 14 19 13 20 16 21
REMARK H PARENT 3 13
ROOT
ATOM      1  C   UNL     1       2.386  -1.449  -6.108  1.00  0.00     0.018 A 
ATOM      2  C   UNL     1       2.472  -1.470  -7.468  1.00  0.00     0.033 A 
ATOM      3  C   UNL     1       4.805  -1.420  -5.933  1.00  0.00     0.065 A 
ATOM      4  N   UNL     1       4.119  -1.486  -9.383  1.00  0.00    -0.209 NA
ATOM      5  O   UNL     1       5.932  -1.453  -8.180  1.00  0.00    -0.436 OA
ATOM      6  C   UNL     1       3.549  -1.422  -5.325  1.00  0.00     0.063 A 
ATOM      7  C   UNL     1       5.428  -1.476  -9.429  1.00  0.00     0.227 A 
ATOM      8  C   UNL     1       3.725  -1.469  -8.092  1.00  0.00     0.110 A 
ATOM      9  C   UNL     1       4.896  -1.447  -7.313  1.00  0.00     0.156 A 
ENDROOT
BRANCH   6  10
ATOM     10  C   UNL     1       3.444  -1.393  -3.854  1.00  0.00     0.335 C 
ATOM     11  O   UNL     1       2.354  -1.455  -3.322  1.00  0.00    -0.246 OA
BRANCH  10  12
ATOM     12  O   UNL     1       4.557  -1.297  -3.101  1.00  0.00    -0.478 OA
ATOM     13  H   UNL     1       5.386  -1.590  -3.502  1.00  0.00     0.297 HD
ENDBRANCH  10  12
ENDBRANCH   6  10
BRANCH   7  14
ATOM     14  C   UNL     1       6.233  -1.489 -10.668  1.00  0.00     0.040 A 
ATOM     15  C   UNL     1       5.616  -1.304 -11.906  1.00  0.00     0.034 A 
ATOM     16  C   UNL     1       7.614  -1.687 -10.605  1.00  0.00     0.034 A 
ATOM     17  C   UNL     1       6.374  -1.317 -13.061  1.00  0.00     0.043 A 
ATOM     18  C   UNL     1       8.360  -1.698 -11.766  1.00  0.00     0.043 A 
ATOM     19  C   UNL     1       7.743  -1.514 -12.991  1.00  0.00     0.041 A 
ATOM     20  Cl  UNL     1       5.609  -1.086 -14.602  1.00  0.00    -0.084 Cl
ATOM     21  Cl  UNL     1      10.077  -1.944 -11.689  1.00  0.00    -0.084 Cl
ENDBRANCH   7  14
TORSDOF 3
ENDMDL
