MODEL 1
REMARK VINA RESULT:    -5.521      0.000      0.000
REMARK INTER + INTRA:          -8.158
REMARK INTER:                  -7.619
REMARK INTRA:                  -0.539
REMARK UNBOUND:                -0.539
REMARK SMILES Cc1n[nH]c(C)c1CCCOc1cc(C(=O)O)ccc1F
REMARK SMILES IDX 11 1 12 2 14 3 18 4 13 5 19 6 20 7 21 8 15 9 16 10 17 11
REMARK SMILES IDX 10 13 9 14 8 15 7 16 5 17 2 18 4 19 3 20 6 21 1 22
REMARK H PARENT 17 12 4 23
ROOT
ATOM      1  O   UNL     1       1.636   6.091   8.420  1.00  0.00    -0.490 OA
ENDROOT
BRANCH   1   2
ATOM      2  C   UNL     1       1.798   5.863   7.089  1.00  0.00     0.155 A 
ATOM      3  C   UNL     1       2.119   6.689   4.853  1.00  0.00     0.063 A 
ATOM      4  C   UNL     1       2.138   5.376   4.375  1.00  0.00     0.019 A 
ATOM      5  C   UNL     1       1.948   6.927   6.219  1.00  0.00     0.065 A 
ATOM      6  C   UNL     1       1.994   4.321   5.252  1.00  0.00     0.044 A 
ATOM      7  C   UNL     1       1.829   4.559   6.606  1.00  0.00     0.165 A 
ATOM      8  F   UNL     1       1.689   3.521   7.460  1.00  0.00    -0.203 F 
BRANCH   3   9
ATOM      9  C   UNL     1       2.274   7.820   3.918  1.00  0.00     0.335 C 
ATOM     10  O   UNL     1       1.833   8.913   4.208  1.00  0.00    -0.246 OA
BRANCH   9  11
ATOM     11  O   UNL     1       2.910   7.640   2.744  1.00  0.00    -0.478 OA
ATOM     12  H   UNL     1       3.470   6.855   2.663  1.00  0.00     0.297 HD
ENDBRANCH   9  11
ENDBRANCH   3   9
ENDBRANCH   1   2
BRANCH   1  13
ATOM     13  C   UNL     1       2.698   5.676   9.283  1.00  0.00     0.230 C 
BRANCH  13  14
ATOM     14  C   UNL     1       3.275   6.896  10.002  1.00  0.00     0.046 C 
BRANCH  14  15
ATOM     15  C   UNL     1       4.545   7.358   9.285  1.00  0.00     0.043 C 
BRANCH  15  16
ATOM     16  C   UNL     1       5.406   8.143  10.240  1.00  0.00    -0.004 A 
ATOM     17  C   UNL     1       5.288   9.463  10.517  1.00  0.00     0.036 A 
ATOM     18  C   UNL     1       6.463   7.636  11.003  1.00  0.00     0.063 A 
ATOM     19  N   UNL     1       6.242   9.781  11.418  1.00  0.00    -0.282 N 
ATOM     20  N   UNL     1       6.969   8.618  11.704  1.00  0.00    -0.181 NA
ATOM     21  C   UNL     1       4.275  10.408   9.926  1.00  0.00     0.066 C 
ATOM     22  C   UNL     1       6.944   6.208  11.008  1.00  0.00     0.069 C 
ATOM     23  H   UNL     1       6.397  10.659  11.800  1.00  0.00     0.190 HD
ENDBRANCH  15  16
ENDBRANCH  14  15
ENDBRANCH  13  14
ENDBRANCH   1  13
TORSDOF 7
ENDMDL
MODEL 2
REMARK VINA RESULT:    -5.472      0.259      1.779
REMARK INTER + INTRA:          -8.090
REMARK INTER:                  -7.466
REMARK INTRA:                  -0.624
REMARK UNBOUND:                -0.539
REMARK SMILES Cc1n[nH]c(C)c1CCCOc1cc(C(=O)O)ccc1F
REMARK SMILES IDX 11 1 12 2 14 3 18 4 13 5 19 6 20 7 21 8 15 9 16 10 17 11
REMARK SMILES IDX 10 13 9 14 8 15 7 16 5 17 2 18 4 19 3 20 6 21 1 22
REMARK H PARENT 17 12 4 23
ROOT
ATOM      1  O   UNL     1       1.745   5.984   8.427  1.00  0.00    -0.490 OA
ENDROOT
BRANCH   1   2
ATOM      2  C   UNL     1       1.883   5.776   7.090  1.00  0.00     0.155 A 
ATOM      3  C   UNL     1       2.156   6.635   4.861  1.00  0.00     0.063 A 
ATOM      4  C   UNL     1       2.173   5.329   4.364  1.00  0.00     0.019 A 
ATOM      5  C   UNL     1       2.010   6.853   6.232  1.00  0.00     0.065 A 
ATOM      6  C   UNL     1       2.051   4.261   5.228  1.00  0.00     0.044 A 
ATOM      7  C   UNL     1       1.911   4.479   6.589  1.00  0.00     0.165 A 
ATOM      8  F   UNL     1       1.793   3.429   7.430  1.00  0.00    -0.203 F 
BRANCH   3   9
ATOM      9  C   UNL     1       2.286   7.780   3.939  1.00  0.00     0.335 C 
ATOM     10  O   UNL     1       1.860   8.870   4.260  1.00  0.00    -0.246 OA
BRANCH   9  11
ATOM     11  O   UNL     1       2.884   7.616   2.742  1.00  0.00    -0.478 OA
ATOM     12  H   UNL     1       2.320   7.675   1.958  1.00  0.00     0.297 HD
ENDBRANCH   9  11
ENDBRANCH   3   9
ENDBRANCH   1   2
BRANCH   1  13
ATOM     13  C   UNL     1       2.906   5.784   9.237  1.00  0.00     0.230 C 
BRANCH  13  14
ATOM     14  C   UNL     1       3.379   7.129   9.790  1.00  0.00     0.046 C 
BRANCH  14  15
ATOM     15  C   UNL     1       4.759   7.459   9.217  1.00  0.00     0.043 C 
BRANCH  15  16
ATOM     16  C   UNL     1       5.627   8.045  10.300  1.00  0.00    -0.004 A 
ATOM     17  C   UNL     1       6.582   7.388  10.998  1.00  0.00     0.036 A 
ATOM     18  C   UNL     1       5.592   9.367  10.758  1.00  0.00     0.063 A 
ATOM     19  N   UNL     1       7.128   8.261  11.872  1.00  0.00    -0.282 N 
ATOM     20  N   UNL     1       6.486   9.495  11.705  1.00  0.00    -0.181 NA
ATOM     21  C   UNL     1       6.968   5.942  10.830  1.00  0.00     0.066 C 
ATOM     22  C   UNL     1       4.674  10.452  10.257  1.00  0.00     0.069 C 
ATOM     23  H   UNL     1       7.837   8.068  12.503  1.00  0.00     0.190 HD
ENDBRANCH  15  16
ENDBRANCH  14  15
ENDBRANCH  13  14
ENDBRANCH   1  13
TORSDOF 7
ENDMDL
MODEL 3
REMARK VINA RESULT:    -5.463      2.226      3.382
REMARK INTER + INTRA:          -8.078
REMARK INTER:                  -7.390
REMARK INTRA:                  -0.689
REMARK UNBOUND:                -0.539
REMARK SMILES Cc1n[nH]c(C)c1CCCOc1cc(C(=O)O)ccc1F
REMARK SMILES IDX 11 1 12 2 14 3 18 4 13 5 19 6 20 7 21 8 15 9 16 10 17 11
REMARK SMILES IDX 10 13 9 14 8 15 7 16 5 17 2 18 4 19 3 20 6 21 1 22
REMARK H PARENT 17 12 4 23
ROOT
ATOM      1  O   UNL     1       4.868   7.288   5.747  1.00  0.00    -0.490 OA
ENDROOT
BRANCH   1   2
ATOM      2  C   UNL     1       3.763   6.537   5.498  1.00  0.00     0.155 A 
ATOM      3  C   UNL     1       2.412   4.598   5.944  1.00  0.00     0.063 A 
ATOM      4  C   UNL     1       1.492   5.022   4.982  1.00  0.00     0.019 A 
ATOM      5  C   UNL     1       3.551   5.364   6.199  1.00  0.00     0.065 A 
ATOM      6  C   UNL     1       1.708   6.197   4.292  1.00  0.00     0.044 A 
ATOM      7  C   UNL     1       2.836   6.957   4.550  1.00  0.00     0.165 A 
ATOM      8  F   UNL     1       3.043   8.107   3.871  1.00  0.00    -0.203 F 
BRANCH   3   9
ATOM      9  C   UNL     1       2.183   3.342   6.684  1.00  0.00     0.335 C 
ATOM     10  O   UNL     1       3.124   2.730   7.147  1.00  0.00    -0.246 OA
BRANCH   9  11
ATOM     11  O   UNL     1       0.929   2.878   6.852  1.00  0.00    -0.478 OA
ATOM     12  H   UNL     1       0.836   1.975   7.188  1.00  0.00     0.297 HD
ENDBRANCH   9  11
ENDBRANCH   3   9
ENDBRANCH   1   2
BRANCH   1  13
ATOM     13  C   UNL     1       4.747   8.313   6.736  1.00  0.00     0.230 C 
BRANCH  13  14
ATOM     14  C   UNL     1       5.621   7.963   7.942  1.00  0.00     0.046 C 
BRANCH  14  15
ATOM     15  C   UNL     1       4.757   7.930   9.205  1.00  0.00     0.043 C 
BRANCH  15  16
ATOM     16  C   UNL     1       5.425   8.732  10.292  1.00  0.00    -0.004 A 
ATOM     17  C   UNL     1       5.175  10.028  10.594  1.00  0.00     0.036 A 
ATOM     18  C   UNL     1       6.408   8.268  11.172  1.00  0.00     0.063 A 
ATOM     19  N   UNL     1       5.977  10.373  11.623  1.00  0.00    -0.282 N 
ATOM     20  N   UNL     1       6.744   9.252  11.966  1.00  0.00    -0.181 NA
ATOM     21  C   UNL     1       4.181  10.924   9.903  1.00  0.00     0.066 C 
ATOM     22  C   UNL     1       6.989   6.877  11.194  1.00  0.00     0.069 C 
ATOM     23  H   UNL     1       6.015  11.242  12.050  1.00  0.00     0.190 HD
ENDBRANCH  15  16
ENDBRANCH  14  15
ENDBRANCH  13  14
ENDBRANCH   1  13
TORSDOF 7
ENDMDL
MODEL 4
REMARK VINA RESULT:    -5.438      2.217      3.839
REMARK INTER + INTRA:          -8.043
REMARK INTER:                  -7.412
REMARK INTRA:                  -0.631
REMARK UNBOUND:                -0.539
REMARK SMILES Cc1n[nH]c(C)c1CCCOc1cc(C(=O)O)ccc1F
REMARK SMILES IDX 11 1 12 2 14 3 18 4 13 5 19 6 20 7 21 8 15 9 16 10 17 11
REMARK SMILES IDX 10 13 9 14 8 15 7 16 5 17 2 18 4 19 3 20 6 21 1 22
REMARK H PARENT 17 12 4 23
ROOT
ATOM      1  O   UNL     1       4.919   7.204   5.540  1.00  0.00    -0.490 OA
ENDROOT
BRANCH   1   2
ATOM      2  C   UNL     1       3.780   6.486   5.354  1.00  0.00     0.155 A 
ATOM      3  C   UNL     1       2.397   4.591   5.882  1.00  0.00     0.063 A 
ATOM      4  C   UNL     1       1.441   5.038   4.966  1.00  0.00     0.019 A 
ATOM      5  C   UNL     1       3.570   5.323   6.072  1.00  0.00     0.065 A 
ATOM      6  C   UNL     1       1.656   6.202   4.258  1.00  0.00     0.044 A 
ATOM      7  C   UNL     1       2.818   6.929   4.452  1.00  0.00     0.165 A 
ATOM      8  F   UNL     1       3.023   8.069   3.756  1.00  0.00    -0.203 F 
BRANCH   3   9
ATOM      9  C   UNL     1       2.169   3.346   6.642  1.00  0.00     0.335 C 
ATOM     10  O   UNL     1       3.113   2.712   7.066  1.00  0.00    -0.246 OA
BRANCH   9  11
ATOM     11  O   UNL     1       0.912   2.916   6.869  1.00  0.00    -0.478 OA
ATOM     12  H   UNL     1       0.203   3.569   6.784  1.00  0.00     0.297 HD
ENDBRANCH   9  11
ENDBRANCH   3   9
ENDBRANCH   1   2
BRANCH   1  13
ATOM     13  C   UNL     1       4.851   8.304   6.451  1.00  0.00     0.230 C 
BRANCH  13  14
ATOM     14  C   UNL     1       5.655   7.973   7.709  1.00  0.00     0.046 C 
BRANCH  14  15
ATOM     15  C   UNL     1       4.717   7.933   8.918  1.00  0.00     0.043 C 
BRANCH  15  16
ATOM     16  C   UNL     1       5.393   8.577  10.101  1.00  0.00    -0.004 A 
ATOM     17  C   UNL     1       6.312   7.995  10.907  1.00  0.00     0.036 A 
ATOM     18  C   UNL     1       5.188   9.883  10.556  1.00  0.00     0.063 A 
ATOM     19  N   UNL     1       6.669   8.900  11.843  1.00  0.00    -0.282 N 
ATOM     20  N   UNL     1       5.946  10.076  11.604  1.00  0.00    -0.181 NA
ATOM     21  C   UNL     1       6.840   6.590  10.782  1.00  0.00     0.066 C 
ATOM     22  C   UNL     1       4.245  10.892   9.950  1.00  0.00     0.069 C 
ATOM     23  H   UNL     1       7.312   8.760  12.556  1.00  0.00     0.190 HD
ENDBRANCH  15  16
ENDBRANCH  14  15
ENDBRANCH  13  14
ENDBRANCH   1  13
TORSDOF 7
ENDMDL
MODEL 5
REMARK VINA RESULT:    -4.748      8.844     11.284
REMARK INTER + INTRA:          -7.091
REMARK INTER:                  -4.864
REMARK INTRA:                  -2.228
REMARK UNBOUND:                -0.539
REMARK SMILES Cc1n[nH]c(C)c1CCCOc1cc(C(=O)O)ccc1F
REMARK SMILES IDX 11 1 12 2 14 3 18 4 13 5 19 6 20 7 21 8 15 9 16 10 17 11
REMARK SMILES IDX 10 13 9 14 8 15 7 16 5 17 2 18 4 19 3 20 6 21 1 22
REMARK H PARENT 17 12 4 23
ROOT
ATOM      1  O   UNL     1       5.623  16.358  14.929  1.00  0.00    -0.490 OA
ENDROOT
BRANCH   1   2
ATOM      2  C   UNL     1       5.985  15.074  15.190  1.00  0.00     0.155 A 
ATOM      3  C   UNL     1       6.875  12.964  14.455  1.00  0.00     0.063 A 
ATOM      4  C   UNL     1       6.728  12.456  15.749  1.00  0.00     0.019 A 
ATOM      5  C   UNL     1       6.500  14.281  14.182  1.00  0.00     0.065 A 
ATOM      6  C   UNL     1       6.219  13.256  16.750  1.00  0.00     0.044 A 
ATOM      7  C   UNL     1       5.852  14.563  16.477  1.00  0.00     0.165 A 
ATOM      8  F   UNL     1       5.354  15.342  17.463  1.00  0.00    -0.203 F 
BRANCH   3   9
ATOM      9  C   UNL     1       7.420  12.111  13.382  1.00  0.00     0.335 C 
ATOM     10  O   UNL     1       6.668  11.502  12.649  1.00  0.00    -0.246 OA
BRANCH   9  11
ATOM     11  O   UNL     1       8.753  12.013  13.210  1.00  0.00    -0.478 OA
ATOM     12  H   UNL     1       9.306  12.124  13.996  1.00  0.00     0.297 HD
ENDBRANCH   9  11
ENDBRANCH   3   9
ENDBRANCH   1   2
BRANCH   1  13
ATOM     13  C   UNL     1       4.543  16.554  14.013  1.00  0.00     0.230 C 
BRANCH  13  14
ATOM     14  C   UNL     1       3.221  16.571  14.781  1.00  0.00     0.046 C 
BRANCH  14  15
ATOM     15  C   UNL     1       2.215  15.650  14.088  1.00  0.00     0.043 C 
BRANCH  15  16
ATOM     16  C   UNL     1       2.370  14.248  14.615  1.00  0.00    -0.004 A 
ATOM     17  C   UNL     1       2.083  13.832  15.870  1.00  0.00     0.036 A 
ATOM     18  C   UNL     1       2.831  13.143  13.891  1.00  0.00     0.063 A 
ATOM     19  N   UNL     1       2.359  12.513  15.940  1.00  0.00    -0.282 N 
ATOM     20  N   UNL     1       2.831  12.104  14.686  1.00  0.00    -0.181 NA
ATOM     21  C   UNL     1       1.550  14.689  16.989  1.00  0.00     0.066 C 
ATOM     22  C   UNL     1       3.265  13.150  12.447  1.00  0.00     0.069 C 
ATOM     23  H   UNL     1       2.250  11.948  16.721  1.00  0.00     0.190 HD
ENDBRANCH  15  16
ENDBRANCH  14  15
ENDBRANCH  13  14
ENDBRANCH   1  13
TORSDOF 7
ENDMDL
MODEL 6
REMARK VINA RESULT:    -4.704      3.945      7.077
REMARK INTER + INTRA:          -7.030
REMARK INTER:                  -6.234
REMARK INTRA:                  -0.795
REMARK UNBOUND:                -0.539
REMARK SMILES Cc1n[nH]c(C)c1CCCOc1cc(C(=O)O)ccc1F
REMARK SMILES IDX 11 1 12 2 14 3 18 4 13 5 19 6 20 7 21 8 15 9 16 10 17 11
REMARK SMILES IDX 10 13 9 14 8 15 7 16 5 17 2 18 4 19 3 20 6 21 1 22
REMARK H PARENT 17 12 4 23
ROOT
ATOM      1  O   UNL     1       3.740   8.033   7.926  1.00  0.00    -0.490 OA
ENDROOT
BRANCH   1   2
ATOM      2  C   UNL     1       4.561   8.233   8.991  1.00  0.00     0.155 A 
ATOM      3  C   UNL     1       6.257   7.437  10.498  1.00  0.00     0.063 A 
ATOM      4  C   UNL     1       6.240   8.667  11.161  1.00  0.00     0.019 A 
ATOM      5  C   UNL     1       5.411   7.225   9.408  1.00  0.00     0.065 A 
ATOM      6  C   UNL     1       5.393   9.668  10.734  1.00  0.00     0.044 A 
ATOM      7  C   UNL     1       4.558   9.458   9.649  1.00  0.00     0.165 A 
ATOM      8  F   UNL     1       3.732  10.443   9.235  1.00  0.00    -0.203 F 
BRANCH   3   9
ATOM      9  C   UNL     1       7.162   6.363  10.953  1.00  0.00     0.335 C 
ATOM     10  O   UNL     1       7.241   5.328  10.323  1.00  0.00    -0.246 OA
BRANCH   9  11
ATOM     11  O   UNL     1       7.905   6.534  12.064  1.00  0.00    -0.478 OA
ATOM     12  H   UNL     1       7.428   6.668  12.895  1.00  0.00     0.297 HD
ENDBRANCH   9  11
ENDBRANCH   3   9
ENDBRANCH   1   2
BRANCH   1  13
ATOM     13  C   UNL     1       4.322   7.449   6.758  1.00  0.00     0.230 C 
BRANCH  13  14
ATOM     14  C   UNL     1       3.255   7.313   5.671  1.00  0.00     0.046 C 
BRANCH  14  15
ATOM     15  C   UNL     1       1.908   6.979   6.316  1.00  0.00     0.043 C 
BRANCH  15  16
ATOM     16  C   UNL     1       1.802   5.490   6.518  1.00  0.00    -0.004 A 
ATOM     17  C   UNL     1       1.712   4.558   5.541  1.00  0.00     0.036 A 
ATOM     18  C   UNL     1       1.784   4.825   7.749  1.00  0.00     0.063 A 
ATOM     19  N   UNL     1       1.634   3.348   6.132  1.00  0.00    -0.282 N 
ATOM     20  N   UNL     1       1.677   3.542   7.519  1.00  0.00    -0.181 NA
ATOM     21  C   UNL     1       1.702   4.825   4.058  1.00  0.00     0.066 C 
ATOM     22  C   UNL     1       1.863   5.476   9.106  1.00  0.00     0.069 C 
ATOM     23  H   UNL     1       1.561   2.494   5.678  1.00  0.00     0.190 HD
ENDBRANCH  15  16
ENDBRANCH  14  15
ENDBRANCH  13  14
ENDBRANCH   1  13
TORSDOF 7
ENDMDL
MODEL 7
REMARK VINA RESULT:    -4.687      8.387     10.486
REMARK INTER + INTRA:          -7.007
REMARK INTER:                  -4.870
REMARK INTRA:                  -2.137
REMARK UNBOUND:                -0.539
REMARK SMILES Cc1n[nH]c(C)c1CCCOc1cc(C(=O)O)ccc1F
REMARK SMILES IDX 11 1 12 2 14 3 18 4 13 5 19 6 20 7 21 8 15 9 16 10 17 11
REMARK SMILES IDX 10 13 9 14 8 15 7 16 5 17 2 18 4 19 3 20 6 21 1 22
REMARK H PARENT 17 12 4 23
ROOT
ATOM      1  O   UNL     1       4.917  16.190  14.083  1.00  0.00    -0.490 OA
ENDROOT
BRANCH   1   2
ATOM      2  C   UNL     1       4.858  14.962  13.502  1.00  0.00     0.155 A 
ATOM      3  C   UNL     1       5.930  12.918  12.827  1.00  0.00     0.063 A 
ATOM      4  C   UNL     1       4.714  12.452  12.320  1.00  0.00     0.019 A 
ATOM      5  C   UNL     1       5.996  14.181  13.420  1.00  0.00     0.065 A 
ATOM      6  C   UNL     1       3.583  13.236  12.412  1.00  0.00     0.044 A 
ATOM      7  C   UNL     1       3.650  14.486  13.005  1.00  0.00     0.165 A 
ATOM      8  F   UNL     1       2.538  15.249  13.092  1.00  0.00    -0.203 F 
BRANCH   3   9
ATOM      9  C   UNL     1       7.142  12.081  12.730  1.00  0.00     0.335 C 
ATOM     10  O   UNL     1       7.043  10.873  12.674  1.00  0.00    -0.246 OA
BRANCH   9  11
ATOM     11  O   UNL     1       8.359  12.660  12.698  1.00  0.00    -0.478 OA
ATOM     12  H   UNL     1       8.449  13.517  13.137  1.00  0.00     0.297 HD
ENDBRANCH   9  11
ENDBRANCH   3   9
ENDBRANCH   1   2
BRANCH   1  13
ATOM     13  C   UNL     1       5.302  16.238  15.459  1.00  0.00     0.230 C 
BRANCH  13  14
ATOM     14  C   UNL     1       4.055  16.387  16.332  1.00  0.00     0.046 C 
BRANCH  14  15
ATOM     15  C   UNL     1       4.055  15.300  17.410  1.00  0.00     0.043 C 
BRANCH  15  16
ATOM     16  C   UNL     1       3.615  13.992  16.806  1.00  0.00    -0.004 A 
ATOM     17  C   UNL     1       2.382  13.713  16.323  1.00  0.00     0.036 A 
ATOM     18  C   UNL     1       4.410  12.853  16.640  1.00  0.00     0.063 A 
ATOM     19  N   UNL     1       2.394  12.441  15.873  1.00  0.00    -0.282 N 
ATOM     20  N   UNL     1       3.677  11.921  16.087  1.00  0.00    -0.181 NA
ATOM     21  C   UNL     1       1.206  14.654  16.293  1.00  0.00     0.066 C 
ATOM     22  C   UNL     1       5.857  12.720  17.039  1.00  0.00     0.069 C 
ATOM     23  H   UNL     1       1.647  11.970  15.474  1.00  0.00     0.190 HD
ENDBRANCH  15  16
ENDBRANCH  14  15
ENDBRANCH  13  14
ENDBRANCH   1  13
TORSDOF 7
ENDMDL
MODEL 8
REMARK VINA RESULT:    -4.671      3.805      6.573
REMARK INTER + INTRA:          -6.985
REMARK INTER:                  -6.126
REMARK INTRA:                  -0.858
REMARK UNBOUND:                -0.539
REMARK SMILES Cc1n[nH]c(C)c1CCCOc1cc(C(=O)O)ccc1F
REMARK SMILES IDX 11 1 12 2 14 3 18 4 13 5 19 6 20 7 21 8 15 9 16 10 17 11
REMARK SMILES IDX 10 13 9 14 8 15 7 16 5 17 2 18 4 19 3 20 6 21 1 22
REMARK H PARENT 17 12 4 23
ROOT
ATOM      1  O   UNL     1       4.506   6.307   8.429  1.00  0.00    -0.490 OA
ENDROOT
BRANCH   1   2
ATOM      2  C   UNL     1       4.975   7.258   9.280  1.00  0.00     0.155 A 
ATOM      3  C   UNL     1       4.875   9.484  10.183  1.00  0.00     0.063 A 
ATOM      4  C   UNL     1       5.943   9.183  11.033  1.00  0.00     0.019 A 
ATOM      5  C   UNL     1       4.393   8.512   9.304  1.00  0.00     0.065 A 
ATOM      6  C   UNL     1       6.513   7.928  11.005  1.00  0.00     0.044 A 
ATOM      7  C   UNL     1       6.030   6.964  10.136  1.00  0.00     0.165 A 
ATOM      8  F   UNL     1       6.593   5.736  10.114  1.00  0.00    -0.203 F 
BRANCH   3   9
ATOM      9  C   UNL     1       4.262  10.827  10.211  1.00  0.00     0.335 C 
ATOM     10  O   UNL     1       3.370  11.103   9.436  1.00  0.00    -0.246 OA
BRANCH   9  11
ATOM     11  O   UNL     1       4.690  11.744  11.101  1.00  0.00    -0.478 OA
ATOM     12  H   UNL     1       5.307  11.441  11.781  1.00  0.00     0.297 HD
ENDBRANCH   9  11
ENDBRANCH   3   9
ENDBRANCH   1   2
BRANCH   1  13
ATOM     13  C   UNL     1       3.086   6.201   8.295  1.00  0.00     0.230 C 
BRANCH  13  14
ATOM     14  C   UNL     1       2.753   5.168   7.217  1.00  0.00     0.046 C 
BRANCH  14  15
ATOM     15  C   UNL     1       3.755   5.289   6.067  1.00  0.00     0.043 C 
BRANCH  15  16
ATOM     16  C   UNL     1       3.283   6.341   5.096  1.00  0.00    -0.004 A 
ATOM     17  C   UNL     1       3.896   7.520   4.840  1.00  0.00     0.036 A 
ATOM     18  C   UNL     1       2.138   6.268   4.297  1.00  0.00     0.063 A 
ATOM     19  N   UNL     1       3.160   8.173   3.916  1.00  0.00    -0.282 N 
ATOM     20  N   UNL     1       2.059   7.369   3.594  1.00  0.00    -0.181 NA
ATOM     21  C   UNL     1       5.170   8.015   5.472  1.00  0.00     0.066 C 
ATOM     22  C   UNL     1       1.156   5.125   4.261  1.00  0.00     0.069 C 
ATOM     23  H   UNL     1       3.358   9.046   3.541  1.00  0.00     0.190 HD
ENDBRANCH  15  16
ENDBRANCH  14  15
ENDBRANCH  13  14
ENDBRANCH   1  13
TORSDOF 7
ENDMDL
MODEL 9
REMARK VINA RESULT:    -4.486      4.669      8.108
REMARK INTER + INTRA:          -6.729
REMARK INTER:                  -6.025
REMARK INTRA:                  -0.704
REMARK UNBOUND:                -0.539
REMARK SMILES Cc1n[nH]c(C)c1CCCOc1cc(C(=O)O)ccc1F
REMARK SMILES IDX 11 1 12 2 14 3 18 4 13 5 19 6 20 7 21 8 15 9 16 10 17 11
REMARK SMILES IDX 10 13 9 14 8 15 7 16 5 17 2 18 4 19 3 20 6 21 1 22
REMARK H PARENT 17 12 4 23
ROOT
ATOM      1  O   UNL     1       5.963   6.942  10.581  1.00  0.00    -0.490 OA
ENDROOT
BRANCH   1   2
ATOM      2  C   UNL     1       7.099   6.906  11.327  1.00  0.00     0.155 A 
ATOM      3  C   UNL     1       8.364   7.626  13.240  1.00  0.00     0.063 A 
ATOM      4  C   UNL     1       9.425   6.809  12.842  1.00  0.00     0.019 A 
ATOM      5  C   UNL     1       7.197   7.670  12.474  1.00  0.00     0.065 A 
ATOM      6  C   UNL     1       9.316   6.046  11.699  1.00  0.00     0.044 A 
ATOM      7  C   UNL     1       8.156   6.087  10.943  1.00  0.00     0.165 A 
ATOM      8  F   UNL     1       8.054   5.336   9.824  1.00  0.00    -0.203 F 
BRANCH   3   9
ATOM      9  C   UNL     1       8.478   8.444  14.464  1.00  0.00     0.335 C 
ATOM     10  O   UNL     1       9.543   8.530  15.040  1.00  0.00    -0.246 OA
BRANCH   9  11
ATOM     11  O   UNL     1       7.401   9.101  14.937  1.00  0.00    -0.478 OA
ATOM     12  H   UNL     1       6.805   9.496  14.284  1.00  0.00     0.297 HD
ENDBRANCH   9  11
ENDBRANCH   3   9
ENDBRANCH   1   2
BRANCH   1  13
ATOM     13  C   UNL     1       5.665   8.170   9.911  1.00  0.00     0.230 C 
BRANCH  13  14
ATOM     14  C   UNL     1       4.428   7.983   9.031  1.00  0.00     0.046 C 
BRANCH  14  15
ATOM     15  C   UNL     1       4.516   6.638   8.307  1.00  0.00     0.043 C 
BRANCH  15  16
ATOM     16  C   UNL     1       3.456   6.572   7.238  1.00  0.00    -0.004 A 
ATOM     17  C   UNL     1       2.193   6.112   7.396  1.00  0.00     0.036 A 
ATOM     18  C   UNL     1       3.602   6.981   5.909  1.00  0.00     0.063 A 
ATOM     19  N   UNL     1       1.564   6.220   6.207  1.00  0.00    -0.282 N 
ATOM     20  N   UNL     1       2.471   6.764   5.288  1.00  0.00    -0.181 NA
ATOM     21  C   UNL     1       1.597   5.575   8.671  1.00  0.00     0.066 C 
ATOM     22  C   UNL     1       4.850   7.561   5.294  1.00  0.00     0.069 C 
ATOM     23  H   UNL     1       0.647   5.965   6.021  1.00  0.00     0.190 HD
ENDBRANCH  15  16
ENDBRANCH  14  15
ENDBRANCH  13  14
ENDBRANCH   1  13
TORSDOF 7
ENDMDL
