MODEL 1
REMARK VINA RESULT:    -4.202      0.000      0.000
REMARK INTER + INTRA:          -5.113
REMARK INTER:                  -4.816
REMARK INTRA:                  -0.298
REMARK UNBOUND:                -0.298
REMARK SMILES O=C(O)c1ccc2nc(-c3cc(Cl)cc(Cl)c3)oc2c1
REMARK SMILES IDX 5 1 6 2 20 3 8 4 18 5 4 6 9 7 7 8 19 9 2 10 1 11 3 12 10 14
REMARK SMILES IDX 11 15 17 16 12 17 15 18 14 19 13 20 16 21
REMARK H PARENT 3 13
ROOT
ATOM      1  C   UNL     1       2.487   4.534   5.325  1.00  0.00     0.018 A 
ATOM      2  C   UNL     1       3.347   4.528   6.382  1.00  0.00     0.033 A 
ATOM      3  C   UNL     1       2.121   6.915   5.604  1.00  0.00     0.065 A 
ATOM      4  N   UNL     1       4.395   6.017   8.133  1.00  0.00    -0.209 NA
ATOM      5  O   UNL     1       3.432   7.870   7.524  1.00  0.00    -0.436 OA
ATOM      6  C   UNL     1       1.866   5.724   4.921  1.00  0.00     0.063 A 
ATOM      7  C   UNL     1       4.285   7.296   8.394  1.00  0.00     0.227 A 
ATOM      8  C   UNL     1       3.612   5.715   7.075  1.00  0.00     0.110 A 
ATOM      9  C   UNL     1       2.989   6.912   6.680  1.00  0.00     0.156 A 
ENDROOT
BRANCH   6  10
ATOM     10  C   UNL     1       0.942   5.719   3.772  1.00  0.00     0.335 C 
ATOM     11  O   UNL     1       0.541   6.769   3.311  1.00  0.00    -0.246 OA
BRANCH  10  12
ATOM     12  O   UNL     1       0.541   4.550   3.235  1.00  0.00    -0.478 OA
ATOM     13  H   UNL     1      -0.408   4.435   3.092  1.00  0.00     0.297 HD
ENDBRANCH  10  12
ENDBRANCH   6  10
BRANCH   7  14
ATOM     14  C   UNL     1       4.991   8.002   9.482  1.00  0.00     0.040 A 
ATOM     15  C   UNL     1       5.920   7.324  10.272  1.00  0.00     0.034 A 
ATOM     16  C   UNL     1       4.730   9.353   9.726  1.00  0.00     0.034 A 
ATOM     17  C   UNL     1       6.577   7.990  11.287  1.00  0.00     0.043 A 
ATOM     18  C   UNL     1       5.394  10.008  10.744  1.00  0.00     0.043 A 
ATOM     19  C   UNL     1       6.314   9.329  11.523  1.00  0.00     0.041 A 
ATOM     20  Cl  UNL     1       7.734   7.148  12.270  1.00  0.00    -0.084 Cl
ATOM     21  Cl  UNL     1       5.071  11.687  11.048  1.00  0.00    -0.084 Cl
ENDBRANCH   7  14
TORSDOF 3
ENDMDL
MODEL 2
REMARK VINA RESULT:    -4.201      0.038      2.020
REMARK INTER + INTRA:          -5.113
REMARK INTER:                  -4.815
REMARK INTRA:                  -0.298
REMARK UNBOUND:                -0.298
REMARK SMILES O=C(O)c1ccc2nc(-c3cc(Cl)cc(Cl)c3)oc2c1
REMARK SMILES IDX 5 1 6 2 20 3 8 4 18 5 4 6 9 7 7 8 19 9 2 10 1 11 3 12 10 14
REMARK SMILES IDX 11 15 17 16 12 17 15 18 14 19 13 20 16 21
REMARK H PARENT 3 13
ROOT
ATOM      1  C   UNL     1       2.502   4.550   5.345  1.00  0.00     0.018 A 
ATOM      2  C   UNL     1       3.361   4.551   6.403  1.00  0.00     0.033 A 
ATOM      3  C   UNL     1       2.131   6.931   5.613  1.00  0.00     0.065 A 
ATOM      4  N   UNL     1       4.405   6.049   8.149  1.00  0.00    -0.209 NA
ATOM      5  O   UNL     1       3.440   7.898   7.530  1.00  0.00    -0.436 OA
ATOM      6  C   UNL     1       1.879   5.737   4.936  1.00  0.00     0.063 A 
ATOM      7  C   UNL     1       4.292   7.329   8.403  1.00  0.00     0.227 A 
ATOM      8  C   UNL     1       3.623   5.742   7.092  1.00  0.00     0.110 A 
ATOM      9  C   UNL     1       2.999   6.936   6.690  1.00  0.00     0.156 A 
ENDROOT
BRANCH   6  10
ATOM     10  C   UNL     1       0.956   5.725   3.786  1.00  0.00     0.335 C 
ATOM     11  O   UNL     1       0.551   6.771   3.322  1.00  0.00    -0.246 OA
BRANCH  10  12
ATOM     12  O   UNL     1       0.561   4.552   3.251  1.00  0.00    -0.478 OA
ATOM     13  H   UNL     1      -0.358   4.491   2.959  1.00  0.00     0.297 HD
ENDBRANCH  10  12
ENDBRANCH   6  10
BRANCH   7  14
ATOM     14  C   UNL     1       4.996   8.043   9.489  1.00  0.00     0.040 A 
ATOM     15  C   UNL     1       4.739   9.394   9.722  1.00  0.00     0.034 A 
ATOM     16  C   UNL     1       5.922   7.366  10.285  1.00  0.00     0.034 A 
ATOM     17  C   UNL     1       5.400  10.055  10.739  1.00  0.00     0.043 A 
ATOM     18  C   UNL     1       6.576   8.037  11.299  1.00  0.00     0.043 A 
ATOM     19  C   UNL     1       6.317   9.378  11.525  1.00  0.00     0.041 A 
ATOM     20  Cl  UNL     1       5.082  11.736  11.031  1.00  0.00    -0.084 Cl
ATOM     21  Cl  UNL     1       7.728   7.198  12.291  1.00  0.00    -0.084 Cl
ENDBRANCH   7  14
TORSDOF 3
ENDMDL
MODEL 3
REMARK VINA RESULT:    -4.141      4.931      8.724
REMARK INTER + INTRA:          -5.045
REMARK INTER:                  -4.760
REMARK INTRA:                  -0.285
REMARK UNBOUND:                -0.298
REMARK SMILES O=C(O)c1ccc2nc(-c3cc(Cl)cc(Cl)c3)oc2c1
REMARK SMILES IDX 5 1 6 2 20 3 8 4 18 5 4 6 9 7 7 8 19 9 2 10 1 11 3 12 10 14
REMARK SMILES IDX 11 15 17 16 12 17 15 18 14 19 13 20 16 21
REMARK H PARENT 3 13
ROOT
ATOM      1  C   UNL     1       4.839  14.477  13.426  1.00  0.00     0.018 A 
ATOM      2  C   UNL     1       5.655  13.471  13.003  1.00  0.00     0.033 A 
ATOM      3  C   UNL     1       2.948  13.443  12.315  1.00  0.00     0.065 A 
ATOM      4  N   UNL     1       5.682  11.324  11.671  1.00  0.00    -0.209 NA
ATOM      5  O   UNL     1       3.573  11.313  11.135  1.00  0.00    -0.436 OA
ATOM      6  C   UNL     1       3.478  14.476  13.091  1.00  0.00     0.063 A 
ATOM      7  C   UNL     1       4.749  10.667  11.028  1.00  0.00     0.227 A 
ATOM      8  C   UNL     1       5.137  12.429  12.224  1.00  0.00     0.110 A 
ATOM      9  C   UNL     1       3.774  12.423  11.879  1.00  0.00     0.156 A 
ENDROOT
BRANCH   6  10
ATOM     10  C   UNL     1       2.604  15.566  13.560  1.00  0.00     0.335 C 
ATOM     11  O   UNL     1       2.220  15.583  14.712  1.00  0.00    -0.246 OA
BRANCH  10  12
ATOM     12  O   UNL     1       2.229  16.543  12.710  1.00  0.00    -0.478 OA
ATOM     13  H   UNL     1       1.360  16.456  12.297  1.00  0.00     0.297 HD
ENDBRANCH  10  12
ENDBRANCH   6  10
BRANCH   7  14
ATOM     14  C   UNL     1       4.959   9.403  10.292  1.00  0.00     0.040 A 
ATOM     15  C   UNL     1       4.192   9.113   9.163  1.00  0.00     0.034 A 
ATOM     16  C   UNL     1       5.926   8.493  10.724  1.00  0.00     0.034 A 
ATOM     17  C   UNL     1       4.393   7.930   8.479  1.00  0.00     0.043 A 
ATOM     18  C   UNL     1       6.118   7.314  10.032  1.00  0.00     0.043 A 
ATOM     19  C   UNL     1       5.354   7.032   8.913  1.00  0.00     0.041 A 
ATOM     20  Cl  UNL     1       3.441   7.568   7.074  1.00  0.00    -0.084 Cl
ATOM     21  Cl  UNL     1       7.320   6.181  10.568  1.00  0.00    -0.084 Cl
ENDBRANCH   7  14
TORSDOF 3
ENDMDL
MODEL 4
REMARK VINA RESULT:    -4.141      3.745      7.403
REMARK INTER + INTRA:          -5.044
REMARK INTER:                  -4.748
REMARK INTRA:                  -0.296
REMARK UNBOUND:                -0.298
REMARK SMILES O=C(O)c1ccc2nc(-c3cc(Cl)cc(Cl)c3)oc2c1
REMARK SMILES IDX 5 1 6 2 20 3 8 4 18 5 4 6 9 7 7 8 19 9 2 10 1 11 3 12 10 14
REMARK SMILES IDX 11 15 17 16 12 17 15 18 14 19 13 20 16 21
REMARK H PARENT 3 13
ROOT
ATOM      1  C   UNL     1       6.335   9.036  11.341  1.00  0.00     0.018 A 
ATOM      2  C   UNL     1       6.094   7.854  10.708  1.00  0.00     0.033 A 
ATOM      3  C   UNL     1       4.700  10.149   9.937  1.00  0.00     0.065 A 
ATOM      4  N   UNL     1       4.709   6.794   8.880  1.00  0.00    -0.209 NA
ATOM      5  O   UNL     1       3.632   8.587   8.282  1.00  0.00    -0.436 OA
ATOM      6  C   UNL     1       5.642  10.196  10.967  1.00  0.00     0.063 A 
ATOM      7  C   UNL     1       3.808   7.271   8.058  1.00  0.00     0.227 A 
ATOM      8  C   UNL     1       5.152   7.793   9.673  1.00  0.00     0.110 A 
ATOM      9  C   UNL     1       4.457   8.952   9.289  1.00  0.00     0.156 A 
ENDROOT
BRANCH   6  10
ATOM     10  C   UNL     1       5.907  11.468  11.663  1.00  0.00     0.335 C 
ATOM     11  O   UNL     1       5.403  12.498  11.260  1.00  0.00    -0.246 OA
BRANCH  10  12
ATOM     12  O   UNL     1       6.708  11.490  12.746  1.00  0.00    -0.478 OA
ATOM     13  H   UNL     1       7.456  10.877  12.752  1.00  0.00     0.297 HD
ENDBRANCH  10  12
ENDBRANCH   6  10
BRANCH   7  14
ATOM     14  C   UNL     1       3.091   6.481   7.036  1.00  0.00     0.040 A 
ATOM     15  C   UNL     1       2.880   5.115   7.226  1.00  0.00     0.034 A 
ATOM     16  C   UNL     1       2.622   7.099   5.875  1.00  0.00     0.034 A 
ATOM     17  C   UNL     1       2.208   4.382   6.267  1.00  0.00     0.043 A 
ATOM     18  C   UNL     1       1.952   6.356   4.923  1.00  0.00     0.043 A 
ATOM     19  C   UNL     1       1.746   5.001   5.118  1.00  0.00     0.041 A 
ATOM     20  Cl  UNL     1       1.944   2.683   6.502  1.00  0.00    -0.084 Cl
ATOM     21  Cl  UNL     1       1.369   7.123   3.479  1.00  0.00    -0.084 Cl
ENDBRANCH   7  14
TORSDOF 3
ENDMDL
MODEL 5
REMARK VINA RESULT:    -4.139      3.744      7.638
REMARK INTER + INTRA:          -5.042
REMARK INTER:                  -4.747
REMARK INTRA:                  -0.296
REMARK UNBOUND:                -0.298
REMARK SMILES O=C(O)c1ccc2nc(-c3cc(Cl)cc(Cl)c3)oc2c1
REMARK SMILES IDX 5 1 6 2 20 3 8 4 18 5 4 6 9 7 7 8 19 9 2 10 1 11 3 12 10 14
REMARK SMILES IDX 11 15 17 16 12 17 15 18 14 19 13 20 16 21
REMARK H PARENT 3 13
ROOT
ATOM      1  C   UNL     1       6.339   9.029  11.339  1.00  0.00     0.018 A 
ATOM      2  C   UNL     1       6.096   7.846  10.706  1.00  0.00     0.033 A 
ATOM      3  C   UNL     1       4.704  10.143   9.936  1.00  0.00     0.065 A 
ATOM      4  N   UNL     1       4.708   6.787   8.880  1.00  0.00    -0.209 NA
ATOM      5  O   UNL     1       3.632   8.581   8.283  1.00  0.00    -0.436 OA
ATOM      6  C   UNL     1       5.647  10.189  10.965  1.00  0.00     0.063 A 
ATOM      7  C   UNL     1       3.806   7.265   8.059  1.00  0.00     0.227 A 
ATOM      8  C   UNL     1       5.153   7.786   9.673  1.00  0.00     0.110 A 
ATOM      9  C   UNL     1       4.458   8.946   9.288  1.00  0.00     0.156 A 
ENDROOT
BRANCH   6  10
ATOM     10  C   UNL     1       5.914  11.461  11.660  1.00  0.00     0.335 C 
ATOM     11  O   UNL     1       5.429  12.494  11.244  1.00  0.00    -0.246 OA
BRANCH  10  12
ATOM     12  O   UNL     1       6.696  11.478  12.757  1.00  0.00    -0.478 OA
ATOM     13  H   UNL     1       6.399  10.960  13.517  1.00  0.00     0.297 HD
ENDBRANCH  10  12
ENDBRANCH   6  10
BRANCH   7  14
ATOM     14  C   UNL     1       3.088   6.475   7.038  1.00  0.00     0.040 A 
ATOM     15  C   UNL     1       2.616   7.092   5.879  1.00  0.00     0.034 A 
ATOM     16  C   UNL     1       2.877   5.108   7.230  1.00  0.00     0.034 A 
ATOM     17  C   UNL     1       1.946   6.348   4.927  1.00  0.00     0.043 A 
ATOM     18  C   UNL     1       2.206   4.375   6.271  1.00  0.00     0.043 A 
ATOM     19  C   UNL     1       1.740   4.993   5.124  1.00  0.00     0.041 A 
ATOM     20  Cl  UNL     1       1.359   7.114   3.484  1.00  0.00    -0.084 Cl
ATOM     21  Cl  UNL     1       1.943   2.675   6.508  1.00  0.00    -0.084 Cl
ENDBRANCH   7  14
TORSDOF 3
ENDMDL
MODEL 6
REMARK VINA RESULT:    -4.137      4.925      8.551
REMARK INTER + INTRA:          -5.039
REMARK INTER:                  -4.755
REMARK INTRA:                  -0.284
REMARK UNBOUND:                -0.298
REMARK SMILES O=C(O)c1ccc2nc(-c3cc(Cl)cc(Cl)c3)oc2c1
REMARK SMILES IDX 5 1 6 2 20 3 8 4 18 5 4 6 9 7 7 8 19 9 2 10 1 11 3 12 10 14
REMARK SMILES IDX 11 15 17 16 12 17 15 18 14 19 13 20 16 21
REMARK H PARENT 3 13
ROOT
ATOM      1  C   UNL     1       4.844  14.459  13.419  1.00  0.00     0.018 A 
ATOM      2  C   UNL     1       5.659  13.457  12.982  1.00  0.00     0.033 A 
ATOM      3  C   UNL     1       2.941  13.415  12.338  1.00  0.00     0.065 A 
ATOM      4  N   UNL     1       5.675  11.311  11.650  1.00  0.00    -0.209 NA
ATOM      5  O   UNL     1       3.558  11.288  11.148  1.00  0.00    -0.436 OA
ATOM      6  C   UNL     1       3.478  14.450  13.106  1.00  0.00     0.063 A 
ATOM      7  C   UNL     1       4.736  10.649  11.021  1.00  0.00     0.227 A 
ATOM      8  C   UNL     1       5.133  12.413  12.212  1.00  0.00     0.110 A 
ATOM      9  C   UNL     1       3.765  12.400  11.889  1.00  0.00     0.156 A 
ENDROOT
BRANCH   6  10
ATOM     10  C   UNL     1       2.605  15.536  13.589  1.00  0.00     0.335 C 
ATOM     11  O   UNL     1       2.249  15.557  14.751  1.00  0.00    -0.246 OA
BRANCH  10  12
ATOM     12  O   UNL     1       2.202  16.504  12.743  1.00  0.00    -0.478 OA
ATOM     13  H   UNL     1       2.820  16.765  12.048  1.00  0.00     0.297 HD
ENDBRANCH  10  12
ENDBRANCH   6  10
BRANCH   7  14
ATOM     14  C   UNL     1       4.940   9.386  10.282  1.00  0.00     0.040 A 
ATOM     15  C   UNL     1       5.919   8.481  10.695  1.00  0.00     0.034 A 
ATOM     16  C   UNL     1       4.155   9.094   9.164  1.00  0.00     0.034 A 
ATOM     17  C   UNL     1       6.104   7.303  10.001  1.00  0.00     0.043 A 
ATOM     18  C   UNL     1       4.350   7.912   8.478  1.00  0.00     0.043 A 
ATOM     19  C   UNL     1       5.322   7.019   8.894  1.00  0.00     0.041 A 
ATOM     20  Cl  UNL     1       7.321   6.176  10.514  1.00  0.00    -0.084 Cl
ATOM     21  Cl  UNL     1       3.375   7.546   7.089  1.00  0.00    -0.084 Cl
ENDBRANCH   7  14
TORSDOF 3
ENDMDL
MODEL 7
REMARK VINA RESULT:    -4.127      3.936      7.636
REMARK INTER + INTRA:          -5.028
REMARK INTER:                  -4.732
REMARK INTRA:                  -0.296
REMARK UNBOUND:                -0.298
REMARK SMILES O=C(O)c1ccc2nc(-c3cc(Cl)cc(Cl)c3)oc2c1
REMARK SMILES IDX 5 1 6 2 20 3 8 4 18 5 4 6 9 7 7 8 19 9 2 10 1 11 3 12 10 14
REMARK SMILES IDX 11 15 17 16 12 17 15 18 14 19 13 20 16 21
REMARK H PARENT 3 13
ROOT
ATOM      1  C   UNL     1       6.188   9.135  11.370  1.00  0.00     0.018 A 
ATOM      2  C   UNL     1       5.314   9.347  10.346  1.00  0.00     0.033 A 
ATOM      3  C   UNL     1       6.454   6.821  10.696  1.00  0.00     0.065 A 
ATOM      4  N   UNL     1       4.179   8.207   8.399  1.00  0.00    -0.209 NA
ATOM      5  O   UNL     1       5.067   6.241   8.681  1.00  0.00    -0.436 OA
ATOM      6  C   UNL     1       6.770   7.873  11.558  1.00  0.00     0.063 A 
ATOM      7  C   UNL     1       4.230   6.984   7.933  1.00  0.00     0.227 A 
ATOM      8  C   UNL     1       4.989   8.300   9.475  1.00  0.00     0.110 A 
ATOM      9  C   UNL     1       5.565   7.031   9.659  1.00  0.00     0.156 A 
ENDROOT
BRANCH   6  10
ATOM     10  C   UNL     1       7.718   7.658  12.665  1.00  0.00     0.335 C 
ATOM     11  O   UNL     1       8.143   6.543  12.892  1.00  0.00    -0.246 OA
BRANCH  10  12
ATOM     12  O   UNL     1       8.113   8.697  13.427  1.00  0.00    -0.478 OA
ATOM     13  H   UNL     1       7.480   9.031  14.076  1.00  0.00     0.297 HD
ENDBRANCH  10  12
ENDBRANCH   6  10
BRANCH   7  14
ATOM     14  C   UNL     1       3.479   6.492   6.759  1.00  0.00     0.040 A 
ATOM     15  C   UNL     1       3.118   5.148   6.670  1.00  0.00     0.034 A 
ATOM     16  C   UNL     1       3.129   7.373   5.733  1.00  0.00     0.034 A 
ATOM     17  C   UNL     1       2.415   4.695   5.571  1.00  0.00     0.043 A 
ATOM     18  C   UNL     1       2.426   6.908   4.639  1.00  0.00     0.043 A 
ATOM     19  C   UNL     1       2.070   5.573   4.558  1.00  0.00     0.041 A 
ATOM     20  Cl  UNL     1       1.964   3.023   5.460  1.00  0.00    -0.084 Cl
ATOM     21  Cl  UNL     1       1.989   8.001   3.363  1.00  0.00    -0.084 Cl
ENDBRANCH   7  14
TORSDOF 3
ENDMDL
MODEL 8
REMARK VINA RESULT:    -4.126      3.933      7.863
REMARK INTER + INTRA:          -5.027
REMARK INTER:                  -4.732
REMARK INTRA:                  -0.296
REMARK UNBOUND:                -0.298
REMARK SMILES O=C(O)c1ccc2nc(-c3cc(Cl)cc(Cl)c3)oc2c1
REMARK SMILES IDX 5 1 6 2 20 3 8 4 18 5 4 6 9 7 7 8 19 9 2 10 1 11 3 12 10 14
REMARK SMILES IDX 11 15 17 16 12 17 15 18 14 19 13 20 16 21
REMARK H PARENT 3 13
ROOT
ATOM      1  C   UNL     1       6.186   9.162  11.364  1.00  0.00     0.018 A 
ATOM      2  C   UNL     1       5.318   9.373  10.336  1.00  0.00     0.033 A 
ATOM      3  C   UNL     1       6.440   6.842  10.708  1.00  0.00     0.065 A 
ATOM      4  N   UNL     1       4.182   8.225   8.392  1.00  0.00    -0.209 NA
ATOM      5  O   UNL     1       5.057   6.256   8.692  1.00  0.00    -0.436 OA
ATOM      6  C   UNL     1       6.759   7.898  11.563  1.00  0.00     0.063 A 
ATOM      7  C   UNL     1       4.227   6.999   7.935  1.00  0.00     0.227 A 
ATOM      8  C   UNL     1       4.989   8.322   9.471  1.00  0.00     0.110 A 
ATOM      9  C   UNL     1       5.555   7.050   9.666  1.00  0.00     0.156 A 
ENDROOT
BRANCH   6  10
ATOM     10  C   UNL     1       7.702   7.685  12.676  1.00  0.00     0.335 C 
ATOM     11  O   UNL     1       8.107   6.566  12.922  1.00  0.00    -0.246 OA
BRANCH  10  12
ATOM     12  O   UNL     1       8.114   8.729  13.421  1.00  0.00    -0.478 OA
ATOM     13  H   UNL     1       7.909   8.704  14.365  1.00  0.00     0.297 HD
ENDBRANCH  10  12
ENDBRANCH   6  10
BRANCH   7  14
ATOM     14  C   UNL     1       3.477   6.504   6.762  1.00  0.00     0.040 A 
ATOM     15  C   UNL     1       3.123   7.380   5.736  1.00  0.00     0.034 A 
ATOM     16  C   UNL     1       3.119   5.157   6.677  1.00  0.00     0.034 A 
ATOM     17  C   UNL     1       2.423   6.911   4.642  1.00  0.00     0.043 A 
ATOM     18  C   UNL     1       2.419   4.700   5.579  1.00  0.00     0.043 A 
ATOM     19  C   UNL     1       2.071   5.574   4.564  1.00  0.00     0.041 A 
ATOM     20  Cl  UNL     1       1.982   7.999   3.363  1.00  0.00    -0.084 Cl
ATOM     21  Cl  UNL     1       1.973   3.025   5.471  1.00  0.00    -0.084 Cl
ENDBRANCH   7  14
TORSDOF 3
ENDMDL
MODEL 9
REMARK VINA RESULT:    -3.574      1.730      2.810
REMARK INTER + INTRA:          -4.395
REMARK INTER:                  -4.108
REMARK INTRA:                  -0.287
REMARK UNBOUND:                -0.298
REMARK SMILES O=C(O)c1ccc2nc(-c3cc(Cl)cc(Cl)c3)oc2c1
REMARK SMILES IDX 5 1 6 2 20 3 8 4 18 5 4 6 9 7 7 8 19 9 2 10 1 11 3 12 10 14
REMARK SMILES IDX 11 15 17 16 12 17 15 18 14 19 13 20 16 21
REMARK H PARENT 3 13
ROOT
ATOM      1  C   UNL     1       1.427   6.711   5.914  1.00  0.00     0.018 A 
ATOM      2  C   UNL     1       1.792   6.460   7.203  1.00  0.00     0.033 A 
ATOM      3  C   UNL     1       3.577   7.745   5.481  1.00  0.00     0.065 A 
ATOM      4  N   UNL     1       3.688   6.738   8.850  1.00  0.00    -0.209 NA
ATOM      5  O   UNL     1       5.070   7.744   7.504  1.00  0.00    -0.436 OA
ATOM      6  C   UNL     1       2.313   7.354   5.038  1.00  0.00     0.063 A 
ATOM      7  C   UNL     1       4.880   7.271   8.750  1.00  0.00     0.227 A 
ATOM      8  C   UNL     1       3.058   6.847   7.660  1.00  0.00     0.110 A 
ATOM      9  C   UNL     1       3.950   7.497   6.789  1.00  0.00     0.156 A 
ENDROOT
BRANCH   6  10
ATOM     10  C   UNL     1       1.908   7.615   3.644  1.00  0.00     0.335 C 
ATOM     11  O   UNL     1       0.820   7.248   3.249  1.00  0.00    -0.246 OA
BRANCH  10  12
ATOM     12  O   UNL     1       2.747   8.259   2.808  1.00  0.00    -0.478 OA
ATOM     13  H   UNL     1       2.762   9.224   2.860  1.00  0.00     0.297 HD
ENDBRANCH  10  12
ENDBRANCH   6  10
BRANCH   7  14
ATOM     14  C   UNL     1       5.870   7.343   9.845  1.00  0.00     0.040 A 
ATOM     15  C   UNL     1       5.905   8.456  10.686  1.00  0.00     0.034 A 
ATOM     16  C   UNL     1       6.775   6.298  10.041  1.00  0.00     0.034 A 
ATOM     17  C   UNL     1       6.831   8.517  11.708  1.00  0.00     0.043 A 
ATOM     18  C   UNL     1       7.696   6.370  11.066  1.00  0.00     0.043 A 
ATOM     19  C   UNL     1       7.726   7.477  11.897  1.00  0.00     0.041 A 
ATOM     20  Cl  UNL     1       6.876   9.900  12.757  1.00  0.00    -0.084 Cl
ATOM     21  Cl  UNL     1       8.822   5.072  11.312  1.00  0.00    -0.084 Cl
ENDBRANCH   7  14
TORSDOF 3
ENDMDL
