MODEL 1
REMARK VINA RESULT:    -5.731      0.000      0.000
REMARK INTER + INTRA:          -8.585
REMARK INTER:                  -7.909
REMARK INTRA:                  -0.677
REMARK UNBOUND:                -0.677
REMARK SMILES Cc1n[nH]c(C)c1CCCOc1cc(C(=O)O)ccc1F
REMARK SMILES IDX 11 1 12 2 14 3 18 4 13 5 19 6 20 7 21 8 15 9 16 10 17 11
REMARK SMILES IDX 10 13 9 14 8 15 7 16 5 17 2 18 4 19 3 20 6 21 1 22
REMARK H PARENT 17 12 4 23
ROOT
ATOM      1  O   UNL     1       4.394  -3.437  -8.063  1.00  0.00    -0.490 OA
ENDROOT
BRANCH   1   2
ATOM      2  C   UNL     1       4.006  -2.651  -7.023  1.00  0.00     0.155 A 
ATOM      3  C   UNL     1       4.536  -1.078  -5.284  1.00  0.00     0.063 A 
ATOM      4  C   UNL     1       3.191  -1.045  -4.909  1.00  0.00     0.019 A 
ATOM      5  C   UNL     1       4.940  -1.888  -6.347  1.00  0.00     0.065 A 
ATOM      6  C   UNL     1       2.266  -1.805  -5.593  1.00  0.00     0.044 A 
ATOM      7  C   UNL     1       2.667  -2.604  -6.651  1.00  0.00     0.165 A 
ATOM      8  F   UNL     1       1.756  -3.347  -7.317  1.00  0.00    -0.203 F 
BRANCH   3   9
ATOM      9  C   UNL     1       5.529  -0.265  -4.554  1.00  0.00     0.335 C 
ATOM     10  O   UNL     1       6.686  -0.628  -4.494  1.00  0.00    -0.246 OA
BRANCH   9  11
ATOM     11  O   UNL     1       5.152   0.884  -3.959  1.00  0.00    -0.478 OA
ATOM     12  H   UNL     1       4.355   1.314  -4.301  1.00  0.00     0.297 HD
ENDBRANCH   9  11
ENDBRANCH   3   9
ENDBRANCH   1   2
BRANCH   1  13
ATOM     13  C   UNL     1       4.216  -2.907  -9.378  1.00  0.00     0.230 C 
BRANCH  13  14
ATOM     14  C   UNL     1       5.552  -2.932 -10.123  1.00  0.00     0.046 C 
BRANCH  14  15
ATOM     15  C   UNL     1       6.011  -1.498 -10.397  1.00  0.00     0.043 C 
BRANCH  15  16
ATOM     16  C   UNL     1       6.690  -1.435 -11.740  1.00  0.00    -0.004 A 
ATOM     17  C   UNL     1       8.014  -1.598 -11.971  1.00  0.00     0.036 A 
ATOM     18  C   UNL     1       6.064  -1.205 -12.970  1.00  0.00     0.063 A 
ATOM     19  N   UNL     1       8.219  -1.468 -13.299  1.00  0.00    -0.282 N 
ATOM     20  N   UNL     1       6.980  -1.218 -13.904  1.00  0.00    -0.181 NA
ATOM     21  C   UNL     1       9.069  -1.874 -10.932  1.00  0.00     0.066 C 
ATOM     22  C   UNL     1       4.590  -0.970 -13.181  1.00  0.00     0.069 C 
ATOM     23  H   UNL     1       9.073  -1.536 -13.753  1.00  0.00     0.190 HD
ENDBRANCH  15  16
ENDBRANCH  14  15
ENDBRANCH  13  14
ENDBRANCH   1  13
TORSDOF 7
ENDMDL
MODEL 2
REMARK VINA RESULT:    -5.711      2.210      3.762
REMARK INTER + INTRA:          -8.557
REMARK INTER:                  -7.880
REMARK INTRA:                  -0.677
REMARK UNBOUND:                -0.677
REMARK SMILES Cc1n[nH]c(C)c1CCCOc1cc(C(=O)O)ccc1F
REMARK SMILES IDX 11 1 12 2 14 3 18 4 13 5 19 6 20 7 21 8 15 9 16 10 17 11
REMARK SMILES IDX 10 13 9 14 8 15 7 16 5 17 2 18 4 19 3 20 6 21 1 22
REMARK H PARENT 17 12 4 23
ROOT
ATOM      1  O   UNL     1       4.932   0.692  -7.626  1.00  0.00    -0.490 OA
ENDROOT
BRANCH   1   2
ATOM      2  C   UNL     1       4.275  -0.144  -6.777  1.00  0.00     0.155 A 
ATOM      3  C   UNL     1       2.537  -1.752  -6.360  1.00  0.00     0.063 A 
ATOM      4  C   UNL     1       2.954  -1.852  -5.030  1.00  0.00     0.019 A 
ATOM      5  C   UNL     1       3.206  -0.891  -7.233  1.00  0.00     0.065 A 
ATOM      6  C   UNL     1       4.025  -1.106  -4.586  1.00  0.00     0.044 A 
ATOM      7  C   UNL     1       4.690  -0.257  -5.455  1.00  0.00     0.165 A 
ATOM      8  F   UNL     1       5.740   0.471  -5.014  1.00  0.00    -0.203 F 
BRANCH   3   9
ATOM      9  C   UNL     1       1.391  -2.549  -6.839  1.00  0.00     0.335 C 
ATOM     10  O   UNL     1       0.745  -2.171  -7.795  1.00  0.00    -0.246 OA
BRANCH   9  11
ATOM     11  O   UNL     1       1.064  -3.699  -6.218  1.00  0.00    -0.478 OA
ATOM     12  H   UNL     1       1.372  -3.810  -5.307  1.00  0.00     0.297 HD
ENDBRANCH   9  11
ENDBRANCH   3   9
ENDBRANCH   1   2
BRANCH   1  13
ATOM     13  C   UNL     1       6.162   0.218  -8.179  1.00  0.00     0.230 C 
BRANCH  13  14
ATOM     14  C   UNL     1       6.042   0.149  -9.702  1.00  0.00     0.046 C 
BRANCH  14  15
ATOM     15  C   UNL     1       6.064  -1.314 -10.150  1.00  0.00     0.043 C 
BRANCH  15  16
ATOM     16  C   UNL     1       6.815  -1.431 -11.451  1.00  0.00    -0.004 A 
ATOM     17  C   UNL     1       6.289  -1.286 -12.690  1.00  0.00     0.036 A 
ATOM     18  C   UNL     1       8.180  -1.702 -11.593  1.00  0.00     0.063 A 
ATOM     19  N   UNL     1       7.284  -1.465 -13.583  1.00  0.00    -0.282 N 
ATOM     20  N   UNL     1       8.461  -1.730 -12.870  1.00  0.00    -0.181 NA
ATOM     21  C   UNL     1       4.850  -0.978 -13.013  1.00  0.00     0.066 C 
ATOM     22  C   UNL     1       9.156  -1.935 -10.468  1.00  0.00     0.069 C 
ATOM     23  H   UNL     1       7.200  -1.420 -14.548  1.00  0.00     0.190 HD
ENDBRANCH  15  16
ENDBRANCH  14  15
ENDBRANCH  13  14
ENDBRANCH   1  13
TORSDOF 7
ENDMDL
MODEL 3
REMARK VINA RESULT:    -5.690      0.352      1.799
REMARK INTER + INTRA:          -8.528
REMARK INTER:                  -7.846
REMARK INTRA:                  -0.682
REMARK UNBOUND:                -0.677
REMARK SMILES Cc1n[nH]c(C)c1CCCOc1cc(C(=O)O)ccc1F
REMARK SMILES IDX 11 1 12 2 14 3 18 4 13 5 19 6 20 7 21 8 15 9 16 10 17 11
REMARK SMILES IDX 10 13 9 14 8 15 7 16 5 17 2 18 4 19 3 20 6 21 1 22
REMARK H PARENT 17 12 4 23
ROOT
ATOM      1  O   UNL     1       4.281  -3.391  -8.068  1.00  0.00    -0.490 OA
ENDROOT
BRANCH   1   2
ATOM      2  C   UNL     1       3.925  -2.615  -7.010  1.00  0.00     0.155 A 
ATOM      3  C   UNL     1       4.511  -1.059  -5.272  1.00  0.00     0.063 A 
ATOM      4  C   UNL     1       3.177  -1.027  -4.856  1.00  0.00     0.019 A 
ATOM      5  C   UNL     1       4.880  -1.859  -6.355  1.00  0.00     0.065 A 
ATOM      6  C   UNL     1       2.230  -1.780  -5.519  1.00  0.00     0.044 A 
ATOM      7  C   UNL     1       2.598  -2.569  -6.597  1.00  0.00     0.165 A 
ATOM      8  F   UNL     1       1.666  -3.304  -7.242  1.00  0.00    -0.203 F 
BRANCH   3   9
ATOM      9  C   UNL     1       5.526  -0.255  -4.564  1.00  0.00     0.335 C 
ATOM     10  O   UNL     1       6.676  -0.640  -4.509  1.00  0.00    -0.246 OA
BRANCH   9  11
ATOM     11  O   UNL     1       5.177   0.911  -3.985  1.00  0.00    -0.478 OA
ATOM     12  H   UNL     1       5.454   1.046  -3.068  1.00  0.00     0.297 HD
ENDBRANCH   9  11
ENDBRANCH   3   9
ENDBRANCH   1   2
BRANCH   1  13
ATOM     13  C   UNL     1       4.218  -2.790  -9.364  1.00  0.00     0.230 C 
BRANCH  13  14
ATOM     14  C   UNL     1       5.563  -2.961 -10.070  1.00  0.00     0.046 C 
BRANCH  14  15
ATOM     15  C   UNL     1       6.226  -1.593 -10.245  1.00  0.00     0.043 C 
BRANCH  15  16
ATOM     16  C   UNL     1       7.031  -1.583 -11.519  1.00  0.00    -0.004 A 
ATOM     17  C   UNL     1       6.553  -1.339 -12.761  1.00  0.00     0.036 A 
ATOM     18  C   UNL     1       8.406  -1.818 -11.626  1.00  0.00     0.063 A 
ATOM     19  N   UNL     1       7.588  -1.423 -13.624  1.00  0.00    -0.282 N 
ATOM     20  N   UNL     1       8.739  -1.729 -12.887  1.00  0.00    -0.181 NA
ATOM     21  C   UNL     1       5.123  -1.028 -13.117  1.00  0.00     0.066 C 
ATOM     22  C   UNL     1       9.340  -2.132 -10.485  1.00  0.00     0.069 C 
ATOM     23  H   UNL     1       7.542  -1.295 -14.584  1.00  0.00     0.190 HD
ENDBRANCH  15  16
ENDBRANCH  14  15
ENDBRANCH  13  14
ENDBRANCH   1  13
TORSDOF 7
ENDMDL
MODEL 4
REMARK VINA RESULT:    -5.642      2.217      3.291
REMARK INTER + INTRA:          -8.463
REMARK INTER:                  -7.803
REMARK INTRA:                  -0.660
REMARK UNBOUND:                -0.677
REMARK SMILES Cc1n[nH]c(C)c1CCCOc1cc(C(=O)O)ccc1F
REMARK SMILES IDX 11 1 12 2 14 3 18 4 13 5 19 6 20 7 21 8 15 9 16 10 17 11
REMARK SMILES IDX 10 13 9 14 8 15 7 16 5 17 2 18 4 19 3 20 6 21 1 22
REMARK H PARENT 17 12 4 23
ROOT
ATOM      1  O   UNL     1       4.959   0.549  -7.819  1.00  0.00    -0.490 OA
ENDROOT
BRANCH   1   2
ATOM      2  C   UNL     1       4.288  -0.220  -6.920  1.00  0.00     0.155 A 
ATOM      3  C   UNL     1       2.528  -1.774  -6.405  1.00  0.00     0.063 A 
ATOM      4  C   UNL     1       2.938  -1.790  -5.069  1.00  0.00     0.019 A 
ATOM      5  C   UNL     1       3.211  -0.983  -7.330  1.00  0.00     0.065 A 
ATOM      6  C   UNL     1       4.017  -1.031  -4.670  1.00  0.00     0.044 A 
ATOM      7  C   UNL     1       4.696  -0.250  -5.591  1.00  0.00     0.165 A 
ATOM      8  F   UNL     1       5.753   0.492  -5.194  1.00  0.00    -0.203 F 
BRANCH   3   9
ATOM      9  C   UNL     1       1.373  -2.587  -6.835  1.00  0.00     0.335 C 
ATOM     10  O   UNL     1       0.705  -2.238  -7.787  1.00  0.00    -0.246 OA
BRANCH   9  11
ATOM     11  O   UNL     1       1.064  -3.720  -6.175  1.00  0.00    -0.478 OA
ATOM     12  H   UNL     1       1.573  -4.512  -6.398  1.00  0.00     0.297 HD
ENDBRANCH   9  11
ENDBRANCH   3   9
ENDBRANCH   1   2
BRANCH   1  13
ATOM     13  C   UNL     1       6.120  -0.026  -8.424  1.00  0.00     0.230 C 
BRANCH  13  14
ATOM     14  C   UNL     1       5.905  -0.134  -9.935  1.00  0.00     0.046 C 
BRANCH  14  15
ATOM     15  C   UNL     1       6.168  -1.572 -10.386  1.00  0.00     0.043 C 
BRANCH  15  16
ATOM     16  C   UNL     1       7.056  -1.564 -11.603  1.00  0.00    -0.004 A 
ATOM     17  C   UNL     1       8.397  -1.744 -11.612  1.00  0.00     0.036 A 
ATOM     18  C   UNL     1       6.639  -1.375 -12.925  1.00  0.00     0.063 A 
ATOM     19  N   UNL     1       8.815  -1.665 -12.893  1.00  0.00    -0.282 N 
ATOM     20  N   UNL     1       7.693  -1.429 -13.698  1.00  0.00    -0.181 NA
ATOM     21  C   UNL     1       9.268  -1.988 -10.407  1.00  0.00     0.066 C 
ATOM     22  C   UNL     1       5.221  -1.138 -13.379  1.00  0.00     0.069 C 
ATOM     23  H   UNL     1       9.729  -1.755 -13.202  1.00  0.00     0.190 HD
ENDBRANCH  15  16
ENDBRANCH  14  15
ENDBRANCH  13  14
ENDBRANCH   1  13
TORSDOF 7
ENDMDL
MODEL 5
REMARK VINA RESULT:    -4.814      4.877      8.111
REMARK INTER + INTRA:          -7.319
REMARK INTER:                  -6.658
REMARK INTRA:                  -0.661
REMARK UNBOUND:                -0.677
REMARK SMILES Cc1n[nH]c(C)c1CCCOc1cc(C(=O)O)ccc1F
REMARK SMILES IDX 11 1 12 2 14 3 18 4 13 5 19 6 20 7 21 8 15 9 16 10 17 11
REMARK SMILES IDX 10 13 9 14 8 15 7 16 5 17 2 18 4 19 3 20 6 21 1 22
REMARK H PARENT 17 12 4 23
ROOT
ATOM      1  O   UNL     1       8.122  -1.435 -10.698  1.00  0.00    -0.490 OA
ENDROOT
BRANCH   1   2
ATOM      2  C   UNL     1       9.185  -1.861 -11.432  1.00  0.00     0.155 A 
ATOM      3  C   UNL     1      10.506  -1.771 -13.439  1.00  0.00     0.063 A 
ATOM      4  C   UNL     1      11.367  -2.737 -12.911  1.00  0.00     0.019 A 
ATOM      5  C   UNL     1       9.411  -1.335 -12.690  1.00  0.00     0.065 A 
ATOM      6  C   UNL     1      11.137  -3.251 -11.652  1.00  0.00     0.044 A 
ATOM      7  C   UNL     1      10.053  -2.814 -10.909  1.00  0.00     0.165 A 
ATOM      8  F   UNL     1       9.832  -3.322  -9.677  1.00  0.00    -0.203 F 
BRANCH   3   9
ATOM      9  C   UNL     1      10.750  -1.218 -14.785  1.00  0.00     0.335 C 
ATOM     10  O   UNL     1      11.781  -1.477 -15.371  1.00  0.00    -0.246 OA
BRANCH   9  11
ATOM     11  O   UNL     1       9.825  -0.430 -15.367  1.00  0.00    -0.478 OA
ATOM     12  H   UNL     1       9.373  -0.784 -16.146  1.00  0.00     0.297 HD
ENDBRANCH   9  11
ENDBRANCH   3   9
ENDBRANCH   1   2
BRANCH   1  13
ATOM     13  C   UNL     1       6.831  -1.903 -11.095  1.00  0.00     0.230 C 
BRANCH  13  14
ATOM     14  C   UNL     1       5.763  -1.271 -10.200  1.00  0.00     0.046 C 
BRANCH  14  15
ATOM     15  C   UNL     1       6.024  -1.660  -8.743  1.00  0.00     0.043 C 
BRANCH  15  16
ATOM     16  C   UNL     1       4.775  -1.434  -7.931  1.00  0.00    -0.004 A 
ATOM     17  C   UNL     1       3.822  -2.357  -7.662  1.00  0.00     0.036 A 
ATOM     18  C   UNL     1       4.398  -0.236  -7.316  1.00  0.00     0.063 A 
ATOM     19  N   UNL     1       2.873  -1.762  -6.910  1.00  0.00    -0.282 N 
ATOM     20  N   UNL     1       3.255  -0.429  -6.710  1.00  0.00    -0.181 NA
ATOM     21  C   UNL     1       3.821  -3.792  -8.121  1.00  0.00     0.066 C 
ATOM     22  C   UNL     1       5.170   1.059  -7.355  1.00  0.00     0.069 C 
ATOM     23  H   UNL     1       2.068  -2.182  -6.569  1.00  0.00     0.190 HD
ENDBRANCH  15  16
ENDBRANCH  14  15
ENDBRANCH  13  14
ENDBRANCH   1  13
TORSDOF 7
ENDMDL
MODEL 6
REMARK VINA RESULT:    -4.804      4.646      8.140
REMARK INTER + INTRA:          -7.306
REMARK INTER:                  -6.610
REMARK INTRA:                  -0.696
REMARK UNBOUND:                -0.677
REMARK SMILES Cc1n[nH]c(C)c1CCCOc1cc(C(=O)O)ccc1F
REMARK SMILES IDX 11 1 12 2 14 3 18 4 13 5 19 6 20 7 21 8 15 9 16 10 17 11
REMARK SMILES IDX 10 13 9 14 8 15 7 16 5 17 2 18 4 19 3 20 6 21 1 22
REMARK H PARENT 17 12 4 23
ROOT
ATOM      1  O   UNL     1       5.286  -1.386 -12.150  1.00  0.00    -0.490 OA
ENDROOT
BRANCH   1   2
ATOM      2  C   UNL     1       5.278  -1.035 -13.464  1.00  0.00     0.155 A 
ATOM      3  C   UNL     1       6.194  -1.220 -15.680  1.00  0.00     0.063 A 
ATOM      4  C   UNL     1       5.239  -0.313 -16.146  1.00  0.00     0.019 A 
ATOM      5  C   UNL     1       6.209  -1.579 -14.330  1.00  0.00     0.065 A 
ATOM      6  C   UNL     1       4.311   0.219 -15.275  1.00  0.00     0.044 A 
ATOM      7  C   UNL     1       4.324  -0.142 -13.938  1.00  0.00     0.165 A 
ATOM      8  F   UNL     1       3.412   0.383 -13.090  1.00  0.00    -0.203 F 
BRANCH   3   9
ATOM      9  C   UNL     1       7.188  -1.791 -16.609  1.00  0.00     0.335 C 
ATOM     10  O   UNL     1       7.080  -1.606 -17.804  1.00  0.00    -0.246 OA
BRANCH   9  11
ATOM     11  O   UNL     1       8.220  -2.514 -16.130  1.00  0.00    -0.478 OA
ATOM     12  H   UNL     1       9.023  -2.544 -16.668  1.00  0.00     0.297 HD
ENDBRANCH   9  11
ENDBRANCH   3   9
ENDBRANCH   1   2
BRANCH   1  13
ATOM     13  C   UNL     1       6.553  -1.390 -11.487  1.00  0.00     0.230 C 
BRANCH  13  14
ATOM     14  C   UNL     1       6.343  -1.617  -9.989  1.00  0.00     0.046 C 
BRANCH  14  15
ATOM     15  C   UNL     1       4.900  -1.267  -9.618  1.00  0.00     0.043 C 
BRANCH  15  16
ATOM     16  C   UNL     1       4.708  -1.437  -8.133  1.00  0.00    -0.004 A 
ATOM     17  C   UNL     1       4.906  -0.487  -7.190  1.00  0.00     0.036 A 
ATOM     18  C   UNL     1       4.286  -2.603  -7.486  1.00  0.00     0.063 A 
ATOM     19  N   UNL     1       4.627  -1.034  -5.989  1.00  0.00    -0.282 N 
ATOM     20  N   UNL     1       4.244  -2.365  -6.200  1.00  0.00    -0.181 NA
ATOM     21  C   UNL     1       5.358   0.929  -7.438  1.00  0.00     0.066 C 
ATOM     22  C   UNL     1       3.951  -3.913  -8.153  1.00  0.00     0.069 C 
ATOM     23  H   UNL     1       4.682  -0.586  -5.131  1.00  0.00     0.190 HD
ENDBRANCH  15  16
ENDBRANCH  14  15
ENDBRANCH  13  14
ENDBRANCH   1  13
TORSDOF 7
ENDMDL
MODEL 7
REMARK VINA RESULT:    -4.775      3.860      6.714
REMARK INTER + INTRA:          -7.266
REMARK INTER:                  -6.408
REMARK INTRA:                  -0.858
REMARK UNBOUND:                -0.677
REMARK SMILES Cc1n[nH]c(C)c1CCCOc1cc(C(=O)O)ccc1F
REMARK SMILES IDX 11 1 12 2 14 3 18 4 13 5 19 6 20 7 21 8 15 9 16 10 17 11
REMARK SMILES IDX 10 13 9 14 8 15 7 16 5 17 2 18 4 19 3 20 6 21 1 22
REMARK H PARENT 17 12 4 23
ROOT
ATOM      1  O   UNL     1       4.335  -1.497  -9.675  1.00  0.00    -0.490 OA
ENDROOT
BRANCH   1   2
ATOM      2  C   UNL     1       5.346  -1.485 -10.584  1.00  0.00     0.155 A 
ATOM      3  C   UNL     1       7.675  -1.751 -11.121  1.00  0.00     0.063 A 
ATOM      4  C   UNL     1       7.395  -1.465 -12.460  1.00  0.00     0.019 A 
ATOM      5  C   UNL     1       6.640  -1.759 -10.183  1.00  0.00     0.065 A 
ATOM      6  C   UNL     1       6.100  -1.199 -12.852  1.00  0.00     0.044 A 
ATOM      7  C   UNL     1       5.075  -1.212 -11.921  1.00  0.00     0.165 A 
ATOM      8  F   UNL     1       3.808  -0.950 -12.311  1.00  0.00    -0.203 F 
BRANCH   3   9
ATOM      9  C   UNL     1       9.060  -2.037 -10.698  1.00  0.00     0.335 C 
ATOM     10  O   UNL     1       9.823  -1.124 -10.458  1.00  0.00    -0.246 OA
BRANCH   9  11
ATOM     11  O   UNL     1       9.476  -3.313 -10.573  1.00  0.00    -0.478 OA
ATOM     12  H   UNL     1       9.543  -3.667  -9.676  1.00  0.00     0.297 HD
ENDBRANCH   9  11
ENDBRANCH   3   9
ENDBRANCH   1   2
BRANCH   1  13
ATOM     13  C   UNL     1       4.384  -2.507  -8.665  1.00  0.00     0.230 C 
BRANCH  13  14
ATOM     14  C   UNL     1       3.245  -2.286  -7.668  1.00  0.00     0.046 C 
BRANCH  14  15
ATOM     15  C   UNL     1       3.105  -0.790  -7.378  1.00  0.00     0.043 C 
BRANCH  15  16
ATOM     16  C   UNL     1       4.030  -0.406  -6.253  1.00  0.00    -0.004 A 
ATOM     17  C   UNL     1       5.136   0.367  -6.359  1.00  0.00     0.036 A 
ATOM     18  C   UNL     1       3.895  -0.781  -4.912  1.00  0.00     0.063 A 
ATOM     19  N   UNL     1       5.685   0.472  -5.131  1.00  0.00    -0.282 N 
ATOM     20  N   UNL     1       4.890  -0.261  -4.240  1.00  0.00    -0.181 NA
ATOM     21  C   UNL     1       5.660   0.998  -7.623  1.00  0.00     0.066 C 
ATOM     22  C   UNL     1       2.800  -1.645  -4.342  1.00  0.00     0.069 C 
ATOM     23  H   UNL     1       6.487   0.967  -4.905  1.00  0.00     0.190 HD
ENDBRANCH  15  16
ENDBRANCH  14  15
ENDBRANCH  13  14
ENDBRANCH   1  13
TORSDOF 7
ENDMDL
MODEL 8
REMARK VINA RESULT:    -4.714      3.964      7.233
REMARK INTER + INTRA:          -7.181
REMARK INTER:                  -6.395
REMARK INTRA:                  -0.787
REMARK UNBOUND:                -0.677
REMARK SMILES Cc1n[nH]c(C)c1CCCOc1cc(C(=O)O)ccc1F
REMARK SMILES IDX 11 1 12 2 14 3 18 4 13 5 19 6 20 7 21 8 15 9 16 10 17 11
REMARK SMILES IDX 10 13 9 14 8 15 7 16 5 17 2 18 4 19 3 20 6 21 1 22
REMARK H PARENT 17 12 4 23
ROOT
ATOM      1  O   UNL     1       6.140  -1.472  -8.670  1.00  0.00    -0.490 OA
ENDROOT
BRANCH   1   2
ATOM      2  C   UNL     1       6.459  -1.465  -9.992  1.00  0.00     0.155 A 
ATOM      3  C   UNL     1       5.816  -1.191 -12.293  1.00  0.00     0.063 A 
ATOM      4  C   UNL     1       7.133  -1.444 -12.687  1.00  0.00     0.019 A 
ATOM      5  C   UNL     1       5.484  -1.203 -10.937  1.00  0.00     0.065 A 
ATOM      6  C   UNL     1       8.100  -1.699 -11.737  1.00  0.00     0.044 A 
ATOM      7  C   UNL     1       7.769  -1.705 -10.392  1.00  0.00     0.165 A 
ATOM      8  F   UNL     1       8.721  -1.956  -9.466  1.00  0.00    -0.203 F 
BRANCH   3   9
ATOM      9  C   UNL     1       4.779  -0.917 -13.307  1.00  0.00     0.335 C 
ATOM     10  O   UNL     1       3.980  -0.021 -13.132  1.00  0.00    -0.246 OA
BRANCH   9  11
ATOM     11  O   UNL     1       4.724  -1.659 -14.430  1.00  0.00    -0.478 OA
ATOM     12  H   UNL     1       5.373  -2.371 -14.519  1.00  0.00     0.297 HD
ENDBRANCH   9  11
ENDBRANCH   3   9
ENDBRANCH   1   2
BRANCH   1  13
ATOM     13  C   UNL     1       5.503  -0.303  -8.150  1.00  0.00     0.230 C 
BRANCH  13  14
ATOM     14  C   UNL     1       5.182  -0.514  -6.670  1.00  0.00     0.046 C 
BRANCH  14  15
ATOM     15  C   UNL     1       5.082  -2.013  -6.378  1.00  0.00     0.043 C 
BRANCH  15  16
ATOM     16  C   UNL     1       3.645  -2.452  -6.486  1.00  0.00    -0.004 A 
ATOM     17  C   UNL     1       2.637  -2.091  -5.658  1.00  0.00     0.036 A 
ATOM     18  C   UNL     1       3.115  -3.301  -7.463  1.00  0.00     0.063 A 
ATOM     19  N   UNL     1       1.511  -2.695  -6.092  1.00  0.00    -0.282 N 
ATOM     20  N   UNL     1       1.838  -3.452  -7.225  1.00  0.00    -0.181 NA
ATOM     21  C   UNL     1       2.752  -1.178  -4.465  1.00  0.00     0.066 C 
ATOM     22  C   UNL     1       3.885  -3.941  -8.590  1.00  0.00     0.069 C 
ATOM     23  H   UNL     1       0.632  -2.618  -5.691  1.00  0.00     0.190 HD
ENDBRANCH  15  16
ENDBRANCH  14  15
ENDBRANCH  13  14
ENDBRANCH   1  13
TORSDOF 7
ENDMDL
MODEL 9
REMARK VINA RESULT:    -4.613      4.191      7.293
REMARK INTER + INTRA:          -7.042
REMARK INTER:                  -6.489
REMARK INTRA:                  -0.553
REMARK UNBOUND:                -0.677
REMARK SMILES Cc1n[nH]c(C)c1CCCOc1cc(C(=O)O)ccc1F
REMARK SMILES IDX 11 1 12 2 14 3 18 4 13 5 19 6 20 7 21 8 15 9 16 10 17 11
REMARK SMILES IDX 10 13 9 14 8 15 7 16 5 17 2 18 4 19 3 20 6 21 1 22
REMARK H PARENT 17 12 4 23
ROOT
ATOM      1  O   UNL     1       4.783  -1.706  -9.975  1.00  0.00    -0.490 OA
ENDROOT
BRANCH   1   2
ATOM      2  C   UNL     1       5.754  -1.621 -10.923  1.00  0.00     0.155 A 
ATOM      3  C   UNL     1       8.072  -1.721 -11.553  1.00  0.00     0.063 A 
ATOM      4  C   UNL     1       7.720  -1.452 -12.879  1.00  0.00     0.019 A 
ATOM      5  C   UNL     1       7.079  -1.804 -10.575  1.00  0.00     0.065 A 
ATOM      6  C   UNL     1       6.395  -1.276 -13.217  1.00  0.00     0.044 A 
ATOM      7  C   UNL     1       5.411  -1.364 -12.246  1.00  0.00     0.165 A 
ATOM      8  F   UNL     1       4.114  -1.191 -12.585  1.00  0.00    -0.203 F 
BRANCH   3   9
ATOM      9  C   UNL     1       9.489  -1.910 -11.187  1.00  0.00     0.335 C 
ATOM     10  O   UNL     1      10.366  -1.498 -11.919  1.00  0.00    -0.246 OA
BRANCH   9  11
ATOM     11  O   UNL     1       9.810  -2.536 -10.038  1.00  0.00    -0.478 OA
ATOM     12  H   UNL     1       9.909  -3.497 -10.073  1.00  0.00     0.297 HD
ENDBRANCH   9  11
ENDBRANCH   3   9
ENDBRANCH   1   2
BRANCH   1  13
ATOM     13  C   UNL     1       4.601  -2.977  -9.346  1.00  0.00     0.230 C 
BRANCH  13  14
ATOM     14  C   UNL     1       4.629  -2.802  -7.826  1.00  0.00     0.046 C 
BRANCH  14  15
ATOM     15  C   UNL     1       4.178  -1.385  -7.467  1.00  0.00     0.043 C 
BRANCH  15  16
ATOM     16  C   UNL     1       3.572  -1.384  -6.088  1.00  0.00    -0.004 A 
ATOM     17  C   UNL     1       2.352  -1.865  -5.754  1.00  0.00     0.036 A 
ATOM     18  C   UNL     1       4.174  -0.893  -4.925  1.00  0.00     0.063 A 
ATOM     19  N   UNL     1       2.185  -1.678  -4.427  1.00  0.00    -0.282 N 
ATOM     20  N   UNL     1       3.341  -1.062  -3.930  1.00  0.00    -0.181 NA
ATOM     21  C   UNL     1       1.358  -2.496  -6.693  1.00  0.00     0.066 C 
ATOM     22  C   UNL     1       5.542  -0.265  -4.835  1.00  0.00     0.069 C 
ATOM     23  H   UNL     1       1.403  -1.925  -3.910  1.00  0.00     0.190 HD
ENDBRANCH  15  16
ENDBRANCH  14  15
ENDBRANCH  13  14
ENDBRANCH   1  13
TORSDOF 7
ENDMDL
