MODEL 1
REMARK VINA RESULT:    -5.621      0.000      0.000
REMARK INTER + INTRA:          -8.312
REMARK INTER:                  -7.756
REMARK INTRA:                  -0.555
REMARK UNBOUND:                -0.555
REMARK SMILES Cc1n[nH]c(C)c1CCCOc1cc(C(=O)O)ccc1F
REMARK SMILES IDX 11 1 12 2 14 3 18 4 13 5 19 6 20 7 21 8 15 9 16 10 17 11
REMARK SMILES IDX 10 13 9 14 8 15 7 16 5 17 2 18 4 19 3 20 6 21 1 22
REMARK H PARENT 17 12 4 23
ROOT
ATOM      1  O   UNL     1      -3.825  -7.881  -2.129  1.00  0.00    -0.490 OA
ENDROOT
BRANCH   1   2
ATOM      2  C   UNL     1      -2.779  -7.081  -1.793  1.00  0.00     0.155 A 
ATOM      3  C   UNL     1      -0.937  -6.552  -0.341  1.00  0.00     0.063 A 
ATOM      4  C   UNL     1      -0.640  -5.437  -1.129  1.00  0.00     0.019 A 
ATOM      5  C   UNL     1      -2.013  -7.374  -0.680  1.00  0.00     0.065 A 
ATOM      6  C   UNL     1      -1.406  -5.155  -2.240  1.00  0.00     0.044 A 
ATOM      7  C   UNL     1      -2.470  -5.975  -2.578  1.00  0.00     0.165 A 
ATOM      8  F   UNL     1      -3.217  -5.693  -3.668  1.00  0.00    -0.203 F 
BRANCH   3   9
ATOM      9  C   UNL     1      -0.119  -6.857   0.850  1.00  0.00     0.335 C 
ATOM     10  O   UNL     1      -0.561  -7.574   1.724  1.00  0.00    -0.246 OA
BRANCH   9  11
ATOM     11  O   UNL     1       1.123  -6.345   0.962  1.00  0.00    -0.478 OA
ATOM     12  H   UNL     1       1.822  -6.771   0.447  1.00  0.00     0.297 HD
ENDBRANCH   9  11
ENDBRANCH   3   9
ENDBRANCH   1   2
BRANCH   1  13
ATOM     13  C   UNL     1      -3.686  -8.665  -3.318  1.00  0.00     0.230 C 
BRANCH  13  14
ATOM     14  C   UNL     1      -3.707 -10.150  -2.954  1.00  0.00     0.046 C 
BRANCH  14  15
ATOM     15  C   UNL     1      -2.281 -10.703  -2.981  1.00  0.00     0.043 C 
BRANCH  15  16
ATOM     16  C   UNL     1      -2.321 -12.187  -3.232  1.00  0.00    -0.004 A 
ATOM     17  C   UNL     1      -2.526 -13.148  -2.301  1.00  0.00     0.036 A 
ATOM     18  C   UNL     1      -2.160 -12.818  -4.471  1.00  0.00     0.063 A 
ATOM     19  N   UNL     1      -2.489 -14.343  -2.927  1.00  0.00    -0.282 N 
ATOM     20  N   UNL     1      -2.253 -14.109  -4.288  1.00  0.00    -0.181 NA
ATOM     21  C   UNL     1      -2.755 -12.922  -0.829  1.00  0.00     0.066 C 
ATOM     22  C   UNL     1      -1.909 -12.127  -5.787  1.00  0.00     0.069 C 
ATOM     23  H   UNL     1      -2.604 -15.210  -2.508  1.00  0.00     0.190 HD
ENDBRANCH  15  16
ENDBRANCH  14  15
ENDBRANCH  13  14
ENDBRANCH   1  13
TORSDOF 7
ENDMDL
MODEL 2
REMARK VINA RESULT:    -5.615      2.229      3.864
REMARK INTER + INTRA:          -8.304
REMARK INTER:                  -7.670
REMARK INTRA:                  -0.634
REMARK UNBOUND:                -0.555
REMARK SMILES Cc1n[nH]c(C)c1CCCOc1cc(C(=O)O)ccc1F
REMARK SMILES IDX 11 1 12 2 14 3 18 4 13 5 19 6 20 7 21 8 15 9 16 10 17 11
REMARK SMILES IDX 10 13 9 14 8 15 7 16 5 17 2 18 4 19 3 20 6 21 1 22
REMARK H PARENT 17 12 4 23
ROOT
ATOM      1  O   UNL     1       0.545  -8.664  -1.817  1.00  0.00    -0.490 OA
ENDROOT
BRANCH   1   2
ATOM      2  C   UNL     1      -0.158  -7.506  -1.705  1.00  0.00     0.155 A 
ATOM      3  C   UNL     1      -1.636  -5.861  -2.651  1.00  0.00     0.063 A 
ATOM      4  C   UNL     1      -1.597  -5.143  -1.452  1.00  0.00     0.019 A 
ATOM      5  C   UNL     1      -0.910  -7.048  -2.771  1.00  0.00     0.065 A 
ATOM      6  C   UNL     1      -0.849  -5.611  -0.393  1.00  0.00     0.044 A 
ATOM      7  C   UNL     1      -0.134  -6.791  -0.513  1.00  0.00     0.165 A 
ATOM      8  F   UNL     1       0.597  -7.244   0.529  1.00  0.00    -0.203 F 
BRANCH   3   9
ATOM      9  C   UNL     1      -2.436  -5.363  -3.787  1.00  0.00     0.335 C 
ATOM     10  O   UNL     1      -2.126  -5.657  -4.923  1.00  0.00    -0.246 OA
BRANCH   9  11
ATOM     11  O   UNL     1      -3.515  -4.589  -3.562  1.00  0.00    -0.478 OA
ATOM     12  H   UNL     1      -3.479  -3.996  -2.797  1.00  0.00     0.297 HD
ENDBRANCH   9  11
ENDBRANCH   3   9
ENDBRANCH   1   2
BRANCH   1  13
ATOM     13  C   UNL     1       0.027  -9.807  -1.131  1.00  0.00     0.230 C 
BRANCH  13  14
ATOM     14  C   UNL     1      -0.238 -10.928  -2.138  1.00  0.00     0.046 C 
BRANCH  14  15
ATOM     15  C   UNL     1      -1.729 -10.968  -2.476  1.00  0.00     0.043 C 
BRANCH  15  16
ATOM     16  C   UNL     1      -2.112 -12.362  -2.901  1.00  0.00    -0.004 A 
ATOM     17  C   UNL     1      -2.106 -12.838  -4.168  1.00  0.00     0.036 A 
ATOM     18  C   UNL     1      -2.529 -13.395  -2.055  1.00  0.00     0.063 A 
ATOM     19  N   UNL     1      -2.512 -14.124  -4.125  1.00  0.00    -0.282 N 
ATOM     20  N   UNL     1      -2.776 -14.450  -2.788  1.00  0.00    -0.181 NA
ATOM     21  C   UNL     1      -1.717 -12.069  -5.403  1.00  0.00     0.066 C 
ATOM     22  C   UNL     1      -2.680 -13.305  -0.558  1.00  0.00     0.069 C 
ATOM     23  H   UNL     1      -2.606 -14.718  -4.886  1.00  0.00     0.190 HD
ENDBRANCH  15  16
ENDBRANCH  14  15
ENDBRANCH  13  14
ENDBRANCH   1  13
TORSDOF 7
ENDMDL
MODEL 3
REMARK VINA RESULT:    -5.533      2.219      3.433
REMARK INTER + INTRA:          -8.191
REMARK INTER:                  -7.517
REMARK INTRA:                  -0.674
REMARK UNBOUND:                -0.555
REMARK SMILES Cc1n[nH]c(C)c1CCCOc1cc(C(=O)O)ccc1F
REMARK SMILES IDX 11 1 12 2 14 3 18 4 13 5 19 6 20 7 21 8 15 9 16 10 17 11
REMARK SMILES IDX 10 13 9 14 8 15 7 16 5 17 2 18 4 19 3 20 6 21 1 22
REMARK H PARENT 17 12 4 23
ROOT
ATOM      1  O   UNL     1       0.567  -8.638  -1.803  1.00  0.00    -0.490 OA
ENDROOT
BRANCH   1   2
ATOM      2  C   UNL     1      -0.149  -7.487  -1.698  1.00  0.00     0.155 A 
ATOM      3  C   UNL     1      -1.631  -5.855  -2.658  1.00  0.00     0.063 A 
ATOM      4  C   UNL     1      -1.613  -5.138  -1.458  1.00  0.00     0.019 A 
ATOM      5  C   UNL     1      -0.893  -7.035  -2.771  1.00  0.00     0.065 A 
ATOM      6  C   UNL     1      -0.872  -5.600  -0.391  1.00  0.00     0.044 A 
ATOM      7  C   UNL     1      -0.145  -6.773  -0.504  1.00  0.00     0.165 A 
ATOM      8  F   UNL     1       0.579  -7.221   0.546  1.00  0.00    -0.203 F 
BRANCH   3   9
ATOM      9  C   UNL     1      -2.424  -5.363  -3.802  1.00  0.00     0.335 C 
ATOM     10  O   UNL     1      -2.119  -5.681  -4.933  1.00  0.00    -0.246 OA
BRANCH   9  11
ATOM     11  O   UNL     1      -3.489  -4.566  -3.590  1.00  0.00    -0.478 OA
ATOM     12  H   UNL     1      -3.925  -4.635  -2.729  1.00  0.00     0.297 HD
ENDBRANCH   9  11
ENDBRANCH   3   9
ENDBRANCH   1   2
BRANCH   1  13
ATOM     13  C   UNL     1       0.011  -9.805  -1.193  1.00  0.00     0.230 C 
BRANCH  13  14
ATOM     14  C   UNL     1      -0.229 -10.874  -2.261  1.00  0.00     0.046 C 
BRANCH  14  15
ATOM     15  C   UNL     1      -1.725 -10.963  -2.566  1.00  0.00     0.043 C 
BRANCH  15  16
ATOM     16  C   UNL     1      -2.070 -12.368  -2.985  1.00  0.00    -0.004 A 
ATOM     17  C   UNL     1      -2.462 -13.371  -2.165  1.00  0.00     0.036 A 
ATOM     18  C   UNL     1      -2.049 -12.866  -4.292  1.00  0.00     0.063 A 
ATOM     19  N   UNL     1      -2.674 -14.466  -2.925  1.00  0.00    -0.282 N 
ATOM     20  N   UNL     1      -2.404 -14.125  -4.256  1.00  0.00    -0.181 NA
ATOM     21  C   UNL     1      -2.630 -13.280  -0.670  1.00  0.00     0.066 C 
ATOM     22  C   UNL     1      -1.671 -12.090  -5.528  1.00  0.00     0.069 C 
ATOM     23  H   UNL     1      -2.962 -15.335  -2.605  1.00  0.00     0.190 HD
ENDBRANCH  15  16
ENDBRANCH  14  15
ENDBRANCH  13  14
ENDBRANCH   1  13
TORSDOF 7
ENDMDL
MODEL 4
REMARK VINA RESULT:    -5.489      0.224      1.776
REMARK INTER + INTRA:          -8.130
REMARK INTER:                  -7.552
REMARK INTRA:                  -0.578
REMARK UNBOUND:                -0.555
REMARK SMILES Cc1n[nH]c(C)c1CCCOc1cc(C(=O)O)ccc1F
REMARK SMILES IDX 11 1 12 2 14 3 18 4 13 5 19 6 20 7 21 8 15 9 16 10 17 11
REMARK SMILES IDX 10 13 9 14 8 15 7 16 5 17 2 18 4 19 3 20 6 21 1 22
REMARK H PARENT 17 12 4 23
ROOT
ATOM      1  O   UNL     1      -3.796  -7.921  -2.179  1.00  0.00    -0.490 OA
ENDROOT
BRANCH   1   2
ATOM      2  C   UNL     1      -2.770  -7.103  -1.823  1.00  0.00     0.155 A 
ATOM      3  C   UNL     1      -0.956  -6.553  -0.343  1.00  0.00     0.063 A 
ATOM      4  C   UNL     1      -0.671  -5.426  -1.118  1.00  0.00     0.019 A 
ATOM      5  C   UNL     1      -2.013  -7.392  -0.703  1.00  0.00     0.065 A 
ATOM      6  C   UNL     1      -1.428  -5.149  -2.237  1.00  0.00     0.044 A 
ATOM      7  C   UNL     1      -2.473  -5.986  -2.595  1.00  0.00     0.165 A 
ATOM      8  F   UNL     1      -3.211  -5.709  -3.692  1.00  0.00    -0.203 F 
BRANCH   3   9
ATOM      9  C   UNL     1      -0.147  -6.853   0.855  1.00  0.00     0.335 C 
ATOM     10  O   UNL     1      -0.591  -7.577   1.722  1.00  0.00    -0.246 OA
BRANCH   9  11
ATOM     11  O   UNL     1       1.087  -6.326   0.982  1.00  0.00    -0.478 OA
ATOM     12  H   UNL     1       1.765  -6.889   1.382  1.00  0.00     0.297 HD
ENDBRANCH   9  11
ENDBRANCH   3   9
ENDBRANCH   1   2
BRANCH   1  13
ATOM     13  C   UNL     1      -3.576  -8.791  -3.292  1.00  0.00     0.230 C 
BRANCH  13  14
ATOM     14  C   UNL     1      -3.538 -10.241  -2.806  1.00  0.00     0.046 C 
BRANCH  14  15
ATOM     15  C   UNL     1      -2.136 -10.815  -3.021  1.00  0.00     0.043 C 
BRANCH  15  16
ATOM     16  C   UNL     1      -2.243 -12.255  -3.449  1.00  0.00    -0.004 A 
ATOM     17  C   UNL     1      -2.078 -12.726  -4.707  1.00  0.00     0.036 A 
ATOM     18  C   UNL     1      -2.522 -13.343  -2.616  1.00  0.00     0.063 A 
ATOM     19  N   UNL     1      -2.254 -14.064  -4.672  1.00  0.00    -0.282 N 
ATOM     20  N   UNL     1      -2.536 -14.427  -3.349  1.00  0.00    -0.181 NA
ATOM     21  C   UNL     1      -1.756 -11.904  -5.928  1.00  0.00     0.066 C 
ATOM     22  C   UNL     1      -2.776 -13.278  -1.131  1.00  0.00     0.069 C 
ATOM     23  H   UNL     1      -2.197 -14.667  -5.430  1.00  0.00     0.190 HD
ENDBRANCH  15  16
ENDBRANCH  14  15
ENDBRANCH  13  14
ENDBRANCH   1  13
TORSDOF 7
ENDMDL
MODEL 5
REMARK VINA RESULT:    -4.726      3.946      7.060
REMARK INTER + INTRA:          -7.078
REMARK INTER:                  -6.253
REMARK INTRA:                  -0.825
REMARK UNBOUND:                -0.555
REMARK SMILES Cc1n[nH]c(C)c1CCCOc1cc(C(=O)O)ccc1F
REMARK SMILES IDX 11 1 12 2 14 3 18 4 13 5 19 6 20 7 21 8 15 9 16 10 17 11
REMARK SMILES IDX 10 13 9 14 8 15 7 16 5 17 2 18 4 19 3 20 6 21 1 22
REMARK H PARENT 17 12 4 23
ROOT
ATOM      1  O   UNL     1      -1.753 -10.014  -1.410  1.00  0.00    -0.490 OA
ENDROOT
BRANCH   1   2
ATOM      2  C   UNL     1      -1.958 -11.140  -2.144  1.00  0.00     0.155 A 
ATOM      3  C   UNL     1      -1.922 -12.291  -4.255  1.00  0.00     0.063 A 
ATOM      4  C   UNL     1      -2.372 -13.454  -3.625  1.00  0.00     0.019 A 
ATOM      5  C   UNL     1      -1.715 -11.131  -3.505  1.00  0.00     0.065 A 
ATOM      6  C   UNL     1      -2.606 -13.455  -2.266  1.00  0.00     0.044 A 
ATOM      7  C   UNL     1      -2.396 -12.305  -1.523  1.00  0.00     0.165 A 
ATOM      8  F   UNL     1      -2.626 -12.312  -0.192  1.00  0.00    -0.203 F 
BRANCH   3   9
ATOM      9  C   UNL     1      -1.670 -12.287  -5.710  1.00  0.00     0.335 C 
ATOM     10  O   UNL     1      -1.251 -11.284  -6.251  1.00  0.00    -0.246 OA
BRANCH   9  11
ATOM     11  O   UNL     1      -1.900 -13.398  -6.436  1.00  0.00    -0.478 OA
ATOM     12  H   UNL     1      -2.524 -13.321  -7.172  1.00  0.00     0.297 HD
ENDBRANCH   9  11
ENDBRANCH   3   9
ENDBRANCH   1   2
BRANCH   1  13
ATOM     13  C   UNL     1      -0.548  -9.287  -1.659  1.00  0.00     0.230 C 
BRANCH  13  14
ATOM     14  C   UNL     1      -0.575  -7.973  -0.878  1.00  0.00     0.046 C 
BRANCH  14  15
ATOM     15  C   UNL     1      -2.023  -7.502  -0.722  1.00  0.00     0.043 C 
BRANCH  15  16
ATOM     16  C   UNL     1      -2.382  -6.592  -1.867  1.00  0.00    -0.004 A 
ATOM     17  C   UNL     1      -1.858  -5.367  -2.106  1.00  0.00     0.036 A 
ATOM     18  C   UNL     1      -3.312  -6.866  -2.876  1.00  0.00     0.063 A 
ATOM     19  N   UNL     1      -2.440  -4.881  -3.222  1.00  0.00    -0.282 N 
ATOM     20  N   UNL     1      -3.352  -5.838  -3.685  1.00  0.00    -0.181 NA
ATOM     21  C   UNL     1      -0.812  -4.671  -1.275  1.00  0.00     0.066 C 
ATOM     22  C   UNL     1      -4.134  -8.123  -3.003  1.00  0.00     0.069 C 
ATOM     23  H   UNL     1      -2.260  -4.020  -3.631  1.00  0.00     0.190 HD
ENDBRANCH  15  16
ENDBRANCH  14  15
ENDBRANCH  13  14
ENDBRANCH   1  13
TORSDOF 7
ENDMDL
MODEL 6
REMARK VINA RESULT:    -4.703      3.810      6.554
REMARK INTER + INTRA:          -7.046
REMARK INTER:                  -6.213
REMARK INTRA:                  -0.833
REMARK UNBOUND:                -0.555
REMARK SMILES Cc1n[nH]c(C)c1CCCOc1cc(C(=O)O)ccc1F
REMARK SMILES IDX 11 1 12 2 14 3 18 4 13 5 19 6 20 7 21 8 15 9 16 10 17 11
REMARK SMILES IDX 10 13 9 14 8 15 7 16 5 17 2 18 4 19 3 20 6 21 1 22
REMARK H PARENT 17 12 4 23
ROOT
ATOM      1  O   UNL     1      -1.879  -9.534  -3.361  1.00  0.00    -0.490 OA
ENDROOT
BRANCH   1   2
ATOM      2  C   UNL     1      -2.062 -10.877  -3.245  1.00  0.00     0.155 A 
ATOM      3  C   UNL     1      -2.593 -12.804  -1.908  1.00  0.00     0.063 A 
ATOM      4  C   UNL     1      -2.441 -13.620  -3.032  1.00  0.00     0.019 A 
ATOM      5  C   UNL     1      -2.400 -11.425  -2.023  1.00  0.00     0.065 A 
ATOM      6  C   UNL     1      -2.110 -13.063  -4.249  1.00  0.00     0.044 A 
ATOM      7  C   UNL     1      -1.924 -11.695  -4.361  1.00  0.00     0.165 A 
ATOM      8  F   UNL     1      -1.599 -11.156  -5.556  1.00  0.00    -0.203 F 
BRANCH   3   9
ATOM      9  C   UNL     1      -2.948 -13.396  -0.604  1.00  0.00     0.335 C 
ATOM     10  O   UNL     1      -3.129 -14.593  -0.510  1.00  0.00    -0.246 OA
BRANCH   9  11
ATOM     11  O   UNL     1      -3.066 -12.609   0.483  1.00  0.00    -0.478 OA
ATOM     12  H   UNL     1      -3.233 -11.669   0.329  1.00  0.00     0.297 HD
ENDBRANCH   9  11
ENDBRANCH   3   9
ENDBRANCH   1   2
BRANCH   1  13
ATOM     13  C   UNL     1      -2.791  -8.692  -2.653  1.00  0.00     0.230 C 
BRANCH  13  14
ATOM     14  C   UNL     1      -2.381  -7.230  -2.836  1.00  0.00     0.046 C 
BRANCH  14  15
ATOM     15  C   UNL     1      -0.855  -7.125  -2.840  1.00  0.00     0.043 C 
BRANCH  15  16
ATOM     16  C   UNL     1      -0.356  -6.989  -1.425  1.00  0.00    -0.004 A 
ATOM     17  C   UNL     1      -0.544  -5.923  -0.613  1.00  0.00     0.036 A 
ATOM     18  C   UNL     1       0.378  -7.946  -0.715  1.00  0.00     0.063 A 
ATOM     19  N   UNL     1       0.055  -6.193   0.566  1.00  0.00    -0.282 N 
ATOM     20  N   UNL     1       0.631  -7.467   0.475  1.00  0.00    -0.181 NA
ATOM     21  C   UNL     1      -1.289  -4.661  -0.962  1.00  0.00     0.066 C 
ATOM     22  C   UNL     1       0.812  -9.292  -1.237  1.00  0.00     0.069 C 
ATOM     23  H   UNL     1       0.084  -5.608   1.339  1.00  0.00     0.190 HD
ENDBRANCH  15  16
ENDBRANCH  14  15
ENDBRANCH  13  14
ENDBRANCH   1  13
TORSDOF 7
ENDMDL
MODEL 7
REMARK VINA RESULT:    -4.672      3.774      6.548
REMARK INTER + INTRA:          -7.002
REMARK INTER:                  -6.195
REMARK INTRA:                  -0.807
REMARK UNBOUND:                -0.555
REMARK SMILES Cc1n[nH]c(C)c1CCCOc1cc(C(=O)O)ccc1F
REMARK SMILES IDX 11 1 12 2 14 3 18 4 13 5 19 6 20 7 21 8 15 9 16 10 17 11
REMARK SMILES IDX 10 13 9 14 8 15 7 16 5 17 2 18 4 19 3 20 6 21 1 22
REMARK H PARENT 17 12 4 23
ROOT
ATOM      1  O   UNL     1      -1.706  -9.394  -3.473  1.00  0.00    -0.490 OA
ENDROOT
BRANCH   1   2
ATOM      2  C   UNL     1      -1.938 -10.728  -3.345  1.00  0.00     0.155 A 
ATOM      3  C   UNL     1      -2.503 -12.627  -1.983  1.00  0.00     0.063 A 
ATOM      4  C   UNL     1      -2.419 -13.453  -3.107  1.00  0.00     0.019 A 
ATOM      5  C   UNL     1      -2.260 -11.258  -2.110  1.00  0.00     0.065 A 
ATOM      6  C   UNL     1      -2.103 -12.915  -4.336  1.00  0.00     0.044 A 
ATOM      7  C   UNL     1      -1.867 -11.556  -4.460  1.00  0.00     0.165 A 
ATOM      8  F   UNL     1      -1.558 -11.034  -5.668  1.00  0.00    -0.203 F 
BRANCH   3   9
ATOM      9  C   UNL     1      -2.842 -13.200  -0.665  1.00  0.00     0.335 C 
ATOM     10  O   UNL     1      -1.958 -13.547   0.092  1.00  0.00    -0.246 OA
BRANCH   9  11
ATOM     11  O   UNL     1      -4.132 -13.334  -0.301  1.00  0.00    -0.478 OA
ATOM     12  H   UNL     1      -4.346 -14.061   0.300  1.00  0.00     0.297 HD
ENDBRANCH   9  11
ENDBRANCH   3   9
ENDBRANCH   1   2
BRANCH   1  13
ATOM     13  C   UNL     1      -2.588  -8.512  -2.775  1.00  0.00     0.230 C 
BRANCH  13  14
ATOM     14  C   UNL     1      -2.131  -7.067  -2.979  1.00  0.00     0.046 C 
BRANCH  14  15
ATOM     15  C   UNL     1      -0.621  -6.973  -2.750  1.00  0.00     0.043 C 
BRANCH  15  16
ATOM     16  C   UNL     1      -0.339  -6.923  -1.271  1.00  0.00    -0.004 A 
ATOM     17  C   UNL     1       0.280  -7.884  -0.546  1.00  0.00     0.036 A 
ATOM     18  C   UNL     1      -0.665  -5.874  -0.405  1.00  0.00     0.063 A 
ATOM     19  N   UNL     1       0.338  -7.460   0.735  1.00  0.00    -0.282 N 
ATOM     20  N   UNL     1      -0.266  -6.197   0.798  1.00  0.00    -0.181 NA
ATOM     21  C   UNL     1       0.810  -9.191  -1.073  1.00  0.00     0.066 C 
ATOM     22  C   UNL     1      -1.366  -4.596  -0.790  1.00  0.00     0.069 C 
ATOM     23  H   UNL     1       0.727  -7.944   1.479  1.00  0.00     0.190 HD
ENDBRANCH  15  16
ENDBRANCH  14  15
ENDBRANCH  13  14
ENDBRANCH   1  13
TORSDOF 7
ENDMDL
MODEL 8
REMARK VINA RESULT:    -4.460      4.953      7.963
REMARK INTER + INTRA:          -6.710
REMARK INTER:                  -6.036
REMARK INTRA:                  -0.674
REMARK UNBOUND:                -0.555
REMARK SMILES Cc1n[nH]c(C)c1CCCOc1cc(C(=O)O)ccc1F
REMARK SMILES IDX 11 1 12 2 14 3 18 4 13 5 19 6 20 7 21 8 15 9 16 10 17 11
REMARK SMILES IDX 10 13 9 14 8 15 7 16 5 17 2 18 4 19 3 20 6 21 1 22
REMARK H PARENT 17 12 4 23
ROOT
ATOM      1  O   UNL     1      -2.249 -12.736  -1.364  1.00  0.00    -0.490 OA
ENDROOT
BRANCH   1   2
ATOM      2  C   UNL     1      -2.831 -13.919  -1.029  1.00  0.00     0.155 A 
ATOM      3  C   UNL     1      -3.044 -16.296  -1.319  1.00  0.00     0.063 A 
ATOM      4  C   UNL     1      -4.025 -16.326  -0.323  1.00  0.00     0.019 A 
ATOM      5  C   UNL     1      -2.448 -15.083  -1.669  1.00  0.00     0.065 A 
ATOM      6  C   UNL     1      -4.396 -15.160   0.313  1.00  0.00     0.044 A 
ATOM      7  C   UNL     1      -3.800 -13.958  -0.032  1.00  0.00     0.165 A 
ATOM      8  F   UNL     1      -4.168 -12.820   0.595  1.00  0.00    -0.203 F 
BRANCH   3   9
ATOM      9  C   UNL     1      -2.644 -17.542  -2.002  1.00  0.00     0.335 C 
ATOM     10  O   UNL     1      -3.243 -18.575  -1.781  1.00  0.00    -0.246 OA
BRANCH   9  11
ATOM     11  O   UNL     1      -1.619 -17.532  -2.875  1.00  0.00    -0.478 OA
ATOM     12  H   UNL     1      -1.027 -16.766  -2.850  1.00  0.00     0.297 HD
ENDBRANCH   9  11
ENDBRANCH   3   9
ENDBRANCH   1   2
BRANCH   1  13
ATOM     13  C   UNL     1      -2.474 -12.256  -2.692  1.00  0.00     0.230 C 
BRANCH  13  14
ATOM     14  C   UNL     1      -1.747 -10.923  -2.881  1.00  0.00     0.046 C 
BRANCH  14  15
ATOM     15  C   UNL     1      -2.021 -10.018  -1.678  1.00  0.00     0.043 C 
BRANCH  15  16
ATOM     16  C   UNL     1      -1.610  -8.606  -2.006  1.00  0.00    -0.004 A 
ATOM     17  C   UNL     1      -2.423  -7.628  -2.469  1.00  0.00     0.036 A 
ATOM     18  C   UNL     1      -0.323  -8.073  -1.881  1.00  0.00     0.063 A 
ATOM     19  N   UNL     1      -1.675  -6.517  -2.637  1.00  0.00    -0.282 N 
ATOM     20  N   UNL     1      -0.359  -6.823  -2.265  1.00  0.00    -0.181 NA
ATOM     21  C   UNL     1      -3.898  -7.756  -2.747  1.00  0.00     0.066 C 
ATOM     22  C   UNL     1       0.898  -8.814  -1.398  1.00  0.00     0.069 C 
ATOM     23  H   UNL     1      -1.992  -5.659  -2.959  1.00  0.00     0.190 HD
ENDBRANCH  15  16
ENDBRANCH  14  15
ENDBRANCH  13  14
ENDBRANCH   1  13
TORSDOF 7
ENDMDL
MODEL 9
REMARK VINA RESULT:    -4.438      4.671      8.070
REMARK INTER + INTRA:          -6.679
REMARK INTER:                  -5.963
REMARK INTRA:                  -0.717
REMARK UNBOUND:                -0.555
REMARK SMILES Cc1n[nH]c(C)c1CCCOc1cc(C(=O)O)ccc1F
REMARK SMILES IDX 11 1 12 2 14 3 18 4 13 5 19 6 20 7 21 8 15 9 16 10 17 11
REMARK SMILES IDX 10 13 9 14 8 15 7 16 5 17 2 18 4 19 3 20 6 21 1 22
REMARK H PARENT 17 12 4 23
ROOT
ATOM      1  O   UNL     1      -2.270 -11.907  -4.493  1.00  0.00    -0.490 OA
ENDROOT
BRANCH   1   2
ATOM      2  C   UNL     1      -1.994 -12.877  -5.405  1.00  0.00     0.155 A 
ATOM      3  C   UNL     1      -2.401 -15.066  -6.312  1.00  0.00     0.063 A 
ATOM      4  C   UNL     1      -1.422 -14.841  -7.284  1.00  0.00     0.019 A 
ATOM      5  C   UNL     1      -2.684 -14.075  -5.371  1.00  0.00     0.065 A 
ATOM      6  C   UNL     1      -0.743 -13.641  -7.313  1.00  0.00     0.044 A 
ATOM      7  C   UNL     1      -1.029 -12.657  -6.381  1.00  0.00     0.165 A 
ATOM      8  F   UNL     1      -0.360 -11.484  -6.416  1.00  0.00    -0.203 F 
BRANCH   3   9
ATOM      9  C   UNL     1      -3.129 -16.350  -6.278  1.00  0.00     0.335 C 
ATOM     10  O   UNL     1      -2.714 -17.301  -6.907  1.00  0.00    -0.246 OA
BRANCH   9  11
ATOM     11  O   UNL     1      -4.252 -16.467  -5.542  1.00  0.00    -0.478 OA
ATOM     12  H   UNL     1      -4.384 -15.819  -4.835  1.00  0.00     0.297 HD
ENDBRANCH   9  11
ENDBRANCH   3   9
ENDBRANCH   1   2
BRANCH   1  13
ATOM     13  C   UNL     1      -2.070 -12.236  -3.116  1.00  0.00     0.230 C 
BRANCH  13  14
ATOM     14  C   UNL     1      -2.200 -10.971  -2.266  1.00  0.00     0.046 C 
BRANCH  14  15
ATOM     15  C   UNL     1      -1.670  -9.771  -3.054  1.00  0.00     0.043 C 
BRANCH  15  16
ATOM     16  C   UNL     1      -1.667  -8.551  -2.170  1.00  0.00    -0.004 A 
ATOM     17  C   UNL     1      -0.634  -8.121  -1.409  1.00  0.00     0.036 A 
ATOM     18  C   UNL     1      -2.730  -7.658  -1.996  1.00  0.00     0.063 A 
ATOM     19  N   UNL     1      -1.031  -7.000  -0.771  1.00  0.00    -0.282 N 
ATOM     20  N   UNL     1      -2.352  -6.732  -1.153  1.00  0.00    -0.181 NA
ATOM     21  C   UNL     1       0.718  -8.776  -1.295  1.00  0.00     0.066 C 
ATOM     22  C   UNL     1      -4.081  -7.753  -2.657  1.00  0.00     0.069 C 
ATOM     23  H   UNL     1      -0.497  -6.473  -0.157  1.00  0.00     0.190 HD
ENDBRANCH  15  16
ENDBRANCH  14  15
ENDBRANCH  13  14
ENDBRANCH   1  13
TORSDOF 7
ENDMDL
