MODEL 1
REMARK VINA RESULT:    -3.704      0.000      0.000
REMARK INTER + INTRA:          -4.541
REMARK INTER:                  -4.245
REMARK INTRA:                  -0.296
REMARK UNBOUND:                -0.296
REMARK SMILES O=C(O)c1ccc2nc(-c3cc(Cl)cc(Cl)c3)oc2c1
REMARK SMILES IDX 5 1 6 2 20 3 8 4 18 5 4 6 9 7 7 8 19 9 2 10 1 11 3 12 10 14
REMARK SMILES IDX 11 15 17 16 12 17 15 18 14 19 13 20 16 21
REMARK H PARENT 3 13
ROOT
ATOM      1  C   UNL     1       3.929   3.446  12.936  1.00  0.00     0.018 A 
ATOM      2  C   UNL     1       4.495   2.978  11.788  1.00  0.00     0.033 A 
ATOM      3  C   UNL     1       1.718   3.221  11.965  1.00  0.00     0.065 A 
ATOM      4  N   UNL     1       3.948   2.144   9.467  1.00  0.00    -0.209 NA
ATOM      5  O   UNL     1       1.786   2.341   9.611  1.00  0.00    -0.436 OA
ATOM      6  C   UNL     1       2.537   3.571  13.041  1.00  0.00     0.063 A 
ATOM      7  C   UNL     1       2.818   1.978   8.826  1.00  0.00     0.227 A 
ATOM      8  C   UNL     1       3.686   2.624  10.701  1.00  0.00     0.110 A 
ATOM      9  C   UNL     1       2.289   2.751  10.797  1.00  0.00     0.156 A 
ENDROOT
BRANCH   6  10
ATOM     10  C   UNL     1       1.935   4.072  14.290  1.00  0.00     0.335 C 
ATOM     11  O   UNL     1       0.728   4.162  14.389  1.00  0.00    -0.246 OA
BRANCH  10  12
ATOM     12  O   UNL     1       2.725   4.432  15.321  1.00  0.00    -0.478 OA
ATOM     13  H   UNL     1       2.300   4.540  16.183  1.00  0.00     0.297 HD
ENDBRANCH  10  12
ENDBRANCH   6  10
BRANCH   7  14
ATOM     14  C   UNL     1       2.694   1.468   7.445  1.00  0.00     0.040 A 
ATOM     15  C   UNL     1       3.672   0.623   6.919  1.00  0.00     0.034 A 
ATOM     16  C   UNL     1       1.598   1.832   6.660  1.00  0.00     0.034 A 
ATOM     17  C   UNL     1       3.550   0.149   5.628  1.00  0.00     0.043 A 
ATOM     18  C   UNL     1       1.487   1.352   5.370  1.00  0.00     0.043 A 
ATOM     19  C   UNL     1       2.461   0.513   4.854  1.00  0.00     0.041 A 
ATOM     20  Cl  UNL     1       4.765  -0.903   4.972  1.00  0.00    -0.084 Cl
ATOM     21  Cl  UNL     1       0.125   1.802   4.392  1.00  0.00    -0.084 Cl
ENDBRANCH   7  14
TORSDOF 3
ENDMDL
MODEL 2
REMARK VINA RESULT:    -3.697      1.821      2.517
REMARK INTER + INTRA:          -4.533
REMARK INTER:                  -4.237
REMARK INTRA:                  -0.296
REMARK UNBOUND:                -0.296
REMARK SMILES O=C(O)c1ccc2nc(-c3cc(Cl)cc(Cl)c3)oc2c1
REMARK SMILES IDX 5 1 6 2 20 3 8 4 18 5 4 6 9 7 7 8 19 9 2 10 1 11 3 12 10 14
REMARK SMILES IDX 11 15 17 16 12 17 15 18 14 19 13 20 16 21
REMARK H PARENT 3 13
ROOT
ATOM      1  C   UNL     1       3.937   3.360  12.955  1.00  0.00     0.018 A 
ATOM      2  C   UNL     1       2.955   3.172  12.028  1.00  0.00     0.033 A 
ATOM      3  C   UNL     1       5.626   2.755  11.323  1.00  0.00     0.065 A 
ATOM      4  N   UNL     1       2.556   2.510   9.623  1.00  0.00    -0.209 NA
ATOM      5  O   UNL     1       4.638   2.183   9.083  1.00  0.00    -0.436 OA
ATOM      6  C   UNL     1       5.282   3.157  12.615  1.00  0.00     0.063 A 
ATOM      7  C   UNL     1       3.363   2.163   8.652  1.00  0.00     0.227 A 
ATOM      8  C   UNL     1       3.287   2.770  10.729  1.00  0.00     0.110 A 
ATOM      9  C   UNL     1       4.633   2.559  10.382  1.00  0.00     0.156 A 
ENDROOT
BRANCH   6  10
ATOM     10  C   UNL     1       6.335   3.369  13.624  1.00  0.00     0.335 C 
ATOM     11  O   UNL     1       7.502   3.201  13.329  1.00  0.00    -0.246 OA
BRANCH  10  12
ATOM     12  O   UNL     1       6.005   3.747  14.875  1.00  0.00    -0.478 OA
ATOM     13  H   UNL     1       5.068   3.900  15.054  1.00  0.00     0.297 HD
ENDBRANCH  10  12
ENDBRANCH   6  10
BRANCH   7  14
ATOM     14  C   UNL     1       2.936   1.803   7.284  1.00  0.00     0.040 A 
ATOM     15  C   UNL     1       3.718   0.947   6.508  1.00  0.00     0.034 A 
ATOM     16  C   UNL     1       1.747   2.318   6.763  1.00  0.00     0.034 A 
ATOM     17  C   UNL     1       3.313   0.613   5.230  1.00  0.00     0.043 A 
ATOM     18  C   UNL     1       1.353   1.977   5.484  1.00  0.00     0.043 A 
ATOM     19  C   UNL     1       2.133   1.127   4.719  1.00  0.00     0.041 A 
ATOM     20  Cl  UNL     1       4.284  -0.452   4.263  1.00  0.00    -0.084 Cl
ATOM     21  Cl  UNL     1      -0.125   2.617   4.834  1.00  0.00    -0.084 Cl
ENDBRANCH   7  14
TORSDOF 3
ENDMDL
MODEL 3
REMARK VINA RESULT:    -3.697      1.821      3.211
REMARK INTER + INTRA:          -4.533
REMARK INTER:                  -4.237
REMARK INTRA:                  -0.296
REMARK UNBOUND:                -0.296
REMARK SMILES O=C(O)c1ccc2nc(-c3cc(Cl)cc(Cl)c3)oc2c1
REMARK SMILES IDX 5 1 6 2 20 3 8 4 18 5 4 6 9 7 7 8 19 9 2 10 1 11 3 12 10 14
REMARK SMILES IDX 11 15 17 16 12 17 15 18 14 19 13 20 16 21
REMARK H PARENT 3 13
ROOT
ATOM      1  C   UNL     1       3.938   3.360  12.953  1.00  0.00     0.018 A 
ATOM      2  C   UNL     1       2.956   3.171  12.027  1.00  0.00     0.033 A 
ATOM      3  C   UNL     1       5.626   2.760  11.319  1.00  0.00     0.065 A 
ATOM      4  N   UNL     1       2.555   2.508   9.622  1.00  0.00    -0.209 NA
ATOM      5  O   UNL     1       4.638   2.186   9.080  1.00  0.00    -0.436 OA
ATOM      6  C   UNL     1       5.283   3.160  12.612  1.00  0.00     0.063 A 
ATOM      7  C   UNL     1       3.362   2.164   8.650  1.00  0.00     0.227 A 
ATOM      8  C   UNL     1       3.287   2.769  10.727  1.00  0.00     0.110 A 
ATOM      9  C   UNL     1       4.633   2.561  10.379  1.00  0.00     0.156 A 
ENDROOT
BRANCH   6  10
ATOM     10  C   UNL     1       6.337   3.373  13.620  1.00  0.00     0.335 C 
ATOM     11  O   UNL     1       7.503   3.209  13.323  1.00  0.00    -0.246 OA
BRANCH  10  12
ATOM     12  O   UNL     1       6.007   3.750  14.871  1.00  0.00    -0.478 OA
ATOM     13  H   UNL     1       5.798   4.684  15.008  1.00  0.00     0.297 HD
ENDBRANCH  10  12
ENDBRANCH   6  10
BRANCH   7  14
ATOM     14  C   UNL     1       2.934   1.803   7.282  1.00  0.00     0.040 A 
ATOM     15  C   UNL     1       1.745   2.313   6.762  1.00  0.00     0.034 A 
ATOM     16  C   UNL     1       3.720   0.948   6.506  1.00  0.00     0.034 A 
ATOM     17  C   UNL     1       1.351   1.973   5.483  1.00  0.00     0.043 A 
ATOM     18  C   UNL     1       3.316   0.615   5.228  1.00  0.00     0.043 A 
ATOM     19  C   UNL     1       2.134   1.125   4.718  1.00  0.00     0.041 A 
ATOM     20  Cl  UNL     1      -0.128   2.607   4.833  1.00  0.00    -0.084 Cl
ATOM     21  Cl  UNL     1       4.290  -0.447   4.261  1.00  0.00    -0.084 Cl
ENDBRANCH   7  14
TORSDOF 3
ENDMDL
MODEL 4
REMARK VINA RESULT:    -3.693      0.016      2.019
REMARK INTER + INTRA:          -4.528
REMARK INTER:                  -4.232
REMARK INTRA:                  -0.296
REMARK UNBOUND:                -0.296
REMARK SMILES O=C(O)c1ccc2nc(-c3cc(Cl)cc(Cl)c3)oc2c1
REMARK SMILES IDX 5 1 6 2 20 3 8 4 18 5 4 6 9 7 7 8 19 9 2 10 1 11 3 12 10 14
REMARK SMILES IDX 11 15 17 16 12 17 15 18 14 19 13 20 16 21
REMARK H PARENT 3 13
ROOT
ATOM      1  C   UNL     1       3.924   3.451  12.946  1.00  0.00     0.018 A 
ATOM      2  C   UNL     1       4.491   2.979  11.800  1.00  0.00     0.033 A 
ATOM      3  C   UNL     1       1.714   3.233  11.971  1.00  0.00     0.065 A 
ATOM      4  N   UNL     1       3.945   2.143   9.479  1.00  0.00    -0.209 NA
ATOM      5  O   UNL     1       1.784   2.348   9.619  1.00  0.00    -0.436 OA
ATOM      6  C   UNL     1       2.532   3.582  13.048  1.00  0.00     0.063 A 
ATOM      7  C   UNL     1       2.816   1.980   8.836  1.00  0.00     0.227 A 
ATOM      8  C   UNL     1       3.682   2.626  10.712  1.00  0.00     0.110 A 
ATOM      9  C   UNL     1       2.286   2.759  10.805  1.00  0.00     0.156 A 
ENDROOT
BRANCH   6  10
ATOM     10  C   UNL     1       1.930   4.087  14.295  1.00  0.00     0.335 C 
ATOM     11  O   UNL     1       0.724   4.201  14.384  1.00  0.00    -0.246 OA
BRANCH  10  12
ATOM     12  O   UNL     1       2.717   4.423  15.336  1.00  0.00    -0.478 OA
ATOM     13  H   UNL     1       3.250   5.224  15.243  1.00  0.00     0.297 HD
ENDBRANCH  10  12
ENDBRANCH   6  10
BRANCH   7  14
ATOM     14  C   UNL     1       2.693   1.468   7.456  1.00  0.00     0.040 A 
ATOM     15  C   UNL     1       1.599   1.829   6.669  1.00  0.00     0.034 A 
ATOM     16  C   UNL     1       3.672   0.621   6.933  1.00  0.00     0.034 A 
ATOM     17  C   UNL     1       1.490   1.348   5.379  1.00  0.00     0.043 A 
ATOM     18  C   UNL     1       3.553   0.147   5.642  1.00  0.00     0.043 A 
ATOM     19  C   UNL     1       2.465   0.508   4.867  1.00  0.00     0.041 A 
ATOM     20  Cl  UNL     1       0.130   1.797   4.398  1.00  0.00    -0.084 Cl
ATOM     21  Cl  UNL     1       4.769  -0.907   4.991  1.00  0.00    -0.084 Cl
ENDBRANCH   7  14
TORSDOF 3
ENDMDL
MODEL 5
REMARK VINA RESULT:    -3.620     10.895     11.612
REMARK INTER + INTRA:          -4.445
REMARK INTER:                  -4.152
REMARK INTRA:                  -0.294
REMARK UNBOUND:                -0.296
REMARK SMILES O=C(O)c1ccc2nc(-c3cc(Cl)cc(Cl)c3)oc2c1
REMARK SMILES IDX 5 1 6 2 20 3 8 4 18 5 4 6 9 7 7 8 19 9 2 10 1 11 3 12 10 14
REMARK SMILES IDX 11 15 17 16 12 17 15 18 14 19 13 20 16 21
REMARK H PARENT 3 13
ROOT
ATOM      1  C   UNL     1      -2.107  -2.479   1.372  1.00  0.00     0.018 A 
ATOM      2  C   UNL     1      -1.643  -1.232   1.077  1.00  0.00     0.033 A 
ATOM      3  C   UNL     1      -0.024  -3.461   0.613  1.00  0.00     0.065 A 
ATOM      4  N   UNL     1       0.358   0.007   0.158  1.00  0.00    -0.209 NA
ATOM      5  O   UNL     1       1.611  -1.735  -0.206  1.00  0.00    -0.436 OA
ATOM      6  C   UNL     1      -1.306  -3.607   1.146  1.00  0.00     0.063 A 
ATOM      7  C   UNL     1       1.525  -0.393  -0.283  1.00  0.00     0.227 A 
ATOM      8  C   UNL     1      -0.359  -1.071   0.542  1.00  0.00     0.110 A 
ATOM      9  C   UNL     1       0.449  -2.198   0.307  1.00  0.00     0.156 A 
ENDROOT
BRANCH   6  10
ATOM     10  C   UNL     1      -1.817  -4.950   1.475  1.00  0.00     0.335 C 
ATOM     11  O   UNL     1      -2.970  -5.239   1.225  1.00  0.00    -0.246 OA
BRANCH  10  12
ATOM     12  O   UNL     1      -1.006  -5.857   2.054  1.00  0.00    -0.478 OA
ATOM     13  H   UNL     1      -0.904  -6.706   1.604  1.00  0.00     0.297 HD
ENDBRANCH  10  12
ENDBRANCH   6  10
BRANCH   7  14
ATOM     14  C   UNL     1       2.589   0.497  -0.792  1.00  0.00     0.040 A 
ATOM     15  C   UNL     1       2.329   1.852  -0.999  1.00  0.00     0.034 A 
ATOM     16  C   UNL     1       3.858  -0.015  -1.067  1.00  0.00     0.034 A 
ATOM     17  C   UNL     1       3.328   2.679  -1.474  1.00  0.00     0.043 A 
ATOM     18  C   UNL     1       4.849   0.821  -1.542  1.00  0.00     0.043 A 
ATOM     19  C   UNL     1       4.585   2.165  -1.745  1.00  0.00     0.041 A 
ATOM     20  Cl  UNL     1       3.008   4.365  -1.732  1.00  0.00    -0.084 Cl
ATOM     21  Cl  UNL     1       6.428   0.187  -1.885  1.00  0.00    -0.084 Cl
ENDBRANCH   7  14
TORSDOF 3
ENDMDL
MODEL 6
REMARK VINA RESULT:    -3.613      3.518      5.291
REMARK INTER + INTRA:          -4.437
REMARK INTER:                  -4.153
REMARK INTRA:                  -0.284
REMARK UNBOUND:                -0.296
REMARK SMILES O=C(O)c1ccc2nc(-c3cc(Cl)cc(Cl)c3)oc2c1
REMARK SMILES IDX 5 1 6 2 20 3 8 4 18 5 4 6 9 7 7 8 19 9 2 10 1 11 3 12 10 14
REMARK SMILES IDX 11 15 17 16 12 17 15 18 14 19 13 20 16 21
REMARK H PARENT 3 13
ROOT
ATOM      1  C   UNL     1      -0.256   3.938  17.042  1.00  0.00     0.018 A 
ATOM      2  C   UNL     1       0.846   4.287  16.320  1.00  0.00     0.033 A 
ATOM      3  C   UNL     1      -0.946   2.406  15.293  1.00  0.00     0.065 A 
ATOM      4  N   UNL     1       2.052   3.845  14.144  1.00  0.00    -0.209 NA
ATOM      5  O   UNL     1       0.649   2.384  13.349  1.00  0.00    -0.436 OA
ATOM      6  C   UNL     1      -1.163   2.994  16.540  1.00  0.00     0.063 A 
ATOM      7  C   UNL     1       1.793   3.059  13.129  1.00  0.00     0.227 A 
ATOM      8  C   UNL     1       1.076   3.705  15.067  1.00  0.00     0.110 A 
ATOM      9  C   UNL     1       0.169   2.761  14.555  1.00  0.00     0.156 A 
ENDROOT
BRANCH   6  10
ATOM     10  C   UNL     1      -2.349   2.620  17.333  1.00  0.00     0.335 C 
ATOM     11  O   UNL     1      -2.268   1.741  18.167  1.00  0.00    -0.246 OA
BRANCH  10  12
ATOM     12  O   UNL     1      -3.522   3.252  17.131  1.00  0.00    -0.478 OA
ATOM     13  H   UNL     1      -3.525   4.213  17.230  1.00  0.00     0.297 HD
ENDBRANCH  10  12
ENDBRANCH   6  10
BRANCH   7  14
ATOM     14  C   UNL     1       2.632   2.933  11.920  1.00  0.00     0.040 A 
ATOM     15  C   UNL     1       4.020   3.048  12.014  1.00  0.00     0.034 A 
ATOM     16  C   UNL     1       2.040   2.699  10.677  1.00  0.00     0.034 A 
ATOM     17  C   UNL     1       4.799   2.929  10.880  1.00  0.00     0.043 A 
ATOM     18  C   UNL     1       2.830   2.581   9.551  1.00  0.00     0.043 A 
ATOM     19  C   UNL     1       4.205   2.697   9.651  1.00  0.00     0.041 A 
ATOM     20  Cl  UNL     1       6.525   3.071  10.996  1.00  0.00    -0.084 Cl
ATOM     21  Cl  UNL     1       2.095   2.290   8.004  1.00  0.00    -0.084 Cl
ENDBRANCH   7  14
TORSDOF 3
ENDMDL
MODEL 7
REMARK VINA RESULT:    -3.612      3.925      7.839
REMARK INTER + INTRA:          -4.436
REMARK INTER:                  -4.138
REMARK INTRA:                  -0.298
REMARK UNBOUND:                -0.296
REMARK SMILES O=C(O)c1ccc2nc(-c3cc(Cl)cc(Cl)c3)oc2c1
REMARK SMILES IDX 5 1 6 2 20 3 8 4 18 5 4 6 9 7 7 8 19 9 2 10 1 11 3 12 10 14
REMARK SMILES IDX 11 15 17 16 12 17 15 18 14 19 13 20 16 21
REMARK H PARENT 3 13
ROOT
ATOM      1  C   UNL     1       1.326   1.146   5.146  1.00  0.00     0.018 A 
ATOM      2  C   UNL     1       0.947   1.624   6.365  1.00  0.00     0.033 A 
ATOM      3  C   UNL     1       3.633   1.026   5.884  1.00  0.00     0.065 A 
ATOM      4  N   UNL     1       1.834   2.262   8.643  1.00  0.00    -0.209 NA
ATOM      5  O   UNL     1       3.925   1.798   8.259  1.00  0.00    -0.436 OA
ATOM      6  C   UNL     1       2.670   0.840   4.891  1.00  0.00     0.063 A 
ATOM      7  C   UNL     1       3.036   2.249   9.164  1.00  0.00     0.227 A 
ATOM      8  C   UNL     1       1.903   1.815   7.371  1.00  0.00     0.110 A 
ATOM      9  C   UNL     1       3.253   1.515   7.120  1.00  0.00     0.156 A 
ENDROOT
BRANCH   6  10
ATOM     10  C   UNL     1       3.067   0.318   3.570  1.00  0.00     0.335 C 
ATOM     11  O   UNL     1       2.269   0.313   2.654  1.00  0.00    -0.246 OA
BRANCH  10  12
ATOM     12  O   UNL     1       4.314  -0.154   3.379  1.00  0.00    -0.478 OA
ATOM     13  H   UNL     1       4.873   0.322   2.750  1.00  0.00     0.297 HD
ENDBRANCH  10  12
ENDBRANCH   6  10
BRANCH   7  14
ATOM     14  C   UNL     1       3.366   2.668  10.542  1.00  0.00     0.040 A 
ATOM     15  C   UNL     1       2.349   3.009  11.434  1.00  0.00     0.034 A 
ATOM     16  C   UNL     1       4.699   2.724  10.956  1.00  0.00     0.034 A 
ATOM     17  C   UNL     1       2.665   3.399  12.720  1.00  0.00     0.043 A 
ATOM     18  C   UNL     1       5.001   3.115  12.245  1.00  0.00     0.043 A 
ATOM     19  C   UNL     1       3.988   3.453  13.125  1.00  0.00     0.041 A 
ATOM     20  Cl  UNL     1       1.401   3.824  13.832  1.00  0.00    -0.084 Cl
ATOM     21  Cl  UNL     1       6.657   3.185  12.763  1.00  0.00    -0.084 Cl
ENDBRANCH   7  14
TORSDOF 3
ENDMDL
MODEL 8
REMARK VINA RESULT:    -3.603      3.925      7.609
REMARK INTER + INTRA:          -4.426
REMARK INTER:                  -4.128
REMARK INTRA:                  -0.298
REMARK UNBOUND:                -0.296
REMARK SMILES O=C(O)c1ccc2nc(-c3cc(Cl)cc(Cl)c3)oc2c1
REMARK SMILES IDX 5 1 6 2 20 3 8 4 18 5 4 6 9 7 7 8 19 9 2 10 1 11 3 12 10 14
REMARK SMILES IDX 11 15 17 16 12 17 15 18 14 19 13 20 16 21
REMARK H PARENT 3 13
ROOT
ATOM      1  C   UNL     1       1.326   1.140   5.146  1.00  0.00     0.018 A 
ATOM      2  C   UNL     1       0.948   1.616   6.366  1.00  0.00     0.033 A 
ATOM      3  C   UNL     1       3.634   1.025   5.880  1.00  0.00     0.065 A 
ATOM      4  N   UNL     1       1.837   2.255   8.643  1.00  0.00    -0.209 NA
ATOM      5  O   UNL     1       3.928   1.797   8.254  1.00  0.00    -0.436 OA
ATOM      6  C   UNL     1       2.670   0.837   4.888  1.00  0.00     0.063 A 
ATOM      7  C   UNL     1       3.040   2.245   9.161  1.00  0.00     0.227 A 
ATOM      8  C   UNL     1       1.905   1.809   7.370  1.00  0.00     0.110 A 
ATOM      9  C   UNL     1       3.256   1.513   7.117  1.00  0.00     0.156 A 
ENDROOT
BRANCH   6  10
ATOM     10  C   UNL     1       3.066   0.317   3.567  1.00  0.00     0.335 C 
ATOM     11  O   UNL     1       2.268   0.313   2.651  1.00  0.00    -0.246 OA
BRANCH  10  12
ATOM     12  O   UNL     1       4.314  -0.155   3.374  1.00  0.00    -0.478 OA
ATOM     13  H   UNL     1       4.470  -0.668   2.570  1.00  0.00     0.297 HD
ENDBRANCH  10  12
ENDBRANCH   6  10
BRANCH   7  14
ATOM     14  C   UNL     1       3.371   2.664  10.539  1.00  0.00     0.040 A 
ATOM     15  C   UNL     1       4.703   2.719  10.954  1.00  0.00     0.034 A 
ATOM     16  C   UNL     1       2.353   3.005  11.431  1.00  0.00     0.034 A 
ATOM     17  C   UNL     1       5.006   3.113  12.242  1.00  0.00     0.043 A 
ATOM     18  C   UNL     1       2.669   3.397  12.717  1.00  0.00     0.043 A 
ATOM     19  C   UNL     1       3.992   3.450  13.122  1.00  0.00     0.041 A 
ATOM     20  Cl  UNL     1       6.661   3.183  12.760  1.00  0.00    -0.084 Cl
ATOM     21  Cl  UNL     1       1.404   3.822  13.828  1.00  0.00    -0.084 Cl
ENDBRANCH   7  14
TORSDOF 3
ENDMDL
MODEL 9
REMARK VINA RESULT:    -3.550     10.976     11.427
REMARK INTER + INTRA:          -4.365
REMARK INTER:                  -4.074
REMARK INTRA:                  -0.291
REMARK UNBOUND:                -0.296
REMARK SMILES O=C(O)c1ccc2nc(-c3cc(Cl)cc(Cl)c3)oc2c1
REMARK SMILES IDX 5 1 6 2 20 3 8 4 18 5 4 6 9 7 7 8 19 9 2 10 1 11 3 12 10 14
REMARK SMILES IDX 11 15 17 16 12 17 15 18 14 19 13 20 16 21
REMARK H PARENT 3 13
ROOT
ATOM      1  C   UNL     1      -0.987  -4.096   0.841  1.00  0.00     0.018 A 
ATOM      2  C   UNL     1       0.257  -3.812   0.361  1.00  0.00     0.033 A 
ATOM      3  C   UNL     1      -1.556  -1.739   0.830  1.00  0.00     0.065 A 
ATOM      4  N   UNL     1       1.751  -1.906  -0.357  1.00  0.00    -0.209 NA
ATOM      5  O   UNL     1       0.336  -0.297   0.016  1.00  0.00    -0.436 OA
ATOM      6  C   UNL     1      -1.908  -3.067   1.079  1.00  0.00     0.063 A 
ATOM      7  C   UNL     1       1.574  -0.609  -0.409  1.00  0.00     0.227 A 
ATOM      8  C   UNL     1       0.623  -2.485   0.107  1.00  0.00     0.110 A 
ATOM      9  C   UNL     1      -0.293  -1.446   0.349  1.00  0.00     0.156 A 
ENDROOT
BRANCH   6  10
ATOM     10  C   UNL     1      -3.252  -3.387   1.592  1.00  0.00     0.335 C 
ATOM     11  O   UNL     1      -3.375  -4.056   2.599  1.00  0.00    -0.246 OA
BRANCH  10  12
ATOM     12  O   UNL     1      -4.346  -2.939   0.944  1.00  0.00    -0.478 OA
ATOM     13  H   UNL     1      -5.206  -3.201   1.300  1.00  0.00     0.297 HD
ENDBRANCH  10  12
ENDBRANCH   6  10
BRANCH   7  14
ATOM     14  C   UNL     1       2.586   0.366  -0.866  1.00  0.00     0.040 A 
ATOM     15  C   UNL     1       3.893  -0.049  -1.126  1.00  0.00     0.034 A 
ATOM     16  C   UNL     1       2.237   1.707  -1.039  1.00  0.00     0.034 A 
ATOM     17  C   UNL     1       4.833   0.868  -1.553  1.00  0.00     0.043 A 
ATOM     18  C   UNL     1       3.186   2.614  -1.467  1.00  0.00     0.043 A 
ATOM     19  C   UNL     1       4.481   2.196  -1.723  1.00  0.00     0.041 A 
ATOM     20  Cl  UNL     1       6.459   0.354  -1.878  1.00  0.00    -0.084 Cl
ATOM     21  Cl  UNL     1       2.755   4.282  -1.683  1.00  0.00    -0.084 Cl
ENDBRANCH   7  14
TORSDOF 3
ENDMDL
