MODEL 1
REMARK VINA RESULT:    -5.486      0.000      0.000
REMARK INTER + INTRA:          -8.095
REMARK INTER:                  -7.570
REMARK INTRA:                  -0.525
REMARK UNBOUND:                -0.525
REMARK SMILES Cc1n[nH]c(C)c1CCCOc1cc(C(=O)O)ccc1F
REMARK SMILES IDX 11 1 12 2 14 3 18 4 13 5 19 6 20 7 21 8 15 9 16 10 17 11
REMARK SMILES IDX 10 13 9 14 8 15 7 16 5 17 2 18 4 19 3 20 6 21 1 22
REMARK H PARENT 17 12 4 23
ROOT
ATOM      1  O   UNL     1       2.568  -0.543   8.265  1.00  0.00    -0.490 OA
ENDROOT
BRANCH   1   2
ATOM      2  C   UNL     1       2.463   0.055   7.048  1.00  0.00     0.155 A 
ATOM      3  C   UNL     1       1.395   1.636   5.585  1.00  0.00     0.063 A 
ATOM      4  C   UNL     1       2.271   1.273   4.559  1.00  0.00     0.019 A 
ATOM      5  C   UNL     1       1.496   1.020   6.834  1.00  0.00     0.065 A 
ATOM      6  C   UNL     1       3.236   0.313   4.784  1.00  0.00     0.044 A 
ATOM      7  C   UNL     1       3.338  -0.293   6.025  1.00  0.00     0.165 A 
ATOM      8  F   UNL     1       4.285  -1.232   6.239  1.00  0.00    -0.203 F 
BRANCH   3   9
ATOM      9  C   UNL     1       0.362   2.663   5.348  1.00  0.00     0.335 C 
ATOM     10  O   UNL     1      -0.622   2.711   6.057  1.00  0.00    -0.246 OA
BRANCH   9  11
ATOM     11  O   UNL     1       0.514   3.552   4.346  1.00  0.00    -0.478 OA
ATOM     12  H   UNL     1       1.113   4.295   4.505  1.00  0.00     0.297 HD
ENDBRANCH   9  11
ENDBRANCH   3   9
ENDBRANCH   1   2
BRANCH   1  13
ATOM     13  C   UNL     1       3.757  -0.284   9.015  1.00  0.00     0.230 C 
BRANCH  13  14
ATOM     14  C   UNL     1       3.399   0.488  10.286  1.00  0.00     0.046 C 
BRANCH  14  15
ATOM     15  C   UNL     1       3.606   1.985  10.049  1.00  0.00     0.043 C 
BRANCH  15  16
ATOM     16  C   UNL     1       3.840   2.675  11.368  1.00  0.00    -0.004 A 
ATOM     17  C   UNL     1       2.883   3.118  12.216  1.00  0.00     0.036 A 
ATOM     18  C   UNL     1       5.085   2.966  11.936  1.00  0.00     0.063 A 
ATOM     19  N   UNL     1       3.500   3.675  13.279  1.00  0.00    -0.282 N 
ATOM     20  N   UNL     1       4.883   3.571  13.078  1.00  0.00    -0.181 NA
ATOM     21  C   UNL     1       1.394   3.008  12.010  1.00  0.00     0.066 C 
ATOM     22  C   UNL     1       6.429   2.648  11.330  1.00  0.00     0.069 C 
ATOM     23  H   UNL     1       3.064   4.077  14.046  1.00  0.00     0.190 HD
ENDBRANCH  15  16
ENDBRANCH  14  15
ENDBRANCH  13  14
ENDBRANCH   1  13
TORSDOF 7
ENDMDL
MODEL 2
REMARK VINA RESULT:    -5.447      2.298      3.930
REMARK INTER + INTRA:          -8.041
REMARK INTER:                  -7.511
REMARK INTRA:                  -0.530
REMARK UNBOUND:                -0.525
REMARK SMILES Cc1n[nH]c(C)c1CCCOc1cc(C(=O)O)ccc1F
REMARK SMILES IDX 11 1 12 2 14 3 18 4 13 5 19 6 20 7 21 8 15 9 16 10 17 11
REMARK SMILES IDX 10 13 9 14 8 15 7 16 5 17 2 18 4 19 3 20 6 21 1 22
REMARK H PARENT 17 12 4 23
ROOT
ATOM      1  O   UNL     1       3.116   3.918   6.734  1.00  0.00    -0.490 OA
ENDROOT
BRANCH   1   2
ATOM      2  C   UNL     1       2.852   2.729   6.131  1.00  0.00     0.155 A 
ATOM      3  C   UNL     1       3.514   0.492   5.546  1.00  0.00     0.063 A 
ATOM      4  C   UNL     1       2.289   0.302   4.901  1.00  0.00     0.019 A 
ATOM      5  C   UNL     1       3.791   1.714   6.163  1.00  0.00     0.065 A 
ATOM      6  C   UNL     1       1.357   1.318   4.880  1.00  0.00     0.044 A 
ATOM      7  C   UNL     1       1.632   2.528   5.496  1.00  0.00     0.165 A 
ATOM      8  F   UNL     1       0.714   3.519   5.472  1.00  0.00    -0.203 F 
BRANCH   3   9
ATOM      9  C   UNL     1       4.514  -0.593   5.572  1.00  0.00     0.335 C 
ATOM     10  O   UNL     1       5.676  -0.343   5.818  1.00  0.00    -0.246 OA
BRANCH   9  11
ATOM     11  O   UNL     1       4.135  -1.863   5.327  1.00  0.00    -0.478 OA
ATOM     12  H   UNL     1       4.362  -2.230   4.461  1.00  0.00     0.297 HD
ENDBRANCH   9  11
ENDBRANCH   3   9
ENDBRANCH   1   2
BRANCH   1  13
ATOM     13  C   UNL     1       2.323   4.257   7.874  1.00  0.00     0.230 C 
BRANCH  13  14
ATOM     14  C   UNL     1       3.202   4.256   9.126  1.00  0.00     0.046 C 
BRANCH  14  15
ATOM     15  C   UNL     1       3.037   2.925   9.864  1.00  0.00     0.043 C 
BRANCH  15  16
ATOM     16  C   UNL     1       3.347   3.119  11.325  1.00  0.00    -0.004 A 
ATOM     17  C   UNL     1       4.577   3.092  11.889  1.00  0.00     0.036 A 
ATOM     18  C   UNL     1       2.415   3.365  12.339  1.00  0.00     0.063 A 
ATOM     19  N   UNL     1       4.428   3.306  13.213  1.00  0.00    -0.282 N 
ATOM     20  N   UNL     1       3.061   3.470  13.472  1.00  0.00    -0.181 NA
ATOM     21  C   UNL     1       5.879   2.863  11.167  1.00  0.00     0.066 C 
ATOM     22  C   UNL     1       0.922   3.476  12.159  1.00  0.00     0.069 C 
ATOM     23  H   UNL     1       5.141   3.339  13.869  1.00  0.00     0.190 HD
ENDBRANCH  15  16
ENDBRANCH  14  15
ENDBRANCH  13  14
ENDBRANCH   1  13
TORSDOF 7
ENDMDL
MODEL 3
REMARK VINA RESULT:    -5.359      0.157      1.773
REMARK INTER + INTRA:          -7.920
REMARK INTER:                  -7.373
REMARK INTRA:                  -0.547
REMARK UNBOUND:                -0.525
REMARK SMILES Cc1n[nH]c(C)c1CCCOc1cc(C(=O)O)ccc1F
REMARK SMILES IDX 11 1 12 2 14 3 18 4 13 5 19 6 20 7 21 8 15 9 16 10 17 11
REMARK SMILES IDX 10 13 9 14 8 15 7 16 5 17 2 18 4 19 3 20 6 21 1 22
REMARK H PARENT 17 12 4 23
ROOT
ATOM      1  O   UNL     1       2.578  -0.538   8.262  1.00  0.00    -0.490 OA
ENDROOT
BRANCH   1   2
ATOM      2  C   UNL     1       2.474   0.059   7.045  1.00  0.00     0.155 A 
ATOM      3  C   UNL     1       1.410   1.641   5.580  1.00  0.00     0.063 A 
ATOM      4  C   UNL     1       2.286   1.274   4.554  1.00  0.00     0.019 A 
ATOM      5  C   UNL     1       1.510   1.026   6.829  1.00  0.00     0.065 A 
ATOM      6  C   UNL     1       3.249   0.313   4.781  1.00  0.00     0.044 A 
ATOM      7  C   UNL     1       3.349  -0.291   6.023  1.00  0.00     0.165 A 
ATOM      8  F   UNL     1       4.295  -1.232   6.239  1.00  0.00    -0.203 F 
BRANCH   3   9
ATOM      9  C   UNL     1       0.379   2.669   5.340  1.00  0.00     0.335 C 
ATOM     10  O   UNL     1      -0.592   2.737   6.066  1.00  0.00    -0.246 OA
BRANCH   9  11
ATOM     11  O   UNL     1       0.519   3.538   4.320  1.00  0.00    -0.478 OA
ATOM     12  H   UNL     1       0.329   3.206   3.431  1.00  0.00     0.297 HD
ENDBRANCH   9  11
ENDBRANCH   3   9
ENDBRANCH   1   2
BRANCH   1  13
ATOM     13  C   UNL     1       3.741  -0.235   9.037  1.00  0.00     0.230 C 
BRANCH  13  14
ATOM     14  C   UNL     1       3.335   0.583  10.265  1.00  0.00     0.046 C 
BRANCH  14  15
ATOM     15  C   UNL     1       3.710   2.050  10.047  1.00  0.00     0.043 C 
BRANCH  15  16
ATOM     16  C   UNL     1       4.043   2.686  11.372  1.00  0.00    -0.004 A 
ATOM     17  C   UNL     1       5.287   2.917  11.854  1.00  0.00     0.036 A 
ATOM     18  C   UNL     1       3.123   3.149  12.318  1.00  0.00     0.063 A 
ATOM     19  N   UNL     1       5.158   3.498  13.065  1.00  0.00    -0.282 N 
ATOM     20  N   UNL     1       3.789   3.629  13.336  1.00  0.00    -0.181 NA
ATOM     21  C   UNL     1       6.583   2.584  11.162  1.00  0.00     0.066 C 
ATOM     22  C   UNL     1       1.622   3.092  12.192  1.00  0.00     0.069 C 
ATOM     23  H   UNL     1       5.884   3.775  13.645  1.00  0.00     0.190 HD
ENDBRANCH  15  16
ENDBRANCH  14  15
ENDBRANCH  13  14
ENDBRANCH   1  13
TORSDOF 7
ENDMDL
MODEL 4
REMARK VINA RESULT:    -5.336      2.300      3.502
REMARK INTER + INTRA:          -7.888
REMARK INTER:                  -7.331
REMARK INTRA:                  -0.557
REMARK UNBOUND:                -0.525
REMARK SMILES Cc1n[nH]c(C)c1CCCOc1cc(C(=O)O)ccc1F
REMARK SMILES IDX 11 1 12 2 14 3 18 4 13 5 19 6 20 7 21 8 15 9 16 10 17 11
REMARK SMILES IDX 10 13 9 14 8 15 7 16 5 17 2 18 4 19 3 20 6 21 1 22
REMARK H PARENT 17 12 4 23
ROOT
ATOM      1  O   UNL     1       3.108   3.896   6.766  1.00  0.00    -0.490 OA
ENDROOT
BRANCH   1   2
ATOM      2  C   UNL     1       2.845   2.714   6.148  1.00  0.00     0.155 A 
ATOM      3  C   UNL     1       3.501   0.480   5.548  1.00  0.00     0.063 A 
ATOM      4  C   UNL     1       2.283   0.303   4.887  1.00  0.00     0.019 A 
ATOM      5  C   UNL     1       3.777   1.694   6.180  1.00  0.00     0.065 A 
ATOM      6  C   UNL     1       1.356   1.325   4.865  1.00  0.00     0.044 A 
ATOM      7  C   UNL     1       1.630   2.526   5.497  1.00  0.00     0.165 A 
ATOM      8  F   UNL     1       0.718   3.523   5.472  1.00  0.00    -0.203 F 
BRANCH   3   9
ATOM      9  C   UNL     1       4.495  -0.611   5.573  1.00  0.00     0.335 C 
ATOM     10  O   UNL     1       5.664  -0.364   5.790  1.00  0.00    -0.246 OA
BRANCH   9  11
ATOM     11  O   UNL     1       4.104  -1.883   5.363  1.00  0.00    -0.478 OA
ATOM     12  H   UNL     1       3.881  -2.410   6.143  1.00  0.00     0.297 HD
ENDBRANCH   9  11
ENDBRANCH   3   9
ENDBRANCH   1   2
BRANCH   1  13
ATOM     13  C   UNL     1       2.355   4.194   7.944  1.00  0.00     0.230 C 
BRANCH  13  14
ATOM     14  C   UNL     1       3.278   4.151   9.163  1.00  0.00     0.046 C 
BRANCH  14  15
ATOM     15  C   UNL     1       3.021   2.865   9.953  1.00  0.00     0.043 C 
BRANCH  15  16
ATOM     16  C   UNL     1       3.234   3.125  11.421  1.00  0.00    -0.004 A 
ATOM     17  C   UNL     1       2.264   3.342  12.340  1.00  0.00     0.036 A 
ATOM     18  C   UNL     1       4.468   3.179  12.078  1.00  0.00     0.063 A 
ATOM     19  N   UNL     1       2.864   3.533  13.534  1.00  0.00    -0.282 N 
ATOM     20  N   UNL     1       4.248   3.430  13.342  1.00  0.00    -0.181 NA
ATOM     21  C   UNL     1       0.781   3.366  12.077  1.00  0.00     0.066 C 
ATOM     22  C   UNL     1       5.819   2.992  11.436  1.00  0.00     0.069 C 
ATOM     23  H   UNL     1       2.416   3.711  14.375  1.00  0.00     0.190 HD
ENDBRANCH  15  16
ENDBRANCH  14  15
ENDBRANCH  13  14
ENDBRANCH   1  13
TORSDOF 7
ENDMDL
MODEL 5
REMARK VINA RESULT:    -4.452      3.918      6.980
REMARK INTER + INTRA:          -6.669
REMARK INTER:                  -5.869
REMARK INTRA:                  -0.800
REMARK UNBOUND:                -0.525
REMARK SMILES Cc1n[nH]c(C)c1CCCOc1cc(C(=O)O)ccc1F
REMARK SMILES IDX 11 1 12 2 14 3 18 4 13 5 19 6 20 7 21 8 15 9 16 10 17 11
REMARK SMILES IDX 10 13 9 14 8 15 7 16 5 17 2 18 4 19 3 20 6 21 1 22
REMARK H PARENT 17 12 4 23
ROOT
ATOM      1  O   UNL     1       2.155   2.471   9.037  1.00  0.00    -0.490 OA
ENDROOT
BRANCH   1   2
ATOM      2  C   UNL     1       2.824   2.720  10.194  1.00  0.00     0.155 A 
ATOM      3  C   UNL     1       4.890   2.960  11.401  1.00  0.00     0.063 A 
ATOM      4  C   UNL     1       4.172   3.241  12.567  1.00  0.00     0.019 A 
ATOM      5  C   UNL     1       4.206   2.699  10.212  1.00  0.00     0.065 A 
ATOM      6  C   UNL     1       2.793   3.266  12.538  1.00  0.00     0.044 A 
ATOM      7  C   UNL     1       2.117   3.012  11.356  1.00  0.00     0.165 A 
ATOM      8  F   UNL     1       0.767   3.038  11.334  1.00  0.00    -0.203 F 
BRANCH   3   9
ATOM      9  C   UNL     1       6.365   2.933  11.429  1.00  0.00     0.335 C 
ATOM     10  O   UNL     1       6.949   1.899  11.681  1.00  0.00    -0.246 OA
BRANCH   9  11
ATOM     11  O   UNL     1       7.064   4.055  11.167  1.00  0.00    -0.478 OA
ATOM     12  H   UNL     1       7.126   4.328  10.241  1.00  0.00     0.297 HD
ENDBRANCH   9  11
ENDBRANCH   3   9
ENDBRANCH   1   2
BRANCH   1  13
ATOM     13  C   UNL     1       2.662   3.085   7.849  1.00  0.00     0.230 C 
BRANCH  13  14
ATOM     14  C   UNL     1       1.872   2.584   6.639  1.00  0.00     0.046 C 
BRANCH  14  15
ATOM     15  C   UNL     1       1.477   1.122   6.858  1.00  0.00     0.043 C 
BRANCH  15  16
ATOM     16  C   UNL     1       2.584   0.223   6.373  1.00  0.00    -0.004 A 
ATOM     17  C   UNL     1       2.976   0.065   5.087  1.00  0.00     0.036 A 
ATOM     18  C   UNL     1       3.393  -0.591   7.172  1.00  0.00     0.063 A 
ATOM     19  N   UNL     1       3.992  -0.822   5.073  1.00  0.00    -0.282 N 
ATOM     20  N   UNL     1       4.233  -1.224   6.393  1.00  0.00    -0.181 NA
ATOM     21  C   UNL     1       2.384   0.757   3.887  1.00  0.00     0.066 C 
ATOM     22  C   UNL     1       3.304  -0.727   8.671  1.00  0.00     0.069 C 
ATOM     23  H   UNL     1       4.471  -1.129   4.287  1.00  0.00     0.190 HD
ENDBRANCH  15  16
ENDBRANCH  14  15
ENDBRANCH  13  14
ENDBRANCH   1  13
TORSDOF 7
ENDMDL
MODEL 6
REMARK VINA RESULT:    -4.412      3.764      6.476
REMARK INTER + INTRA:          -6.614
REMARK INTER:                  -5.768
REMARK INTRA:                  -0.846
REMARK UNBOUND:                -0.525
REMARK SMILES Cc1n[nH]c(C)c1CCCOc1cc(C(=O)O)ccc1F
REMARK SMILES IDX 11 1 12 2 14 3 18 4 13 5 19 6 20 7 21 8 15 9 16 10 17 11
REMARK SMILES IDX 10 13 9 14 8 15 7 16 5 17 2 18 4 19 3 20 6 21 1 22
REMARK H PARENT 17 12 4 23
ROOT
ATOM      1  O   UNL     1       4.182   1.669   8.900  1.00  0.00    -0.490 OA
ENDROOT
BRANCH   1   2
ATOM      2  C   UNL     1       3.971   2.230  10.121  1.00  0.00     0.155 A 
ATOM      3  C   UNL     1       2.470   2.958  11.852  1.00  0.00     0.063 A 
ATOM      4  C   UNL     1       3.562   3.368  12.621  1.00  0.00     0.019 A 
ATOM      5  C   UNL     1       2.683   2.386  10.596  1.00  0.00     0.065 A 
ATOM      6  C   UNL     1       4.844   3.203  12.141  1.00  0.00     0.044 A 
ATOM      7  C   UNL     1       5.053   2.631  10.897  1.00  0.00     0.165 A 
ATOM      8  F   UNL     1       6.312   2.471  10.433  1.00  0.00    -0.203 F 
BRANCH   3   9
ATOM      9  C   UNL     1       1.096   3.134  12.363  1.00  0.00     0.335 C 
ATOM     10  O   UNL     1       0.516   4.187  12.196  1.00  0.00    -0.246 OA
BRANCH   9  11
ATOM     11  O   UNL     1       0.484   2.122  13.010  1.00  0.00    -0.478 OA
ATOM     12  H   UNL     1      -0.275   2.350  13.564  1.00  0.00     0.297 HD
ENDBRANCH   9  11
ENDBRANCH   3   9
ENDBRANCH   1   2
BRANCH   1  13
ATOM     13  C   UNL     1       3.267   0.651   8.487  1.00  0.00     0.230 C 
BRANCH  13  14
ATOM     14  C   UNL     1       3.520   0.304   7.019  1.00  0.00     0.046 C 
BRANCH  14  15
ATOM     15  C   UNL     1       3.824   1.584   6.237  1.00  0.00     0.043 C 
BRANCH  15  16
ATOM     16  C   UNL     1       2.534   2.197   5.756  1.00  0.00    -0.004 A 
ATOM     17  C   UNL     1       1.704   1.675   4.823  1.00  0.00     0.036 A 
ATOM     18  C   UNL     1       1.980   3.403   6.198  1.00  0.00     0.063 A 
ATOM     19  N   UNL     1       0.665   2.524   4.676  1.00  0.00    -0.282 N 
ATOM     20  N   UNL     1       0.864   3.603   5.547  1.00  0.00    -0.181 NA
ATOM     21  C   UNL     1       1.904   0.378   4.083  1.00  0.00     0.066 C 
ATOM     22  C   UNL     1       2.574   4.320   7.237  1.00  0.00     0.069 C 
ATOM     23  H   UNL     1      -0.086   2.408   4.073  1.00  0.00     0.190 HD
ENDBRANCH  15  16
ENDBRANCH  14  15
ENDBRANCH  13  14
ENDBRANCH   1  13
TORSDOF 7
ENDMDL
MODEL 7
REMARK VINA RESULT:    -4.395      4.981      7.947
REMARK INTER + INTRA:          -6.589
REMARK INTER:                  -5.923
REMARK INTRA:                  -0.666
REMARK UNBOUND:                -0.525
REMARK SMILES Cc1n[nH]c(C)c1CCCOc1cc(C(=O)O)ccc1F
REMARK SMILES IDX 11 1 12 2 14 3 18 4 13 5 19 6 20 7 21 8 15 9 16 10 17 11
REMARK SMILES IDX 10 13 9 14 8 15 7 16 5 17 2 18 4 19 3 20 6 21 1 22
REMARK H PARENT 17 12 4 23
ROOT
ATOM      1  O   UNL     1       1.962   3.431  11.723  1.00  0.00    -0.490 OA
ENDROOT
BRANCH   1   2
ATOM      2  C   UNL     1       1.492   3.508  12.997  1.00  0.00     0.155 A 
ATOM      3  C   UNL     1       1.650   4.379  15.232  1.00  0.00     0.063 A 
ATOM      4  C   UNL     1       0.509   3.657  15.591  1.00  0.00     0.019 A 
ATOM      5  C   UNL     1       2.139   4.299  13.927  1.00  0.00     0.065 A 
ATOM      6  C   UNL     1      -0.134   2.875  14.655  1.00  0.00     0.044 A 
ATOM      7  C   UNL     1       0.350   2.801  13.359  1.00  0.00     0.165 A 
ATOM      8  F   UNL     1      -0.285   2.033  12.446  1.00  0.00    -0.203 F 
BRANCH   3   9
ATOM      9  C   UNL     1       2.341   5.218  16.232  1.00  0.00     0.335 C 
ATOM     10  O   UNL     1       2.007   5.171  17.398  1.00  0.00    -0.246 OA
BRANCH   9  11
ATOM     11  O   UNL     1       3.346   6.030  15.850  1.00  0.00    -0.478 OA
ATOM     12  H   UNL     1       4.178   5.609  15.595  1.00  0.00     0.297 HD
ENDBRANCH   9  11
ENDBRANCH   3   9
ENDBRANCH   1   2
BRANCH   1  13
ATOM     13  C   UNL     1       3.226   2.791  11.536  1.00  0.00     0.230 C 
BRANCH  13  14
ATOM     14  C   UNL     1       3.575   2.778  10.047  1.00  0.00     0.046 C 
BRANCH  14  15
ATOM     15  C   UNL     1       2.389   2.228   9.250  1.00  0.00     0.043 C 
BRANCH  15  16
ATOM     16  C   UNL     1       2.849   1.835   7.871  1.00  0.00    -0.004 A 
ATOM     17  C   UNL     1       3.192   0.588   7.470  1.00  0.00     0.036 A 
ATOM     18  C   UNL     1       2.992   2.692   6.775  1.00  0.00     0.063 A 
ATOM     19  N   UNL     1       3.545   0.656   6.169  1.00  0.00    -0.282 N 
ATOM     20  N   UNL     1       3.415   1.988   5.757  1.00  0.00    -0.181 NA
ATOM     21  C   UNL     1       3.181  -0.653   8.324  1.00  0.00     0.066 C 
ATOM     22  C   UNL     1       2.717   4.175   6.771  1.00  0.00     0.069 C 
ATOM     23  H   UNL     1       3.837  -0.086   5.618  1.00  0.00     0.190 HD
ENDBRANCH  15  16
ENDBRANCH  14  15
ENDBRANCH  13  14
ENDBRANCH   1  13
TORSDOF 7
ENDMDL
MODEL 8
REMARK VINA RESULT:    -4.359      4.707      8.066
REMARK INTER + INTRA:          -6.541
REMARK INTER:                  -5.847
REMARK INTRA:                  -0.693
REMARK UNBOUND:                -0.525
REMARK SMILES Cc1n[nH]c(C)c1CCCOc1cc(C(=O)O)ccc1F
REMARK SMILES IDX 11 1 12 2 14 3 18 4 13 5 19 6 20 7 21 8 15 9 16 10 17 11
REMARK SMILES IDX 10 13 9 14 8 15 7 16 5 17 2 18 4 19 3 20 6 21 1 22
REMARK H PARENT 17 12 4 23
ROOT
ATOM      1  O   UNL     1       5.234   2.474  11.296  1.00  0.00    -0.490 OA
ENDROOT
BRANCH   1   2
ATOM      2  C   UNL     1       6.158   3.053  12.108  1.00  0.00     0.155 A 
ATOM      3  C   UNL     1       6.936   3.622  14.311  1.00  0.00     0.063 A 
ATOM      4  C   UNL     1       8.062   4.233  13.752  1.00  0.00     0.019 A 
ATOM      5  C   UNL     1       5.983   3.031  13.479  1.00  0.00     0.065 A 
ATOM      6  C   UNL     1       8.230   4.245  12.383  1.00  0.00     0.044 A 
ATOM      7  C   UNL     1       7.286   3.654  11.561  1.00  0.00     0.165 A 
ATOM      8  F   UNL     1       7.457   3.669  10.220  1.00  0.00    -0.203 F 
BRANCH   3   9
ATOM      9  C   UNL     1       6.753   3.606  15.776  1.00  0.00     0.335 C 
ATOM     10  O   UNL     1       7.326   4.422  16.468  1.00  0.00    -0.246 OA
BRANCH   9  11
ATOM     11  O   UNL     1       5.944   2.690  16.343  1.00  0.00    -0.478 OA
ATOM     12  H   UNL     1       6.143   1.760  16.169  1.00  0.00     0.297 HD
ENDBRANCH   9  11
ENDBRANCH   3   9
ENDBRANCH   1   2
BRANCH   1  13
ATOM     13  C   UNL     1       3.912   3.016  11.328  1.00  0.00     0.230 C 
BRANCH  13  14
ATOM     14  C   UNL     1       3.061   2.346  10.247  1.00  0.00     0.046 C 
BRANCH  14  15
ATOM     15  C   UNL     1       3.891   2.183   8.972  1.00  0.00     0.043 C 
BRANCH  15  16
ATOM     16  C   UNL     1       2.997   1.743   7.843  1.00  0.00    -0.004 A 
ATOM     17  C   UNL     1       2.421   2.550   6.922  1.00  0.00     0.036 A 
ATOM     18  C   UNL     1       2.620   0.427   7.556  1.00  0.00     0.063 A 
ATOM     19  N   UNL     1       1.700   1.773   6.086  1.00  0.00    -0.282 N 
ATOM     20  N   UNL     1       1.837   0.444   6.508  1.00  0.00    -0.181 NA
ATOM     21  C   UNL     1       2.560   4.048   6.843  1.00  0.00     0.066 C 
ATOM     22  C   UNL     1       3.034  -0.800   8.329  1.00  0.00     0.069 C 
ATOM     23  H   UNL     1       1.178   2.081   5.329  1.00  0.00     0.190 HD
ENDBRANCH  15  16
ENDBRANCH  14  15
ENDBRANCH  13  14
ENDBRANCH   1  13
TORSDOF 7
ENDMDL
MODEL 9
REMARK VINA RESULT:    -4.077      3.851      6.721
REMARK INTER + INTRA:          -6.151
REMARK INTER:                  -5.491
REMARK INTRA:                  -0.660
REMARK UNBOUND:                -0.525
REMARK SMILES Cc1n[nH]c(C)c1CCCOc1cc(C(=O)O)ccc1F
REMARK SMILES IDX 11 1 12 2 14 3 18 4 13 5 19 6 20 7 21 8 15 9 16 10 17 11
REMARK SMILES IDX 10 13 9 14 8 15 7 16 5 17 2 18 4 19 3 20 6 21 1 22
REMARK H PARENT 17 12 4 23
ROOT
ATOM      1  O   UNL     1       2.168   2.287   8.797  1.00  0.00    -0.490 OA
ENDROOT
BRANCH   1   2
ATOM      2  C   UNL     1       2.754   2.597   9.984  1.00  0.00     0.155 A 
ATOM      3  C   UNL     1       2.578   3.254  12.291  1.00  0.00     0.063 A 
ATOM      4  C   UNL     1       3.970   3.216  12.404  1.00  0.00     0.019 A 
ATOM      5  C   UNL     1       1.973   2.942  11.071  1.00  0.00     0.065 A 
ATOM      6  C   UNL     1       4.741   2.864  11.316  1.00  0.00     0.044 A 
ATOM      7  C   UNL     1       4.138   2.550  10.109  1.00  0.00     0.165 A 
ATOM      8  F   UNL     1       4.899   2.206   9.047  1.00  0.00    -0.203 F 
BRANCH   3   9
ATOM      9  C   UNL     1       1.750   3.630  13.453  1.00  0.00     0.335 C 
ATOM     10  O   UNL     1       0.541   3.541  13.393  1.00  0.00    -0.246 OA
BRANCH   9  11
ATOM     11  O   UNL     1       2.337   4.066  14.585  1.00  0.00    -0.478 OA
ATOM     12  H   UNL     1       2.726   3.395  15.165  1.00  0.00     0.297 HD
ENDBRANCH   9  11
ENDBRANCH   3   9
ENDBRANCH   1   2
BRANCH   1  13
ATOM     13  C   UNL     1       2.403   3.181   7.706  1.00  0.00     0.230 C 
BRANCH  13  14
ATOM     14  C   UNL     1       1.925   2.532   6.405  1.00  0.00     0.046 C 
BRANCH  14  15
ATOM     15  C   UNL     1       1.593   1.061   6.661  1.00  0.00     0.043 C 
BRANCH  15  16
ATOM     16  C   UNL     1       2.746   0.200   6.215  1.00  0.00    -0.004 A 
ATOM     17  C   UNL     1       3.506  -0.589   7.010  1.00  0.00     0.036 A 
ATOM     18  C   UNL     1       3.218   0.070   4.904  1.00  0.00     0.063 A 
ATOM     19  N   UNL     1       4.429  -1.192   6.232  1.00  0.00    -0.282 N 
ATOM     20  N   UNL     1       4.231  -0.758   4.914  1.00  0.00    -0.181 NA
ATOM     21  C   UNL     1       3.348  -0.764   8.498  1.00  0.00     0.066 C 
ATOM     22  C   UNL     1       2.663   0.773   3.691  1.00  0.00     0.069 C 
ATOM     23  H   UNL     1       5.110  -1.814   6.532  1.00  0.00     0.190 HD
ENDBRANCH  15  16
ENDBRANCH  14  15
ENDBRANCH  13  14
ENDBRANCH   1  13
TORSDOF 7
ENDMDL
