MODEL 1
REMARK VINA RESULT:    -5.552      0.000      0.000
REMARK INTER + INTRA:          -8.180
REMARK INTER:                  -7.661
REMARK INTRA:                  -0.519
REMARK UNBOUND:                -0.519
REMARK SMILES Cc1n[nH]c(C)c1CCCOc1cc(C(=O)O)ccc1F
REMARK SMILES IDX 11 1 12 2 14 3 18 4 13 5 19 6 20 7 21 8 15 9 16 10 17 11
REMARK SMILES IDX 10 13 9 14 8 15 7 16 5 17 2 18 4 19 3 20 6 21 1 22
REMARK H PARENT 17 12 4 23
ROOT
ATOM      1  O   UNL     1       0.900   4.010  -9.671  1.00  0.00    -0.490 OA
ENDROOT
BRANCH   1   2
ATOM      2  C   UNL     1       0.691   3.901  -8.332  1.00  0.00     0.155 A 
ATOM      3  C   UNL     1       1.337   4.402  -6.070  1.00  0.00     0.063 A 
ATOM      4  C   UNL     1       0.240   3.675  -5.600  1.00  0.00     0.019 A 
ATOM      5  C   UNL     1       1.558   4.512  -7.445  1.00  0.00     0.065 A 
ATOM      6  C   UNL     1      -0.623   3.075  -6.493  1.00  0.00     0.044 A 
ATOM      7  C   UNL     1      -0.405   3.189  -7.856  1.00  0.00     0.165 A 
ATOM      8  F   UNL     1      -1.254   2.599  -8.725  1.00  0.00    -0.203 F 
BRANCH   3   9
ATOM      9  C   UNL     1       2.262   5.046  -5.118  1.00  0.00     0.335 C 
ATOM     10  O   UNL     1       3.394   5.319  -5.460  1.00  0.00    -0.246 OA
BRANCH   9  11
ATOM     11  O   UNL     1       1.847   5.337  -3.869  1.00  0.00    -0.478 OA
ATOM     12  H   UNL     1       1.726   4.594  -3.262  1.00  0.00     0.297 HD
ENDBRANCH   9  11
ENDBRANCH   3   9
ENDBRANCH   1   2
BRANCH   1  13
ATOM     13  C   UNL     1      -0.083   4.724 -10.425  1.00  0.00     0.230 C 
BRANCH  13  14
ATOM     14  C   UNL     1       0.566   5.940 -11.087  1.00  0.00     0.046 C 
BRANCH  14  15
ATOM     15  C   UNL     1       0.356   7.173 -10.206  1.00  0.00     0.043 C 
BRANCH  15  16
ATOM     16  C   UNL     1       0.502   8.419 -11.041  1.00  0.00    -0.004 A 
ATOM     17  C   UNL     1       1.657   9.075 -11.297  1.00  0.00     0.036 A 
ATOM     18  C   UNL     1      -0.533   9.098 -11.693  1.00  0.00     0.063 A 
ATOM     19  N   UNL     1       1.363  10.136 -12.079  1.00  0.00    -0.282 N 
ATOM     20  N   UNL     1      -0.019  10.131 -12.310  1.00  0.00    -0.181 NA
ATOM     21  C   UNL     1       3.026   8.690 -10.800  1.00  0.00     0.066 C 
ATOM     22  C   UNL     1      -1.990   8.713 -11.678  1.00  0.00     0.069 C 
ATOM     23  H   UNL     1       1.996  10.786 -12.419  1.00  0.00     0.190 HD
ENDBRANCH  15  16
ENDBRANCH  14  15
ENDBRANCH  13  14
ENDBRANCH   1  13
TORSDOF 7
ENDMDL
MODEL 2
REMARK VINA RESULT:    -5.550      2.330      3.940
REMARK INTER + INTRA:          -8.177
REMARK INTER:                  -7.761
REMARK INTRA:                  -0.416
REMARK UNBOUND:                -0.519
REMARK SMILES Cc1n[nH]c(C)c1CCCOc1cc(C(=O)O)ccc1F
REMARK SMILES IDX 11 1 12 2 14 3 18 4 13 5 19 6 20 7 21 8 15 9 16 10 17 11
REMARK SMILES IDX 10 13 9 14 8 15 7 16 5 17 2 18 4 19 3 20 6 21 1 22
REMARK H PARENT 17 12 4 23
ROOT
ATOM      1  O   UNL     1      -0.111   7.172  -6.406  1.00  0.00    -0.490 OA
ENDROOT
BRANCH   1   2
ATOM      2  C   UNL     1      -0.010   5.817  -6.402  1.00  0.00     0.155 A 
ATOM      3  C   UNL     1      -0.779   3.663  -7.145  1.00  0.00     0.063 A 
ATOM      4  C   UNL     1       0.221   3.048  -6.387  1.00  0.00     0.019 A 
ATOM      5  C   UNL     1      -0.889   5.055  -7.148  1.00  0.00     0.065 A 
ATOM      6  C   UNL     1       1.098   3.816  -5.651  1.00  0.00     0.044 A 
ATOM      7  C   UNL     1       0.990   5.197  -5.659  1.00  0.00     0.165 A 
ATOM      8  F   UNL     1       1.852   5.944  -4.935  1.00  0.00    -0.203 F 
BRANCH   3   9
ATOM      9  C   UNL     1      -1.719   2.844  -7.935  1.00  0.00     0.335 C 
ATOM     10  O   UNL     1      -2.770   3.320  -8.313  1.00  0.00    -0.246 OA
BRANCH   9  11
ATOM     11  O   UNL     1      -1.407   1.570  -8.243  1.00  0.00    -0.478 OA
ATOM     12  H   UNL     1      -2.125   1.008  -8.569  1.00  0.00     0.297 HD
ENDBRANCH   9  11
ENDBRANCH   3   9
ENDBRANCH   1   2
BRANCH   1  13
ATOM     13  C   UNL     1       1.028   7.906  -6.863  1.00  0.00     0.230 C 
BRANCH  13  14
ATOM     14  C   UNL     1       0.661   8.678  -8.131  1.00  0.00     0.046 C 
BRANCH  14  15
ATOM     15  C   UNL     1       0.944   7.808  -9.358  1.00  0.00     0.043 C 
BRANCH  15  16
ATOM     16  C   UNL     1       1.009   8.677 -10.587  1.00  0.00    -0.004 A 
ATOM     17  C   UNL     1      -0.043   9.057 -11.350  1.00  0.00     0.036 A 
ATOM     18  C   UNL     1       2.165   9.240 -11.138  1.00  0.00     0.063 A 
ATOM     19  N   UNL     1       0.433   9.827 -12.352  1.00  0.00    -0.282 N 
ATOM     20  N   UNL     1       1.822   9.923 -12.199  1.00  0.00    -0.181 NA
ATOM     21  C   UNL     1      -1.485   8.687 -11.122  1.00  0.00     0.066 C 
ATOM     22  C   UNL     1       3.567   9.077 -10.607  1.00  0.00     0.069 C 
ATOM     23  H   UNL     1      -0.094  10.240 -13.053  1.00  0.00     0.190 HD
ENDBRANCH  15  16
ENDBRANCH  14  15
ENDBRANCH  13  14
ENDBRANCH   1  13
TORSDOF 7
ENDMDL
MODEL 3
REMARK VINA RESULT:    -5.465      0.666      1.885
REMARK INTER + INTRA:          -8.060
REMARK INTER:                  -7.428
REMARK INTRA:                  -0.632
REMARK UNBOUND:                -0.519
REMARK SMILES Cc1n[nH]c(C)c1CCCOc1cc(C(=O)O)ccc1F
REMARK SMILES IDX 11 1 12 2 14 3 18 4 13 5 19 6 20 7 21 8 15 9 16 10 17 11
REMARK SMILES IDX 10 13 9 14 8 15 7 16 5 17 2 18 4 19 3 20 6 21 1 22
REMARK H PARENT 17 12 4 23
ROOT
ATOM      1  O   UNL     1      -0.517   5.235  -9.034  1.00  0.00    -0.490 OA
ENDROOT
BRANCH   1   2
ATOM      2  C   UNL     1      -0.164   4.623  -7.872  1.00  0.00     0.155 A 
ATOM      3  C   UNL     1       1.188   4.536  -5.885  1.00  0.00     0.063 A 
ATOM      4  C   UNL     1       0.534   3.364  -5.496  1.00  0.00     0.019 A 
ATOM      5  C   UNL     1       0.832   5.164  -7.081  1.00  0.00     0.065 A 
ATOM      6  C   UNL     1      -0.463   2.836  -6.288  1.00  0.00     0.044 A 
ATOM      7  C   UNL     1      -0.818   3.463  -7.471  1.00  0.00     0.165 A 
ATOM      8  F   UNL     1      -1.796   2.940  -8.243  1.00  0.00    -0.203 F 
BRANCH   3   9
ATOM      9  C   UNL     1       2.256   5.105  -5.039  1.00  0.00     0.335 C 
ATOM     10  O   UNL     1       3.354   5.319  -5.509  1.00  0.00    -0.246 OA
BRANCH   9  11
ATOM     11  O   UNL     1       2.008   5.393  -3.746  1.00  0.00    -0.478 OA
ATOM     12  H   UNL     1       2.436   6.180  -3.382  1.00  0.00     0.297 HD
ENDBRANCH   9  11
ENDBRANCH   3   9
ENDBRANCH   1   2
BRANCH   1  13
ATOM     13  C   UNL     1       0.186   4.839 -10.214  1.00  0.00     0.230 C 
BRANCH  13  14
ATOM     14  C   UNL     1       0.459   6.070 -11.081  1.00  0.00     0.046 C 
BRANCH  14  15
ATOM     15  C   UNL     1       0.212   7.337 -10.259  1.00  0.00     0.043 C 
BRANCH  15  16
ATOM     16  C   UNL     1       0.230   8.538 -11.169  1.00  0.00    -0.004 A 
ATOM     17  C   UNL     1      -0.847   9.105 -11.760  1.00  0.00     0.036 A 
ATOM     18  C   UNL     1       1.363   9.267 -11.547  1.00  0.00     0.063 A 
ATOM     19  N   UNL     1      -0.411  10.152 -12.492  1.00  0.00    -0.282 N 
ATOM     20  N   UNL     1       0.981  10.231 -12.345  1.00  0.00    -0.181 NA
ATOM     21  C   UNL     1      -2.276   8.650 -11.625  1.00  0.00     0.066 C 
ATOM     22  C   UNL     1       2.780   8.984 -11.119  1.00  0.00     0.069 C 
ATOM     23  H   UNL     1      -0.962  10.745 -13.025  1.00  0.00     0.190 HD
ENDBRANCH  15  16
ENDBRANCH  14  15
ENDBRANCH  13  14
ENDBRANCH   1  13
TORSDOF 7
ENDMDL
MODEL 4
REMARK VINA RESULT:    -4.864     10.245     11.036
REMARK INTER + INTRA:          -7.231
REMARK INTER:                  -6.945
REMARK INTRA:                  -0.286
REMARK UNBOUND:                -0.519
REMARK SMILES Cc1n[nH]c(C)c1CCCOc1cc(C(=O)O)ccc1F
REMARK SMILES IDX 11 1 12 2 14 3 18 4 13 5 19 6 20 7 21 8 15 9 16 10 17 11
REMARK SMILES IDX 10 13 9 14 8 15 7 16 5 17 2 18 4 19 3 20 6 21 1 22
REMARK H PARENT 17 12 4 23
ROOT
ATOM      1  O   UNL     1       0.395  -1.637  -1.880  1.00  0.00    -0.490 OA
ENDROOT
BRANCH   1   2
ATOM      2  C   UNL     1       1.270  -2.129  -2.797  1.00  0.00     0.155 A 
ATOM      3  C   UNL     1       3.526  -2.493  -3.545  1.00  0.00     0.063 A 
ATOM      4  C   UNL     1       3.040  -3.151  -4.678  1.00  0.00     0.019 A 
ATOM      5  C   UNL     1       2.631  -1.982  -2.603  1.00  0.00     0.065 A 
ATOM      6  C   UNL     1       1.681  -3.298  -4.860  1.00  0.00     0.044 A 
ATOM      7  C   UNL     1       0.795  -2.795  -3.922  1.00  0.00     0.165 A 
ATOM      8  F   UNL     1      -0.535  -2.942  -4.106  1.00  0.00    -0.203 F 
BRANCH   3   9
ATOM      9  C   UNL     1       4.980  -2.334  -3.347  1.00  0.00     0.335 C 
ATOM     10  O   UNL     1       5.678  -1.939  -4.259  1.00  0.00    -0.246 OA
BRANCH   9  11
ATOM     11  O   UNL     1       5.532  -2.620  -2.152  1.00  0.00    -0.478 OA
ATOM     12  H   UNL     1       6.376  -2.196  -1.945  1.00  0.00     0.297 HD
ENDBRANCH   9  11
ENDBRANCH   3   9
ENDBRANCH   1   2
BRANCH   1  13
ATOM     13  C   UNL     1      -0.308  -0.443  -2.229  1.00  0.00     0.230 C 
BRANCH  13  14
ATOM     14  C   UNL     1      -1.384  -0.159  -1.179  1.00  0.00     0.046 C 
BRANCH  14  15
ATOM     15  C   UNL     1      -2.536   0.613  -1.825  1.00  0.00     0.043 C 
BRANCH  15  16
ATOM     16  C   UNL     1      -3.326   1.324  -0.757  1.00  0.00    -0.004 A 
ATOM     17  C   UNL     1      -4.583   1.016  -0.359  1.00  0.00     0.036 A 
ATOM     18  C   UNL     1      -2.889   2.414   0.002  1.00  0.00     0.063 A 
ATOM     19  N   UNL     1      -4.931   1.885   0.613  1.00  0.00    -0.282 N 
ATOM     20  N   UNL     1      -3.852   2.756   0.819  1.00  0.00    -0.181 NA
ATOM     21  C   UNL     1      -5.439  -0.097  -0.903  1.00  0.00     0.066 C 
ATOM     22  C   UNL     1      -1.545   3.087  -0.110  1.00  0.00     0.069 C 
ATOM     23  H   UNL     1      -5.777   1.904   1.085  1.00  0.00     0.190 HD
ENDBRANCH  15  16
ENDBRANCH  14  15
ENDBRANCH  13  14
ENDBRANCH   1  13
TORSDOF 7
ENDMDL
MODEL 5
REMARK VINA RESULT:    -4.599      3.599      5.328
REMARK INTER + INTRA:          -6.865
REMARK INTER:                  -6.334
REMARK INTRA:                  -0.530
REMARK UNBOUND:                -0.519
REMARK SMILES Cc1n[nH]c(C)c1CCCOc1cc(C(=O)O)ccc1F
REMARK SMILES IDX 11 1 12 2 14 3 18 4 13 5 19 6 20 7 21 8 15 9 16 10 17 11
REMARK SMILES IDX 10 13 9 14 8 15 7 16 5 17 2 18 4 19 3 20 6 21 1 22
REMARK H PARENT 17 12 4 23
ROOT
ATOM      1  O   UNL     1       1.350   8.751 -10.207  1.00  0.00    -0.490 OA
ENDROOT
BRANCH   1   2
ATOM      2  C   UNL     1       0.955   7.728  -9.404  1.00  0.00     0.155 A 
ATOM      3  C   UNL     1       0.330   5.425  -9.111  1.00  0.00     0.063 A 
ATOM      4  C   UNL     1       0.157   5.650  -7.743  1.00  0.00     0.019 A 
ATOM      5  C   UNL     1       0.731   6.474  -9.940  1.00  0.00     0.065 A 
ATOM      6  C   UNL     1       0.388   6.903  -7.215  1.00  0.00     0.044 A 
ATOM      7  C   UNL     1       0.791   7.941  -8.039  1.00  0.00     0.165 A 
ATOM      8  F   UNL     1       1.016   9.166  -7.516  1.00  0.00    -0.203 F 
BRANCH   3   9
ATOM      9  C   UNL     1       0.084   4.085  -9.678  1.00  0.00     0.335 C 
ATOM     10  O   UNL     1      -0.460   3.232  -9.008  1.00  0.00    -0.246 OA
BRANCH   9  11
ATOM     11  O   UNL     1       0.458   3.811 -10.944  1.00  0.00    -0.478 OA
ATOM     12  H   UNL     1       0.284   2.916 -11.269  1.00  0.00     0.297 HD
ENDBRANCH   9  11
ENDBRANCH   3   9
ENDBRANCH   1   2
BRANCH   1  13
ATOM     13  C   UNL     1       2.504   8.528 -11.021  1.00  0.00     0.230 C 
BRANCH  13  14
ATOM     14  C   UNL     1       3.400   9.767 -10.986  1.00  0.00     0.046 C 
BRANCH  14  15
ATOM     15  C   UNL     1       3.247  10.545 -12.295  1.00  0.00     0.043 C 
BRANCH  15  16
ATOM     16  C   UNL     1       4.596  11.045 -12.744  1.00  0.00    -0.004 A 
ATOM     17  C   UNL     1       5.044  12.319 -12.652  1.00  0.00     0.036 A 
ATOM     18  C   UNL     1       5.609  10.273 -13.322  1.00  0.00     0.063 A 
ATOM     19  N   UNL     1       6.293  12.353 -13.161  1.00  0.00    -0.282 N 
ATOM     20  N   UNL     1       6.624  11.058 -13.579  1.00  0.00    -0.181 NA
ATOM     21  C   UNL     1       4.283  13.488 -12.084  1.00  0.00     0.066 C 
ATOM     22  C   UNL     1       5.539   8.795 -13.612  1.00  0.00     0.069 C 
ATOM     23  H   UNL     1       6.861  13.136 -13.226  1.00  0.00     0.190 HD
ENDBRANCH  15  16
ENDBRANCH  14  15
ENDBRANCH  13  14
ENDBRANCH   1  13
TORSDOF 7
ENDMDL
MODEL 6
REMARK VINA RESULT:    -4.598      3.631      5.589
REMARK INTER + INTRA:          -6.864
REMARK INTER:                  -6.201
REMARK INTRA:                  -0.663
REMARK UNBOUND:                -0.519
REMARK SMILES Cc1n[nH]c(C)c1CCCOc1cc(C(=O)O)ccc1F
REMARK SMILES IDX 11 1 12 2 14 3 18 4 13 5 19 6 20 7 21 8 15 9 16 10 17 11
REMARK SMILES IDX 10 13 9 14 8 15 7 16 5 17 2 18 4 19 3 20 6 21 1 22
REMARK H PARENT 17 12 4 23
ROOT
ATOM      1  O   UNL     1      -0.405   8.943 -11.516  1.00  0.00    -0.490 OA
ENDROOT
BRANCH   1   2
ATOM      2  C   UNL     1      -0.017   7.934 -10.691  1.00  0.00     0.155 A 
ATOM      3  C   UNL     1       0.358   5.594 -10.287  1.00  0.00     0.063 A 
ATOM      4  C   UNL     1       0.790   5.890  -8.992  1.00  0.00     0.019 A 
ATOM      5  C   UNL     1      -0.046   6.626 -11.136  1.00  0.00     0.065 A 
ATOM      6  C   UNL     1       0.821   7.199  -8.558  1.00  0.00     0.044 A 
ATOM      7  C   UNL     1       0.425   8.221  -9.403  1.00  0.00     0.165 A 
ATOM      8  F   UNL     1       0.458   9.502  -8.973  1.00  0.00    -0.203 F 
BRANCH   3   9
ATOM      9  C   UNL     1       0.324   4.194 -10.755  1.00  0.00     0.335 C 
ATOM     10  O   UNL     1       0.575   3.290  -9.985  1.00  0.00    -0.246 OA
BRANCH   9  11
ATOM     11  O   UNL     1       0.007   3.920 -12.035  1.00  0.00    -0.478 OA
ATOM     12  H   UNL     1       0.727   3.944 -12.681  1.00  0.00     0.297 HD
ENDBRANCH   9  11
ENDBRANCH   3   9
ENDBRANCH   1   2
BRANCH   1  13
ATOM     13  C   UNL     1      -1.757   8.916 -11.981  1.00  0.00     0.230 C 
BRANCH  13  14
ATOM     14  C   UNL     1      -2.562  10.003 -11.269  1.00  0.00     0.046 C 
BRANCH  14  15
ATOM     15  C   UNL     1      -3.675  10.503 -12.193  1.00  0.00     0.043 C 
BRANCH  15  16
ATOM     16  C   UNL     1      -3.292  11.845 -12.760  1.00  0.00    -0.004 A 
ATOM     17  C   UNL     1      -2.765  12.071 -13.986  1.00  0.00     0.036 A 
ATOM     18  C   UNL     1      -3.426  13.080 -12.115  1.00  0.00     0.063 A 
ATOM     19  N   UNL     1      -2.566  13.400 -14.110  1.00  0.00    -0.282 N 
ATOM     20  N   UNL     1      -2.984  14.011 -12.921  1.00  0.00    -0.181 NA
ATOM     21  C   UNL     1      -2.457  11.026 -15.026  1.00  0.00     0.066 C 
ATOM     22  C   UNL     1      -3.972  13.297 -10.727  1.00  0.00     0.069 C 
ATOM     23  H   UNL     1      -2.197  13.852 -14.885  1.00  0.00     0.190 HD
ENDBRANCH  15  16
ENDBRANCH  14  15
ENDBRANCH  13  14
ENDBRANCH   1  13
TORSDOF 7
ENDMDL
MODEL 7
REMARK VINA RESULT:    -4.588      3.083      4.341
REMARK INTER + INTRA:          -6.850
REMARK INTER:                  -6.344
REMARK INTRA:                  -0.506
REMARK UNBOUND:                -0.519
REMARK SMILES Cc1n[nH]c(C)c1CCCOc1cc(C(=O)O)ccc1F
REMARK SMILES IDX 11 1 12 2 14 3 18 4 13 5 19 6 20 7 21 8 15 9 16 10 17 11
REMARK SMILES IDX 10 13 9 14 8 15 7 16 5 17 2 18 4 19 3 20 6 21 1 22
REMARK H PARENT 17 12 4 23
ROOT
ATOM      1  O   UNL     1       0.091   7.887 -11.130  1.00  0.00    -0.490 OA
ENDROOT
BRANCH   1   2
ATOM      2  C   UNL     1       0.274   6.992 -10.124  1.00  0.00     0.155 A 
ATOM      3  C   UNL     1       0.606   6.511  -7.791  1.00  0.00     0.063 A 
ATOM      4  C   UNL     1       0.638   5.145  -8.081  1.00  0.00     0.019 A 
ATOM      5  C   UNL     1       0.423   7.434  -8.823  1.00  0.00     0.065 A 
ATOM      6  C   UNL     1       0.483   4.712  -9.381  1.00  0.00     0.044 A 
ATOM      7  C   UNL     1       0.297   5.629 -10.402  1.00  0.00     0.165 A 
ATOM      8  F   UNL     1       0.145   5.199 -11.674  1.00  0.00    -0.203 F 
BRANCH   3   9
ATOM      9  C   UNL     1       0.772   6.978  -6.401  1.00  0.00     0.335 C 
ATOM     10  O   UNL     1       1.242   6.236  -5.563  1.00  0.00    -0.246 OA
BRANCH   9  11
ATOM     11  O   UNL     1       0.407   8.230  -6.063  1.00  0.00    -0.478 OA
ATOM     12  H   UNL     1       1.117   8.867  -5.903  1.00  0.00     0.297 HD
ENDBRANCH   9  11
ENDBRANCH   3   9
ENDBRANCH   1   2
BRANCH   1  13
ATOM     13  C   UNL     1      -0.953   8.850 -10.959  1.00  0.00     0.230 C 
BRANCH  13  14
ATOM     14  C   UNL     1      -1.744   8.980 -12.262  1.00  0.00     0.046 C 
BRANCH  14  15
ATOM     15  C   UNL     1      -1.389  10.302 -12.945  1.00  0.00     0.043 C 
BRANCH  15  16
ATOM     16  C   UNL     1      -2.632  10.911 -13.539  1.00  0.00    -0.004 A 
ATOM     17  C   UNL     1      -2.949  10.953 -14.854  1.00  0.00     0.036 A 
ATOM     18  C   UNL     1      -3.667  11.528 -12.827  1.00  0.00     0.063 A 
ATOM     19  N   UNL     1      -4.138  11.581 -14.971  1.00  0.00    -0.282 N 
ATOM     20  N   UNL     1      -4.567  11.936 -13.685  1.00  0.00    -0.181 NA
ATOM     21  C   UNL     1      -2.122  10.399 -15.984  1.00  0.00     0.066 C 
ATOM     22  C   UNL     1      -3.729  11.705 -11.331  1.00  0.00     0.069 C 
ATOM     23  H   UNL     1      -4.612  11.755 -15.799  1.00  0.00     0.190 HD
ENDBRANCH  15  16
ENDBRANCH  14  15
ENDBRANCH  13  14
ENDBRANCH   1  13
TORSDOF 7
ENDMDL
MODEL 8
REMARK VINA RESULT:    -4.398      9.159     11.507
REMARK INTER + INTRA:          -6.588
REMARK INTER:                  -4.466
REMARK INTRA:                  -2.122
REMARK UNBOUND:                -0.519
REMARK SMILES Cc1n[nH]c(C)c1CCCOc1cc(C(=O)O)ccc1F
REMARK SMILES IDX 11 1 12 2 14 3 18 4 13 5 19 6 20 7 21 8 15 9 16 10 17 11
REMARK SMILES IDX 10 13 9 14 8 15 7 16 5 17 2 18 4 19 3 20 6 21 1 22
REMARK H PARENT 17 12 4 23
ROOT
ATOM      1  O   UNL     1      -2.571  16.028 -13.910  1.00  0.00    -0.490 OA
ENDROOT
BRANCH   1   2
ATOM      2  C   UNL     1      -2.471  14.999 -14.793  1.00  0.00     0.155 A 
ATOM      3  C   UNL     1      -1.495  12.903 -15.454  1.00  0.00     0.063 A 
ATOM      4  C   UNL     1      -2.289  12.901 -16.605  1.00  0.00     0.019 A 
ATOM      5  C   UNL     1      -1.592  13.960 -14.547  1.00  0.00     0.065 A 
ATOM      6  C   UNL     1      -3.167  13.938 -16.838  1.00  0.00     0.044 A 
ATOM      7  C   UNL     1      -3.264  14.984 -15.935  1.00  0.00     0.165 A 
ATOM      8  F   UNL     1      -4.127  15.997 -16.169  1.00  0.00    -0.203 F 
BRANCH   3   9
ATOM      9  C   UNL     1      -0.555  11.794 -15.201  1.00  0.00     0.335 C 
ATOM     10  O   UNL     1       0.186  11.832 -14.240  1.00  0.00    -0.246 OA
BRANCH   9  11
ATOM     11  O   UNL     1      -0.523  10.735 -16.034  1.00  0.00    -0.478 OA
ATOM     12  H   UNL     1      -0.742   9.872 -15.657  1.00  0.00     0.297 HD
ENDBRANCH   9  11
ENDBRANCH   3   9
ENDBRANCH   1   2
BRANCH   1  13
ATOM     13  C   UNL     1      -2.965  15.701 -12.575  1.00  0.00     0.230 C 
BRANCH  13  14
ATOM     14  C   UNL     1      -4.450  16.018 -12.390  1.00  0.00     0.046 C 
BRANCH  14  15
ATOM     15  C   UNL     1      -5.150  14.821 -11.742  1.00  0.00     0.043 C 
BRANCH  15  16
ATOM     16  C   UNL     1      -5.275  13.706 -12.748  1.00  0.00    -0.004 A 
ATOM     17  C   UNL     1      -4.634  12.515 -12.699  1.00  0.00     0.036 A 
ATOM     18  C   UNL     1      -6.078  13.716 -13.893  1.00  0.00     0.063 A 
ATOM     19  N   UNL     1      -5.013  11.800 -13.779  1.00  0.00    -0.282 N 
ATOM     20  N   UNL     1      -5.916  12.577 -14.516  1.00  0.00    -0.181 NA
ATOM     21  C   UNL     1      -3.670  12.068 -11.631  1.00  0.00     0.066 C 
ATOM     22  C   UNL     1      -6.966  14.849 -14.340  1.00  0.00     0.069 C 
ATOM     23  H   UNL     1      -4.712  10.906 -14.006  1.00  0.00     0.190 HD
ENDBRANCH  15  16
ENDBRANCH  14  15
ENDBRANCH  13  14
ENDBRANCH   1  13
TORSDOF 7
ENDMDL
MODEL 9
REMARK VINA RESULT:    -2.660      8.465     10.661
REMARK INTER + INTRA:          -4.189
REMARK INTER:                  -2.583
REMARK INTRA:                  -1.606
REMARK UNBOUND:                -0.519
REMARK SMILES Cc1n[nH]c(C)c1CCCOc1cc(C(=O)O)ccc1F
REMARK SMILES IDX 11 1 12 2 14 3 18 4 13 5 19 6 20 7 21 8 15 9 16 10 17 11
REMARK SMILES IDX 10 13 9 14 8 15 7 16 5 17 2 18 4 19 3 20 6 21 1 22
REMARK H PARENT 17 12 4 23
ROOT
ATOM      1  O   UNL     1      -5.484  12.998 -14.163  1.00  0.00    -0.490 OA
ENDROOT
BRANCH   1   2
ATOM      2  C   UNL     1      -4.378  12.231 -13.970  1.00  0.00     0.155 A 
ATOM      3  C   UNL     1      -2.416  11.142 -14.835  1.00  0.00     0.063 A 
ATOM      4  C   UNL     1      -2.118  10.671 -13.554  1.00  0.00     0.019 A 
ATOM      5  C   UNL     1      -3.554  11.926 -15.037  1.00  0.00     0.065 A 
ATOM      6  C   UNL     1      -2.942  10.986 -12.494  1.00  0.00     0.044 A 
ATOM      7  C   UNL     1      -4.068  11.767 -12.696  1.00  0.00     0.165 A 
ATOM      8  F   UNL     1      -4.871  12.072 -11.654  1.00  0.00    -0.203 F 
BRANCH   3   9
ATOM      9  C   UNL     1      -1.536  10.807 -15.971  1.00  0.00     0.335 C 
ATOM     10  O   UNL     1      -1.999  10.288 -16.966  1.00  0.00    -0.246 OA
BRANCH   9  11
ATOM     11  O   UNL     1      -0.219  11.084 -15.906  1.00  0.00    -0.478 OA
ATOM     12  H   UNL     1       0.070  11.933 -16.271  1.00  0.00     0.297 HD
ENDBRANCH   9  11
ENDBRANCH   3   9
ENDBRANCH   1   2
BRANCH   1  13
ATOM     13  C   UNL     1      -5.417  13.986 -15.195  1.00  0.00     0.230 C 
BRANCH  13  14
ATOM     14  C   UNL     1      -5.862  15.338 -14.635  1.00  0.00     0.046 C 
BRANCH  14  15
ATOM     15  C   UNL     1      -4.634  16.215 -14.383  1.00  0.00     0.043 C 
BRANCH  15  16
ATOM     16  C   UNL     1      -3.911  15.728 -13.154  1.00  0.00    -0.004 A 
ATOM     17  C   UNL     1      -4.441  15.607 -11.915  1.00  0.00     0.036 A 
ATOM     18  C   UNL     1      -2.576  15.315 -13.093  1.00  0.00     0.063 A 
ATOM     19  N   UNL     1      -3.474  15.140 -11.098  1.00  0.00    -0.282 N 
ATOM     20  N   UNL     1      -2.311  14.969 -11.860  1.00  0.00    -0.181 NA
ATOM     21  C   UNL     1      -5.857  15.934 -11.519  1.00  0.00     0.066 C 
ATOM     22  C   UNL     1      -1.607  15.285 -14.248  1.00  0.00     0.069 C 
ATOM     23  H   UNL     1      -3.567  14.956 -10.150  1.00  0.00     0.190 HD
ENDBRANCH  15  16
ENDBRANCH  14  15
ENDBRANCH  13  14
ENDBRANCH   1  13
TORSDOF 7
ENDMDL
