MODEL 1
REMARK VINA RESULT:    -5.142      0.000      0.000
REMARK INTER + INTRA:          -6.188
REMARK INTER:                  -5.893
REMARK INTRA:                  -0.295
REMARK UNBOUND:                -0.295
REMARK SMILES O=C(O)c1ccc2nc(-c3cc(Cl)cc(Cl)c3)oc2c1
REMARK SMILES IDX 5 1 6 2 20 3 8 4 18 5 4 6 9 7 7 8 19 9 2 10 1 11 3 12 10 14
REMARK SMILES IDX 11 15 17 16 12 17 15 18 14 19 13 20 16 21
REMARK H PARENT 3 13
ROOT
ATOM      1  C   UNL     1      -2.435   1.277   0.069  1.00  0.00     0.018 A 
ATOM      2  C   UNL     1      -1.148   0.828   0.050  1.00  0.00     0.033 A 
ATOM      3  C   UNL     1      -2.807   0.378  -2.152  1.00  0.00     0.065 A 
ATOM      4  N   UNL     1       0.534  -0.403  -1.376  1.00  0.00    -0.209 NA
ATOM      5  O   UNL     1      -0.762  -0.746  -3.089  1.00  0.00    -0.436 OA
ATOM      6  C   UNL     1      -3.280   1.057  -1.028  1.00  0.00     0.063 A 
ATOM      7  C   UNL     1       0.468  -0.930  -2.573  1.00  0.00     0.227 A 
ATOM      8  C   UNL     1      -0.661   0.146  -1.071  1.00  0.00     0.110 A 
ATOM      9  C   UNL     1      -1.501  -0.075  -2.177  1.00  0.00     0.156 A 
ENDROOT
BRANCH   6  10
ATOM     10  C   UNL     1      -4.671   1.542  -0.993  1.00  0.00     0.335 C 
ATOM     11  O   UNL     1      -5.543   0.926  -1.573  1.00  0.00    -0.246 OA
BRANCH  10  12
ATOM     12  O   UNL     1      -4.977   2.668  -0.318  1.00  0.00    -0.478 OA
ATOM     13  H   UNL     1      -5.137   3.464  -0.842  1.00  0.00     0.297 HD
ENDBRANCH  10  12
ENDBRANCH   6  10
BRANCH   7  14
ATOM     14  C   UNL     1       1.579  -1.624  -3.257  1.00  0.00     0.040 A 
ATOM     15  C   UNL     1       2.828  -1.722  -2.642  1.00  0.00     0.034 A 
ATOM     16  C   UNL     1       1.383  -2.184  -4.521  1.00  0.00     0.034 A 
ATOM     17  C   UNL     1       3.862  -2.373  -3.286  1.00  0.00     0.043 A 
ATOM     18  C   UNL     1       2.425  -2.832  -5.154  1.00  0.00     0.043 A 
ATOM     19  C   UNL     1       3.661  -2.926  -4.539  1.00  0.00     0.041 A 
ATOM     20  Cl  UNL     1       5.416  -2.496  -2.523  1.00  0.00    -0.084 Cl
ATOM     21  Cl  UNL     1       2.183  -3.530  -6.726  1.00  0.00    -0.084 Cl
ENDBRANCH   7  14
TORSDOF 3
ENDMDL
MODEL 2
REMARK VINA RESULT:    -5.134      0.003      2.019
REMARK INTER + INTRA:          -6.180
REMARK INTER:                  -5.885
REMARK INTRA:                  -0.295
REMARK UNBOUND:                -0.295
REMARK SMILES O=C(O)c1ccc2nc(-c3cc(Cl)cc(Cl)c3)oc2c1
REMARK SMILES IDX 5 1 6 2 20 3 8 4 18 5 4 6 9 7 7 8 19 9 2 10 1 11 3 12 10 14
REMARK SMILES IDX 11 15 17 16 12 17 15 18 14 19 13 20 16 21
REMARK H PARENT 3 13
ROOT
ATOM      1  C   UNL     1      -2.432   1.281   0.071  1.00  0.00     0.018 A 
ATOM      2  C   UNL     1      -1.145   0.832   0.050  1.00  0.00     0.033 A 
ATOM      3  C   UNL     1      -2.807   0.378  -2.149  1.00  0.00     0.065 A 
ATOM      4  N   UNL     1       0.536  -0.401  -1.377  1.00  0.00    -0.209 NA
ATOM      5  O   UNL     1      -0.763  -0.746  -3.088  1.00  0.00    -0.436 OA
ATOM      6  C   UNL     1      -3.278   1.059  -1.025  1.00  0.00     0.063 A 
ATOM      7  C   UNL     1       0.467  -0.930  -2.573  1.00  0.00     0.227 A 
ATOM      8  C   UNL     1      -0.659   0.148  -1.071  1.00  0.00     0.110 A 
ATOM      9  C   UNL     1      -1.500  -0.074  -2.175  1.00  0.00     0.156 A 
ENDROOT
BRANCH   6  10
ATOM     10  C   UNL     1      -4.670   1.543  -0.989  1.00  0.00     0.335 C 
ATOM     11  O   UNL     1      -5.542   0.929  -1.571  1.00  0.00    -0.246 OA
BRANCH  10  12
ATOM     12  O   UNL     1      -4.975   2.668  -0.312  1.00  0.00    -0.478 OA
ATOM     13  H   UNL     1      -4.248   3.275  -0.118  1.00  0.00     0.297 HD
ENDBRANCH  10  12
ENDBRANCH   6  10
BRANCH   7  14
ATOM     14  C   UNL     1       1.578  -1.625  -3.257  1.00  0.00     0.040 A 
ATOM     15  C   UNL     1       1.382  -2.185  -4.520  1.00  0.00     0.034 A 
ATOM     16  C   UNL     1       2.827  -1.723  -2.641  1.00  0.00     0.034 A 
ATOM     17  C   UNL     1       2.425  -2.832  -5.154  1.00  0.00     0.043 A 
ATOM     18  C   UNL     1       3.861  -2.373  -3.285  1.00  0.00     0.043 A 
ATOM     19  C   UNL     1       3.661  -2.927  -4.538  1.00  0.00     0.041 A 
ATOM     20  Cl  UNL     1       2.184  -3.530  -6.725  1.00  0.00    -0.084 Cl
ATOM     21  Cl  UNL     1       5.416  -2.497  -2.521  1.00  0.00    -0.084 Cl
ENDBRANCH   7  14
TORSDOF 3
ENDMDL
MODEL 3
REMARK VINA RESULT:    -4.399     14.264     14.854
REMARK INTER + INTRA:          -5.337
REMARK INTER:                  -5.055
REMARK INTRA:                  -0.282
REMARK UNBOUND:                -0.295
REMARK SMILES O=C(O)c1ccc2nc(-c3cc(Cl)cc(Cl)c3)oc2c1
REMARK SMILES IDX 5 1 6 2 20 3 8 4 18 5 4 6 9 7 7 8 19 9 2 10 1 11 3 12 10 14
REMARK SMILES IDX 11 15 17 16 12 17 15 18 14 19 13 20 16 21
REMARK H PARENT 3 13
ROOT
ATOM      1  C   UNL     1      -3.918  12.131 -14.537  1.00  0.00     0.018 A 
ATOM      2  C   UNL     1      -2.751  11.427 -14.532  1.00  0.00     0.033 A 
ATOM      3  C   UNL     1      -4.291  11.573 -12.206  1.00  0.00     0.065 A 
ATOM      4  N   UNL     1      -1.250  10.025 -13.060  1.00  0.00    -0.209 NA
ATOM      5  O   UNL     1      -2.458  10.140 -11.254  1.00  0.00    -0.436 OA
ATOM      6  C   UNL     1      -4.701  12.215 -13.376  1.00  0.00     0.063 A 
ATOM      7  C   UNL     1      -1.332   9.651 -11.808  1.00  0.00     0.227 A 
ATOM      8  C   UNL     1      -2.329  10.778 -13.365  1.00  0.00     0.110 A 
ATOM      9  C   UNL     1      -3.111  10.854 -12.199  1.00  0.00     0.156 A 
ENDROOT
BRANCH   6  10
ATOM     10  C   UNL     1      -5.958  12.985 -13.392  1.00  0.00     0.335 C 
ATOM     11  O   UNL     1      -6.028  14.045 -12.803  1.00  0.00    -0.246 OA
BRANCH  10  12
ATOM     12  O   UNL     1      -7.030  12.512 -14.058  1.00  0.00    -0.478 OA
ATOM     13  H   UNL     1      -7.778  12.209 -13.527  1.00  0.00     0.297 HD
ENDBRANCH  10  12
ENDBRANCH   6  10
BRANCH   7  14
ATOM     14  C   UNL     1      -0.337   8.814 -11.107  1.00  0.00     0.040 A 
ATOM     15  C   UNL     1      -0.752   7.725 -10.340  1.00  0.00     0.034 A 
ATOM     16  C   UNL     1       1.024   9.112 -11.208  1.00  0.00     0.034 A 
ATOM     17  C   UNL     1       0.184   6.946  -9.688  1.00  0.00     0.043 A 
ATOM     18  C   UNL     1       1.950   8.326 -10.552  1.00  0.00     0.043 A 
ATOM     19  C   UNL     1       1.532   7.246  -9.793  1.00  0.00     0.041 A 
ATOM     20  Cl  UNL     1      -0.330   5.590  -8.734  1.00  0.00    -0.084 Cl
ATOM     21  Cl  UNL     1       3.642   8.693 -10.677  1.00  0.00    -0.084 Cl
ENDBRANCH   7  14
TORSDOF 3
ENDMDL
MODEL 4
REMARK VINA RESULT:    -3.910     13.963     14.391
REMARK INTER + INTRA:          -4.777
REMARK INTER:                  -4.497
REMARK INTRA:                  -0.280
REMARK UNBOUND:                -0.295
REMARK SMILES O=C(O)c1ccc2nc(-c3cc(Cl)cc(Cl)c3)oc2c1
REMARK SMILES IDX 5 1 6 2 20 3 8 4 18 5 4 6 9 7 7 8 19 9 2 10 1 11 3 12 10 14
REMARK SMILES IDX 11 15 17 16 12 17 15 18 14 19 13 20 16 21
REMARK H PARENT 3 13
ROOT
ATOM      1  C   UNL     1      -0.533   7.548 -10.182  1.00  0.00     0.018 A 
ATOM      2  C   UNL     1      -0.188   8.443 -11.149  1.00  0.00     0.033 A 
ATOM      3  C   UNL     1       1.743   7.539  -9.345  1.00  0.00     0.065 A 
ATOM      4  N   UNL     1       1.758   9.769 -12.065  1.00  0.00    -0.209 NA
ATOM      5  O   UNL     1       3.257   9.056 -10.660  1.00  0.00    -0.436 OA
ATOM      6  C   UNL     1       0.425   7.086  -9.268  1.00  0.00     0.063 A 
ATOM      7  C   UNL     1       3.017   9.854 -11.717  1.00  0.00     0.227 A 
ATOM      8  C   UNL     1       1.131   8.906 -11.238  1.00  0.00     0.110 A 
ATOM      9  C   UNL     1       2.098   8.444 -10.329  1.00  0.00     0.156 A 
ENDROOT
BRANCH   6  10
ATOM     10  C   UNL     1       0.039   6.122  -8.222  1.00  0.00     0.335 C 
ATOM     11  O   UNL     1      -0.254   4.982  -8.525  1.00  0.00    -0.246 OA
BRANCH  10  12
ATOM     12  O   UNL     1       0.009   6.504  -6.930  1.00  0.00    -0.478 OA
ATOM     13  H   UNL     1       0.419   7.352  -6.713  1.00  0.00     0.297 HD
ENDBRANCH  10  12
ENDBRANCH   6  10
BRANCH   7  14
ATOM     14  C   UNL     1       4.026  10.701 -12.386  1.00  0.00     0.040 A 
ATOM     15  C   UNL     1       3.874  12.088 -12.408  1.00  0.00     0.034 A 
ATOM     16  C   UNL     1       5.135  10.116 -13.001  1.00  0.00     0.034 A 
ATOM     17  C   UNL     1       4.821  12.874 -13.035  1.00  0.00     0.043 A 
ATOM     18  C   UNL     1       6.075  10.912 -13.624  1.00  0.00     0.043 A 
ATOM     19  C   UNL     1       5.919  12.288 -13.642  1.00  0.00     0.041 A 
ATOM     20  Cl  UNL     1       4.635  14.600 -13.062  1.00  0.00    -0.084 Cl
ATOM     21  Cl  UNL     1       7.455  10.187 -14.389  1.00  0.00    -0.084 Cl
ENDBRANCH   7  14
TORSDOF 3
ENDMDL
MODEL 5
REMARK VINA RESULT:    -3.903     13.957     14.390
REMARK INTER + INTRA:          -4.769
REMARK INTER:                  -4.488
REMARK INTRA:                  -0.280
REMARK UNBOUND:                -0.295
REMARK SMILES O=C(O)c1ccc2nc(-c3cc(Cl)cc(Cl)c3)oc2c1
REMARK SMILES IDX 5 1 6 2 20 3 8 4 18 5 4 6 9 7 7 8 19 9 2 10 1 11 3 12 10 14
REMARK SMILES IDX 11 15 17 16 12 17 15 18 14 19 13 20 16 21
REMARK H PARENT 3 13
ROOT
ATOM      1  C   UNL     1      -0.553   7.544 -10.193  1.00  0.00     0.018 A 
ATOM      2  C   UNL     1      -0.206   8.446 -11.154  1.00  0.00     0.033 A 
ATOM      3  C   UNL     1       1.723   7.521  -9.357  1.00  0.00     0.065 A 
ATOM      4  N   UNL     1       1.744   9.773 -12.060  1.00  0.00    -0.209 NA
ATOM      5  O   UNL     1       3.241   9.044 -10.660  1.00  0.00    -0.436 OA
ATOM      6  C   UNL     1       0.403   7.072  -9.283  1.00  0.00     0.063 A 
ATOM      7  C   UNL     1       3.004   9.851 -11.711  1.00  0.00     0.227 A 
ATOM      8  C   UNL     1       1.115   8.905 -11.239  1.00  0.00     0.110 A 
ATOM      9  C   UNL     1       2.081   8.433 -10.333  1.00  0.00     0.156 A 
ENDROOT
BRANCH   6  10
ATOM     10  C   UNL     1       0.014   6.101  -8.245  1.00  0.00     0.335 C 
ATOM     11  O   UNL     1      -0.368   4.993  -8.562  1.00  0.00    -0.246 OA
BRANCH  10  12
ATOM     12  O   UNL     1       0.081   6.443  -6.943  1.00  0.00    -0.478 OA
ATOM     13  H   UNL     1      -0.382   5.873  -6.314  1.00  0.00     0.297 HD
ENDBRANCH  10  12
ENDBRANCH   6  10
BRANCH   7  14
ATOM     14  C   UNL     1       4.015  10.700 -12.374  1.00  0.00     0.040 A 
ATOM     15  C   UNL     1       5.125  10.119 -12.988  1.00  0.00     0.034 A 
ATOM     16  C   UNL     1       3.864  12.088 -12.388  1.00  0.00     0.034 A 
ATOM     17  C   UNL     1       6.066  10.918 -13.607  1.00  0.00     0.043 A 
ATOM     18  C   UNL     1       4.812  12.876 -13.010  1.00  0.00     0.043 A 
ATOM     19  C   UNL     1       5.910  12.293 -13.617  1.00  0.00     0.041 A 
ATOM     20  Cl  UNL     1       7.447  10.196 -14.372  1.00  0.00    -0.084 Cl
ATOM     21  Cl  UNL     1       4.626  14.603 -13.028  1.00  0.00    -0.084 Cl
ENDBRANCH   7  14
TORSDOF 3
ENDMDL
MODEL 6
REMARK VINA RESULT:    -3.897     13.924     15.136
REMARK INTER + INTRA:          -4.761
REMARK INTER:                  -4.482
REMARK INTRA:                  -0.279
REMARK UNBOUND:                -0.295
REMARK SMILES O=C(O)c1ccc2nc(-c3cc(Cl)cc(Cl)c3)oc2c1
REMARK SMILES IDX 5 1 6 2 20 3 8 4 18 5 4 6 9 7 7 8 19 9 2 10 1 11 3 12 10 14
REMARK SMILES IDX 11 15 17 16 12 17 15 18 14 19 13 20 16 21
REMARK H PARENT 3 13
ROOT
ATOM      1  C   UNL     1       1.769   7.650  -9.779  1.00  0.00     0.018 A 
ATOM      2  C   UNL     1       1.615   8.707 -10.625  1.00  0.00     0.033 A 
ATOM      3  C   UNL     1      -0.563   7.050 -10.065  1.00  0.00     0.065 A 
ATOM      4  N   UNL     1      -0.082   9.906 -12.063  1.00  0.00    -0.209 NA
ATOM      5  O   UNL     1      -1.774   8.613 -11.618  1.00  0.00    -0.436 OA
ATOM      6  C   UNL     1       0.686   6.809  -9.489  1.00  0.00     0.063 A 
ATOM      7  C   UNL     1      -1.352   9.693 -12.302  1.00  0.00     0.227 A 
ATOM      8  C   UNL     1       0.368   8.961 -11.209  1.00  0.00     0.110 A 
ATOM      9  C   UNL     1      -0.725   8.125 -10.920  1.00  0.00     0.156 A 
ENDROOT
BRANCH   6  10
ATOM     10  C   UNL     1       0.866   5.665  -8.577  1.00  0.00     0.335 C 
ATOM     11  O   UNL     1       1.025   5.856  -7.388  1.00  0.00    -0.246 OA
BRANCH  10  12
ATOM     12  O   UNL     1       0.856   4.407  -9.062  1.00  0.00    -0.478 OA
ATOM     13  H   UNL     1      -0.004   4.037  -9.303  1.00  0.00     0.297 HD
ENDBRANCH  10  12
ENDBRANCH   6  10
BRANCH   7  14
ATOM     14  C   UNL     1      -2.196  10.519 -13.190  1.00  0.00     0.040 A 
ATOM     15  C   UNL     1      -1.901  10.612 -14.550  1.00  0.00     0.034 A 
ATOM     16  C   UNL     1      -3.293  11.209 -12.670  1.00  0.00     0.034 A 
ATOM     17  C   UNL     1      -2.695  11.384 -15.375  1.00  0.00     0.043 A 
ATOM     18  C   UNL     1      -4.079  11.978 -13.505  1.00  0.00     0.043 A 
ATOM     19  C   UNL     1      -3.781  12.066 -14.854  1.00  0.00     0.041 A 
ATOM     20  Cl  UNL     1      -2.330  11.501 -17.068  1.00  0.00    -0.084 Cl
ATOM     21  Cl  UNL     1      -5.444  12.838 -12.862  1.00  0.00    -0.084 Cl
ENDBRANCH   7  14
TORSDOF 3
ENDMDL
MODEL 7
REMARK VINA RESULT:    -3.896     13.922     15.088
REMARK INTER + INTRA:          -4.761
REMARK INTER:                  -4.482
REMARK INTRA:                  -0.279
REMARK UNBOUND:                -0.295
REMARK SMILES O=C(O)c1ccc2nc(-c3cc(Cl)cc(Cl)c3)oc2c1
REMARK SMILES IDX 5 1 6 2 20 3 8 4 18 5 4 6 9 7 7 8 19 9 2 10 1 11 3 12 10 14
REMARK SMILES IDX 11 15 17 16 12 17 15 18 14 19 13 20 16 21
REMARK H PARENT 3 13
ROOT
ATOM      1  C   UNL     1       1.765   7.652  -9.774  1.00  0.00     0.018 A 
ATOM      2  C   UNL     1       1.618   8.692 -10.641  1.00  0.00     0.033 A 
ATOM      3  C   UNL     1      -0.582   7.090 -10.012  1.00  0.00     0.065 A 
ATOM      4  N   UNL     1      -0.077   9.891 -12.080  1.00  0.00    -0.209 NA
ATOM      5  O   UNL     1      -1.787   8.641 -11.581  1.00  0.00    -0.436 OA
ATOM      6  C   UNL     1       0.671   6.838  -9.450  1.00  0.00     0.063 A 
ATOM      7  C   UNL     1      -1.355   9.698 -12.295  1.00  0.00     0.227 A 
ATOM      8  C   UNL     1       0.367   8.957 -11.212  1.00  0.00     0.110 A 
ATOM      9  C   UNL     1      -0.736   8.148 -10.889  1.00  0.00     0.156 A 
ENDROOT
BRANCH   6  10
ATOM     10  C   UNL     1       0.844   5.711  -8.515  1.00  0.00     0.335 C 
ATOM     11  O   UNL     1       0.922   5.919  -7.321  1.00  0.00    -0.246 OA
BRANCH  10  12
ATOM     12  O   UNL     1       0.915   4.450  -8.985  1.00  0.00    -0.478 OA
ATOM     13  H   UNL     1       1.797   4.095  -9.158  1.00  0.00     0.297 HD
ENDBRANCH  10  12
ENDBRANCH   6  10
BRANCH   7  14
ATOM     14  C   UNL     1      -2.197  10.519 -13.189  1.00  0.00     0.040 A 
ATOM     15  C   UNL     1      -3.281  11.230 -12.674  1.00  0.00     0.034 A 
ATOM     16  C   UNL     1      -1.911  10.586 -14.555  1.00  0.00     0.034 A 
ATOM     17  C   UNL     1      -4.064  11.997 -13.514  1.00  0.00     0.043 A 
ATOM     18  C   UNL     1      -2.701  11.356 -15.385  1.00  0.00     0.043 A 
ATOM     19  C   UNL     1      -3.775  12.059 -14.867  1.00  0.00     0.041 A 
ATOM     20  Cl  UNL     1      -5.413  12.882 -12.875  1.00  0.00    -0.084 Cl
ATOM     21  Cl  UNL     1      -2.347  11.441 -17.083  1.00  0.00    -0.084 Cl
ENDBRANCH   7  14
TORSDOF 3
ENDMDL
MODEL 8
REMARK VINA RESULT:    -3.830     11.046     11.794
REMARK INTER + INTRA:          -4.685
REMARK INTER:                  -4.388
REMARK INTRA:                  -0.296
REMARK UNBOUND:                -0.295
REMARK SMILES O=C(O)c1ccc2nc(-c3cc(Cl)cc(Cl)c3)oc2c1
REMARK SMILES IDX 5 1 6 2 20 3 8 4 18 5 4 6 9 7 7 8 19 9 2 10 1 11 3 12 10 14
REMARK SMILES IDX 11 15 17 16 12 17 15 18 14 19 13 20 16 21
REMARK H PARENT 3 13
ROOT
ATOM      1  C   UNL     1       0.852   9.761 -11.970  1.00  0.00     0.018 A 
ATOM      2  C   UNL     1      -0.006   8.882 -11.381  1.00  0.00     0.033 A 
ATOM      3  C   UNL     1       2.704   8.840 -10.704  1.00  0.00     0.065 A 
ATOM      4  N   UNL     1      -0.119   6.994  -9.705  1.00  0.00    -0.209 NA
ATOM      5  O   UNL     1       1.992   6.972  -9.179  1.00  0.00    -0.436 OA
ATOM      6  C   UNL     1       2.215   9.751 -11.642  1.00  0.00     0.063 A 
ATOM      7  C   UNL     1       0.788   6.411  -8.962  1.00  0.00     0.227 A 
ATOM      8  C   UNL     1       0.471   7.963 -10.438  1.00  0.00     0.110 A 
ATOM      9  C   UNL     1       1.836   7.949 -10.100  1.00  0.00     0.156 A 
ENDROOT
BRANCH   6  10
ATOM     10  C   UNL     1       3.135  10.704 -12.290  1.00  0.00     0.335 C 
ATOM     11  O   UNL     1       4.314  10.703 -11.999  1.00  0.00    -0.246 OA
BRANCH  10  12
ATOM     12  O   UNL     1       2.667  11.576 -13.205  1.00  0.00    -0.478 OA
ATOM     13  H   UNL     1       1.954  12.166 -12.925  1.00  0.00     0.297 HD
ENDBRANCH  10  12
ENDBRANCH   6  10
BRANCH   7  14
ATOM     14  C   UNL     1       0.527   5.300  -8.022  1.00  0.00     0.040 A 
ATOM     15  C   UNL     1       1.357   5.107  -6.917  1.00  0.00     0.034 A 
ATOM     16  C   UNL     1      -0.552   4.440  -8.237  1.00  0.00     0.034 A 
ATOM     17  C   UNL     1       1.107   4.068  -6.043  1.00  0.00     0.043 A 
ATOM     18  C   UNL     1      -0.792   3.405  -7.355  1.00  0.00     0.043 A 
ATOM     19  C   UNL     1       0.035   3.219  -6.261  1.00  0.00     0.041 A 
ATOM     20  Cl  UNL     1       2.138   3.826  -4.667  1.00  0.00    -0.084 Cl
ATOM     21  Cl  UNL     1      -2.133   2.335  -7.621  1.00  0.00    -0.084 Cl
ENDBRANCH   7  14
TORSDOF 3
ENDMDL
