MODEL 1
REMARK VINA RESULT:    -4.686      0.000      0.000
REMARK INTER + INTRA:          -5.669
REMARK INTER:                  -5.371
REMARK INTRA:                  -0.298
REMARK UNBOUND:                -0.298
REMARK SMILES O=C(O)c1ccc2nc(-c3cc(Cl)cc(Cl)c3)oc2c1
REMARK SMILES IDX 5 1 6 2 20 3 8 4 18 5 4 6 9 7 7 8 19 9 2 10 1 11 3 12 10 14
REMARK SMILES IDX 11 15 17 16 12 17 15 18 14 19 13 20 16 21
REMARK H PARENT 3 13
ROOT
ATOM      1  C   UNL     1       3.208   4.127   1.168  1.00  0.00     0.018 A 
ATOM      2  C   UNL     1       4.447   4.694   1.194  1.00  0.00     0.033 A 
ATOM      3  C   UNL     1       2.538   5.442   3.091  1.00  0.00     0.065 A 
ATOM      4  N   UNL     1       5.871   6.364   2.445  1.00  0.00    -0.209 NA
ATOM      5  O   UNL     1       4.381   6.938   3.923  1.00  0.00    -0.436 OA
ATOM      6  C   UNL     1       2.239   4.494   2.112  1.00  0.00     0.063 A 
ATOM      7  C   UNL     1       5.639   7.127   3.484  1.00  0.00     0.227 A 
ATOM      8  C   UNL     1       4.760   5.647   2.171  1.00  0.00     0.110 A 
ATOM      9  C   UNL     1       3.796   6.016   3.125  1.00  0.00     0.156 A 
ENDROOT
BRANCH   6  10
ATOM     10  C   UNL     1       0.900   3.878   2.070  1.00  0.00     0.335 C 
ATOM     11  O   UNL     1       0.685   2.944   1.323  1.00  0.00    -0.246 OA
BRANCH  10  12
ATOM     12  O   UNL     1      -0.085   4.351   2.858  1.00  0.00    -0.478 OA
ATOM     13  H   UNL     1       0.173   4.706   3.719  1.00  0.00     0.297 HD
ENDBRANCH  10  12
ENDBRANCH   6  10
BRANCH   7  14
ATOM     14  C   UNL     1       6.616   8.059   4.086  1.00  0.00     0.040 A 
ATOM     15  C   UNL     1       7.867   8.240   3.495  1.00  0.00     0.034 A 
ATOM     16  C   UNL     1       6.290   8.760   5.248  1.00  0.00     0.034 A 
ATOM     17  C   UNL     1       8.775   9.112   4.062  1.00  0.00     0.043 A 
ATOM     18  C   UNL     1       7.207   9.630   5.805  1.00  0.00     0.043 A 
ATOM     19  C   UNL     1       8.446   9.805   5.215  1.00  0.00     0.041 A 
ATOM     20  Cl  UNL     1      10.332   9.340   3.329  1.00  0.00    -0.084 Cl
ATOM     21  Cl  UNL     1       6.804  10.503   7.251  1.00  0.00    -0.084 Cl
ENDBRANCH   7  14
TORSDOF 3
ENDMDL
MODEL 2
REMARK VINA RESULT:    -4.686      0.015      2.019
REMARK INTER + INTRA:          -5.668
REMARK INTER:                  -5.370
REMARK INTRA:                  -0.298
REMARK UNBOUND:                -0.298
REMARK SMILES O=C(O)c1ccc2nc(-c3cc(Cl)cc(Cl)c3)oc2c1
REMARK SMILES IDX 5 1 6 2 20 3 8 4 18 5 4 6 9 7 7 8 19 9 2 10 1 11 3 12 10 14
REMARK SMILES IDX 11 15 17 16 12 17 15 18 14 19 13 20 16 21
REMARK H PARENT 3 13
ROOT
ATOM      1  C   UNL     1       3.198   4.118   1.168  1.00  0.00     0.018 A 
ATOM      2  C   UNL     1       4.436   4.686   1.196  1.00  0.00     0.033 A 
ATOM      3  C   UNL     1       2.526   5.433   3.092  1.00  0.00     0.065 A 
ATOM      4  N   UNL     1       5.859   6.356   2.448  1.00  0.00    -0.209 NA
ATOM      5  O   UNL     1       4.367   6.929   3.924  1.00  0.00    -0.436 OA
ATOM      6  C   UNL     1       2.228   4.484   2.112  1.00  0.00     0.063 A 
ATOM      7  C   UNL     1       5.626   7.120   3.487  1.00  0.00     0.227 A 
ATOM      8  C   UNL     1       4.749   5.639   2.173  1.00  0.00     0.110 A 
ATOM      9  C   UNL     1       3.783   6.008   3.126  1.00  0.00     0.156 A 
ENDROOT
BRANCH   6  10
ATOM     10  C   UNL     1       0.890   3.868   2.069  1.00  0.00     0.335 C 
ATOM     11  O   UNL     1       0.675   2.934   1.322  1.00  0.00    -0.246 OA
BRANCH  10  12
ATOM     12  O   UNL     1      -0.097   4.341   2.856  1.00  0.00    -0.478 OA
ATOM     13  H   UNL     1      -0.139   5.299   2.979  1.00  0.00     0.297 HD
ENDBRANCH  10  12
ENDBRANCH   6  10
BRANCH   7  14
ATOM     14  C   UNL     1       6.602   8.051   4.089  1.00  0.00     0.040 A 
ATOM     15  C   UNL     1       6.277   8.751   5.252  1.00  0.00     0.034 A 
ATOM     16  C   UNL     1       7.853   8.235   3.496  1.00  0.00     0.034 A 
ATOM     17  C   UNL     1       7.194   9.620   5.810  1.00  0.00     0.043 A 
ATOM     18  C   UNL     1       8.761   9.106   4.064  1.00  0.00     0.043 A 
ATOM     19  C   UNL     1       8.433   9.798   5.217  1.00  0.00     0.041 A 
ATOM     20  Cl  UNL     1       6.793  10.491   7.257  1.00  0.00    -0.084 Cl
ATOM     21  Cl  UNL     1      10.317   9.336   3.328  1.00  0.00    -0.084 Cl
ENDBRANCH   7  14
TORSDOF 3
ENDMDL
MODEL 3
REMARK VINA RESULT:    -4.307      3.738      7.671
REMARK INTER + INTRA:          -5.234
REMARK INTER:                  -4.939
REMARK INTRA:                  -0.296
REMARK UNBOUND:                -0.298
REMARK SMILES O=C(O)c1ccc2nc(-c3cc(Cl)cc(Cl)c3)oc2c1
REMARK SMILES IDX 5 1 6 2 20 3 8 4 18 5 4 6 9 7 7 8 19 9 2 10 1 11 3 12 10 14
REMARK SMILES IDX 11 15 17 16 12 17 15 18 14 19 13 20 16 21
REMARK H PARENT 3 13
ROOT
ATOM      1  C   UNL     1       8.594   9.753   4.944  1.00  0.00     0.018 A 
ATOM      2  C   UNL     1       8.341   8.810   3.993  1.00  0.00     0.033 A 
ATOM      3  C   UNL     1       6.418   9.364   5.942  1.00  0.00     0.065 A 
ATOM      4  N   UNL     1       6.596   7.163   3.203  1.00  0.00    -0.209 NA
ATOM      5  O   UNL     1       5.101   7.604   4.722  1.00  0.00    -0.436 OA
ATOM      6  C   UNL     1       7.639  10.040   5.930  1.00  0.00     0.063 A 
ATOM      7  C   UNL     1       5.399   6.859   3.640  1.00  0.00     0.227 A 
ATOM      8  C   UNL     1       7.121   8.124   3.994  1.00  0.00     0.110 A 
ATOM      9  C   UNL     1       6.156   8.410   4.976  1.00  0.00     0.156 A 
ENDROOT
BRANCH   6  10
ATOM     10  C   UNL     1       7.926  11.058   6.957  1.00  0.00     0.335 C 
ATOM     11  O   UNL     1       7.040  11.447   7.690  1.00  0.00    -0.246 OA
BRANCH  10  12
ATOM     12  O   UNL     1       9.172  11.557   7.082  1.00  0.00    -0.478 OA
ATOM     13  H   UNL     1       9.871  11.125   6.574  1.00  0.00     0.297 HD
ENDBRANCH  10  12
ENDBRANCH   6  10
BRANCH   7  14
ATOM     14  C   UNL     1       4.508   5.848   3.035  1.00  0.00     0.040 A 
ATOM     15  C   UNL     1       3.124   5.963   3.169  1.00  0.00     0.034 A 
ATOM     16  C   UNL     1       5.048   4.772   2.327  1.00  0.00     0.034 A 
ATOM     17  C   UNL     1       2.296   5.015   2.600  1.00  0.00     0.043 A 
ATOM     18  C   UNL     1       4.210   3.831   1.762  1.00  0.00     0.043 A 
ATOM     19  C   UNL     1       2.838   3.951   1.899  1.00  0.00     0.041 A 
ATOM     20  Cl  UNL     1       0.574   5.157   2.765  1.00  0.00    -0.084 Cl
ATOM     21  Cl  UNL     1       4.880   2.493   0.881  1.00  0.00    -0.084 Cl
ENDBRANCH   7  14
TORSDOF 3
ENDMDL
MODEL 4
REMARK VINA RESULT:    -4.307      3.932      7.856
REMARK INTER + INTRA:          -5.234
REMARK INTER:                  -4.939
REMARK INTRA:                  -0.296
REMARK UNBOUND:                -0.298
REMARK SMILES O=C(O)c1ccc2nc(-c3cc(Cl)cc(Cl)c3)oc2c1
REMARK SMILES IDX 5 1 6 2 20 3 8 4 18 5 4 6 9 7 7 8 19 9 2 10 1 11 3 12 10 14
REMARK SMILES IDX 11 15 17 16 12 17 15 18 14 19 13 20 16 21
REMARK H PARENT 3 13
ROOT
ATOM      1  C   UNL     1       8.514   9.726   5.161  1.00  0.00     0.018 A 
ATOM      2  C   UNL     1       7.220   9.318   5.286  1.00  0.00     0.033 A 
ATOM      3  C   UNL     1       8.752   8.427   3.127  1.00  0.00     0.065 A 
ATOM      4  N   UNL     1       5.444   7.891   4.195  1.00  0.00    -0.209 NA
ATOM      5  O   UNL     1       6.645   7.198   2.519  1.00  0.00    -0.436 OA
ATOM      6  C   UNL     1       9.295   9.289   4.082  1.00  0.00     0.063 A 
ATOM      7  C   UNL     1       5.439   7.149   3.116  1.00  0.00     0.227 A 
ATOM      8  C   UNL     1       6.663   8.453   4.336  1.00  0.00     0.110 A 
ATOM      9  C   UNL     1       7.441   8.007   3.253  1.00  0.00     0.156 A 
ENDROOT
BRANCH   6  10
ATOM     10  C   UNL     1      10.692   9.742   3.954  1.00  0.00     0.335 C 
ATOM     11  O   UNL     1      11.405   9.275   3.088  1.00  0.00    -0.246 OA
BRANCH  10  12
ATOM     12  O   UNL     1      11.179  10.674   4.797  1.00  0.00    -0.478 OA
ATOM     13  H   UNL     1      10.536  11.170   5.322  1.00  0.00     0.297 HD
ENDBRANCH  10  12
ENDBRANCH   6  10
BRANCH   7  14
ATOM     14  C   UNL     1       4.282   6.371   2.627  1.00  0.00     0.040 A 
ATOM     15  C   UNL     1       2.983   6.782   2.931  1.00  0.00     0.034 A 
ATOM     16  C   UNL     1       4.484   5.222   1.861  1.00  0.00     0.034 A 
ATOM     17  C   UNL     1       1.906   6.051   2.470  1.00  0.00     0.043 A 
ATOM     18  C   UNL     1       3.398   4.500   1.406  1.00  0.00     0.043 A 
ATOM     19  C   UNL     1       2.112   4.912   1.710  1.00  0.00     0.041 A 
ATOM     20  Cl  UNL     1       0.289   6.560   2.846  1.00  0.00    -0.084 Cl
ATOM     21  Cl  UNL     1       3.647   3.070   0.452  1.00  0.00    -0.084 Cl
ENDBRANCH   7  14
TORSDOF 3
ENDMDL
MODEL 5
REMARK VINA RESULT:    -4.304      3.738      7.433
REMARK INTER + INTRA:          -5.231
REMARK INTER:                  -4.936
REMARK INTRA:                  -0.296
REMARK UNBOUND:                -0.298
REMARK SMILES O=C(O)c1ccc2nc(-c3cc(Cl)cc(Cl)c3)oc2c1
REMARK SMILES IDX 5 1 6 2 20 3 8 4 18 5 4 6 9 7 7 8 19 9 2 10 1 11 3 12 10 14
REMARK SMILES IDX 11 15 17 16 12 17 15 18 14 19 13 20 16 21
REMARK H PARENT 3 13
ROOT
ATOM      1  C   UNL     1       8.593   9.753   4.945  1.00  0.00     0.018 A 
ATOM      2  C   UNL     1       8.341   8.811   3.994  1.00  0.00     0.033 A 
ATOM      3  C   UNL     1       6.418   9.362   5.943  1.00  0.00     0.065 A 
ATOM      4  N   UNL     1       6.597   7.162   3.203  1.00  0.00    -0.209 NA
ATOM      5  O   UNL     1       5.103   7.601   4.722  1.00  0.00    -0.436 OA
ATOM      6  C   UNL     1       7.638  10.040   5.931  1.00  0.00     0.063 A 
ATOM      7  C   UNL     1       5.401   6.857   3.641  1.00  0.00     0.227 A 
ATOM      8  C   UNL     1       7.121   8.123   3.994  1.00  0.00     0.110 A 
ATOM      9  C   UNL     1       6.157   8.408   4.977  1.00  0.00     0.156 A 
ENDROOT
BRANCH   6  10
ATOM     10  C   UNL     1       7.924  11.057   6.958  1.00  0.00     0.335 C 
ATOM     11  O   UNL     1       7.037  11.446   7.691  1.00  0.00    -0.246 OA
BRANCH  10  12
ATOM     12  O   UNL     1       9.170  11.557   7.084  1.00  0.00    -0.478 OA
ATOM     13  H   UNL     1       9.821  11.283   6.425  1.00  0.00     0.297 HD
ENDBRANCH  10  12
ENDBRANCH   6  10
BRANCH   7  14
ATOM     14  C   UNL     1       4.511   5.845   3.035  1.00  0.00     0.040 A 
ATOM     15  C   UNL     1       5.050   4.771   2.326  1.00  0.00     0.034 A 
ATOM     16  C   UNL     1       3.126   5.961   3.169  1.00  0.00     0.034 A 
ATOM     17  C   UNL     1       4.212   3.829   1.763  1.00  0.00     0.043 A 
ATOM     18  C   UNL     1       2.299   5.012   2.602  1.00  0.00     0.043 A 
ATOM     19  C   UNL     1       2.840   3.949   1.900  1.00  0.00     0.041 A 
ATOM     20  Cl  UNL     1       4.881   2.491   0.881  1.00  0.00    -0.084 Cl
ATOM     21  Cl  UNL     1       0.576   5.154   2.767  1.00  0.00    -0.084 Cl
ENDBRANCH   7  14
TORSDOF 3
ENDMDL
MODEL 6
REMARK VINA RESULT:    -4.303      3.931      7.627
REMARK INTER + INTRA:          -5.229
REMARK INTER:                  -4.933
REMARK INTRA:                  -0.296
REMARK UNBOUND:                -0.298
REMARK SMILES O=C(O)c1ccc2nc(-c3cc(Cl)cc(Cl)c3)oc2c1
REMARK SMILES IDX 5 1 6 2 20 3 8 4 18 5 4 6 9 7 7 8 19 9 2 10 1 11 3 12 10 14
REMARK SMILES IDX 11 15 17 16 12 17 15 18 14 19 13 20 16 21
REMARK H PARENT 3 13
ROOT
ATOM      1  C   UNL     1       8.506   9.726   5.166  1.00  0.00     0.018 A 
ATOM      2  C   UNL     1       7.212   9.318   5.289  1.00  0.00     0.033 A 
ATOM      3  C   UNL     1       8.750   8.424   3.136  1.00  0.00     0.065 A 
ATOM      4  N   UNL     1       5.438   7.889   4.196  1.00  0.00    -0.209 NA
ATOM      5  O   UNL     1       6.644   7.193   2.524  1.00  0.00    -0.436 OA
ATOM      6  C   UNL     1       9.290   9.288   4.090  1.00  0.00     0.063 A 
ATOM      7  C   UNL     1       5.437   7.145   3.118  1.00  0.00     0.227 A 
ATOM      8  C   UNL     1       6.658   8.452   4.339  1.00  0.00     0.110 A 
ATOM      9  C   UNL     1       7.438   8.003   3.259  1.00  0.00     0.156 A 
ENDROOT
BRANCH   6  10
ATOM     10  C   UNL     1      10.687   9.741   3.964  1.00  0.00     0.335 C 
ATOM     11  O   UNL     1      11.402   9.272   3.101  1.00  0.00    -0.246 OA
BRANCH  10  12
ATOM     12  O   UNL     1      11.172  10.673   4.808  1.00  0.00    -0.478 OA
ATOM     13  H   UNL     1      11.128  10.476   5.753  1.00  0.00     0.297 HD
ENDBRANCH  10  12
ENDBRANCH   6  10
BRANCH   7  14
ATOM     14  C   UNL     1       4.281   6.366   2.628  1.00  0.00     0.040 A 
ATOM     15  C   UNL     1       4.483   5.220   1.859  1.00  0.00     0.034 A 
ATOM     16  C   UNL     1       2.981   6.776   2.932  1.00  0.00     0.034 A 
ATOM     17  C   UNL     1       3.398   4.496   1.405  1.00  0.00     0.043 A 
ATOM     18  C   UNL     1       1.905   6.044   2.472  1.00  0.00     0.043 A 
ATOM     19  C   UNL     1       2.112   4.908   1.710  1.00  0.00     0.041 A 
ATOM     20  Cl  UNL     1       3.647   3.069   0.448  1.00  0.00    -0.084 Cl
ATOM     21  Cl  UNL     1       0.287   6.552   2.849  1.00  0.00    -0.084 Cl
ENDBRANCH   7  14
TORSDOF 3
ENDMDL
MODEL 7
REMARK VINA RESULT:    -4.256      5.006      8.844
REMARK INTER + INTRA:          -5.176
REMARK INTER:                  -4.893
REMARK INTRA:                  -0.283
REMARK UNBOUND:                -0.298
REMARK SMILES O=C(O)c1ccc2nc(-c3cc(Cl)cc(Cl)c3)oc2c1
REMARK SMILES IDX 5 1 6 2 20 3 8 4 18 5 4 6 9 7 7 8 19 9 2 10 1 11 3 12 10 14
REMARK SMILES IDX 11 15 17 16 12 17 15 18 14 19 13 20 16 21
REMARK H PARENT 3 13
ROOT
ATOM      1  C   UNL     1       8.079  12.295  10.396  1.00  0.00     0.018 A 
ATOM      2  C   UNL     1       8.311  12.244   9.054  1.00  0.00     0.033 A 
ATOM      3  C   UNL     1       6.828  10.221  10.284  1.00  0.00     0.065 A 
ATOM      4  N   UNL     1       7.867  10.865   6.985  1.00  0.00    -0.209 NA
ATOM      5  O   UNL     1       6.708   9.296   7.949  1.00  0.00    -0.436 OA
ATOM      6  C   UNL     1       7.339  11.286  11.028  1.00  0.00     0.063 A 
ATOM      7  C   UNL     1       7.215   9.746   6.786  1.00  0.00     0.227 A 
ATOM      8  C   UNL     1       7.805  11.181   8.296  1.00  0.00     0.110 A 
ATOM      9  C   UNL     1       7.057  10.168   8.921  1.00  0.00     0.156 A 
ENDROOT
BRANCH   6  10
ATOM     10  C   UNL     1       7.100  11.349  12.481  1.00  0.00     0.335 C 
ATOM     11  O   UNL     1       7.839  10.760  13.244  1.00  0.00    -0.246 OA
BRANCH  10  12
ATOM     12  O   UNL     1       6.061  12.060  12.964  1.00  0.00    -0.478 OA
ATOM     13  H   UNL     1       5.302  12.180  12.378  1.00  0.00     0.297 HD
ENDBRANCH  10  12
ENDBRANCH   6  10
BRANCH   7  14
ATOM     14  C   UNL     1       7.060   9.078   5.477  1.00  0.00     0.040 A 
ATOM     15  C   UNL     1       5.877   8.404   5.170  1.00  0.00     0.034 A 
ATOM     16  C   UNL     1       8.097   9.117   4.544  1.00  0.00     0.034 A 
ATOM     17  C   UNL     1       5.737   7.783   3.945  1.00  0.00     0.043 A 
ATOM     18  C   UNL     1       7.946   8.491   3.322  1.00  0.00     0.043 A 
ATOM     19  C   UNL     1       6.770   7.825   3.023  1.00  0.00     0.041 A 
ATOM     20  Cl  UNL     1       4.266   6.945   3.561  1.00  0.00    -0.084 Cl
ATOM     21  Cl  UNL     1       9.234   8.539   2.159  1.00  0.00    -0.084 Cl
ENDBRANCH   7  14
TORSDOF 3
ENDMDL
MODEL 8
REMARK VINA RESULT:    -4.108      1.806      2.136
REMARK INTER + INTRA:          -5.007
REMARK INTER:                  -4.720
REMARK INTRA:                  -0.287
REMARK UNBOUND:                -0.298
REMARK SMILES O=C(O)c1ccc2nc(-c3cc(Cl)cc(Cl)c3)oc2c1
REMARK SMILES IDX 5 1 6 2 20 3 8 4 18 5 4 6 9 7 7 8 19 9 2 10 1 11 3 12 10 14
REMARK SMILES IDX 11 15 17 16 12 17 15 18 14 19 13 20 16 21
REMARK H PARENT 3 13
ROOT
ATOM      1  C   UNL     1       2.736   4.995   3.536  1.00  0.00     0.018 A 
ATOM      2  C   UNL     1       4.069   4.994   3.823  1.00  0.00     0.033 A 
ATOM      3  C   UNL     1       2.879   7.289   2.765  1.00  0.00     0.065 A 
ATOM      4  N   UNL     1       6.141   6.437   3.768  1.00  0.00    -0.209 NA
ATOM      5  O   UNL     1       5.207   8.222   2.948  1.00  0.00    -0.436 OA
ATOM      6  C   UNL     1       2.126   6.138   3.002  1.00  0.00     0.063 A 
ATOM      7  C   UNL     1       6.355   7.672   3.386  1.00  0.00     0.227 A 
ATOM      8  C   UNL     1       4.836   6.142   3.589  1.00  0.00     0.110 A 
ATOM      9  C   UNL     1       4.230   7.295   3.059  1.00  0.00     0.156 A 
ENDROOT
BRANCH   6  10
ATOM     10  C   UNL     1       0.685   6.125   2.690  1.00  0.00     0.335 C 
ATOM     11  O   UNL     1      -0.003   5.186   3.037  1.00  0.00    -0.246 OA
BRANCH  10  12
ATOM     12  O   UNL     1       0.132   7.154   2.017  1.00  0.00    -0.478 OA
ATOM     13  H   UNL     1       0.553   7.413   1.187  1.00  0.00     0.297 HD
ENDBRANCH  10  12
ENDBRANCH   6  10
BRANCH   7  14
ATOM     14  C   UNL     1       7.662   8.358   3.429  1.00  0.00     0.040 A 
ATOM     15  C   UNL     1       8.551   8.243   2.360  1.00  0.00     0.034 A 
ATOM     16  C   UNL     1       8.014   9.125   4.542  1.00  0.00     0.034 A 
ATOM     17  C   UNL     1       9.771   8.887   2.406  1.00  0.00     0.043 A 
ATOM     18  C   UNL     1       9.237   9.765   4.577  1.00  0.00     0.043 A 
ATOM     19  C   UNL     1      10.114   9.646   3.512  1.00  0.00     0.041 A 
ATOM     20  Cl  UNL     1      10.878   8.746   1.076  1.00  0.00    -0.084 Cl
ATOM     21  Cl  UNL     1       9.677  10.718   5.960  1.00  0.00    -0.084 Cl
ENDBRANCH   7  14
TORSDOF 3
ENDMDL
MODEL 9
REMARK VINA RESULT:    -4.065      1.219      1.765
REMARK INTER + INTRA:          -4.957
REMARK INTER:                  -4.672
REMARK INTRA:                  -0.285
REMARK UNBOUND:                -0.298
REMARK SMILES O=C(O)c1ccc2nc(-c3cc(Cl)cc(Cl)c3)oc2c1
REMARK SMILES IDX 5 1 6 2 20 3 8 4 18 5 4 6 9 7 7 8 19 9 2 10 1 11 3 12 10 14
REMARK SMILES IDX 11 15 17 16 12 17 15 18 14 19 13 20 16 21
REMARK H PARENT 3 13
ROOT
ATOM      1  C   UNL     1       2.190   5.838   1.644  1.00  0.00     0.018 A 
ATOM      2  C   UNL     1       2.632   7.006   2.189  1.00  0.00     0.033 A 
ATOM      3  C   UNL     1       4.365   4.825   1.990  1.00  0.00     0.065 A 
ATOM      4  N   UNL     1       4.659   8.108   3.217  1.00  0.00    -0.209 NA
ATOM      5  O   UNL     1       6.005   6.406   3.053  1.00  0.00    -0.436 OA
ATOM      6  C   UNL     1       3.047   4.734   1.539  1.00  0.00     0.063 A 
ATOM      7  C   UNL     1       5.875   7.684   3.457  1.00  0.00     0.227 A 
ATOM      8  C   UNL     1       3.951   7.110   2.646  1.00  0.00     0.110 A 
ATOM      9  C   UNL     1       4.819   6.009   2.539  1.00  0.00     0.156 A 
ENDROOT
BRANCH   6  10
ATOM     10  C   UNL     1       2.556   3.474   0.952  1.00  0.00     0.335 C 
ATOM     11  O   UNL     1       1.486   3.018   1.302  1.00  0.00    -0.246 OA
BRANCH  10  12
ATOM     12  O   UNL     1       3.294   2.827   0.028  1.00  0.00    -0.478 OA
ATOM     13  H   UNL     1       2.854   2.590  -0.799  1.00  0.00     0.297 HD
ENDBRANCH  10  12
ENDBRANCH   6  10
BRANCH   7  14
ATOM     14  C   UNL     1       6.947   8.491   4.077  1.00  0.00     0.040 A 
ATOM     15  C   UNL     1       8.201   8.574   3.472  1.00  0.00     0.034 A 
ATOM     16  C   UNL     1       6.707   9.172   5.272  1.00  0.00     0.034 A 
ATOM     17  C   UNL     1       9.198   9.330   4.057  1.00  0.00     0.043 A 
ATOM     18  C   UNL     1       7.712   9.925   5.847  1.00  0.00     0.043 A 
ATOM     19  C   UNL     1       8.954  10.004   5.242  1.00  0.00     0.041 A 
ATOM     20  Cl  UNL     1      10.759   9.435   3.306  1.00  0.00    -0.084 Cl
ATOM     21  Cl  UNL     1       7.416  10.774   7.333  1.00  0.00    -0.084 Cl
ENDBRANCH   7  14
TORSDOF 3
ENDMDL
