MODEL 1
REMARK VINA RESULT:    -5.813      0.000      0.000
REMARK INTER + INTRA:          -8.554
REMARK INTER:                  -8.023
REMARK INTRA:                  -0.531
REMARK UNBOUND:                -0.531
REMARK SMILES Cc1n[nH]c(C)c1CCCOc1cc(C(=O)O)ccc1F
REMARK SMILES IDX 11 1 12 2 14 3 18 4 13 5 19 6 20 7 21 8 15 9 16 10 17 11
REMARK SMILES IDX 10 13 9 14 8 15 7 16 5 17 2 18 4 19 3 20 6 21 1 22
REMARK H PARENT 17 12 4 23
ROOT
ATOM      1  O   UNL     1       5.158   4.541   4.270  1.00  0.00    -0.490 OA
ENDROOT
BRANCH   1   2
ATOM      2  C   UNL     1       4.140   4.621   3.372  1.00  0.00     0.155 A 
ATOM      3  C   UNL     1       2.082   5.620   2.631  1.00  0.00     0.063 A 
ATOM      4  C   UNL     1       2.076   4.774   1.519  1.00  0.00     0.019 A 
ATOM      5  C   UNL     1       3.123   5.538   3.558  1.00  0.00     0.065 A 
ATOM      6  C   UNL     1       3.099   3.866   1.338  1.00  0.00     0.044 A 
ATOM      7  C   UNL     1       4.132   3.790   2.256  1.00  0.00     0.165 A 
ATOM      8  F   UNL     1       5.131   2.899   2.073  1.00  0.00    -0.203 F 
BRANCH   3   9
ATOM      9  C   UNL     1       0.990   6.593   2.827  1.00  0.00     0.335 C 
ATOM     10  O   UNL     1       0.740   7.009   3.940  1.00  0.00    -0.246 OA
BRANCH   9  11
ATOM     11  O   UNL     1       0.274   7.024   1.770  1.00  0.00    -0.478 OA
ATOM     12  H   UNL     1       0.759   7.191   0.950  1.00  0.00     0.297 HD
ENDBRANCH   9  11
ENDBRANCH   3   9
ENDBRANCH   1   2
BRANCH   1  13
ATOM     13  C   UNL     1       6.452   4.952   3.822  1.00  0.00     0.230 C 
BRANCH  13  14
ATOM     14  C   UNL     1       6.918   6.154   4.646  1.00  0.00     0.046 C 
BRANCH  14  15
ATOM     15  C   UNL     1       6.650   7.443   3.866  1.00  0.00     0.043 C 
BRANCH  15  16
ATOM     16  C   UNL     1       7.572   8.529   4.355  1.00  0.00    -0.004 A 
ATOM     17  C   UNL     1       7.374   9.312   5.441  1.00  0.00     0.036 A 
ATOM     18  C   UNL     1       8.788   8.901   3.772  1.00  0.00     0.063 A 
ATOM     19  N   UNL     1       8.424  10.155   5.536  1.00  0.00    -0.282 N 
ATOM     20  N   UNL     1       9.296   9.880   4.475  1.00  0.00    -0.181 NA
ATOM     21  C   UNL     1       6.194   9.254   6.374  1.00  0.00     0.066 C 
ATOM     22  C   UNL     1       9.401   8.288   2.538  1.00  0.00     0.069 C 
ATOM     23  H   UNL     1       8.552  10.832   6.219  1.00  0.00     0.190 HD
ENDBRANCH  15  16
ENDBRANCH  14  15
ENDBRANCH  13  14
ENDBRANCH   1  13
TORSDOF 7
ENDMDL
MODEL 2
REMARK VINA RESULT:    -5.785      2.209      3.883
REMARK INTER + INTRA:          -8.514
REMARK INTER:                  -7.869
REMARK INTRA:                  -0.645
REMARK UNBOUND:                -0.531
REMARK SMILES Cc1n[nH]c(C)c1CCCOc1cc(C(=O)O)ccc1F
REMARK SMILES IDX 11 1 12 2 14 3 18 4 13 5 19 6 20 7 21 8 15 9 16 10 17 11
REMARK SMILES IDX 10 13 9 14 8 15 7 16 5 17 2 18 4 19 3 20 6 21 1 22
REMARK H PARENT 17 12 4 23
ROOT
ATOM      1  O   UNL     1       3.752   7.785   1.594  1.00  0.00    -0.490 OA
ENDROOT
BRANCH   1   2
ATOM      2  C   UNL     1       3.393   6.477   1.694  1.00  0.00     0.155 A 
ATOM      3  C   UNL     1       3.951   4.143   1.554  1.00  0.00     0.063 A 
ATOM      4  C   UNL     1       2.641   3.812   1.913  1.00  0.00     0.019 A 
ATOM      5  C   UNL     1       4.322   5.484   1.446  1.00  0.00     0.065 A 
ATOM      6  C   UNL     1       1.723   4.810   2.165  1.00  0.00     0.044 A 
ATOM      7  C   UNL     1       2.095   6.140   2.061  1.00  0.00     0.165 A 
ATOM      8  F   UNL     1       1.190   7.113   2.308  1.00  0.00    -0.203 F 
BRANCH   3   9
ATOM      9  C   UNL     1       4.936   3.077   1.285  1.00  0.00     0.335 C 
ATOM     10  O   UNL     1       5.879   3.293   0.553  1.00  0.00    -0.246 OA
BRANCH   9  11
ATOM     11  O   UNL     1       4.791   1.866   1.859  1.00  0.00    -0.478 OA
ATOM     12  H   UNL     1       4.933   1.093   1.294  1.00  0.00     0.297 HD
ENDBRANCH   9  11
ENDBRANCH   3   9
ENDBRANCH   1   2
BRANCH   1  13
ATOM     13  C   UNL     1       3.958   8.496   2.817  1.00  0.00     0.230 C 
BRANCH  13  14
ATOM     14  C   UNL     1       5.411   8.969   2.892  1.00  0.00     0.046 C 
BRANCH  14  15
ATOM     15  C   UNL     1       6.189   8.074   3.859  1.00  0.00     0.043 C 
BRANCH  15  16
ATOM     16  C   UNL     1       7.298   8.868   4.499  1.00  0.00    -0.004 A 
ATOM     17  C   UNL     1       8.537   9.059   3.990  1.00  0.00     0.036 A 
ATOM     18  C   UNL     1       7.226   9.544   5.722  1.00  0.00     0.063 A 
ATOM     19  N   UNL     1       9.227   9.824   4.863  1.00  0.00    -0.282 N 
ATOM     20  N   UNL     1       8.383  10.112   5.944  1.00  0.00    -0.181 NA
ATOM     21  C   UNL     1       9.054   8.516   2.684  1.00  0.00     0.066 C 
ATOM     22  C   UNL     1       6.025   9.600   6.632  1.00  0.00     0.069 C 
ATOM     23  H   UNL     1      10.144  10.120   4.761  1.00  0.00     0.190 HD
ENDBRANCH  15  16
ENDBRANCH  14  15
ENDBRANCH  13  14
ENDBRANCH   1  13
TORSDOF 7
ENDMDL
MODEL 3
REMARK VINA RESULT:    -5.711      2.220      3.465
REMARK INTER + INTRA:          -8.412
REMARK INTER:                  -7.780
REMARK INTRA:                  -0.632
REMARK UNBOUND:                -0.531
REMARK SMILES Cc1n[nH]c(C)c1CCCOc1cc(C(=O)O)ccc1F
REMARK SMILES IDX 11 1 12 2 14 3 18 4 13 5 19 6 20 7 21 8 15 9 16 10 17 11
REMARK SMILES IDX 10 13 9 14 8 15 7 16 5 17 2 18 4 19 3 20 6 21 1 22
REMARK H PARENT 17 12 4 23
ROOT
ATOM      1  O   UNL     1       3.774   7.767   1.541  1.00  0.00    -0.490 OA
ENDROOT
BRANCH   1   2
ATOM      2  C   UNL     1       3.406   6.463   1.657  1.00  0.00     0.155 A 
ATOM      3  C   UNL     1       3.948   4.123   1.545  1.00  0.00     0.063 A 
ATOM      4  C   UNL     1       2.638   3.806   1.911  1.00  0.00     0.019 A 
ATOM      5  C   UNL     1       4.328   5.461   1.419  1.00  0.00     0.065 A 
ATOM      6  C   UNL     1       1.727   4.813   2.152  1.00  0.00     0.044 A 
ATOM      7  C   UNL     1       2.107   6.139   2.032  1.00  0.00     0.165 A 
ATOM      8  F   UNL     1       1.210   7.121   2.270  1.00  0.00    -0.203 F 
BRANCH   3   9
ATOM      9  C   UNL     1       4.926   3.048   1.286  1.00  0.00     0.335 C 
ATOM     10  O   UNL     1       5.870   3.250   0.550  1.00  0.00    -0.246 OA
BRANCH   9  11
ATOM     11  O   UNL     1       4.774   1.845   1.872  1.00  0.00    -0.478 OA
ATOM     12  H   UNL     1       4.860   1.811   2.835  1.00  0.00     0.297 HD
ENDBRANCH   9  11
ENDBRANCH   3   9
ENDBRANCH   1   2
BRANCH   1  13
ATOM     13  C   UNL     1       3.949   8.503   2.754  1.00  0.00     0.230 C 
BRANCH  13  14
ATOM     14  C   UNL     1       5.396   8.991   2.849  1.00  0.00     0.046 C 
BRANCH  14  15
ATOM     15  C   UNL     1       6.163   8.122   3.848  1.00  0.00     0.043 C 
BRANCH  15  16
ATOM     16  C   UNL     1       7.288   8.922   4.451  1.00  0.00    -0.004 A 
ATOM     17  C   UNL     1       7.244   9.601   5.621  1.00  0.00     0.036 A 
ATOM     18  C   UNL     1       8.565   9.089   3.904  1.00  0.00     0.063 A 
ATOM     19  N   UNL     1       8.448  10.182   5.804  1.00  0.00    -0.282 N 
ATOM     20  N   UNL     1       9.259   9.850   4.711  1.00  0.00    -0.181 NA
ATOM     21  C   UNL     1       6.063   9.690   6.552  1.00  0.00     0.066 C 
ATOM     22  C   UNL     1       9.053   8.504   2.603  1.00  0.00     0.069 C 
ATOM     23  H   UNL     1       8.707  10.734   6.559  1.00  0.00     0.190 HD
ENDBRANCH  15  16
ENDBRANCH  14  15
ENDBRANCH  13  14
ENDBRANCH   1  13
TORSDOF 7
ENDMDL
MODEL 4
REMARK VINA RESULT:    -5.704      0.153      1.775
REMARK INTER + INTRA:          -8.403
REMARK INTER:                  -7.742
REMARK INTRA:                  -0.661
REMARK UNBOUND:                -0.531
REMARK SMILES Cc1n[nH]c(C)c1CCCOc1cc(C(=O)O)ccc1F
REMARK SMILES IDX 11 1 12 2 14 3 18 4 13 5 19 6 20 7 21 8 15 9 16 10 17 11
REMARK SMILES IDX 10 13 9 14 8 15 7 16 5 17 2 18 4 19 3 20 6 21 1 22
REMARK H PARENT 17 12 4 23
ROOT
ATOM      1  O   UNL     1       5.180   4.483   4.178  1.00  0.00    -0.490 OA
ENDROOT
BRANCH   1   2
ATOM      2  C   UNL     1       4.140   4.569   3.308  1.00  0.00     0.155 A 
ATOM      3  C   UNL     1       2.074   5.589   2.618  1.00  0.00     0.063 A 
ATOM      4  C   UNL     1       2.028   4.737   1.511  1.00  0.00     0.019 A 
ATOM      5  C   UNL     1       3.139   5.499   3.517  1.00  0.00     0.065 A 
ATOM      6  C   UNL     1       3.034   3.817   1.307  1.00  0.00     0.044 A 
ATOM      7  C   UNL     1       4.092   3.733   2.197  1.00  0.00     0.165 A 
ATOM      8  F   UNL     1       5.075   2.830   1.991  1.00  0.00    -0.203 F 
BRANCH   3   9
ATOM      9  C   UNL     1       0.998   6.575   2.839  1.00  0.00     0.335 C 
ATOM     10  O   UNL     1       0.804   7.022   3.951  1.00  0.00    -0.246 OA
BRANCH   9  11
ATOM     11  O   UNL     1       0.237   6.984   1.806  1.00  0.00    -0.478 OA
ATOM     12  H   UNL     1      -0.486   7.594   2.007  1.00  0.00     0.297 HD
ENDBRANCH   9  11
ENDBRANCH   3   9
ENDBRANCH   1   2
BRANCH   1  13
ATOM     13  C   UNL     1       6.426   5.047   3.759  1.00  0.00     0.230 C 
BRANCH  13  14
ATOM     14  C   UNL     1       6.809   6.191   4.700  1.00  0.00     0.046 C 
BRANCH  14  15
ATOM     15  C   UNL     1       6.505   7.530   4.024  1.00  0.00     0.043 C 
BRANCH  15  16
ATOM     16  C   UNL     1       7.475   8.572   4.515  1.00  0.00    -0.004 A 
ATOM     17  C   UNL     1       8.647   8.910   3.927  1.00  0.00     0.036 A 
ATOM     18  C   UNL     1       7.322   9.368   5.655  1.00  0.00     0.063 A 
ATOM     19  N   UNL     1       9.217   9.879   4.673  1.00  0.00    -0.282 N 
ATOM     20  N   UNL     1       8.368  10.146   5.755  1.00  0.00    -0.181 NA
ATOM     21  C   UNL     1       9.212   8.311   2.666  1.00  0.00     0.066 C 
ATOM     22  C   UNL     1       6.158   9.325   6.612  1.00  0.00     0.069 C 
ATOM     23  H   UNL     1      10.065  10.314   4.492  1.00  0.00     0.190 HD
ENDBRANCH  15  16
ENDBRANCH  14  15
ENDBRANCH  13  14
ENDBRANCH   1  13
TORSDOF 7
ENDMDL
MODEL 5
REMARK VINA RESULT:    -5.071      3.800      6.555
REMARK INTER + INTRA:          -7.529
REMARK INTER:                  -6.702
REMARK INTRA:                  -0.827
REMARK UNBOUND:                -0.531
REMARK SMILES Cc1n[nH]c(C)c1CCCOc1cc(C(=O)O)ccc1F
REMARK SMILES IDX 11 1 12 2 14 3 18 4 13 5 19 6 20 7 21 8 15 9 16 10 17 11
REMARK SMILES IDX 10 13 9 14 8 15 7 16 5 17 2 18 4 19 3 20 6 21 1 22
REMARK H PARENT 17 12 4 23
ROOT
ATOM      1  O   UNL     1       6.320   6.684   2.806  1.00  0.00    -0.490 OA
ENDROOT
BRANCH   1   2
ATOM      2  C   UNL     1       6.908   7.651   3.559  1.00  0.00     0.155 A 
ATOM      3  C   UNL     1       6.898   9.092   5.484  1.00  0.00     0.063 A 
ATOM      4  C   UNL     1       8.129   9.622   5.089  1.00  0.00     0.019 A 
ATOM      5  C   UNL     1       6.289   8.102   4.710  1.00  0.00     0.065 A 
ATOM      6  C   UNL     1       8.741   9.162   3.942  1.00  0.00     0.044 A 
ATOM      7  C   UNL     1       8.138   8.176   3.179  1.00  0.00     0.165 A 
ATOM      8  F   UNL     1       8.743   7.729   2.057  1.00  0.00    -0.203 F 
BRANCH   3   9
ATOM      9  C   UNL     1       6.240   9.582   6.711  1.00  0.00     0.335 C 
ATOM     10  O   UNL     1       5.498  10.542   6.661  1.00  0.00    -0.246 OA
BRANCH   9  11
ATOM     11  O   UNL     1       6.458   8.959   7.886  1.00  0.00    -0.478 OA
ATOM     12  H   UNL     1       7.176   9.301   8.438  1.00  0.00     0.297 HD
ENDBRANCH   9  11
ENDBRANCH   3   9
ENDBRANCH   1   2
BRANCH   1  13
ATOM     13  C   UNL     1       5.556   5.695   3.501  1.00  0.00     0.230 C 
BRANCH  13  14
ATOM     14  C   UNL     1       4.898   4.756   2.489  1.00  0.00     0.046 C 
BRANCH  14  15
ATOM     15  C   UNL     1       4.301   5.578   1.344  1.00  0.00     0.043 C 
BRANCH  15  16
ATOM     16  C   UNL     1       2.933   6.071   1.738  1.00  0.00    -0.004 A 
ATOM     17  C   UNL     1       1.831   5.306   1.915  1.00  0.00     0.036 A 
ATOM     18  C   UNL     1       2.579   7.401   1.993  1.00  0.00     0.063 A 
ATOM     19  N   UNL     1       0.814   6.123   2.263  1.00  0.00    -0.282 N 
ATOM     20  N   UNL     1       1.308   7.434   2.301  1.00  0.00    -0.181 NA
ATOM     21  C   UNL     1       1.753   3.811   1.753  1.00  0.00     0.066 C 
ATOM     22  C   UNL     1       3.501   8.591   1.915  1.00  0.00     0.069 C 
ATOM     23  H   UNL     1      -0.097   5.851   2.452  1.00  0.00     0.190 HD
ENDBRANCH  15  16
ENDBRANCH  14  15
ENDBRANCH  13  14
ENDBRANCH   1  13
TORSDOF 7
ENDMDL
MODEL 6
REMARK VINA RESULT:    -5.023      3.828      6.573
REMARK INTER + INTRA:          -7.463
REMARK INTER:                  -6.615
REMARK INTRA:                  -0.848
REMARK UNBOUND:                -0.531
REMARK SMILES Cc1n[nH]c(C)c1CCCOc1cc(C(=O)O)ccc1F
REMARK SMILES IDX 11 1 12 2 14 3 18 4 13 5 19 6 20 7 21 8 15 9 16 10 17 11
REMARK SMILES IDX 10 13 9 14 8 15 7 16 5 17 2 18 4 19 3 20 6 21 1 22
REMARK H PARENT 17 12 4 23
ROOT
ATOM      1  O   UNL     1       6.305   6.828   2.850  1.00  0.00    -0.490 OA
ENDROOT
BRANCH   1   2
ATOM      2  C   UNL     1       6.915   7.768   3.620  1.00  0.00     0.155 A 
ATOM      3  C   UNL     1       6.940   9.172   5.572  1.00  0.00     0.063 A 
ATOM      4  C   UNL     1       8.184   9.680   5.186  1.00  0.00     0.019 A 
ATOM      5  C   UNL     1       6.308   8.210   4.781  1.00  0.00     0.065 A 
ATOM      6  C   UNL     1       8.784   9.228   4.030  1.00  0.00     0.044 A 
ATOM      7  C   UNL     1       8.157   8.271   3.249  1.00  0.00     0.165 A 
ATOM      8  F   UNL     1       8.751   7.832   2.117  1.00  0.00    -0.203 F 
BRANCH   3   9
ATOM      9  C   UNL     1       6.295   9.653   6.809  1.00  0.00     0.335 C 
ATOM     10  O   UNL     1       6.815  10.534   7.462  1.00  0.00    -0.246 OA
BRANCH   9  11
ATOM     11  O   UNL     1       5.125   9.119   7.210  1.00  0.00    -0.478 OA
ATOM     12  H   UNL     1       4.334   9.667   7.109  1.00  0.00     0.297 HD
ENDBRANCH   9  11
ENDBRANCH   3   9
ENDBRANCH   1   2
BRANCH   1  13
ATOM     13  C   UNL     1       5.616   5.777   3.532  1.00  0.00     0.230 C 
BRANCH  13  14
ATOM     14  C   UNL     1       4.962   4.848   2.507  1.00  0.00     0.046 C 
BRANCH  14  15
ATOM     15  C   UNL     1       4.339   5.683   1.386  1.00  0.00     0.043 C 
BRANCH  15  16
ATOM     16  C   UNL     1       2.960   6.129   1.798  1.00  0.00    -0.004 A 
ATOM     17  C   UNL     1       2.581   7.400   2.065  1.00  0.00     0.036 A 
ATOM     18  C   UNL     1       1.844   5.303   1.965  1.00  0.00     0.063 A 
ATOM     19  N   UNL     1       1.273   7.378   2.396  1.00  0.00    -0.282 N 
ATOM     20  N   UNL     1       0.834   6.049   2.331  1.00  0.00    -0.181 NA
ATOM     21  C   UNL     1       3.461   8.621   2.003  1.00  0.00     0.066 C 
ATOM     22  C   UNL     1       1.813   3.808   1.771  1.00  0.00     0.069 C 
ATOM     23  H   UNL     1       0.732   8.146   2.638  1.00  0.00     0.190 HD
ENDBRANCH  15  16
ENDBRANCH  14  15
ENDBRANCH  13  14
ENDBRANCH   1  13
TORSDOF 7
ENDMDL
MODEL 7
REMARK VINA RESULT:    -4.996      3.966      7.065
REMARK INTER + INTRA:          -7.425
REMARK INTER:                  -6.645
REMARK INTRA:                  -0.780
REMARK UNBOUND:                -0.531
REMARK SMILES Cc1n[nH]c(C)c1CCCOc1cc(C(=O)O)ccc1F
REMARK SMILES IDX 11 1 12 2 14 3 18 4 13 5 19 6 20 7 21 8 15 9 16 10 17 11
REMARK SMILES IDX 10 13 9 14 8 15 7 16 5 17 2 18 4 19 3 20 6 21 1 22
REMARK H PARENT 17 12 4 23
ROOT
ATOM      1  O   UNL     1       4.984   7.434   4.101  1.00  0.00    -0.490 OA
ENDROOT
BRANCH   1   2
ATOM      2  C   UNL     1       6.118   8.139   4.356  1.00  0.00     0.155 A 
ATOM      3  C   UNL     1       8.304   8.890   3.691  1.00  0.00     0.063 A 
ATOM      4  C   UNL     1       8.423   9.594   4.892  1.00  0.00     0.019 A 
ATOM      5  C   UNL     1       7.142   8.161   3.427  1.00  0.00     0.065 A 
ATOM      6  C   UNL     1       7.394   9.572   5.809  1.00  0.00     0.044 A 
ATOM      7  C   UNL     1       6.241   8.852   5.544  1.00  0.00     0.165 A 
ATOM      8  F   UNL     1       5.236   8.834   6.447  1.00  0.00    -0.203 F 
BRANCH   3   9
ATOM      9  C   UNL     1       9.404   8.912   2.706  1.00  0.00     0.335 C 
ATOM     10  O   UNL     1       9.432   8.096   1.808  1.00  0.00    -0.246 OA
BRANCH   9  11
ATOM     11  O   UNL     1      10.373   9.843   2.801  1.00  0.00    -0.478 OA
ATOM     12  H   UNL     1      10.989   9.913   2.058  1.00  0.00     0.297 HD
ENDBRANCH   9  11
ENDBRANCH   3   9
ENDBRANCH   1   2
BRANCH   1  13
ATOM     13  C   UNL     1       4.396   7.597   2.808  1.00  0.00     0.230 C 
BRANCH  13  14
ATOM     14  C   UNL     1       3.130   6.743   2.713  1.00  0.00     0.046 C 
BRANCH  14  15
ATOM     15  C   UNL     1       3.267   5.525   3.628  1.00  0.00     0.043 C 
BRANCH  15  16
ATOM     16  C   UNL     1       3.889   4.387   2.861  1.00  0.00    -0.004 A 
ATOM     17  C   UNL     1       3.325   3.723   1.825  1.00  0.00     0.036 A 
ATOM     18  C   UNL     1       5.153   3.833   3.090  1.00  0.00     0.063 A 
ATOM     19  N   UNL     1       4.199   2.779   1.417  1.00  0.00    -0.282 N 
ATOM     20  N   UNL     1       5.337   2.865   2.229  1.00  0.00    -0.181 NA
ATOM     21  C   UNL     1       1.966   3.990   1.233  1.00  0.00     0.066 C 
ATOM     22  C   UNL     1       6.130   4.269   4.152  1.00  0.00     0.069 C 
ATOM     23  H   UNL     1       4.063   2.151   0.691  1.00  0.00     0.190 HD
ENDBRANCH  15  16
ENDBRANCH  14  15
ENDBRANCH  13  14
ENDBRANCH   1  13
TORSDOF 7
ENDMDL
MODEL 8
REMARK VINA RESULT:    -4.832      3.796      6.682
REMARK INTER + INTRA:          -7.200
REMARK INTER:                  -6.620
REMARK INTRA:                  -0.579
REMARK UNBOUND:                -0.531
REMARK SMILES Cc1n[nH]c(C)c1CCCOc1cc(C(=O)O)ccc1F
REMARK SMILES IDX 11 1 12 2 14 3 18 4 13 5 19 6 20 7 21 8 15 9 16 10 17 11
REMARK SMILES IDX 10 13 9 14 8 15 7 16 5 17 2 18 4 19 3 20 6 21 1 22
REMARK H PARENT 17 12 4 23
ROOT
ATOM      1  O   UNL     1       4.544   7.202   3.942  1.00  0.00    -0.490 OA
ENDROOT
BRANCH   1   2
ATOM      2  C   UNL     1       5.725   7.847   4.138  1.00  0.00     0.155 A 
ATOM      3  C   UNL     1       7.101   9.333   5.434  1.00  0.00     0.063 A 
ATOM      4  C   UNL     1       8.148   9.148   4.527  1.00  0.00     0.019 A 
ATOM      5  C   UNL     1       5.886   8.676   5.233  1.00  0.00     0.065 A 
ATOM      6  C   UNL     1       7.981   8.314   3.442  1.00  0.00     0.044 A 
ATOM      7  C   UNL     1       6.775   7.660   3.247  1.00  0.00     0.165 A 
ATOM      8  F   UNL     1       6.617   6.844   2.181  1.00  0.00    -0.203 F 
BRANCH   3   9
ATOM      9  C   UNL     1       7.278  10.224   6.597  1.00  0.00     0.335 C 
ATOM     10  O   UNL     1       6.382  10.351   7.407  1.00  0.00    -0.246 OA
BRANCH   9  11
ATOM     11  O   UNL     1       8.436  10.892   6.764  1.00  0.00    -0.478 OA
ATOM     12  H   UNL     1       8.965  11.060   5.971  1.00  0.00     0.297 HD
ENDBRANCH   9  11
ENDBRANCH   3   9
ENDBRANCH   1   2
BRANCH   1  13
ATOM     13  C   UNL     1       3.904   7.392   2.677  1.00  0.00     0.230 C 
BRANCH  13  14
ATOM     14  C   UNL     1       2.779   6.368   2.517  1.00  0.00     0.046 C 
BRANCH  14  15
ATOM     15  C   UNL     1       3.109   5.116   3.334  1.00  0.00     0.043 C 
BRANCH  15  16
ATOM     16  C   UNL     1       3.908   4.160   2.487  1.00  0.00    -0.004 A 
ATOM     17  C   UNL     1       5.157   3.712   2.755  1.00  0.00     0.036 A 
ATOM     18  C   UNL     1       3.488   3.572   1.289  1.00  0.00     0.063 A 
ATOM     19  N   UNL     1       5.517   2.876   1.758  1.00  0.00    -0.282 N 
ATOM     20  N   UNL     1       4.454   2.808   0.848  1.00  0.00    -0.181 NA
ATOM     21  C   UNL     1       5.994   4.080   3.951  1.00  0.00     0.066 C 
ATOM     22  C   UNL     1       2.157   3.791   0.616  1.00  0.00     0.069 C 
ATOM     23  H   UNL     1       6.362   2.406   1.685  1.00  0.00     0.190 HD
ENDBRANCH  15  16
ENDBRANCH  14  15
ENDBRANCH  13  14
ENDBRANCH   1  13
TORSDOF 7
ENDMDL
MODEL 9
REMARK VINA RESULT:    -4.690      8.460     10.635
REMARK INTER + INTRA:          -7.003
REMARK INTER:                  -4.574
REMARK INTRA:                  -2.429
REMARK UNBOUND:                -0.531
REMARK SMILES Cc1n[nH]c(C)c1CCCOc1cc(C(=O)O)ccc1F
REMARK SMILES IDX 11 1 12 2 14 3 18 4 13 5 19 6 20 7 21 8 15 9 16 10 17 11
REMARK SMILES IDX 10 13 9 14 8 15 7 16 5 17 2 18 4 19 3 20 6 21 1 22
REMARK H PARENT 17 12 4 23
ROOT
ATOM      1  O   UNL     1       7.911  13.563  12.392  1.00  0.00    -0.490 OA
ENDROOT
BRANCH   1   2
ATOM      2  C   UNL     1       7.778  12.512  11.539  1.00  0.00     0.155 A 
ATOM      3  C   UNL     1       7.917  11.592   9.322  1.00  0.00     0.063 A 
ATOM      4  C   UNL     1       7.509  10.350   9.816  1.00  0.00     0.019 A 
ATOM      5  C   UNL     1       8.050  12.675  10.194  1.00  0.00     0.065 A 
ATOM      6  C   UNL     1       7.245  10.196  11.161  1.00  0.00     0.044 A 
ATOM      7  C   UNL     1       7.383  11.270  12.024  1.00  0.00     0.165 A 
ATOM      8  F   UNL     1       7.123  11.112  13.341  1.00  0.00    -0.203 F 
BRANCH   3   9
ATOM      9  C   UNL     1       8.200  11.760   7.883  1.00  0.00     0.335 C 
ATOM     10  O   UNL     1       7.293  11.725   7.077  1.00  0.00    -0.246 OA
BRANCH   9  11
ATOM     11  O   UNL     1       9.465  11.960   7.465  1.00  0.00    -0.478 OA
ATOM     12  H   UNL     1       9.586  12.500   6.671  1.00  0.00     0.297 HD
ENDBRANCH   9  11
ENDBRANCH   3   9
ENDBRANCH   1   2
BRANCH   1  13
ATOM     13  C   UNL     1       9.125  13.639  13.143  1.00  0.00     0.230 C 
BRANCH  13  14
ATOM     14  C   UNL     1      10.126  14.528  12.404  1.00  0.00     0.046 C 
BRANCH  14  15
ATOM     15  C   UNL     1      11.468  13.801  12.290  1.00  0.00     0.043 C 
BRANCH  15  16
ATOM     16  C   UNL     1      11.563  13.129  10.945  1.00  0.00    -0.004 A 
ATOM     17  C   UNL     1      11.775  13.746   9.759  1.00  0.00     0.036 A 
ATOM     18  C   UNL     1      11.454  11.755  10.702  1.00  0.00     0.063 A 
ATOM     19  N   UNL     1      11.793  12.797   8.799  1.00  0.00    -0.282 N 
ATOM     20  N   UNL     1      11.585  11.556   9.415  1.00  0.00    -0.181 NA
ATOM     21  C   UNL     1      11.958  15.226   9.549  1.00  0.00     0.066 C 
ATOM     22  C   UNL     1      11.215  10.690  11.741  1.00  0.00     0.069 C 
ATOM     23  H   UNL     1      11.925  12.948   7.850  1.00  0.00     0.190 HD
ENDBRANCH  15  16
ENDBRANCH  14  15
ENDBRANCH  13  14
ENDBRANCH   1  13
TORSDOF 7
ENDMDL
