MODEL 1
REMARK VINA RESULT:    -5.510      0.000      0.000
REMARK INTER + INTRA:          -8.243
REMARK INTER:                  -7.604
REMARK INTRA:                  -0.639
REMARK UNBOUND:                -0.639
REMARK SMILES Cc1n[nH]c(C)c1CCCOc1cc(C(=O)O)ccc1F
REMARK SMILES IDX 11 1 12 2 14 3 18 4 13 5 19 6 20 7 21 8 15 9 16 10 17 11
REMARK SMILES IDX 10 13 9 14 8 15 7 16 5 17 2 18 4 19 3 20 6 21 1 22
REMARK H PARENT 17 12 4 23
ROOT
ATOM      1  O   UNL     1       5.821   7.564  -1.680  1.00  0.00    -0.490 OA
ENDROOT
BRANCH   1   2
ATOM      2  C   UNL     1       4.746   6.733  -1.631  1.00  0.00     0.155 A 
ATOM      3  C   UNL     1       2.412   6.313  -2.028  1.00  0.00     0.063 A 
ATOM      4  C   UNL     1       2.565   5.016  -1.530  1.00  0.00     0.019 A 
ATOM      5  C   UNL     1       3.513   7.171  -2.075  1.00  0.00     0.065 A 
ATOM      6  C   UNL     1       3.801   4.586  -1.094  1.00  0.00     0.044 A 
ATOM      7  C   UNL     1       4.892   5.437  -1.147  1.00  0.00     0.165 A 
ATOM      8  F   UNL     1       6.100   5.010  -0.719  1.00  0.00    -0.203 F 
BRANCH   3   9
ATOM      9  C   UNL     1       1.091   6.776  -2.495  1.00  0.00     0.335 C 
ATOM     10  O   UNL     1       0.604   7.788  -2.035  1.00  0.00    -0.246 OA
BRANCH   9  11
ATOM     11  O   UNL     1       0.429   6.079  -3.439  1.00  0.00    -0.478 OA
ATOM     12  H   UNL     1      -0.092   5.320  -3.140  1.00  0.00     0.297 HD
ENDBRANCH   9  11
ENDBRANCH   3   9
ENDBRANCH   1   2
BRANCH   1  13
ATOM     13  C   UNL     1       5.963   8.505  -0.613  1.00  0.00     0.230 C 
BRANCH  13  14
ATOM     14  C   UNL     1       6.541   9.812  -1.160  1.00  0.00     0.046 C 
BRANCH  14  15
ATOM     15  C   UNL     1       6.072  10.012  -2.603  1.00  0.00     0.043 C 
BRANCH  15  16
ATOM     16  C   UNL     1       6.587  11.330  -3.121  1.00  0.00    -0.004 A 
ATOM     17  C   UNL     1       5.937  12.516  -3.065  1.00  0.00     0.036 A 
ATOM     18  C   UNL     1       7.823  11.546  -3.738  1.00  0.00     0.063 A 
ATOM     19  N   UNL     1       6.731  13.447  -3.633  1.00  0.00    -0.282 N 
ATOM     20  N   UNL     1       7.908  12.813  -4.052  1.00  0.00    -0.181 NA
ATOM     21  C   UNL     1       4.571  12.753  -2.475  1.00  0.00     0.066 C 
ATOM     22  C   UNL     1       8.872  10.497  -4.007  1.00  0.00     0.069 C 
ATOM     23  H   UNL     1       6.523  14.389  -3.735  1.00  0.00     0.190 HD
ENDBRANCH  15  16
ENDBRANCH  14  15
ENDBRANCH  13  14
ENDBRANCH   1  13
TORSDOF 7
ENDMDL
MODEL 2
REMARK VINA RESULT:    -5.501      1.964      3.725
REMARK INTER + INTRA:          -8.231
REMARK INTER:                  -7.598
REMARK INTRA:                  -0.633
REMARK UNBOUND:                -0.639
REMARK SMILES Cc1n[nH]c(C)c1CCCOc1cc(C(=O)O)ccc1F
REMARK SMILES IDX 11 1 12 2 14 3 18 4 13 5 19 6 20 7 21 8 15 9 16 10 17 11
REMARK SMILES IDX 10 13 9 14 8 15 7 16 5 17 2 18 4 19 3 20 6 21 1 22
REMARK H PARENT 17 12 4 23
ROOT
ATOM      1  O   UNL     1       3.358   8.398  -2.834  1.00  0.00    -0.490 OA
ENDROOT
BRANCH   1   2
ATOM      2  C   UNL     1       3.394   7.157  -2.280  1.00  0.00     0.155 A 
ATOM      3  C   UNL     1       4.619   5.371  -1.236  1.00  0.00     0.063 A 
ATOM      4  C   UNL     1       3.443   4.624  -1.142  1.00  0.00     0.019 A 
ATOM      5  C   UNL     1       4.588   6.644  -1.809  1.00  0.00     0.065 A 
ATOM      6  C   UNL     1       2.255   5.146  -1.610  1.00  0.00     0.044 A 
ATOM      7  C   UNL     1       2.225   6.411  -2.173  1.00  0.00     0.165 A 
ATOM      8  F   UNL     1       1.059   6.917  -2.629  1.00  0.00    -0.203 F 
BRANCH   3   9
ATOM      9  C   UNL     1       5.892   4.815  -0.736  1.00  0.00     0.335 C 
ATOM     10  O   UNL     1       6.862   4.770  -1.464  1.00  0.00    -0.246 OA
BRANCH   9  11
ATOM     11  O   UNL     1       5.978   4.364   0.531  1.00  0.00    -0.478 OA
ATOM     12  H   UNL     1       6.797   4.554   1.010  1.00  0.00     0.297 HD
ENDBRANCH   9  11
ENDBRANCH   3   9
ENDBRANCH   1   2
BRANCH   1  13
ATOM     13  C   UNL     1       3.833   8.523  -4.177  1.00  0.00     0.230 C 
BRANCH  13  14
ATOM     14  C   UNL     1       4.539   9.869  -4.345  1.00  0.00     0.046 C 
BRANCH  14  15
ATOM     15  C   UNL     1       5.346  10.183  -3.084  1.00  0.00     0.043 C 
BRANCH  15  16
ATOM     16  C   UNL     1       6.110  11.466  -3.281  1.00  0.00    -0.004 A 
ATOM     17  C   UNL     1       7.388  11.574  -3.714  1.00  0.00     0.036 A 
ATOM     18  C   UNL     1       5.622  12.757  -3.055  1.00  0.00     0.063 A 
ATOM     19  N   UNL     1       7.699  12.886  -3.754  1.00  0.00    -0.282 N 
ATOM     20  N   UNL     1       6.576  13.609  -3.332  1.00  0.00    -0.181 NA
ATOM     21  C   UNL     1       8.299  10.433  -4.085  1.00  0.00     0.066 C 
ATOM     22  C   UNL     1       4.240  13.107  -2.565  1.00  0.00     0.069 C 
ATOM     23  H   UNL     1       8.550  13.263  -4.027  1.00  0.00     0.190 HD
ENDBRANCH  15  16
ENDBRANCH  14  15
ENDBRANCH  13  14
ENDBRANCH   1  13
TORSDOF 7
ENDMDL
MODEL 3
REMARK VINA RESULT:    -5.397      1.959      3.279
REMARK INTER + INTRA:          -8.087
REMARK INTER:                  -7.479
REMARK INTRA:                  -0.608
REMARK UNBOUND:                -0.639
REMARK SMILES Cc1n[nH]c(C)c1CCCOc1cc(C(=O)O)ccc1F
REMARK SMILES IDX 11 1 12 2 14 3 18 4 13 5 19 6 20 7 21 8 15 9 16 10 17 11
REMARK SMILES IDX 10 13 9 14 8 15 7 16 5 17 2 18 4 19 3 20 6 21 1 22
REMARK H PARENT 17 12 4 23
ROOT
ATOM      1  O   UNL     1       3.447   8.475  -2.778  1.00  0.00    -0.490 OA
ENDROOT
BRANCH   1   2
ATOM      2  C   UNL     1       3.453   7.222  -2.249  1.00  0.00     0.155 A 
ATOM      3  C   UNL     1       4.633   5.392  -1.229  1.00  0.00     0.063 A 
ATOM      4  C   UNL     1       3.442   4.665  -1.163  1.00  0.00     0.019 A 
ATOM      5  C   UNL     1       4.632   6.677  -1.776  1.00  0.00     0.065 A 
ATOM      6  C   UNL     1       2.270   5.220  -1.633  1.00  0.00     0.044 A 
ATOM      7  C   UNL     1       2.270   6.496  -2.170  1.00  0.00     0.165 A 
ATOM      8  F   UNL     1       1.118   7.033  -2.628  1.00  0.00    -0.203 F 
BRANCH   3   9
ATOM      9  C   UNL     1       5.890   4.802  -0.727  1.00  0.00     0.335 C 
ATOM     10  O   UNL     1       6.861   4.734  -1.452  1.00  0.00    -0.246 OA
BRANCH   9  11
ATOM     11  O   UNL     1       5.960   4.345   0.538  1.00  0.00    -0.478 OA
ATOM     12  H   UNL     1       6.689   4.673   1.084  1.00  0.00     0.297 HD
ENDBRANCH   9  11
ENDBRANCH   3   9
ENDBRANCH   1   2
BRANCH   1  13
ATOM     13  C   UNL     1       3.741   8.591  -4.173  1.00  0.00     0.230 C 
BRANCH  13  14
ATOM     14  C   UNL     1       4.572   9.853  -4.414  1.00  0.00     0.046 C 
BRANCH  14  15
ATOM     15  C   UNL     1       5.395  10.169  -3.163  1.00  0.00     0.043 C 
BRANCH  15  16
ATOM     16  C   UNL     1       6.164  11.447  -3.377  1.00  0.00    -0.004 A 
ATOM     17  C   UNL     1       5.697  12.701  -3.176  1.00  0.00     0.036 A 
ATOM     18  C   UNL     1       7.490  11.547  -3.812  1.00  0.00     0.063 A 
ATOM     19  N   UNL     1       6.689  13.564  -3.479  1.00  0.00    -0.282 N 
ATOM     20  N   UNL     1       7.804  12.815  -3.880  1.00  0.00    -0.181 NA
ATOM     21  C   UNL     1       4.316  13.068  -2.698  1.00  0.00     0.066 C 
ATOM     22  C   UNL     1       8.397  10.392  -4.155  1.00  0.00     0.069 C 
ATOM     23  H   UNL     1       6.640  14.531  -3.429  1.00  0.00     0.190 HD
ENDBRANCH  15  16
ENDBRANCH  14  15
ENDBRANCH  13  14
ENDBRANCH   1  13
TORSDOF 7
ENDMDL
MODEL 4
REMARK VINA RESULT:    -4.786      9.760     10.742
REMARK INTER + INTRA:          -7.244
REMARK INTER:                  -7.010
REMARK INTRA:                  -0.234
REMARK UNBOUND:                -0.639
REMARK SMILES Cc1n[nH]c(C)c1CCCOc1cc(C(=O)O)ccc1F
REMARK SMILES IDX 11 1 12 2 14 3 18 4 13 5 19 6 20 7 21 8 15 9 16 10 17 11
REMARK SMILES IDX 10 13 9 14 8 15 7 16 5 17 2 18 4 19 3 20 6 21 1 22
REMARK H PARENT 17 12 4 23
ROOT
ATOM      1  O   UNL     1       1.586   1.082  -0.987  1.00  0.00    -0.490 OA
ENDROOT
BRANCH   1   2
ATOM      2  C   UNL     1       1.934   0.238  -1.994  1.00  0.00     0.155 A 
ATOM      3  C   UNL     1       1.562  -0.648  -4.198  1.00  0.00     0.063 A 
ATOM      4  C   UNL     1       2.668  -1.487  -4.044  1.00  0.00     0.019 A 
ATOM      5  C   UNL     1       1.198   0.217  -3.164  1.00  0.00     0.065 A 
ATOM      6  C   UNL     1       3.400  -1.455  -2.876  1.00  0.00     0.044 A 
ATOM      7  C   UNL     1       3.041  -0.593  -1.853  1.00  0.00     0.165 A 
ATOM      8  F   UNL     1       3.762  -0.566  -0.711  1.00  0.00    -0.203 F 
BRANCH   3   9
ATOM      9  C   UNL     1       0.776  -0.679  -5.448  1.00  0.00     0.335 C 
ATOM     10  O   UNL     1       0.640  -1.722  -6.053  1.00  0.00    -0.246 OA
BRANCH   9  11
ATOM     11  O   UNL     1       0.204   0.449  -5.912  1.00  0.00    -0.478 OA
ATOM     12  H   UNL     1      -0.633   0.716  -5.507  1.00  0.00     0.297 HD
ENDBRANCH   9  11
ENDBRANCH   3   9
ENDBRANCH   1   2
BRANCH   1  13
ATOM     13  C   UNL     1       0.761   0.548   0.052  1.00  0.00     0.230 C 
BRANCH  13  14
ATOM     14  C   UNL     1       0.452   1.645   1.071  1.00  0.00     0.046 C 
BRANCH  14  15
ATOM     15  C   UNL     1       0.506   1.059   2.484  1.00  0.00     0.043 C 
BRANCH  15  16
ATOM     16  C   UNL     1      -0.214   1.976   3.437  1.00  0.00    -0.004 A 
ATOM     17  C   UNL     1       0.342   2.641   4.476  1.00  0.00     0.036 A 
ATOM     18  C   UNL     1      -1.576   2.297   3.402  1.00  0.00     0.063 A 
ATOM     19  N   UNL     1      -0.633   3.352   5.081  1.00  0.00    -0.282 N 
ATOM     20  N   UNL     1      -1.829   3.115   4.390  1.00  0.00    -0.181 NA
ATOM     21  C   UNL     1       1.792   2.597   4.885  1.00  0.00     0.066 C 
ATOM     22  C   UNL     1      -2.580   1.778   2.404  1.00  0.00     0.069 C 
ATOM     23  H   UNL     1      -0.526   3.924   5.856  1.00  0.00     0.190 HD
ENDBRANCH  15  16
ENDBRANCH  14  15
ENDBRANCH  13  14
ENDBRANCH   1  13
TORSDOF 7
ENDMDL
MODEL 5
REMARK VINA RESULT:    -4.548      3.735      6.584
REMARK INTER + INTRA:          -6.915
REMARK INTER:                  -6.099
REMARK INTRA:                  -0.816
REMARK UNBOUND:                -0.639
REMARK SMILES Cc1n[nH]c(C)c1CCCOc1cc(C(=O)O)ccc1F
REMARK SMILES IDX 11 1 12 2 14 3 18 4 13 5 19 6 20 7 21 8 15 9 16 10 17 11
REMARK SMILES IDX 10 13 9 14 8 15 7 16 5 17 2 18 4 19 3 20 6 21 1 22
REMARK H PARENT 17 12 4 23
ROOT
ATOM      1  O   UNL     1       6.137   8.561  -2.642  1.00  0.00    -0.490 OA
ENDROOT
BRANCH   1   2
ATOM      2  C   UNL     1       6.310   9.883  -2.910  1.00  0.00     0.155 A 
ATOM      3  C   UNL     1       5.517  12.151  -2.824  1.00  0.00     0.063 A 
ATOM      4  C   UNL     1       6.686  12.580  -3.458  1.00  0.00     0.019 A 
ATOM      5  C   UNL     1       5.334  10.794  -2.552  1.00  0.00     0.065 A 
ATOM      6  C   UNL     1       7.657  11.664  -3.806  1.00  0.00     0.044 A 
ATOM      7  C   UNL     1       7.475  10.319  -3.530  1.00  0.00     0.165 A 
ATOM      8  F   UNL     1       8.430   9.427  -3.874  1.00  0.00    -0.203 F 
BRANCH   3   9
ATOM      9  C   UNL     1       4.476  13.129  -2.450  1.00  0.00     0.335 C 
ATOM     10  O   UNL     1       3.567  13.372  -3.217  1.00  0.00    -0.246 OA
BRANCH   9  11
ATOM     11  O   UNL     1       4.532  13.747  -1.254  1.00  0.00    -0.478 OA
ATOM     12  H   UNL     1       3.805  14.347  -1.035  1.00  0.00     0.297 HD
ENDBRANCH   9  11
ENDBRANCH   3   9
ENDBRANCH   1   2
BRANCH   1  13
ATOM     13  C   UNL     1       5.636   8.222  -1.346  1.00  0.00     0.230 C 
BRANCH  13  14
ATOM     14  C   UNL     1       5.345   6.722  -1.290  1.00  0.00     0.046 C 
BRANCH  14  15
ATOM     15  C   UNL     1       4.879   6.240  -2.665  1.00  0.00     0.043 C 
BRANCH  15  16
ATOM     16  C   UNL     1       3.380   6.364  -2.760  1.00  0.00    -0.004 A 
ATOM     17  C   UNL     1       2.475   5.649  -2.052  1.00  0.00     0.036 A 
ATOM     18  C   UNL     1       2.678   7.244  -3.591  1.00  0.00     0.063 A 
ATOM     19  N   UNL     1       1.244   6.057  -2.427  1.00  0.00    -0.282 N 
ATOM     20  N   UNL     1       1.398   7.055  -3.398  1.00  0.00    -0.181 NA
ATOM     21  C   UNL     1       2.786   4.589  -1.029  1.00  0.00     0.066 C 
ATOM     22  C   UNL     1       3.290   8.229  -4.554  1.00  0.00     0.069 C 
ATOM     23  H   UNL     1       0.403   5.718  -2.085  1.00  0.00     0.190 HD
ENDBRANCH  15  16
ENDBRANCH  14  15
ENDBRANCH  13  14
ENDBRANCH   1  13
TORSDOF 7
ENDMDL
MODEL 6
REMARK VINA RESULT:    -4.492      3.776      7.117
REMARK INTER + INTRA:          -6.838
REMARK INTER:                  -5.999
REMARK INTRA:                  -0.839
REMARK UNBOUND:                -0.639
REMARK SMILES Cc1n[nH]c(C)c1CCCOc1cc(C(=O)O)ccc1F
REMARK SMILES IDX 11 1 12 2 14 3 18 4 13 5 19 6 20 7 21 8 15 9 16 10 17 11
REMARK SMILES IDX 10 13 9 14 8 15 7 16 5 17 2 18 4 19 3 20 6 21 1 22
REMARK H PARENT 17 12 4 23
ROOT
ATOM      1  O   UNL     1       4.297   9.625  -2.530  1.00  0.00    -0.490 OA
ENDROOT
BRANCH   1   2
ATOM      2  C   UNL     1       5.246  10.540  -2.865  1.00  0.00     0.155 A 
ATOM      3  C   UNL     1       7.455  11.061  -3.660  1.00  0.00     0.063 A 
ATOM      4  C   UNL     1       7.167  12.425  -3.553  1.00  0.00     0.019 A 
ATOM      5  C   UNL     1       6.485  10.119  -3.312  1.00  0.00     0.065 A 
ATOM      6  C   UNL     1       5.927  12.835  -3.112  1.00  0.00     0.044 A 
ATOM      7  C   UNL     1       4.964  11.898  -2.772  1.00  0.00     0.165 A 
ATOM      8  F   UNL     1       3.751  12.307  -2.340  1.00  0.00    -0.203 F 
BRANCH   3   9
ATOM      9  C   UNL     1       8.781  10.619  -4.133  1.00  0.00     0.335 C 
ATOM     10  O   UNL     1       9.706  11.405  -4.171  1.00  0.00    -0.246 OA
BRANCH   9  11
ATOM     11  O   UNL     1       8.967   9.341  -4.516  1.00  0.00    -0.478 OA
ATOM     12  H   UNL     1       9.591   9.185  -5.239  1.00  0.00     0.297 HD
ENDBRANCH   9  11
ENDBRANCH   3   9
ENDBRANCH   1   2
BRANCH   1  13
ATOM     13  C   UNL     1       4.097   8.537  -3.436  1.00  0.00     0.230 C 
BRANCH  13  14
ATOM     14  C   UNL     1       3.115   7.538  -2.823  1.00  0.00     0.046 C 
BRANCH  14  15
ATOM     15  C   UNL     1       3.260   7.550  -1.299  1.00  0.00     0.043 C 
BRANCH  15  16
ATOM     16  C   UNL     1       4.259   6.502  -0.881  1.00  0.00    -0.004 A 
ATOM     17  C   UNL     1       4.093   5.162  -0.974  1.00  0.00     0.036 A 
ATOM     18  C   UNL     1       5.524   6.742  -0.335  1.00  0.00     0.063 A 
ATOM     19  N   UNL     1       5.211   4.575  -0.497  1.00  0.00    -0.282 N 
ATOM     20  N   UNL     1       6.093   5.588  -0.098  1.00  0.00    -0.181 NA
ATOM     21  C   UNL     1       2.878   4.453  -1.513  1.00  0.00     0.066 C 
ATOM     22  C   UNL     1       6.124   8.097  -0.057  1.00  0.00     0.069 C 
ATOM     23  H   UNL     1       5.374   3.621  -0.439  1.00  0.00     0.190 HD
ENDBRANCH  15  16
ENDBRANCH  14  15
ENDBRANCH  13  14
ENDBRANCH   1  13
TORSDOF 7
ENDMDL
MODEL 7
REMARK VINA RESULT:    -4.391      4.491      8.123
REMARK INTER + INTRA:          -6.698
REMARK INTER:                  -5.998
REMARK INTRA:                  -0.700
REMARK UNBOUND:                -0.639
REMARK SMILES Cc1n[nH]c(C)c1CCCOc1cc(C(=O)O)ccc1F
REMARK SMILES IDX 11 1 12 2 14 3 18 4 13 5 19 6 20 7 21 8 15 9 16 10 17 11
REMARK SMILES IDX 10 13 9 14 8 15 7 16 5 17 2 18 4 19 3 20 6 21 1 22
REMARK H PARENT 17 12 4 23
ROOT
ATOM      1  O   UNL     1       7.807  10.644  -3.422  1.00  0.00    -0.490 OA
ENDROOT
BRANCH   1   2
ATOM      2  C   UNL     1       8.767  11.224  -4.190  1.00  0.00     0.155 A 
ATOM      3  C   UNL     1      10.142  13.121  -4.733  1.00  0.00     0.063 A 
ATOM      4  C   UNL     1      10.737  12.389  -5.764  1.00  0.00     0.019 A 
ATOM      5  C   UNL     1       9.152  12.529  -3.946  1.00  0.00     0.065 A 
ATOM      6  C   UNL     1      10.351  11.086  -5.997  1.00  0.00     0.044 A 
ATOM      7  C   UNL     1       9.372  10.500  -5.211  1.00  0.00     0.165 A 
ATOM      8  F   UNL     1       8.998   9.222  -5.444  1.00  0.00    -0.203 F 
BRANCH   3   9
ATOM      9  C   UNL     1      10.554  14.516  -4.482  1.00  0.00     0.335 C 
ATOM     10  O   UNL     1      11.287  15.083  -5.265  1.00  0.00    -0.246 OA
BRANCH   9  11
ATOM     11  O   UNL     1      10.111  15.161  -3.385  1.00  0.00    -0.478 OA
ATOM     12  H   UNL     1       9.261  14.875  -3.020  1.00  0.00     0.297 HD
ENDBRANCH   9  11
ENDBRANCH   3   9
ENDBRANCH   1   2
BRANCH   1  13
ATOM     13  C   UNL     1       6.538  11.299  -3.365  1.00  0.00     0.230 C 
BRANCH  13  14
ATOM     14  C   UNL     1       5.545  10.422  -2.599  1.00  0.00     0.046 C 
BRANCH  14  15
ATOM     15  C   UNL     1       5.849   8.948  -2.876  1.00  0.00     0.043 C 
BRANCH  15  16
ATOM     16  C   UNL     1       4.763   8.090  -2.281  1.00  0.00    -0.004 A 
ATOM     17  C   UNL     1       3.669   7.627  -2.930  1.00  0.00     0.036 A 
ATOM     18  C   UNL     1       4.709   7.626  -0.963  1.00  0.00     0.063 A 
ATOM     19  N   UNL     1       2.946   6.901  -2.052  1.00  0.00    -0.282 N 
ATOM     20  N   UNL     1       3.618   6.919  -0.822  1.00  0.00    -0.181 NA
ATOM     21  C   UNL     1       3.322   7.876  -4.375  1.00  0.00     0.066 C 
ATOM     22  C   UNL     1       5.728   7.902   0.114  1.00  0.00     0.069 C 
ATOM     23  H   UNL     1       2.109   6.448  -2.238  1.00  0.00     0.190 HD
ENDBRANCH  15  16
ENDBRANCH  14  15
ENDBRANCH  13  14
ENDBRANCH   1  13
TORSDOF 7
ENDMDL
MODEL 8
REMARK VINA RESULT:    -4.368      4.848      7.992
REMARK INTER + INTRA:          -6.666
REMARK INTER:                  -5.959
REMARK INTRA:                  -0.708
REMARK UNBOUND:                -0.639
REMARK SMILES Cc1n[nH]c(C)c1CCCOc1cc(C(=O)O)ccc1F
REMARK SMILES IDX 11 1 12 2 14 3 18 4 13 5 19 6 20 7 21 8 15 9 16 10 17 11
REMARK SMILES IDX 10 13 9 14 8 15 7 16 5 17 2 18 4 19 3 20 6 21 1 22
REMARK H PARENT 17 12 4 23
ROOT
ATOM      1  O   UNL     1       4.928  12.212  -2.963  1.00  0.00    -0.490 OA
ENDROOT
BRANCH   1   2
ATOM      2  C   UNL     1       4.930  13.554  -2.748  1.00  0.00     0.155 A 
ATOM      3  C   UNL     1       5.627  15.768  -3.377  1.00  0.00     0.063 A 
ATOM      4  C   UNL     1       4.912  16.295  -2.298  1.00  0.00     0.019 A 
ATOM      5  C   UNL     1       5.632  14.389  -3.598  1.00  0.00     0.065 A 
ATOM      6  C   UNL     1       4.210  15.455  -1.460  1.00  0.00     0.044 A 
ATOM      7  C   UNL     1       4.212  14.088  -1.684  1.00  0.00     0.165 A 
ATOM      8  F   UNL     1       3.522  13.271  -0.858  1.00  0.00    -0.203 F 
BRANCH   3   9
ATOM      9  C   UNL     1       6.379  16.664  -4.277  1.00  0.00     0.335 C 
ATOM     10  O   UNL     1       6.653  17.792  -3.921  1.00  0.00    -0.246 OA
BRANCH   9  11
ATOM     11  O   UNL     1       6.768  16.228  -5.491  1.00  0.00    -0.478 OA
ATOM     12  H   UNL     1       7.584  16.602  -5.852  1.00  0.00     0.297 HD
ENDBRANCH   9  11
ENDBRANCH   3   9
ENDBRANCH   1   2
BRANCH   1  13
ATOM     13  C   UNL     1       6.201  11.577  -3.110  1.00  0.00     0.230 C 
BRANCH  13  14
ATOM     14  C   UNL     1       6.015  10.058  -3.112  1.00  0.00     0.046 C 
BRANCH  14  15
ATOM     15  C   UNL     1       4.727   9.701  -2.367  1.00  0.00     0.043 C 
BRANCH  15  16
ATOM     16  C   UNL     1       4.592   8.202  -2.287  1.00  0.00    -0.004 A 
ATOM     17  C   UNL     1       5.036   7.415  -1.279  1.00  0.00     0.036 A 
ATOM     18  C   UNL     1       3.979   7.379  -3.237  1.00  0.00     0.063 A 
ATOM     19  N   UNL     1       4.721   6.139  -1.585  1.00  0.00    -0.282 N 
ATOM     20  N   UNL     1       4.063   6.142  -2.821  1.00  0.00    -0.181 NA
ATOM     21  C   UNL     1       5.752   7.881  -0.039  1.00  0.00     0.066 C 
ATOM     22  C   UNL     1       3.344   7.837  -4.526  1.00  0.00     0.069 C 
ATOM     23  H   UNL     1       4.918   5.358  -1.044  1.00  0.00     0.190 HD
ENDBRANCH  15  16
ENDBRANCH  14  15
ENDBRANCH  13  14
ENDBRANCH   1  13
TORSDOF 7
ENDMDL
MODEL 9
REMARK VINA RESULT:    -4.149      3.925      6.846
REMARK INTER + INTRA:          -6.365
REMARK INTER:                  -5.704
REMARK INTRA:                  -0.661
REMARK UNBOUND:                -0.639
REMARK SMILES Cc1n[nH]c(C)c1CCCOc1cc(C(=O)O)ccc1F
REMARK SMILES IDX 11 1 12 2 14 3 18 4 13 5 19 6 20 7 21 8 15 9 16 10 17 11
REMARK SMILES IDX 10 13 9 14 8 15 7 16 5 17 2 18 4 19 3 20 6 21 1 22
REMARK H PARENT 17 12 4 23
ROOT
ATOM      1  O   UNL     1       4.378   9.412  -2.399  1.00  0.00    -0.490 OA
ENDROOT
BRANCH   1   2
ATOM      2  C   UNL     1       5.106  10.511  -2.730  1.00  0.00     0.155 A 
ATOM      3  C   UNL     1       5.317  12.900  -2.903  1.00  0.00     0.063 A 
ATOM      4  C   UNL     1       6.613  12.746  -3.402  1.00  0.00     0.019 A 
ATOM      5  C   UNL     1       4.565  11.773  -2.567  1.00  0.00     0.065 A 
ATOM      6  C   UNL     1       7.147  11.483  -3.556  1.00  0.00     0.044 A 
ATOM      7  C   UNL     1       6.400  10.367  -3.218  1.00  0.00     0.165 A 
ATOM      8  F   UNL     1       6.929   9.133  -3.370  1.00  0.00    -0.203 F 
BRANCH   3   9
ATOM      9  C   UNL     1       4.744  14.250  -2.737  1.00  0.00     0.335 C 
ATOM     10  O   UNL     1       4.106  14.521  -1.740  1.00  0.00    -0.246 OA
BRANCH   9  11
ATOM     11  O   UNL     1       4.933  15.184  -3.689  1.00  0.00    -0.478 OA
ATOM     12  H   UNL     1       4.580  14.992  -4.569  1.00  0.00     0.297 HD
ENDBRANCH   9  11
ENDBRANCH   3   9
ENDBRANCH   1   2
BRANCH   1  13
ATOM     13  C   UNL     1       3.880   8.615  -3.477  1.00  0.00     0.230 C 
BRANCH  13  14
ATOM     14  C   UNL     1       3.174   7.380  -2.914  1.00  0.00     0.046 C 
BRANCH  14  15
ATOM     15  C   UNL     1       3.258   7.397  -1.387  1.00  0.00     0.043 C 
BRANCH  15  16
ATOM     16  C   UNL     1       4.266   6.376  -0.927  1.00  0.00    -0.004 A 
ATOM     17  C   UNL     1       4.122   5.032  -0.986  1.00  0.00     0.036 A 
ATOM     18  C   UNL     1       5.520   6.650  -0.369  1.00  0.00     0.063 A 
ATOM     19  N   UNL     1       5.242   4.475  -0.478  1.00  0.00    -0.282 N 
ATOM     20  N   UNL     1       6.102   5.512  -0.093  1.00  0.00    -0.181 NA
ATOM     21  C   UNL     1       2.927   4.290  -1.524  1.00  0.00     0.066 C 
ATOM     22  C   UNL     1       6.095   8.021  -0.118  1.00  0.00     0.069 C 
ATOM     23  H   UNL     1       5.419   3.526  -0.393  1.00  0.00     0.190 HD
ENDBRANCH  15  16
ENDBRANCH  14  15
ENDBRANCH  13  14
ENDBRANCH   1  13
TORSDOF 7
ENDMDL
