MODEL 1
REMARK VINA RESULT:    -4.026      0.000      0.000
REMARK INTER + INTRA:          -4.910
REMARK INTER:                  -4.614
REMARK INTRA:                  -0.296
REMARK UNBOUND:                -0.296
REMARK SMILES O=C(O)c1ccc2nc(-c3cc(Cl)cc(Cl)c3)oc2c1
REMARK SMILES IDX 5 1 6 2 20 3 8 4 18 5 4 6 9 7 7 8 19 9 2 10 1 11 3 12 10 14
REMARK SMILES IDX 11 15 17 16 12 17 15 18 14 19 13 20 16 21
REMARK H PARENT 3 13
ROOT
ATOM      1  C   UNL     1       7.064  12.794  -3.539  1.00  0.00     0.018 A 
ATOM      2  C   UNL     1       5.893  12.234  -3.123  1.00  0.00     0.033 A 
ATOM      3  C   UNL     1       8.072  10.598  -3.740  1.00  0.00     0.065 A 
ATOM      4  N   UNL     1       4.785  10.019  -2.627  1.00  0.00    -0.209 NA
ATOM      5  O   UNL     1       6.488   8.751  -3.105  1.00  0.00    -0.436 OA
ATOM      6  C   UNL     1       8.165  11.986  -3.854  1.00  0.00     0.063 A 
ATOM      7  C   UNL     1       5.207   8.780  -2.690  1.00  0.00     0.227 A 
ATOM      8  C   UNL     1       5.786  10.843  -3.004  1.00  0.00     0.110 A 
ATOM      9  C   UNL     1       6.887  10.026  -3.313  1.00  0.00     0.156 A 
ENDROOT
BRANCH   6  10
ATOM     10  C   UNL     1       9.424  12.603  -4.309  1.00  0.00     0.335 C 
ATOM     11  O   UNL     1      10.421  11.921  -4.444  1.00  0.00    -0.246 OA
BRANCH  10  12
ATOM     12  O   UNL     1       9.471  13.924  -4.574  1.00  0.00    -0.478 OA
ATOM     13  H   UNL     1      10.297  14.383  -4.371  1.00  0.00     0.297 HD
ENDBRANCH  10  12
ENDBRANCH   6  10
BRANCH   7  14
ATOM     14  C   UNL     1       4.397   7.591  -2.353  1.00  0.00     0.040 A 
ATOM     15  C   UNL     1       3.009   7.628  -2.485  1.00  0.00     0.034 A 
ATOM     16  C   UNL     1       5.019   6.425  -1.901  1.00  0.00     0.034 A 
ATOM     17  C   UNL     1       2.258   6.513  -2.170  1.00  0.00     0.043 A 
ATOM     18  C   UNL     1       4.258   5.317  -1.589  1.00  0.00     0.043 A 
ATOM     19  C   UNL     1       2.880   5.360  -1.722  1.00  0.00     0.041 A 
ATOM     20  Cl  UNL     1       0.530   6.557  -2.334  1.00  0.00    -0.084 Cl
ATOM     21  Cl  UNL     1       5.029   3.866  -1.027  1.00  0.00    -0.084 Cl
ENDBRANCH   7  14
TORSDOF 3
ENDMDL
MODEL 2
REMARK VINA RESULT:    -4.021      0.002      2.019
REMARK INTER + INTRA:          -4.904
REMARK INTER:                  -4.608
REMARK INTRA:                  -0.296
REMARK UNBOUND:                -0.296
REMARK SMILES O=C(O)c1ccc2nc(-c3cc(Cl)cc(Cl)c3)oc2c1
REMARK SMILES IDX 5 1 6 2 20 3 8 4 18 5 4 6 9 7 7 8 19 9 2 10 1 11 3 12 10 14
REMARK SMILES IDX 11 15 17 16 12 17 15 18 14 19 13 20 16 21
REMARK H PARENT 3 13
ROOT
ATOM      1  C   UNL     1       7.064  12.794  -3.539  1.00  0.00     0.018 A 
ATOM      2  C   UNL     1       5.894  12.234  -3.123  1.00  0.00     0.033 A 
ATOM      3  C   UNL     1       8.072  10.598  -3.741  1.00  0.00     0.065 A 
ATOM      4  N   UNL     1       4.786  10.018  -2.627  1.00  0.00    -0.209 NA
ATOM      5  O   UNL     1       6.489   8.751  -3.106  1.00  0.00    -0.436 OA
ATOM      6  C   UNL     1       8.166  11.986  -3.855  1.00  0.00     0.063 A 
ATOM      7  C   UNL     1       5.209   8.780  -2.690  1.00  0.00     0.227 A 
ATOM      8  C   UNL     1       5.787  10.843  -3.004  1.00  0.00     0.110 A 
ATOM      9  C   UNL     1       6.888  10.026  -3.314  1.00  0.00     0.156 A 
ENDROOT
BRANCH   6  10
ATOM     10  C   UNL     1       9.424  12.604  -4.310  1.00  0.00     0.335 C 
ATOM     11  O   UNL     1      10.421  11.922  -4.445  1.00  0.00    -0.246 OA
BRANCH  10  12
ATOM     12  O   UNL     1       9.470  13.925  -4.575  1.00  0.00    -0.478 OA
ATOM     13  H   UNL     1      10.203  14.238  -5.122  1.00  0.00     0.297 HD
ENDBRANCH  10  12
ENDBRANCH   6  10
BRANCH   7  14
ATOM     14  C   UNL     1       4.399   7.590  -2.354  1.00  0.00     0.040 A 
ATOM     15  C   UNL     1       5.020   6.425  -1.903  1.00  0.00     0.034 A 
ATOM     16  C   UNL     1       3.010   7.628  -2.487  1.00  0.00     0.034 A 
ATOM     17  C   UNL     1       4.258   5.317  -1.589  1.00  0.00     0.043 A 
ATOM     18  C   UNL     1       2.259   6.514  -2.170  1.00  0.00     0.043 A 
ATOM     19  C   UNL     1       2.880   5.361  -1.724  1.00  0.00     0.041 A 
ATOM     20  Cl  UNL     1       5.027   3.866  -1.028  1.00  0.00    -0.084 Cl
ATOM     21  Cl  UNL     1       0.531   6.560  -2.335  1.00  0.00    -0.084 Cl
ENDBRANCH   7  14
TORSDOF 3
ENDMDL
MODEL 3
REMARK VINA RESULT:    -3.986      1.868      3.239
REMARK INTER + INTRA:          -4.864
REMARK INTER:                  -4.568
REMARK INTRA:                  -0.296
REMARK UNBOUND:                -0.296
REMARK SMILES O=C(O)c1ccc2nc(-c3cc(Cl)cc(Cl)c3)oc2c1
REMARK SMILES IDX 5 1 6 2 20 3 8 4 18 5 4 6 9 7 7 8 19 9 2 10 1 11 3 12 10 14
REMARK SMILES IDX 11 15 17 16 12 17 15 18 14 19 13 20 16 21
REMARK H PARENT 3 13
ROOT
ATOM      1  C   UNL     1       6.978  12.847  -3.625  1.00  0.00     0.018 A 
ATOM      2  C   UNL     1       7.184  11.504  -3.520  1.00  0.00     0.033 A 
ATOM      3  C   UNL     1       4.740  12.598  -2.724  1.00  0.00     0.065 A 
ATOM      4  N   UNL     1       6.084   9.347  -2.800  1.00  0.00    -0.209 NA
ATOM      5  O   UNL     1       4.182  10.206  -2.186  1.00  0.00    -0.436 OA
ATOM      6  C   UNL     1       5.757  13.411  -3.228  1.00  0.00     0.063 A 
ATOM      7  C   UNL     1       4.901   9.075  -2.307  1.00  0.00     0.227 A 
ATOM      8  C   UNL     1       6.173  10.677  -3.017  1.00  0.00     0.110 A 
ATOM      9  C   UNL     1       4.944  11.234  -2.620  1.00  0.00     0.156 A 
ENDROOT
BRANCH   6  10
ATOM     10  C   UNL     1       5.547  14.866  -3.340  1.00  0.00     0.335 C 
ATOM     11  O   UNL     1       4.523  15.366  -2.920  1.00  0.00    -0.246 OA
BRANCH  10  12
ATOM     12  O   UNL     1       6.491  15.641  -3.909  1.00  0.00    -0.478 OA
ATOM     13  H   UNL     1       6.246  16.554  -4.112  1.00  0.00     0.297 HD
ENDBRANCH  10  12
ENDBRANCH   6  10
BRANCH   7  14
ATOM     14  C   UNL     1       4.428   7.724  -1.939  1.00  0.00     0.040 A 
ATOM     15  C   UNL     1       5.339   6.747  -1.537  1.00  0.00     0.034 A 
ATOM     16  C   UNL     1       3.066   7.421  -1.994  1.00  0.00     0.034 A 
ATOM     17  C   UNL     1       4.890   5.487  -1.193  1.00  0.00     0.043 A 
ATOM     18  C   UNL     1       2.629   6.158  -1.648  1.00  0.00     0.043 A 
ATOM     19  C   UNL     1       3.538   5.193  -1.250  1.00  0.00     0.041 A 
ATOM     20  Cl  UNL     1       6.022   4.271  -0.692  1.00  0.00    -0.084 Cl
ATOM     21  Cl  UNL     1       0.936   5.778  -1.715  1.00  0.00    -0.084 Cl
ENDBRANCH   7  14
TORSDOF 3
ENDMDL
MODEL 4
REMARK VINA RESULT:    -3.978      1.865      2.555
REMARK INTER + INTRA:          -4.854
REMARK INTER:                  -4.558
REMARK INTRA:                  -0.296
REMARK UNBOUND:                -0.296
REMARK SMILES O=C(O)c1ccc2nc(-c3cc(Cl)cc(Cl)c3)oc2c1
REMARK SMILES IDX 5 1 6 2 20 3 8 4 18 5 4 6 9 7 7 8 19 9 2 10 1 11 3 12 10 14
REMARK SMILES IDX 11 15 17 16 12 17 15 18 14 19 13 20 16 21
REMARK H PARENT 3 13
ROOT
ATOM      1  C   UNL     1       6.987  12.858  -3.629  1.00  0.00     0.018 A 
ATOM      2  C   UNL     1       7.191  11.514  -3.522  1.00  0.00     0.033 A 
ATOM      3  C   UNL     1       4.748  12.613  -2.731  1.00  0.00     0.065 A 
ATOM      4  N   UNL     1       6.086   9.360  -2.800  1.00  0.00    -0.209 NA
ATOM      5  O   UNL     1       4.184  10.223  -2.191  1.00  0.00    -0.436 OA
ATOM      6  C   UNL     1       5.766  13.423  -3.234  1.00  0.00     0.063 A 
ATOM      7  C   UNL     1       4.902   9.090  -2.309  1.00  0.00     0.227 A 
ATOM      8  C   UNL     1       6.178  10.690  -3.019  1.00  0.00     0.110 A 
ATOM      9  C   UNL     1       4.949  11.249  -2.626  1.00  0.00     0.156 A 
ENDROOT
BRANCH   6  10
ATOM     10  C   UNL     1       5.559  14.878  -3.349  1.00  0.00     0.335 C 
ATOM     11  O   UNL     1       4.532  15.380  -2.938  1.00  0.00    -0.246 OA
BRANCH  10  12
ATOM     12  O   UNL     1       6.509  15.653  -3.911  1.00  0.00    -0.478 OA
ATOM     13  H   UNL     1       6.600  15.608  -4.872  1.00  0.00     0.297 HD
ENDBRANCH  10  12
ENDBRANCH   6  10
BRANCH   7  14
ATOM     14  C   UNL     1       4.426   7.741  -1.940  1.00  0.00     0.040 A 
ATOM     15  C   UNL     1       3.065   7.439  -1.994  1.00  0.00     0.034 A 
ATOM     16  C   UNL     1       5.337   6.763  -1.535  1.00  0.00     0.034 A 
ATOM     17  C   UNL     1       2.626   6.176  -1.649  1.00  0.00     0.043 A 
ATOM     18  C   UNL     1       4.886   5.504  -1.193  1.00  0.00     0.043 A 
ATOM     19  C   UNL     1       3.535   5.211  -1.248  1.00  0.00     0.041 A 
ATOM     20  Cl  UNL     1       0.934   5.798  -1.716  1.00  0.00    -0.084 Cl
ATOM     21  Cl  UNL     1       6.017   4.286  -0.689  1.00  0.00    -0.084 Cl
ENDBRANCH   7  14
TORSDOF 3
ENDMDL
MODEL 5
REMARK VINA RESULT:    -3.805      3.927      7.818
REMARK INTER + INTRA:          -4.656
REMARK INTER:                  -4.358
REMARK INTRA:                  -0.298
REMARK UNBOUND:                -0.296
REMARK SMILES O=C(O)c1ccc2nc(-c3cc(Cl)cc(Cl)c3)oc2c1
REMARK SMILES IDX 5 1 6 2 20 3 8 4 18 5 4 6 9 7 7 8 19 9 2 10 1 11 3 12 10 14
REMARK SMILES IDX 11 15 17 16 12 17 15 18 14 19 13 20 16 21
REMARK H PARENT 3 13
ROOT
ATOM      1  C   UNL     1       4.396   4.988  -1.584  1.00  0.00     0.018 A 
ATOM      2  C   UNL     1       5.453   5.765  -1.952  1.00  0.00     0.033 A 
ATOM      3  C   UNL     1       2.927   6.916  -1.637  1.00  0.00     0.065 A 
ATOM      4  N   UNL     1       6.103   8.137  -2.533  1.00  0.00    -0.209 NA
ATOM      5  O   UNL     1       4.134   9.026  -2.280  1.00  0.00    -0.436 OA
ATOM      6  C   UNL     1       3.122   5.551  -1.423  1.00  0.00     0.063 A 
ATOM      7  C   UNL     1       5.422   9.254  -2.596  1.00  0.00     0.227 A 
ATOM      8  C   UNL     1       5.271   7.137  -2.170  1.00  0.00     0.110 A 
ATOM      9  C   UNL     1       3.998   7.710  -2.006  1.00  0.00     0.156 A 
ENDROOT
BRANCH   6  10
ATOM     10  C   UNL     1       1.986   4.698  -1.030  1.00  0.00     0.335 C 
ATOM     11  O   UNL     1       2.155   3.511  -0.840  1.00  0.00    -0.246 OA
BRANCH  10  12
ATOM     12  O   UNL     1       0.759   5.236  -0.882  1.00  0.00    -0.478 OA
ATOM     13  H   UNL     1       0.706   6.096  -0.444  1.00  0.00     0.297 HD
ENDBRANCH  10  12
ENDBRANCH   6  10
BRANCH   7  14
ATOM     14  C   UNL     1       5.987  10.570  -2.961  1.00  0.00     0.040 A 
ATOM     15  C   UNL     1       7.283  10.660  -3.471  1.00  0.00     0.034 A 
ATOM     16  C   UNL     1       5.225  11.729  -2.796  1.00  0.00     0.034 A 
ATOM     17  C   UNL     1       7.804  11.893  -3.811  1.00  0.00     0.043 A 
ATOM     18  C   UNL     1       5.757  12.955  -3.140  1.00  0.00     0.043 A 
ATOM     19  C   UNL     1       7.043  13.038  -3.645  1.00  0.00     0.041 A 
ATOM     20  Cl  UNL     1       9.415  12.007  -4.446  1.00  0.00    -0.084 Cl
ATOM     21  Cl  UNL     1       4.812  14.398  -2.936  1.00  0.00    -0.084 Cl
ENDBRANCH   7  14
TORSDOF 3
ENDMDL
MODEL 6
REMARK VINA RESULT:    -3.803      3.925      7.588
REMARK INTER + INTRA:          -4.654
REMARK INTER:                  -4.356
REMARK INTRA:                  -0.298
REMARK UNBOUND:                -0.296
REMARK SMILES O=C(O)c1ccc2nc(-c3cc(Cl)cc(Cl)c3)oc2c1
REMARK SMILES IDX 5 1 6 2 20 3 8 4 18 5 4 6 9 7 7 8 19 9 2 10 1 11 3 12 10 14
REMARK SMILES IDX 11 15 17 16 12 17 15 18 14 19 13 20 16 21
REMARK H PARENT 3 13
ROOT
ATOM      1  C   UNL     1       4.401   4.989  -1.593  1.00  0.00     0.018 A 
ATOM      2  C   UNL     1       5.459   5.764  -1.962  1.00  0.00     0.033 A 
ATOM      3  C   UNL     1       2.936   6.922  -1.645  1.00  0.00     0.065 A 
ATOM      4  N   UNL     1       6.115   8.135  -2.540  1.00  0.00    -0.209 NA
ATOM      5  O   UNL     1       4.148   9.029  -2.287  1.00  0.00    -0.436 OA
ATOM      6  C   UNL     1       3.128   5.555  -1.432  1.00  0.00     0.063 A 
ATOM      7  C   UNL     1       5.437   9.254  -2.603  1.00  0.00     0.227 A 
ATOM      8  C   UNL     1       5.281   7.136  -2.178  1.00  0.00     0.110 A 
ATOM      9  C   UNL     1       4.009   7.713  -2.014  1.00  0.00     0.156 A 
ENDROOT
BRANCH   6  10
ATOM     10  C   UNL     1       1.990   4.706  -1.039  1.00  0.00     0.335 C 
ATOM     11  O   UNL     1       2.156   3.517  -0.849  1.00  0.00    -0.246 OA
BRANCH  10  12
ATOM     12  O   UNL     1       0.764   5.246  -0.892  1.00  0.00    -0.478 OA
ATOM     13  H   UNL     1       0.033   4.810  -1.350  1.00  0.00     0.297 HD
ENDBRANCH  10  12
ENDBRANCH   6  10
BRANCH   7  14
ATOM     14  C   UNL     1       6.005  10.568  -2.968  1.00  0.00     0.040 A 
ATOM     15  C   UNL     1       5.247  11.729  -2.806  1.00  0.00     0.034 A 
ATOM     16  C   UNL     1       7.302  10.654  -3.476  1.00  0.00     0.034 A 
ATOM     17  C   UNL     1       5.783  12.954  -3.147  1.00  0.00     0.043 A 
ATOM     18  C   UNL     1       7.828  11.885  -3.814  1.00  0.00     0.043 A 
ATOM     19  C   UNL     1       7.071  13.033  -3.651  1.00  0.00     0.041 A 
ATOM     20  Cl  UNL     1       4.842  14.399  -2.945  1.00  0.00    -0.084 Cl
ATOM     21  Cl  UNL     1       9.441  11.995  -4.446  1.00  0.00    -0.084 Cl
ENDBRANCH   7  14
TORSDOF 3
ENDMDL
MODEL 7
REMARK VINA RESULT:    -3.562      4.323      7.689
REMARK INTER + INTRA:          -4.378
REMARK INTER:                  -4.090
REMARK INTRA:                  -0.288
REMARK UNBOUND:                -0.296
REMARK SMILES O=C(O)c1ccc2nc(-c3cc(Cl)cc(Cl)c3)oc2c1
REMARK SMILES IDX 5 1 6 2 20 3 8 4 18 5 4 6 9 7 7 8 19 9 2 10 1 11 3 12 10 14
REMARK SMILES IDX 11 15 17 16 12 17 15 18 14 19 13 20 16 21
REMARK H PARENT 3 13
ROOT
ATOM      1  C   UNL     1       4.678   8.216  -1.116  1.00  0.00     0.018 A 
ATOM      2  C   UNL     1       5.917   8.783  -1.071  1.00  0.00     0.033 A 
ATOM      3  C   UNL     1       4.398   8.957  -3.408  1.00  0.00     0.065 A 
ATOM      4  N   UNL     1       7.583  10.095  -2.443  1.00  0.00    -0.209 NA
ATOM      5  O   UNL     1       6.392  10.230  -4.258  1.00  0.00    -0.436 OA
ATOM      6  C   UNL     1       3.905   8.293  -2.283  1.00  0.00     0.063 A 
ATOM      7  C   UNL     1       7.559  10.553  -3.670  1.00  0.00     0.227 A 
ATOM      8  C   UNL     1       6.423   9.451  -2.192  1.00  0.00     0.110 A 
ATOM      9  C   UNL     1       5.652   9.537  -3.365  1.00  0.00     0.156 A 
ENDROOT
BRANCH   6  10
ATOM     10  C   UNL     1       2.569   7.671  -2.323  1.00  0.00     0.335 C 
ATOM     11  O   UNL     1       2.047   7.423  -3.391  1.00  0.00    -0.246 OA
BRANCH  10  12
ATOM     12  O   UNL     1       1.927   7.379  -1.175  1.00  0.00    -0.478 OA
ATOM     13  H   UNL     1       2.050   7.989  -0.435  1.00  0.00     0.297 HD
ENDBRANCH  10  12
ENDBRANCH   6  10
BRANCH   7  14
ATOM     14  C   UNL     1       8.651  11.315  -4.312  1.00  0.00     0.040 A 
ATOM     15  C   UNL     1       8.990  12.584  -3.842  1.00  0.00     0.034 A 
ATOM     16  C   UNL     1       9.346  10.766  -5.391  1.00  0.00     0.034 A 
ATOM     17  C   UNL     1      10.012  13.290  -4.446  1.00  0.00     0.043 A 
ATOM     18  C   UNL     1      10.366  11.481  -5.986  1.00  0.00     0.043 A 
ATOM     19  C   UNL     1      10.698  12.740  -5.516  1.00  0.00     0.041 A 
ATOM     20  Cl  UNL     1      10.437  14.869  -3.863  1.00  0.00    -0.084 Cl
ATOM     21  Cl  UNL     1      11.232  10.801  -7.329  1.00  0.00    -0.084 Cl
ENDBRANCH   7  14
TORSDOF 3
ENDMDL
MODEL 8
REMARK VINA RESULT:    -3.526      4.588      7.528
REMARK INTER + INTRA:          -4.337
REMARK INTER:                  -4.050
REMARK INTRA:                  -0.287
REMARK UNBOUND:                -0.296
REMARK SMILES O=C(O)c1ccc2nc(-c3cc(Cl)cc(Cl)c3)oc2c1
REMARK SMILES IDX 5 1 6 2 20 3 8 4 18 5 4 6 9 7 7 8 19 9 2 10 1 11 3 12 10 14
REMARK SMILES IDX 11 15 17 16 12 17 15 18 14 19 13 20 16 21
REMARK H PARENT 3 13
ROOT
ATOM      1  C   UNL     1       4.403   7.739  -3.484  1.00  0.00     0.018 A 
ATOM      2  C   UNL     1       4.063   8.956  -3.994  1.00  0.00     0.033 A 
ATOM      3  C   UNL     1       5.682   8.808  -1.723  1.00  0.00     0.065 A 
ATOM      4  N   UNL     1       4.362  11.440  -3.648  1.00  0.00    -0.209 NA
ATOM      5  O   UNL     1       5.627  11.317  -1.882  1.00  0.00    -0.436 OA
ATOM      6  C   UNL     1       5.214   7.649  -2.343  1.00  0.00     0.063 A 
ATOM      7  C   UNL     1       5.017  12.140  -2.755  1.00  0.00     0.227 A 
ATOM      8  C   UNL     1       4.526  10.127  -3.382  1.00  0.00     0.110 A 
ATOM      9  C   UNL     1       5.343  10.045  -2.240  1.00  0.00     0.156 A 
ENDROOT
BRANCH   6  10
ATOM     10  C   UNL     1       5.570   6.327  -1.797  1.00  0.00     0.335 C 
ATOM     11  O   UNL     1       5.554   5.348  -2.516  1.00  0.00    -0.246 OA
BRANCH  10  12
ATOM     12  O   UNL     1       5.914   6.204  -0.499  1.00  0.00    -0.478 OA
ATOM     13  H   UNL     1       6.417   6.931  -0.108  1.00  0.00     0.297 HD
ENDBRANCH  10  12
ENDBRANCH   6  10
BRANCH   7  14
ATOM     14  C   UNL     1       5.077  13.616  -2.714  1.00  0.00     0.040 A 
ATOM     15  C   UNL     1       5.710  14.321  -3.738  1.00  0.00     0.034 A 
ATOM     16  C   UNL     1       4.500  14.311  -1.649  1.00  0.00     0.034 A 
ATOM     17  C   UNL     1       5.762  15.700  -3.694  1.00  0.00     0.043 A 
ATOM     18  C   UNL     1       4.559  15.690  -1.616  1.00  0.00     0.043 A 
ATOM     19  C   UNL     1       5.189  16.383  -2.635  1.00  0.00     0.041 A 
ATOM     20  Cl  UNL     1       6.549  16.579  -4.968  1.00  0.00    -0.084 Cl
ATOM     21  Cl  UNL     1       3.842  16.556  -0.293  1.00  0.00    -0.084 Cl
ENDBRANCH   7  14
TORSDOF 3
ENDMDL
MODEL 9
REMARK VINA RESULT:    -3.525      4.589      7.472
REMARK INTER + INTRA:          -4.335
REMARK INTER:                  -4.048
REMARK INTRA:                  -0.287
REMARK UNBOUND:                -0.296
REMARK SMILES O=C(O)c1ccc2nc(-c3cc(Cl)cc(Cl)c3)oc2c1
REMARK SMILES IDX 5 1 6 2 20 3 8 4 18 5 4 6 9 7 7 8 19 9 2 10 1 11 3 12 10 14
REMARK SMILES IDX 11 15 17 16 12 17 15 18 14 19 13 20 16 21
REMARK H PARENT 3 13
ROOT
ATOM      1  C   UNL     1       4.405   7.736  -3.473  1.00  0.00     0.018 A 
ATOM      2  C   UNL     1       4.063   8.952  -3.984  1.00  0.00     0.033 A 
ATOM      3  C   UNL     1       5.685   8.808  -1.715  1.00  0.00     0.065 A 
ATOM      4  N   UNL     1       4.361  11.437  -3.641  1.00  0.00    -0.209 NA
ATOM      5  O   UNL     1       5.628  11.317  -1.877  1.00  0.00    -0.436 OA
ATOM      6  C   UNL     1       5.217   7.648  -2.334  1.00  0.00     0.063 A 
ATOM      7  C   UNL     1       5.016  12.139  -2.750  1.00  0.00     0.227 A 
ATOM      8  C   UNL     1       4.526  10.124  -3.374  1.00  0.00     0.110 A 
ATOM      9  C   UNL     1       5.344  10.044  -2.233  1.00  0.00     0.156 A 
ENDROOT
BRANCH   6  10
ATOM     10  C   UNL     1       5.575   6.327  -1.787  1.00  0.00     0.335 C 
ATOM     11  O   UNL     1       5.557   5.347  -2.505  1.00  0.00    -0.246 OA
BRANCH  10  12
ATOM     12  O   UNL     1       5.921   6.205  -0.490  1.00  0.00    -0.478 OA
ATOM     13  H   UNL     1       6.360   5.386  -0.227  1.00  0.00     0.297 HD
ENDBRANCH  10  12
ENDBRANCH   6  10
BRANCH   7  14
ATOM     14  C   UNL     1       5.075  13.615  -2.710  1.00  0.00     0.040 A 
ATOM     15  C   UNL     1       4.498  14.311  -1.648  1.00  0.00     0.034 A 
ATOM     16  C   UNL     1       5.709  14.318  -3.736  1.00  0.00     0.034 A 
ATOM     17  C   UNL     1       4.558  15.690  -1.616  1.00  0.00     0.043 A 
ATOM     18  C   UNL     1       5.763  15.697  -3.693  1.00  0.00     0.043 A 
ATOM     19  C   UNL     1       5.188  16.382  -2.637  1.00  0.00     0.041 A 
ATOM     20  Cl  UNL     1       3.840  16.559  -0.295  1.00  0.00    -0.084 Cl
ATOM     21  Cl  UNL     1       6.551  16.573  -4.968  1.00  0.00    -0.084 Cl
ENDBRANCH   7  14
TORSDOF 3
ENDMDL
