MODEL 1
REMARK VINA RESULT:    -5.678      0.000      0.000
REMARK INTER + INTRA:          -8.303
REMARK INTER:                  -7.836
REMARK INTRA:                  -0.467
REMARK UNBOUND:                -0.467
REMARK SMILES Cc1n[nH]c(C)c1CCCOc1cc(C(=O)O)ccc1F
REMARK SMILES IDX 11 1 12 2 14 3 18 4 13 5 19 6 20 7 21 8 15 9 16 10 17 11
REMARK SMILES IDX 10 13 9 14 8 15 7 16 5 17 2 18 4 19 3 20 6 21 1 22
REMARK H PARENT 17 12 4 23
ROOT
ATOM      1  O   UNL     1      -3.626   9.743   0.435  1.00  0.00    -0.490 OA
ENDROOT
BRANCH   1   2
ATOM      2  C   UNL     1      -3.812   8.397   0.383  1.00  0.00     0.155 A 
ATOM      3  C   UNL     1      -4.545   6.350   1.409  1.00  0.00     0.063 A 
ATOM      4  C   UNL     1      -4.192   5.649   0.254  1.00  0.00     0.019 A 
ATOM      5  C   UNL     1      -4.351   7.732   1.468  1.00  0.00     0.065 A 
ATOM      6  C   UNL     1      -3.660   6.322  -0.826  1.00  0.00     0.044 A 
ATOM      7  C   UNL     1      -3.474   7.693  -0.767  1.00  0.00     0.165 A 
ATOM      8  F   UNL     1      -2.952   8.347  -1.828  1.00  0.00    -0.203 F 
BRANCH   3   9
ATOM      9  C   UNL     1      -5.116   5.632   2.566  1.00  0.00     0.335 C 
ATOM     10  O   UNL     1      -5.090   6.140   3.669  1.00  0.00    -0.246 OA
BRANCH   9  11
ATOM     11  O   UNL     1      -5.671   4.416   2.397  1.00  0.00    -0.478 OA
ATOM     12  H   UNL     1      -6.001   3.970   3.190  1.00  0.00     0.297 HD
ENDBRANCH   9  11
ENDBRANCH   3   9
ENDBRANCH   1   2
BRANCH   1  13
ATOM     13  C   UNL     1      -4.376  10.537  -0.487  1.00  0.00     0.230 C 
BRANCH  13  14
ATOM     14  C   UNL     1      -5.344  11.436   0.284  1.00  0.00     0.046 C 
BRANCH  14  15
ATOM     15  C   UNL     1      -6.720  10.770   0.347  1.00  0.00     0.043 C 
BRANCH  15  16
ATOM     16  C   UNL     1      -7.777  11.819   0.571  1.00  0.00    -0.004 A 
ATOM     17  C   UNL     1      -8.129  12.353   1.764  1.00  0.00     0.036 A 
ATOM     18  C   UNL     1      -8.565  12.419  -0.418  1.00  0.00     0.063 A 
ATOM     19  N   UNL     1      -9.109  13.254   1.538  1.00  0.00    -0.282 N 
ATOM     20  N   UNL     1      -9.368  13.273   0.162  1.00  0.00    -0.181 NA
ATOM     21  C   UNL     1      -7.534  12.005   3.103  1.00  0.00     0.066 C 
ATOM     22  C   UNL     1      -8.506  12.122  -1.894  1.00  0.00     0.069 C 
ATOM     23  H   UNL     1      -9.556  13.791   2.211  1.00  0.00     0.190 HD
ENDBRANCH  15  16
ENDBRANCH  14  15
ENDBRANCH  13  14
ENDBRANCH   1  13
TORSDOF 7
ENDMDL
MODEL 2
REMARK VINA RESULT:    -5.599      2.262      3.890
REMARK INTER + INTRA:          -8.193
REMARK INTER:                  -7.544
REMARK INTRA:                  -0.650
REMARK UNBOUND:                -0.467
REMARK SMILES Cc1n[nH]c(C)c1CCCOc1cc(C(=O)O)ccc1F
REMARK SMILES IDX 11 1 12 2 14 3 18 4 13 5 19 6 20 7 21 8 15 9 16 10 17 11
REMARK SMILES IDX 10 13 9 14 8 15 7 16 5 17 2 18 4 19 3 20 6 21 1 22
REMARK H PARENT 17 12 4 23
ROOT
ATOM      1  O   UNL     1      -7.326   7.053   0.692  1.00  0.00    -0.490 OA
ENDROOT
BRANCH   1   2
ATOM      2  C   UNL     1      -6.015   6.774   0.463  1.00  0.00     0.155 A 
ATOM      3  C   UNL     1      -4.038   6.997  -0.888  1.00  0.00     0.063 A 
ATOM      4  C   UNL     1      -3.334   6.200   0.019  1.00  0.00     0.019 A 
ATOM      5  C   UNL     1      -5.386   7.281  -0.658  1.00  0.00     0.065 A 
ATOM      6  C   UNL     1      -3.968   5.704   1.138  1.00  0.00     0.044 A 
ATOM      7  C   UNL     1      -5.304   5.992   1.366  1.00  0.00     0.165 A 
ATOM      8  F   UNL     1      -5.919   5.502   2.464  1.00  0.00    -0.203 F 
BRANCH   3   9
ATOM      9  C   UNL     1      -3.362   7.530  -2.086  1.00  0.00     0.335 C 
ATOM     10  O   UNL     1      -4.015   7.862  -3.055  1.00  0.00    -0.246 OA
BRANCH   9  11
ATOM     11  O   UNL     1      -2.021   7.656  -2.103  1.00  0.00    -0.478 OA
ATOM     12  H   UNL     1      -1.577   7.517  -2.951  1.00  0.00     0.297 HD
ENDBRANCH   9  11
ENDBRANCH   3   9
ENDBRANCH   1   2
BRANCH   1  13
ATOM     13  C   UNL     1      -7.616   8.023   1.702  1.00  0.00     0.230 C 
BRANCH  13  14
ATOM     14  C   UNL     1      -8.285   9.240   1.061  1.00  0.00     0.046 C 
BRANCH  14  15
ATOM     15  C   UNL     1      -7.278  10.389   0.971  1.00  0.00     0.043 C 
BRANCH  15  16
ATOM     16  C   UNL     1      -8.002  11.704   1.091  1.00  0.00    -0.004 A 
ATOM     17  C   UNL     1      -8.575  12.393   0.077  1.00  0.00     0.036 A 
ATOM     18  C   UNL     1      -8.208  12.426   2.272  1.00  0.00     0.063 A 
ATOM     19  N   UNL     1      -9.117  13.515   0.596  1.00  0.00    -0.282 N 
ATOM     20  N   UNL     1      -8.870  13.515   1.975  1.00  0.00    -0.181 NA
ATOM     21  C   UNL     1      -8.602  11.982  -1.372  1.00  0.00     0.066 C 
ATOM     22  C   UNL     1      -7.736  12.025   3.646  1.00  0.00     0.069 C 
ATOM     23  H   UNL     1      -9.594  14.200   0.102  1.00  0.00     0.190 HD
ENDBRANCH  15  16
ENDBRANCH  14  15
ENDBRANCH  13  14
ENDBRANCH   1  13
TORSDOF 7
ENDMDL
MODEL 3
REMARK VINA RESULT:    -5.590      2.313      3.500
REMARK INTER + INTRA:          -8.181
REMARK INTER:                  -7.626
REMARK INTRA:                  -0.555
REMARK UNBOUND:                -0.467
REMARK SMILES Cc1n[nH]c(C)c1CCCOc1cc(C(=O)O)ccc1F
REMARK SMILES IDX 11 1 12 2 14 3 18 4 13 5 19 6 20 7 21 8 15 9 16 10 17 11
REMARK SMILES IDX 10 13 9 14 8 15 7 16 5 17 2 18 4 19 3 20 6 21 1 22
REMARK H PARENT 17 12 4 23
ROOT
ATOM      1  O   UNL     1      -7.359   7.089   0.591  1.00  0.00    -0.490 OA
ENDROOT
BRANCH   1   2
ATOM      2  C   UNL     1      -6.046   6.801   0.389  1.00  0.00     0.155 A 
ATOM      3  C   UNL     1      -4.042   7.006  -0.924  1.00  0.00     0.063 A 
ATOM      4  C   UNL     1      -3.360   6.210  -0.000  1.00  0.00     0.019 A 
ATOM      5  C   UNL     1      -5.392   7.300  -0.723  1.00  0.00     0.065 A 
ATOM      6  C   UNL     1      -4.019   5.722   1.109  1.00  0.00     0.044 A 
ATOM      7  C   UNL     1      -5.357   6.019   1.309  1.00  0.00     0.165 A 
ATOM      8  F   UNL     1      -5.997   5.538   2.397  1.00  0.00    -0.203 F 
BRANCH   3   9
ATOM      9  C   UNL     1      -3.339   7.530  -2.112  1.00  0.00     0.335 C 
ATOM     10  O   UNL     1      -3.969   7.844  -3.101  1.00  0.00    -0.246 OA
BRANCH   9  11
ATOM     11  O   UNL     1      -1.999   7.667  -2.095  1.00  0.00    -0.478 OA
ATOM     12  H   UNL     1      -1.480   6.953  -2.492  1.00  0.00     0.297 HD
ENDBRANCH   9  11
ENDBRANCH   3   9
ENDBRANCH   1   2
BRANCH   1  13
ATOM     13  C   UNL     1      -7.672   7.966   1.676  1.00  0.00     0.230 C 
BRANCH  13  14
ATOM     14  C   UNL     1      -8.287   9.255   1.128  1.00  0.00     0.046 C 
BRANCH  14  15
ATOM     15  C   UNL     1      -7.269  10.392   1.235  1.00  0.00     0.043 C 
BRANCH  15  16
ATOM     16  C   UNL     1      -7.993  11.700   1.426  1.00  0.00    -0.004 A 
ATOM     17  C   UNL     1      -8.161  12.354   2.598  1.00  0.00     0.036 A 
ATOM     18  C   UNL     1      -8.606  12.455   0.420  1.00  0.00     0.063 A 
ATOM     19  N   UNL     1      -8.860  13.480   2.345  1.00  0.00    -0.282 N 
ATOM     20  N   UNL     1      -9.132  13.519   0.971  1.00  0.00    -0.181 NA
ATOM     21  C   UNL     1      -7.656  11.906   3.945  1.00  0.00     0.066 C 
ATOM     22  C   UNL     1      -8.662  12.099  -1.043  1.00  0.00     0.069 C 
ATOM     23  H   UNL     1      -9.128  14.144   2.999  1.00  0.00     0.190 HD
ENDBRANCH  15  16
ENDBRANCH  14  15
ENDBRANCH  13  14
ENDBRANCH   1  13
TORSDOF 7
ENDMDL
MODEL 4
REMARK VINA RESULT:    -5.580      0.172      1.774
REMARK INTER + INTRA:          -8.168
REMARK INTER:                  -7.649
REMARK INTRA:                  -0.519
REMARK UNBOUND:                -0.467
REMARK SMILES Cc1n[nH]c(C)c1CCCOc1cc(C(=O)O)ccc1F
REMARK SMILES IDX 11 1 12 2 14 3 18 4 13 5 19 6 20 7 21 8 15 9 16 10 17 11
REMARK SMILES IDX 10 13 9 14 8 15 7 16 5 17 2 18 4 19 3 20 6 21 1 22
REMARK H PARENT 17 12 4 23
ROOT
ATOM      1  O   UNL     1      -3.725   9.751   0.439  1.00  0.00    -0.490 OA
ENDROOT
BRANCH   1   2
ATOM      2  C   UNL     1      -3.880   8.401   0.389  1.00  0.00     0.155 A 
ATOM      3  C   UNL     1      -4.569   6.339   1.415  1.00  0.00     0.063 A 
ATOM      4  C   UNL     1      -4.196   5.644   0.261  1.00  0.00     0.019 A 
ATOM      5  C   UNL     1      -4.407   7.724   1.472  1.00  0.00     0.065 A 
ATOM      6  C   UNL     1      -3.676   6.328  -0.817  1.00  0.00     0.044 A 
ATOM      7  C   UNL     1      -3.521   7.704  -0.760  1.00  0.00     0.165 A 
ATOM      8  F   UNL     1      -3.011   8.368  -1.820  1.00  0.00    -0.203 F 
BRANCH   3   9
ATOM      9  C   UNL     1      -5.127   5.609   2.570  1.00  0.00     0.335 C 
ATOM     10  O   UNL     1      -5.068   6.095   3.681  1.00  0.00    -0.246 OA
BRANCH   9  11
ATOM     11  O   UNL     1      -5.707   4.406   2.391  1.00  0.00    -0.478 OA
ATOM     12  H   UNL     1      -6.510   4.226   2.899  1.00  0.00     0.297 HD
ENDBRANCH   9  11
ENDBRANCH   3   9
ENDBRANCH   1   2
BRANCH   1  13
ATOM     13  C   UNL     1      -4.530  10.530  -0.450  1.00  0.00     0.230 C 
BRANCH  13  14
ATOM     14  C   UNL     1      -5.477  11.414   0.364  1.00  0.00     0.046 C 
BRANCH  14  15
ATOM     15  C   UNL     1      -6.883  10.812   0.342  1.00  0.00     0.043 C 
BRANCH  15  16
ATOM     16  C   UNL     1      -7.905  11.914   0.444  1.00  0.00    -0.004 A 
ATOM     17  C   UNL     1      -8.590  12.463  -0.586  1.00  0.00     0.036 A 
ATOM     18  C   UNL     1      -8.317  12.548   1.621  1.00  0.00     0.063 A 
ATOM     19  N   UNL     1      -9.403  13.414  -0.080  1.00  0.00    -0.282 N 
ATOM     20  N   UNL     1      -9.210  13.451   1.308  1.00  0.00    -0.181 NA
ATOM     21  C   UNL     1      -8.469  12.079  -2.038  1.00  0.00     0.066 C 
ATOM     22  C   UNL     1      -7.811  12.249   3.009  1.00  0.00     0.069 C 
ATOM     23  H   UNL     1     -10.011  13.973  -0.586  1.00  0.00     0.190 HD
ENDBRANCH  15  16
ENDBRANCH  14  15
ENDBRANCH  13  14
ENDBRANCH   1  13
TORSDOF 7
ENDMDL
MODEL 5
REMARK VINA RESULT:    -4.740      3.924      6.995
REMARK INTER + INTRA:          -7.009
REMARK INTER:                  -6.172
REMARK INTRA:                  -0.837
REMARK UNBOUND:                -0.467
REMARK SMILES Cc1n[nH]c(C)c1CCCOc1cc(C(=O)O)ccc1F
REMARK SMILES IDX 11 1 12 2 14 3 18 4 13 5 19 6 20 7 21 8 15 9 16 10 17 11
REMARK SMILES IDX 10 13 9 14 8 15 7 16 5 17 2 18 4 19 3 20 6 21 1 22
REMARK H PARENT 17 12 4 23
ROOT
ATOM      1  O   UNL     1      -6.470   9.478   1.736  1.00  0.00    -0.490 OA
ENDROOT
BRANCH   1   2
ATOM      2  C   UNL     1      -7.203  10.579   1.423  1.00  0.00     0.155 A 
ATOM      3  C   UNL     1      -8.362  11.924  -0.199  1.00  0.00     0.063 A 
ATOM      4  C   UNL     1      -8.710  12.830   0.806  1.00  0.00     0.019 A 
ATOM      5  C   UNL     1      -7.605  10.794   0.118  1.00  0.00     0.065 A 
ATOM      6  C   UNL     1      -8.310  12.604   2.106  1.00  0.00     0.044 A 
ATOM      7  C   UNL     1      -7.563  11.481   2.419  1.00  0.00     0.165 A 
ATOM      8  F   UNL     1      -7.174  11.265   3.695  1.00  0.00    -0.203 F 
BRANCH   3   9
ATOM      9  C   UNL     1      -8.789  12.162  -1.592  1.00  0.00     0.335 C 
ATOM     10  O   UNL     1      -8.063  12.764  -2.355  1.00  0.00    -0.246 OA
BRANCH   9  11
ATOM     11  O   UNL     1      -9.984  11.706  -2.017  1.00  0.00    -0.478 OA
ATOM     12  H   UNL     1     -10.260  11.962  -2.909  1.00  0.00     0.297 HD
ENDBRANCH   9  11
ENDBRANCH   3   9
ENDBRANCH   1   2
BRANCH   1  13
ATOM     13  C   UNL     1      -6.819   8.258   1.078  1.00  0.00     0.230 C 
BRANCH  13  14
ATOM     14  C   UNL     1      -5.804   7.173   1.444  1.00  0.00     0.046 C 
BRANCH  14  15
ATOM     15  C   UNL     1      -4.402   7.785   1.500  1.00  0.00     0.043 C 
BRANCH  15  16
ATOM     16  C   UNL     1      -3.783   7.752   0.127  1.00  0.00    -0.004 A 
ATOM     17  C   UNL     1      -3.401   6.642  -0.548  1.00  0.00     0.036 A 
ATOM     18  C   UNL     1      -3.508   8.861  -0.679  1.00  0.00     0.063 A 
ATOM     19  N   UNL     1      -2.896   7.037  -1.736  1.00  0.00    -0.282 N 
ATOM     20  N   UNL     1      -2.970   8.435  -1.793  1.00  0.00    -0.181 NA
ATOM     21  C   UNL     1      -3.519   5.222  -0.060  1.00  0.00     0.066 C 
ATOM     22  C   UNL     1      -3.774  10.301  -0.322  1.00  0.00     0.069 C 
ATOM     23  H   UNL     1      -2.543   6.455  -2.427  1.00  0.00     0.190 HD
ENDBRANCH  15  16
ENDBRANCH  14  15
ENDBRANCH  13  14
ENDBRANCH   1  13
TORSDOF 7
ENDMDL
MODEL 6
REMARK VINA RESULT:    -4.714      3.920      7.010
REMARK INTER + INTRA:          -6.972
REMARK INTER:                  -6.116
REMARK INTRA:                  -0.856
REMARK UNBOUND:                -0.467
REMARK SMILES Cc1n[nH]c(C)c1CCCOc1cc(C(=O)O)ccc1F
REMARK SMILES IDX 11 1 12 2 14 3 18 4 13 5 19 6 20 7 21 8 15 9 16 10 17 11
REMARK SMILES IDX 10 13 9 14 8 15 7 16 5 17 2 18 4 19 3 20 6 21 1 22
REMARK H PARENT 17 12 4 23
ROOT
ATOM      1  O   UNL     1      -6.464   9.496   1.769  1.00  0.00    -0.490 OA
ENDROOT
BRANCH   1   2
ATOM      2  C   UNL     1      -7.200  10.593   1.445  1.00  0.00     0.155 A 
ATOM      3  C   UNL     1      -8.358  11.921  -0.191  1.00  0.00     0.063 A 
ATOM      4  C   UNL     1      -8.712  12.834   0.806  1.00  0.00     0.019 A 
ATOM      5  C   UNL     1      -7.598  10.796   0.137  1.00  0.00     0.065 A 
ATOM      6  C   UNL     1      -8.315  12.619   2.110  1.00  0.00     0.044 A 
ATOM      7  C   UNL     1      -7.566  11.500   2.433  1.00  0.00     0.165 A 
ATOM      8  F   UNL     1      -7.180  11.296   3.712  1.00  0.00    -0.203 F 
BRANCH   3   9
ATOM      9  C   UNL     1      -8.782  12.148  -1.586  1.00  0.00     0.335 C 
ATOM     10  O   UNL     1      -8.051  12.738  -2.355  1.00  0.00    -0.246 OA
BRANCH   9  11
ATOM     11  O   UNL     1      -9.978  11.693  -2.009  1.00  0.00    -0.478 OA
ATOM     12  H   UNL     1     -10.251  11.941  -2.904  1.00  0.00     0.297 HD
ENDBRANCH   9  11
ENDBRANCH   3   9
ENDBRANCH   1   2
BRANCH   1  13
ATOM     13  C   UNL     1      -6.811   8.269   1.124  1.00  0.00     0.230 C 
BRANCH  13  14
ATOM     14  C   UNL     1      -5.777   7.198   1.477  1.00  0.00     0.046 C 
BRANCH  14  15
ATOM     15  C   UNL     1      -4.379   7.820   1.478  1.00  0.00     0.043 C 
BRANCH  15  16
ATOM     16  C   UNL     1      -3.807   7.775   0.085  1.00  0.00    -0.004 A 
ATOM     17  C   UNL     1      -3.562   8.842  -0.710  1.00  0.00     0.036 A 
ATOM     18  C   UNL     1      -3.429   6.623  -0.613  1.00  0.00     0.063 A 
ATOM     19  N   UNL     1      -3.053   8.381  -1.872  1.00  0.00    -0.282 N 
ATOM     20  N   UNL     1      -2.984   6.984  -1.789  1.00  0.00    -0.181 NA
ATOM     21  C   UNL     1      -3.811  10.286  -0.360  1.00  0.00     0.066 C 
ATOM     22  C   UNL     1      -3.530   5.207  -0.103  1.00  0.00     0.069 C 
ATOM     23  H   UNL     1      -2.784   8.921  -2.631  1.00  0.00     0.190 HD
ENDBRANCH  15  16
ENDBRANCH  14  15
ENDBRANCH  13  14
ENDBRANCH   1  13
TORSDOF 7
ENDMDL
MODEL 7
REMARK VINA RESULT:    -4.706      9.629     12.200
REMARK INTER + INTRA:          -6.962
REMARK INTER:                  -5.020
REMARK INTRA:                  -1.942
REMARK UNBOUND:                -0.467
REMARK SMILES Cc1n[nH]c(C)c1CCCOc1cc(C(=O)O)ccc1F
REMARK SMILES IDX 11 1 12 2 14 3 18 4 13 5 19 6 20 7 21 8 15 9 16 10 17 11
REMARK SMILES IDX 10 13 9 14 8 15 7 16 5 17 2 18 4 19 3 20 6 21 1 22
REMARK H PARENT 17 12 4 23
ROOT
ATOM      1  O   UNL     1     -10.515  18.349   8.006  1.00  0.00    -0.490 OA
ENDROOT
BRANCH   1   2
ATOM      2  C   UNL     1     -11.087  18.287   6.774  1.00  0.00     0.155 A 
ATOM      3  C   UNL     1     -10.925  18.499   4.385  1.00  0.00     0.063 A 
ATOM      4  C   UNL     1     -12.272  18.145   4.266  1.00  0.00     0.019 A 
ATOM      5  C   UNL     1     -10.336  18.568   5.648  1.00  0.00     0.065 A 
ATOM      6  C   UNL     1     -13.012  17.860   5.395  1.00  0.00     0.044 A 
ATOM      7  C   UNL     1     -12.423  17.926   6.647  1.00  0.00     0.165 A 
ATOM      8  F   UNL     1     -13.154  17.646   7.749  1.00  0.00    -0.203 F 
BRANCH   3   9
ATOM      9  C   UNL     1     -10.130  18.803   3.179  1.00  0.00     0.335 C 
ATOM     10  O   UNL     1     -10.688  19.115   2.146  1.00  0.00    -0.246 OA
BRANCH   9  11
ATOM     11  O   UNL     1      -8.785  18.741   3.226  1.00  0.00    -0.478 OA
ATOM     12  H   UNL     1      -8.340  19.327   3.854  1.00  0.00     0.297 HD
ENDBRANCH   9  11
ENDBRANCH   3   9
ENDBRANCH   1   2
BRANCH   1  13
ATOM     13  C   UNL     1      -9.831  17.180   8.464  1.00  0.00     0.230 C 
BRANCH  13  14
ATOM     14  C   UNL     1      -8.373  17.529   8.769  1.00  0.00     0.046 C 
BRANCH  14  15
ATOM     15  C   UNL     1      -7.453  16.510   8.093  1.00  0.00     0.043 C 
BRANCH  15  16
ATOM     16  C   UNL     1      -7.142  16.965   6.691  1.00  0.00    -0.004 A 
ATOM     17  C   UNL     1      -6.476  18.093   6.349  1.00  0.00     0.036 A 
ATOM     18  C   UNL     1      -7.484  16.294   5.512  1.00  0.00     0.063 A 
ATOM     19  N   UNL     1      -6.405  18.137   5.002  1.00  0.00    -0.282 N 
ATOM     20  N   UNL     1      -7.049  16.999   4.499  1.00  0.00    -0.181 NA
ATOM     21  C   UNL     1      -5.913  19.115   7.302  1.00  0.00     0.066 C 
ATOM     22  C   UNL     1      -8.235  14.990   5.424  1.00  0.00     0.069 C 
ATOM     23  H   UNL     1      -5.984  18.834   4.476  1.00  0.00     0.190 HD
ENDBRANCH  15  16
ENDBRANCH  14  15
ENDBRANCH  13  14
ENDBRANCH   1  13
TORSDOF 7
ENDMDL
MODEL 8
REMARK VINA RESULT:    -4.688      9.418     12.071
REMARK INTER + INTRA:          -6.937
REMARK INTER:                  -5.516
REMARK INTRA:                  -1.421
REMARK UNBOUND:                -0.467
REMARK SMILES Cc1n[nH]c(C)c1CCCOc1cc(C(=O)O)ccc1F
REMARK SMILES IDX 11 1 12 2 14 3 18 4 13 5 19 6 20 7 21 8 15 9 16 10 17 11
REMARK SMILES IDX 10 13 9 14 8 15 7 16 5 17 2 18 4 19 3 20 6 21 1 22
REMARK H PARENT 17 12 4 23
ROOT
ATOM      1  O   UNL     1      -9.721  18.430   4.219  1.00  0.00    -0.490 OA
ENDROOT
BRANCH   1   2
ATOM      2  C   UNL     1     -10.792  18.217   5.030  1.00  0.00     0.155 A 
ATOM      3  C   UNL     1     -11.711  17.861   7.223  1.00  0.00     0.063 A 
ATOM      4  C   UNL     1     -12.993  17.794   6.671  1.00  0.00     0.019 A 
ATOM      5  C   UNL     1     -10.609  18.074   6.393  1.00  0.00     0.065 A 
ATOM      6  C   UNL     1     -13.166  17.944   5.311  1.00  0.00     0.044 A 
ATOM      7  C   UNL     1     -12.072  18.160   4.490  1.00  0.00     0.165 A 
ATOM      8  F   UNL     1     -12.248  18.306   3.158  1.00  0.00    -0.203 F 
BRANCH   3   9
ATOM      9  C   UNL     1     -11.522  17.702   8.678  1.00  0.00     0.335 C 
ATOM     10  O   UNL     1     -10.749  16.868   9.103  1.00  0.00    -0.246 OA
BRANCH   9  11
ATOM     11  O   UNL     1     -12.204  18.487   9.536  1.00  0.00    -0.478 OA
ATOM     12  H   UNL     1     -11.981  19.428   9.542  1.00  0.00     0.297 HD
ENDBRANCH   9  11
ENDBRANCH   3   9
ENDBRANCH   1   2
BRANCH   1  13
ATOM     13  C   UNL     1      -8.602  19.115   4.788  1.00  0.00     0.230 C 
BRANCH  13  14
ATOM     14  C   UNL     1      -7.320  18.339   4.479  1.00  0.00     0.046 C 
BRANCH  14  15
ATOM     15  C   UNL     1      -6.451  18.270   5.737  1.00  0.00     0.043 C 
BRANCH  15  16
ATOM     16  C   UNL     1      -7.064  17.307   6.720  1.00  0.00    -0.004 A 
ATOM     17  C   UNL     1      -7.523  17.614   7.955  1.00  0.00     0.036 A 
ATOM     18  C   UNL     1      -7.266  15.938   6.515  1.00  0.00     0.063 A 
ATOM     19  N   UNL     1      -7.992  16.479   8.514  1.00  0.00    -0.282 N 
ATOM     20  N   UNL     1      -7.815  15.439   7.592  1.00  0.00    -0.181 NA
ATOM     21  C   UNL     1      -7.513  18.980   8.592  1.00  0.00     0.066 C 
ATOM     22  C   UNL     1      -6.901  15.167   5.271  1.00  0.00     0.069 C 
ATOM     23  H   UNL     1      -8.382  16.397   9.398  1.00  0.00     0.190 HD
ENDBRANCH  15  16
ENDBRANCH  14  15
ENDBRANCH  13  14
ENDBRANCH   1  13
TORSDOF 7
ENDMDL
MODEL 9
REMARK VINA RESULT:    -4.559      4.976      7.942
REMARK INTER + INTRA:          -6.759
REMARK INTER:                  -6.101
REMARK INTRA:                  -0.658
REMARK UNBOUND:                -0.467
REMARK SMILES Cc1n[nH]c(C)c1CCCOc1cc(C(=O)O)ccc1F
REMARK SMILES IDX 11 1 12 2 14 3 18 4 13 5 19 6 20 7 21 8 15 9 16 10 17 11
REMARK SMILES IDX 10 13 9 14 8 15 7 16 5 17 2 18 4 19 3 20 6 21 1 22
REMARK H PARENT 17 12 4 23
ROOT
ATOM      1  O   UNL     1      -7.957  11.640   2.724  1.00  0.00    -0.490 OA
ENDROOT
BRANCH   1   2
ATOM      2  C   UNL     1      -8.234  12.745   3.466  1.00  0.00     0.155 A 
ATOM      3  C   UNL     1      -9.678  14.590   4.005  1.00  0.00     0.063 A 
ATOM      4  C   UNL     1      -8.786  14.993   5.002  1.00  0.00     0.019 A 
ATOM      5  C   UNL     1      -9.395  13.459   3.237  1.00  0.00     0.065 A 
ATOM      6  C   UNL     1      -7.633  14.271   5.228  1.00  0.00     0.044 A 
ATOM      7  C   UNL     1      -7.356  13.146   4.468  1.00  0.00     0.165 A 
ATOM      8  F   UNL     1      -6.225  12.443   4.694  1.00  0.00    -0.203 F 
BRANCH   3   9
ATOM      9  C   UNL     1     -10.913  15.361   3.761  1.00  0.00     0.335 C 
ATOM     10  O   UNL     1     -11.164  16.336   4.438  1.00  0.00    -0.246 OA
BRANCH   9  11
ATOM     11  O   UNL     1     -11.759  14.984   2.782  1.00  0.00    -0.478 OA
ATOM     12  H   UNL     1     -12.117  14.087   2.832  1.00  0.00     0.297 HD
ENDBRANCH   9  11
ENDBRANCH   3   9
ENDBRANCH   1   2
BRANCH   1  13
ATOM     13  C   UNL     1      -7.515  11.855   1.381  1.00  0.00     0.230 C 
BRANCH  13  14
ATOM     14  C   UNL     1      -7.316  10.506   0.688  1.00  0.00     0.046 C 
BRANCH  14  15
ATOM     15  C   UNL     1      -6.300   9.674   1.474  1.00  0.00     0.043 C 
BRANCH  15  16
ATOM     16  C   UNL     1      -5.746   8.589   0.588  1.00  0.00    -0.004 A 
ATOM     17  C   UNL     1      -6.287   7.363   0.397  1.00  0.00     0.036 A 
ATOM     18  C   UNL     1      -4.584   8.672  -0.186  1.00  0.00     0.063 A 
ATOM     19  N   UNL     1      -5.492   6.693  -0.463  1.00  0.00    -0.282 N 
ATOM     20  N   UNL     1      -4.427   7.534  -0.812  1.00  0.00    -0.181 NA
ATOM     21  C   UNL     1      -7.550   6.842   1.030  1.00  0.00     0.066 C 
ATOM     22  C   UNL     1      -3.664   9.863  -0.275  1.00  0.00     0.069 C 
ATOM     23  H   UNL     1      -5.633   5.788  -0.783  1.00  0.00     0.190 HD
ENDBRANCH  15  16
ENDBRANCH  14  15
ENDBRANCH  13  14
ENDBRANCH   1  13
TORSDOF 7
ENDMDL
