MODEL 1
REMARK VINA RESULT:    -4.040      0.000      0.000
REMARK INTER + INTRA:          -4.927
REMARK INTER:                  -4.631
REMARK INTRA:                  -0.296
REMARK UNBOUND:                -0.296
REMARK SMILES O=C(O)c1ccc2nc(-c3cc(Cl)cc(Cl)c3)oc2c1
REMARK SMILES IDX 5 1 6 2 20 3 8 4 18 5 4 6 9 7 7 8 19 9 2 10 1 11 3 12 10 14
REMARK SMILES IDX 11 15 17 16 12 17 15 18 14 19 13 20 16 21
REMARK H PARENT 3 13
ROOT
ATOM      1  C   UNL     1      -8.918  13.075   1.124  1.00  0.00     0.018 A 
ATOM      2  C   UNL     1      -8.347  12.244   0.207  1.00  0.00     0.033 A 
ATOM      3  C   UNL     1      -7.793  11.903   2.924  1.00  0.00     0.065 A 
ATOM      4  N   UNL     1      -6.791  10.267  -0.025  1.00  0.00    -0.209 NA
ATOM      5  O   UNL     1      -6.369  10.005   2.093  1.00  0.00    -0.436 OA
ATOM      6  C   UNL     1      -8.648  12.918   2.490  1.00  0.00     0.063 A 
ATOM      7  C   UNL     1      -6.130   9.550   0.849  1.00  0.00     0.227 A 
ATOM      8  C   UNL     1      -7.487  11.222   0.628  1.00  0.00     0.110 A 
ATOM      9  C   UNL     1      -7.215  11.054   1.997  1.00  0.00     0.156 A 
ENDROOT
BRANCH   6  10
ATOM     10  C   UNL     1      -9.266  13.827   3.472  1.00  0.00     0.335 C 
ATOM     11  O   UNL     1      -9.070  13.663   4.660  1.00  0.00    -0.246 OA
BRANCH  10  12
ATOM     12  O   UNL     1     -10.050  14.840   3.053  1.00  0.00    -0.478 OA
ATOM     13  H   UNL     1     -10.730  15.152   3.665  1.00  0.00     0.297 HD
ENDBRANCH  10  12
ENDBRANCH   6  10
BRANCH   7  14
ATOM     14  C   UNL     1      -5.252   8.408   0.517  1.00  0.00     0.040 A 
ATOM     15  C   UNL     1      -5.068   7.374   1.436  1.00  0.00     0.034 A 
ATOM     16  C   UNL     1      -4.602   8.361  -0.719  1.00  0.00     0.034 A 
ATOM     17  C   UNL     1      -4.247   6.310   1.119  1.00  0.00     0.043 A 
ATOM     18  C   UNL     1      -3.784   7.291  -1.024  1.00  0.00     0.043 A 
ATOM     19  C   UNL     1      -3.606   6.269  -0.108  1.00  0.00     0.041 A 
ATOM     20  Cl  UNL     1      -4.018   5.023   2.260  1.00  0.00    -0.084 Cl
ATOM     21  Cl  UNL     1      -2.975   7.230  -2.559  1.00  0.00    -0.084 Cl
ENDBRANCH   7  14
TORSDOF 3
ENDMDL
MODEL 2
REMARK VINA RESULT:    -4.039      0.004      2.019
REMARK INTER + INTRA:          -4.925
REMARK INTER:                  -4.629
REMARK INTRA:                  -0.296
REMARK UNBOUND:                -0.296
REMARK SMILES O=C(O)c1ccc2nc(-c3cc(Cl)cc(Cl)c3)oc2c1
REMARK SMILES IDX 5 1 6 2 20 3 8 4 18 5 4 6 9 7 7 8 19 9 2 10 1 11 3 12 10 14
REMARK SMILES IDX 11 15 17 16 12 17 15 18 14 19 13 20 16 21
REMARK H PARENT 3 13
ROOT
ATOM      1  C   UNL     1      -8.918  13.075   1.123  1.00  0.00     0.018 A 
ATOM      2  C   UNL     1      -8.348  12.244   0.206  1.00  0.00     0.033 A 
ATOM      3  C   UNL     1      -7.790  11.903   2.922  1.00  0.00     0.065 A 
ATOM      4  N   UNL     1      -6.793  10.267  -0.029  1.00  0.00    -0.209 NA
ATOM      5  O   UNL     1      -6.367  10.005   2.089  1.00  0.00    -0.436 OA
ATOM      6  C   UNL     1      -8.645  12.918   2.489  1.00  0.00     0.063 A 
ATOM      7  C   UNL     1      -6.130   9.549   0.844  1.00  0.00     0.227 A 
ATOM      8  C   UNL     1      -7.488  11.222   0.626  1.00  0.00     0.110 A 
ATOM      9  C   UNL     1      -7.214  11.054   1.995  1.00  0.00     0.156 A 
ENDROOT
BRANCH   6  10
ATOM     10  C   UNL     1      -9.263  13.828   3.472  1.00  0.00     0.335 C 
ATOM     11  O   UNL     1      -9.065  13.663   4.659  1.00  0.00    -0.246 OA
BRANCH  10  12
ATOM     12  O   UNL     1     -10.047  14.841   3.053  1.00  0.00    -0.478 OA
ATOM     13  H   UNL     1      -9.639  15.504   2.480  1.00  0.00     0.297 HD
ENDBRANCH  10  12
ENDBRANCH   6  10
BRANCH   7  14
ATOM     14  C   UNL     1      -5.253   8.408   0.511  1.00  0.00     0.040 A 
ATOM     15  C   UNL     1      -4.606   8.358  -0.724  1.00  0.00     0.034 A 
ATOM     16  C   UNL     1      -5.069   7.374   1.432  1.00  0.00     0.034 A 
ATOM     17  C   UNL     1      -3.787   7.289  -1.029  1.00  0.00     0.043 A 
ATOM     18  C   UNL     1      -4.248   6.311   1.116  1.00  0.00     0.043 A 
ATOM     19  C   UNL     1      -3.609   6.267  -0.111  1.00  0.00     0.041 A 
ATOM     20  Cl  UNL     1      -2.981   7.225  -2.564  1.00  0.00    -0.084 Cl
ATOM     21  Cl  UNL     1      -4.017   5.024   2.259  1.00  0.00    -0.084 Cl
ENDBRANCH   7  14
TORSDOF 3
ENDMDL
MODEL 3
REMARK VINA RESULT:    -4.034      3.544      5.355
REMARK INTER + INTRA:          -4.920
REMARK INTER:                  -4.634
REMARK INTRA:                  -0.286
REMARK UNBOUND:                -0.296
REMARK SMILES O=C(O)c1ccc2nc(-c3cc(Cl)cc(Cl)c3)oc2c1
REMARK SMILES IDX 5 1 6 2 20 3 8 4 18 5 4 6 9 7 7 8 19 9 2 10 1 11 3 12 10 14
REMARK SMILES IDX 11 15 17 16 12 17 15 18 14 19 13 20 16 21
REMARK H PARENT 3 13
ROOT
ATOM      1  C   UNL     1      -9.308  16.215   6.125  1.00  0.00     0.018 A 
ATOM      2  C   UNL     1      -9.740  15.622   4.976  1.00  0.00     0.033 A 
ATOM      3  C   UNL     1      -7.283  14.882   6.080  1.00  0.00     0.065 A 
ATOM      4  N   UNL     1      -9.110  13.899   3.239  1.00  0.00    -0.209 NA
ATOM      5  O   UNL     1      -7.200  13.325   4.109  1.00  0.00    -0.436 OA
ATOM      6  C   UNL     1      -8.077  15.856   6.690  1.00  0.00     0.063 A 
ATOM      7  C   UNL     1      -8.067  13.120   3.099  1.00  0.00     0.227 A 
ATOM      8  C   UNL     1      -8.954  14.644   4.355  1.00  0.00     0.110 A 
ATOM      9  C   UNL     1      -7.720  14.275   4.918  1.00  0.00     0.156 A 
ENDROOT
BRANCH   6  10
ATOM     10  C   UNL     1      -7.618  16.509   7.929  1.00  0.00     0.335 C 
ATOM     11  O   UNL     1      -7.285  17.677   7.913  1.00  0.00    -0.246 OA
BRANCH  10  12
ATOM     12  O   UNL     1      -7.566  15.810   9.080  1.00  0.00    -0.478 OA
ATOM     13  H   UNL     1      -6.926  15.087   9.126  1.00  0.00     0.297 HD
ENDBRANCH  10  12
ENDBRANCH   6  10
BRANCH   7  14
ATOM     14  C   UNL     1      -7.872  12.156   1.996  1.00  0.00     0.040 A 
ATOM     15  C   UNL     1      -7.161  10.975   2.214  1.00  0.00     0.034 A 
ATOM     16  C   UNL     1      -8.397  12.425   0.730  1.00  0.00     0.034 A 
ATOM     17  C   UNL     1      -6.983  10.079   1.178  1.00  0.00     0.043 A 
ATOM     18  C   UNL     1      -8.212  11.521  -0.297  1.00  0.00     0.043 A 
ATOM     19  C   UNL     1      -7.506  10.352  -0.074  1.00  0.00     0.041 A 
ATOM     20  Cl  UNL     1      -6.100   8.609   1.447  1.00  0.00    -0.084 Cl
ATOM     21  Cl  UNL     1      -8.865  11.854  -1.871  1.00  0.00    -0.084 Cl
ENDBRANCH   7  14
TORSDOF 3
ENDMDL
MODEL 4
REMARK VINA RESULT:    -4.023      3.506      5.551
REMARK INTER + INTRA:          -4.907
REMARK INTER:                  -4.623
REMARK INTRA:                  -0.284
REMARK UNBOUND:                -0.296
REMARK SMILES O=C(O)c1ccc2nc(-c3cc(Cl)cc(Cl)c3)oc2c1
REMARK SMILES IDX 5 1 6 2 20 3 8 4 18 5 4 6 9 7 7 8 19 9 2 10 1 11 3 12 10 14
REMARK SMILES IDX 11 15 17 16 12 17 15 18 14 19 13 20 16 21
REMARK H PARENT 3 13
ROOT
ATOM      1  C   UNL     1      -9.302  16.162   6.083  1.00  0.00     0.018 A 
ATOM      2  C   UNL     1      -9.734  15.558   4.941  1.00  0.00     0.033 A 
ATOM      3  C   UNL     1      -7.256  14.862   6.028  1.00  0.00     0.065 A 
ATOM      4  N   UNL     1      -9.091  13.838   3.206  1.00  0.00    -0.209 NA
ATOM      5  O   UNL     1      -7.165  13.298   4.062  1.00  0.00    -0.436 OA
ATOM      6  C   UNL     1      -8.060  15.825   6.640  1.00  0.00     0.063 A 
ATOM      7  C   UNL     1      -8.036  13.074   3.060  1.00  0.00     0.227 A 
ATOM      8  C   UNL     1      -8.937  14.590   4.317  1.00  0.00     0.110 A 
ATOM      9  C   UNL     1      -7.693  14.242   4.871  1.00  0.00     0.156 A 
ENDROOT
BRANCH   6  10
ATOM     10  C   UNL     1      -7.602  16.490   7.872  1.00  0.00     0.335 C 
ATOM     11  O   UNL     1      -6.917  17.491   7.804  1.00  0.00    -0.246 OA
BRANCH  10  12
ATOM     12  O   UNL     1      -7.941  15.988   9.076  1.00  0.00    -0.478 OA
ATOM     13  H   UNL     1      -7.888  15.029   9.182  1.00  0.00     0.297 HD
ENDBRANCH  10  12
ENDBRANCH   6  10
BRANCH   7  14
ATOM     14  C   UNL     1      -7.834  12.110   1.959  1.00  0.00     0.040 A 
ATOM     15  C   UNL     1      -8.346  12.379   0.689  1.00  0.00     0.034 A 
ATOM     16  C   UNL     1      -7.131  10.925   2.186  1.00  0.00     0.034 A 
ATOM     17  C   UNL     1      -8.154  11.474  -0.336  1.00  0.00     0.043 A 
ATOM     18  C   UNL     1      -6.945  10.028   1.153  1.00  0.00     0.043 A 
ATOM     19  C   UNL     1      -7.455  10.301  -0.105  1.00  0.00     0.041 A 
ATOM     20  Cl  UNL     1      -8.789  11.806  -1.917  1.00  0.00    -0.084 Cl
ATOM     21  Cl  UNL     1      -6.071   8.554   1.433  1.00  0.00    -0.084 Cl
ENDBRANCH   7  14
TORSDOF 3
ENDMDL
MODEL 5
REMARK VINA RESULT:    -4.019      1.818      3.201
REMARK INTER + INTRA:          -4.902
REMARK INTER:                  -4.607
REMARK INTRA:                  -0.296
REMARK UNBOUND:                -0.296
REMARK SMILES O=C(O)c1ccc2nc(-c3cc(Cl)cc(Cl)c3)oc2c1
REMARK SMILES IDX 5 1 6 2 20 3 8 4 18 5 4 6 9 7 7 8 19 9 2 10 1 11 3 12 10 14
REMARK SMILES IDX 11 15 17 16 12 17 15 18 14 19 13 20 16 21
REMARK H PARENT 3 13
ROOT
ATOM      1  C   UNL     1      -8.830  13.106   1.146  1.00  0.00     0.018 A 
ATOM      2  C   UNL     1      -8.135  12.145   1.816  1.00  0.00     0.033 A 
ATOM      3  C   UNL     1      -8.313  12.039  -0.969  1.00  0.00     0.065 A 
ATOM      4  N   UNL     1      -6.773  10.043   1.484  1.00  0.00    -0.209 NA
ATOM      5  O   UNL     1      -6.912   9.970  -0.686  1.00  0.00    -0.436 OA
ATOM      6  C   UNL     1      -8.930  13.065  -0.252  1.00  0.00     0.063 A 
ATOM      7  C   UNL     1      -6.421   9.372   0.416  1.00  0.00     0.227 A 
ATOM      8  C   UNL     1      -7.512  11.109   1.109  1.00  0.00     0.110 A 
ATOM      9  C   UNL     1      -7.603  11.064  -0.293  1.00  0.00     0.156 A 
ENDROOT
BRANCH   6  10
ATOM     10  C   UNL     1      -9.690  14.108  -0.966  1.00  0.00     0.335 C 
ATOM     11  O   UNL     1      -9.685  14.138  -2.180  1.00  0.00    -0.246 OA
BRANCH  10  12
ATOM     12  O   UNL     1     -10.388  15.028  -0.272  1.00  0.00    -0.478 OA
ATOM     13  H   UNL     1     -10.225  15.956  -0.486  1.00  0.00     0.297 HD
ENDBRANCH  10  12
ENDBRANCH   6  10
BRANCH   7  14
ATOM     14  C   UNL     1      -5.606   8.140   0.420  1.00  0.00     0.040 A 
ATOM     15  C   UNL     1      -4.829   7.810  -0.692  1.00  0.00     0.034 A 
ATOM     16  C   UNL     1      -5.609   7.301   1.536  1.00  0.00     0.034 A 
ATOM     17  C   UNL     1      -4.068   6.657  -0.681  1.00  0.00     0.043 A 
ATOM     18  C   UNL     1      -4.844   6.152   1.534  1.00  0.00     0.043 A 
ATOM     19  C   UNL     1      -4.076   5.830   0.429  1.00  0.00     0.041 A 
ATOM     20  Cl  UNL     1      -3.101   6.245  -2.062  1.00  0.00    -0.084 Cl
ATOM     21  Cl  UNL     1      -4.847   5.107   2.921  1.00  0.00    -0.084 Cl
ENDBRANCH   7  14
TORSDOF 3
ENDMDL
MODEL 6
REMARK VINA RESULT:    -4.017      1.813      2.500
REMARK INTER + INTRA:          -4.900
REMARK INTER:                  -4.604
REMARK INTRA:                  -0.296
REMARK UNBOUND:                -0.296
REMARK SMILES O=C(O)c1ccc2nc(-c3cc(Cl)cc(Cl)c3)oc2c1
REMARK SMILES IDX 5 1 6 2 20 3 8 4 18 5 4 6 9 7 7 8 19 9 2 10 1 11 3 12 10 14
REMARK SMILES IDX 11 15 17 16 12 17 15 18 14 19 13 20 16 21
REMARK H PARENT 3 13
ROOT
ATOM      1  C   UNL     1      -8.833  13.108   1.160  1.00  0.00     0.018 A 
ATOM      2  C   UNL     1      -8.142  12.144   1.830  1.00  0.00     0.033 A 
ATOM      3  C   UNL     1      -8.309  12.048  -0.956  1.00  0.00     0.065 A 
ATOM      4  N   UNL     1      -6.780  10.042   1.496  1.00  0.00    -0.209 NA
ATOM      5  O   UNL     1      -6.911   9.977  -0.674  1.00  0.00    -0.436 OA
ATOM      6  C   UNL     1      -8.927  13.073  -0.238  1.00  0.00     0.063 A 
ATOM      7  C   UNL     1      -6.425   9.374   0.427  1.00  0.00     0.227 A 
ATOM      8  C   UNL     1      -7.516  11.110   1.122  1.00  0.00     0.110 A 
ATOM      9  C   UNL     1      -7.602  11.070  -0.281  1.00  0.00     0.156 A 
ENDROOT
BRANCH   6  10
ATOM     10  C   UNL     1      -9.683  14.118  -0.951  1.00  0.00     0.335 C 
ATOM     11  O   UNL     1      -9.668  14.157  -2.165  1.00  0.00    -0.246 OA
BRANCH  10  12
ATOM     12  O   UNL     1     -10.389  15.032  -0.257  1.00  0.00    -0.478 OA
ATOM     13  H   UNL     1     -10.031  15.307   0.598  1.00  0.00     0.297 HD
ENDBRANCH  10  12
ENDBRANCH   6  10
BRANCH   7  14
ATOM     14  C   UNL     1      -5.610   8.142   0.430  1.00  0.00     0.040 A 
ATOM     15  C   UNL     1      -5.613   7.302   1.545  1.00  0.00     0.034 A 
ATOM     16  C   UNL     1      -4.834   7.813  -0.683  1.00  0.00     0.034 A 
ATOM     17  C   UNL     1      -4.850   6.151   1.541  1.00  0.00     0.043 A 
ATOM     18  C   UNL     1      -4.076   6.659  -0.675  1.00  0.00     0.043 A 
ATOM     19  C   UNL     1      -4.082   5.831   0.434  1.00  0.00     0.041 A 
ATOM     20  Cl  UNL     1      -4.852   5.105   2.926  1.00  0.00    -0.084 Cl
ATOM     21  Cl  UNL     1      -3.109   6.248  -2.058  1.00  0.00    -0.084 Cl
ENDBRANCH   7  14
TORSDOF 3
ENDMDL
MODEL 7
REMARK VINA RESULT:    -3.941      3.747      7.635
REMARK INTER + INTRA:          -4.813
REMARK INTER:                  -4.515
REMARK INTRA:                  -0.298
REMARK UNBOUND:                -0.296
REMARK SMILES O=C(O)c1ccc2nc(-c3cc(Cl)cc(Cl)c3)oc2c1
REMARK SMILES IDX 5 1 6 2 20 3 8 4 18 5 4 6 9 7 7 8 19 9 2 10 1 11 3 12 10 14
REMARK SMILES IDX 11 15 17 16 12 17 15 18 14 19 13 20 16 21
REMARK H PARENT 3 13
ROOT
ATOM      1  C   UNL     1      -4.137   6.454  -0.822  1.00  0.00     0.018 A 
ATOM      2  C   UNL     1      -4.876   7.496  -1.296  1.00  0.00     0.033 A 
ATOM      3  C   UNL     1      -4.617   7.119   1.460  1.00  0.00     0.065 A 
ATOM      4  N   UNL     1      -6.278   9.467  -0.566  1.00  0.00    -0.209 NA
ATOM      5  O   UNL     1      -6.067   9.170   1.579  1.00  0.00    -0.436 OA
ATOM      6  C   UNL     1      -3.999   6.251   0.558  1.00  0.00     0.063 A 
ATOM      7  C   UNL     1      -6.610   9.934   0.612  1.00  0.00     0.227 A 
ATOM      8  C   UNL     1      -5.502   8.375  -0.402  1.00  0.00     0.110 A 
ATOM      9  C   UNL     1      -5.364   8.181   0.983  1.00  0.00     0.156 A 
ENDROOT
BRANCH   6  10
ATOM     10  C   UNL     1      -3.201   5.117   1.058  1.00  0.00     0.335 C 
ATOM     11  O   UNL     1      -2.527   4.462   0.288  1.00  0.00    -0.246 OA
BRANCH  10  12
ATOM     12  O   UNL     1      -3.220   4.806   2.369  1.00  0.00    -0.478 OA
ATOM     13  H   UNL     1      -2.366   4.671   2.801  1.00  0.00     0.297 HD
ENDBRANCH  10  12
ENDBRANCH   6  10
BRANCH   7  14
ATOM     14  C   UNL     1      -7.455  11.123   0.845  1.00  0.00     0.040 A 
ATOM     15  C   UNL     1      -8.077  11.762  -0.228  1.00  0.00     0.034 A 
ATOM     16  C   UNL     1      -7.634  11.612   2.141  1.00  0.00     0.034 A 
ATOM     17  C   UNL     1      -8.866  12.873  -0.003  1.00  0.00     0.043 A 
ATOM     18  C   UNL     1      -8.425  12.723   2.353  1.00  0.00     0.043 A 
ATOM     19  C   UNL     1      -9.039  13.353   1.284  1.00  0.00     0.041 A 
ATOM     20  Cl  UNL     1      -9.641  13.669  -1.336  1.00  0.00    -0.084 Cl
ATOM     21  Cl  UNL     1      -8.649  13.333   3.963  1.00  0.00    -0.084 Cl
ENDBRANCH   7  14
TORSDOF 3
ENDMDL
MODEL 8
REMARK VINA RESULT:    -3.940      3.748      7.400
REMARK INTER + INTRA:          -4.811
REMARK INTER:                  -4.513
REMARK INTRA:                  -0.298
REMARK UNBOUND:                -0.296
REMARK SMILES O=C(O)c1ccc2nc(-c3cc(Cl)cc(Cl)c3)oc2c1
REMARK SMILES IDX 5 1 6 2 20 3 8 4 18 5 4 6 9 7 7 8 19 9 2 10 1 11 3 12 10 14
REMARK SMILES IDX 11 15 17 16 12 17 15 18 14 19 13 20 16 21
REMARK H PARENT 3 13
ROOT
ATOM      1  C   UNL     1      -4.138   6.462  -0.821  1.00  0.00     0.018 A 
ATOM      2  C   UNL     1      -4.876   7.505  -1.294  1.00  0.00     0.033 A 
ATOM      3  C   UNL     1      -4.625   7.122   1.461  1.00  0.00     0.065 A 
ATOM      4  N   UNL     1      -6.278   9.475  -0.564  1.00  0.00    -0.209 NA
ATOM      5  O   UNL     1      -6.074   9.173   1.581  1.00  0.00    -0.436 OA
ATOM      6  C   UNL     1      -4.004   6.255   0.559  1.00  0.00     0.063 A 
ATOM      7  C   UNL     1      -6.614   9.939   0.615  1.00  0.00     0.227 A 
ATOM      8  C   UNL     1      -5.503   8.382  -0.400  1.00  0.00     0.110 A 
ATOM      9  C   UNL     1      -5.370   8.184   0.985  1.00  0.00     0.156 A 
ENDROOT
BRANCH   6  10
ATOM     10  C   UNL     1      -3.209   5.120   1.059  1.00  0.00     0.335 C 
ATOM     11  O   UNL     1      -2.534   4.465   0.290  1.00  0.00    -0.246 OA
BRANCH  10  12
ATOM     12  O   UNL     1      -3.231   4.806   2.370  1.00  0.00    -0.478 OA
ATOM     13  H   UNL     1      -3.091   5.528   2.997  1.00  0.00     0.297 HD
ENDBRANCH  10  12
ENDBRANCH   6  10
BRANCH   7  14
ATOM     14  C   UNL     1      -7.459  11.128   0.848  1.00  0.00     0.040 A 
ATOM     15  C   UNL     1      -7.640  11.617   2.142  1.00  0.00     0.034 A 
ATOM     16  C   UNL     1      -8.081  11.767  -0.227  1.00  0.00     0.034 A 
ATOM     17  C   UNL     1      -8.430  12.730   2.353  1.00  0.00     0.043 A 
ATOM     18  C   UNL     1      -8.868  12.878  -0.003  1.00  0.00     0.043 A 
ATOM     19  C   UNL     1      -9.044  13.358   1.283  1.00  0.00     0.041 A 
ATOM     20  Cl  UNL     1      -8.655  13.340   3.963  1.00  0.00    -0.084 Cl
ATOM     21  Cl  UNL     1      -9.643  13.674  -1.338  1.00  0.00    -0.084 Cl
ENDBRANCH   7  14
TORSDOF 3
ENDMDL
MODEL 9
REMARK VINA RESULT:    -3.459      4.312      7.690
REMARK INTER + INTRA:          -4.260
REMARK INTER:                  -3.973
REMARK INTRA:                  -0.287
REMARK UNBOUND:                -0.296
REMARK SMILES O=C(O)c1ccc2nc(-c3cc(Cl)cc(Cl)c3)oc2c1
REMARK SMILES IDX 5 1 6 2 20 3 8 4 18 5 4 6 9 7 7 8 19 9 2 10 1 11 3 12 10 14
REMARK SMILES IDX 11 15 17 16 12 17 15 18 14 19 13 20 16 21
REMARK H PARENT 3 13
ROOT
ATOM      1  C   UNL     1      -6.715   7.852   0.347  1.00  0.00     0.018 A 
ATOM      2  C   UNL     1      -7.588   8.378   1.252  1.00  0.00     0.033 A 
ATOM      3  C   UNL     1      -5.589   9.991   0.156  1.00  0.00     0.065 A 
ATOM      4  N   UNL     1      -8.181  10.506   2.477  1.00  0.00    -0.209 NA
ATOM      5  O   UNL     1      -6.624  11.758   1.615  1.00  0.00    -0.436 OA
ATOM      6  C   UNL     1      -5.705   8.649  -0.210  1.00  0.00     0.063 A 
ATOM      7  C   UNL     1      -7.667  11.711   2.465  1.00  0.00     0.227 A 
ATOM      8  C   UNL     1      -7.482   9.723   1.628  1.00  0.00     0.110 A 
ATOM      9  C   UNL     1      -6.475  10.530   1.070  1.00  0.00     0.156 A 
ENDROOT
BRANCH   6  10
ATOM     10  C   UNL     1      -4.763   8.068  -1.184  1.00  0.00     0.335 C 
ATOM     11  O   UNL     1      -5.071   7.071  -1.806  1.00  0.00    -0.246 OA
BRANCH  10  12
ATOM     12  O   UNL     1      -3.559   8.641  -1.382  1.00  0.00    -0.478 OA
ATOM     13  H   UNL     1      -2.845   8.067  -1.688  1.00  0.00     0.297 HD
ENDBRANCH  10  12
ENDBRANCH   6  10
BRANCH   7  14
ATOM     14  C   UNL     1      -8.160  12.851   3.266  1.00  0.00     0.040 A 
ATOM     15  C   UNL     1      -7.363  13.396   4.273  1.00  0.00     0.034 A 
ATOM     16  C   UNL     1      -9.426  13.385   3.019  1.00  0.00     0.034 A 
ATOM     17  C   UNL     1      -7.829  14.462   5.018  1.00  0.00     0.043 A 
ATOM     18  C   UNL     1      -9.881  14.450   3.770  1.00  0.00     0.043 A 
ATOM     19  C   UNL     1      -9.086  14.987   4.767  1.00  0.00     0.041 A 
ATOM     20  Cl  UNL     1      -6.840  15.143   6.271  1.00  0.00    -0.084 Cl
ATOM     21  Cl  UNL     1     -11.455  15.116   3.463  1.00  0.00    -0.084 Cl
ENDBRANCH   7  14
TORSDOF 3
ENDMDL
