MODEL 1
REMARK VINA RESULT:    -3.485      0.000      0.000
REMARK INTER + INTRA:          -4.281
REMARK INTER:                  -3.994
REMARK INTRA:                  -0.286
REMARK UNBOUND:                -0.286
REMARK SMILES O=C(O)c1ccc2nc(-c3cc(Cl)cc(Cl)c3)oc2c1
REMARK SMILES IDX 5 1 6 2 20 3 8 4 18 5 4 6 9 7 7 8 19 9 2 10 1 11 3 12 10 14
REMARK SMILES IDX 11 15 17 16 12 17 15 18 14 19 13 20 16 21
REMARK H PARENT 3 13
ROOT
ATOM      1  C   UNL     1      11.803  -3.578  11.633  1.00  0.00     0.018 A 
ATOM      2  C   UNL     1      12.102  -3.122  10.384  1.00  0.00     0.033 A 
ATOM      3  C   UNL     1       9.500  -3.950  10.971  1.00  0.00     0.065 A 
ATOM      4  N   UNL     1      11.099  -2.676   8.109  1.00  0.00    -0.209 NA
ATOM      5  O   UNL     1       9.073  -3.317   8.576  1.00  0.00    -0.436 OA
ATOM      6  C   UNL     1      10.502  -3.998  11.942  1.00  0.00     0.063 A 
ATOM      7  C   UNL     1       9.891  -2.826   7.626  1.00  0.00     0.227 A 
ATOM      8  C   UNL     1      11.107  -3.068   9.401  1.00  0.00     0.110 A 
ATOM      9  C   UNL     1       9.798  -3.484   9.704  1.00  0.00     0.156 A 
ENDROOT
BRANCH   6  10
ATOM     10  C   UNL     1      10.191  -4.495  13.295  1.00  0.00     0.335 C 
ATOM     11  O   UNL     1       9.324  -3.958  13.955  1.00  0.00    -0.246 OA
BRANCH  10  12
ATOM     12  O   UNL     1      10.870  -5.544  13.801  1.00  0.00    -0.478 OA
ATOM     13  H   UNL     1      10.424  -6.401  13.792  1.00  0.00     0.297 HD
ENDBRANCH  10  12
ENDBRANCH   6  10
BRANCH   7  14
ATOM     14  C   UNL     1       9.486  -2.504   6.242  1.00  0.00     0.040 A 
ATOM     15  C   UNL     1       8.235  -1.940   5.991  1.00  0.00     0.034 A 
ATOM     16  C   UNL     1      10.355  -2.763   5.179  1.00  0.00     0.034 A 
ATOM     17  C   UNL     1       7.863  -1.640   4.695  1.00  0.00     0.043 A 
ATOM     18  C   UNL     1       9.971  -2.458   3.889  1.00  0.00     0.043 A 
ATOM     19  C   UNL     1       8.728  -1.899   3.646  1.00  0.00     0.041 A 
ATOM     20  Cl  UNL     1       6.307  -0.937   4.381  1.00  0.00    -0.084 Cl
ATOM     21  Cl  UNL     1      11.050  -2.779   2.566  1.00  0.00    -0.084 Cl
ENDBRANCH   7  14
TORSDOF 3
ENDMDL
MODEL 2
REMARK VINA RESULT:    -3.479      0.038      2.020
REMARK INTER + INTRA:          -4.274
REMARK INTER:                  -3.989
REMARK INTRA:                  -0.286
REMARK UNBOUND:                -0.286
REMARK SMILES O=C(O)c1ccc2nc(-c3cc(Cl)cc(Cl)c3)oc2c1
REMARK SMILES IDX 5 1 6 2 20 3 8 4 18 5 4 6 9 7 7 8 19 9 2 10 1 11 3 12 10 14
REMARK SMILES IDX 11 15 17 16 12 17 15 18 14 19 13 20 16 21
REMARK H PARENT 3 13
ROOT
ATOM      1  C   UNL     1      11.802  -3.585  11.647  1.00  0.00     0.018 A 
ATOM      2  C   UNL     1      12.110  -3.126  10.401  1.00  0.00     0.033 A 
ATOM      3  C   UNL     1       9.504  -3.957  10.968  1.00  0.00     0.065 A 
ATOM      4  N   UNL     1      11.123  -2.676   8.120  1.00  0.00    -0.209 NA
ATOM      5  O   UNL     1       9.094  -3.320   8.571  1.00  0.00    -0.436 OA
ATOM      6  C   UNL     1      10.499  -4.007  11.946  1.00  0.00     0.063 A 
ATOM      7  C   UNL     1       9.918  -2.827   7.627  1.00  0.00     0.227 A 
ATOM      8  C   UNL     1      11.121  -3.071   9.411  1.00  0.00     0.110 A 
ATOM      9  C   UNL     1       9.811  -3.488   9.704  1.00  0.00     0.156 A 
ENDROOT
BRANCH   6  10
ATOM     10  C   UNL     1      10.179  -4.507  13.295  1.00  0.00     0.335 C 
ATOM     11  O   UNL     1       9.314  -3.965  13.954  1.00  0.00    -0.246 OA
BRANCH  10  12
ATOM     12  O   UNL     1      10.847  -5.564  13.799  1.00  0.00    -0.478 OA
ATOM     13  H   UNL     1      11.639  -5.375  14.319  1.00  0.00     0.297 HD
ENDBRANCH  10  12
ENDBRANCH   6  10
BRANCH   7  14
ATOM     14  C   UNL     1       9.523  -2.501   6.241  1.00  0.00     0.040 A 
ATOM     15  C   UNL     1      10.388  -2.778   5.182  1.00  0.00     0.034 A 
ATOM     16  C   UNL     1       8.281  -1.915   5.986  1.00  0.00     0.034 A 
ATOM     17  C   UNL     1      10.013  -2.472   3.889  1.00  0.00     0.043 A 
ATOM     18  C   UNL     1       7.917  -1.614   4.689  1.00  0.00     0.043 A 
ATOM     19  C   UNL     1       8.780  -1.891   3.643  1.00  0.00     0.041 A 
ATOM     20  Cl  UNL     1      11.087  -2.816   2.570  1.00  0.00    -0.084 Cl
ATOM     21  Cl  UNL     1       6.374  -0.885   4.370  1.00  0.00    -0.084 Cl
ENDBRANCH   7  14
TORSDOF 3
ENDMDL
MODEL 3
REMARK VINA RESULT:    -3.371      4.949      6.381
REMARK INTER + INTRA:          -4.150
REMARK INTER:                  -3.855
REMARK INTRA:                  -0.296
REMARK UNBOUND:                -0.286
REMARK SMILES O=C(O)c1ccc2nc(-c3cc(Cl)cc(Cl)c3)oc2c1
REMARK SMILES IDX 5 1 6 2 20 3 8 4 18 5 4 6 9 7 7 8 19 9 2 10 1 11 3 12 10 14
REMARK SMILES IDX 11 15 17 16 12 17 15 18 14 19 13 20 16 21
REMARK H PARENT 3 13
ROOT
ATOM      1  C   UNL     1      11.181  -2.935   6.048  1.00  0.00     0.018 A 
ATOM      2  C   UNL     1       9.918  -2.470   6.261  1.00  0.00     0.033 A 
ATOM      3  C   UNL     1      10.802  -2.935   3.653  1.00  0.00     0.065 A 
ATOM      4  N   UNL     1       7.798  -1.781   5.074  1.00  0.00    -0.209 NA
ATOM      5  O   UNL     1       8.492  -2.150   3.045  1.00  0.00    -0.436 OA
ATOM      6  C   UNL     1      11.640  -3.171   4.744  1.00  0.00     0.063 A 
ATOM      7  C   UNL     1       7.463  -1.736   3.808  1.00  0.00     0.227 A 
ATOM      8  C   UNL     1       9.067  -2.229   5.176  1.00  0.00     0.110 A 
ATOM      9  C   UNL     1       9.518  -2.468   3.865  1.00  0.00     0.156 A 
ENDROOT
BRANCH   6  10
ATOM     10  C   UNL     1      13.010  -3.668   4.525  1.00  0.00     0.335 C 
ATOM     11  O   UNL     1      13.448  -3.762   3.396  1.00  0.00    -0.246 OA
BRANCH  10  12
ATOM     12  O   UNL     1      13.776  -4.019   5.576  1.00  0.00    -0.478 OA
ATOM     13  H   UNL     1      14.131  -3.302   6.120  1.00  0.00     0.297 HD
ENDBRANCH  10  12
ENDBRANCH   6  10
BRANCH   7  14
ATOM     14  C   UNL     1       6.149  -1.296   3.295  1.00  0.00     0.040 A 
ATOM     15  C   UNL     1       5.380  -0.387   4.023  1.00  0.00     0.034 A 
ATOM     16  C   UNL     1       5.671  -1.789   2.079  1.00  0.00     0.034 A 
ATOM     17  C   UNL     1       4.154   0.021   3.537  1.00  0.00     0.043 A 
ATOM     18  C   UNL     1       4.444  -1.374   1.604  1.00  0.00     0.043 A 
ATOM     19  C   UNL     1       3.686  -0.472   2.331  1.00  0.00     0.041 A 
ATOM     20  Cl  UNL     1       3.196   1.152   4.441  1.00  0.00    -0.084 Cl
ATOM     21  Cl  UNL     1       3.848  -1.985   0.092  1.00  0.00    -0.084 Cl
ENDBRANCH   7  14
TORSDOF 3
ENDMDL
MODEL 4
REMARK VINA RESULT:    -3.371      4.960      6.570
REMARK INTER + INTRA:          -4.150
REMARK INTER:                  -3.854
REMARK INTRA:                  -0.296
REMARK UNBOUND:                -0.286
REMARK SMILES O=C(O)c1ccc2nc(-c3cc(Cl)cc(Cl)c3)oc2c1
REMARK SMILES IDX 5 1 6 2 20 3 8 4 18 5 4 6 9 7 7 8 19 9 2 10 1 11 3 12 10 14
REMARK SMILES IDX 11 15 17 16 12 17 15 18 14 19 13 20 16 21
REMARK H PARENT 3 13
ROOT
ATOM      1  C   UNL     1      11.193  -2.943   6.032  1.00  0.00     0.018 A 
ATOM      2  C   UNL     1       9.930  -2.481   6.250  1.00  0.00     0.033 A 
ATOM      3  C   UNL     1      10.809  -2.930   3.637  1.00  0.00     0.065 A 
ATOM      4  N   UNL     1       7.807  -1.786   5.070  1.00  0.00    -0.209 NA
ATOM      5  O   UNL     1       8.497  -2.143   3.038  1.00  0.00    -0.436 OA
ATOM      6  C   UNL     1      11.649  -3.171   4.726  1.00  0.00     0.063 A 
ATOM      7  C   UNL     1       7.470  -1.734   3.806  1.00  0.00     0.227 A 
ATOM      8  C   UNL     1       9.077  -2.234   5.168  1.00  0.00     0.110 A 
ATOM      9  C   UNL     1       9.525  -2.465   3.855  1.00  0.00     0.156 A 
ENDROOT
BRANCH   6  10
ATOM     10  C   UNL     1      13.020  -3.666   4.501  1.00  0.00     0.335 C 
ATOM     11  O   UNL     1      13.455  -3.756   3.371  1.00  0.00    -0.246 OA
BRANCH  10  12
ATOM     12  O   UNL     1      13.789  -4.019   5.550  1.00  0.00    -0.478 OA
ATOM     13  H   UNL     1      14.346  -4.802   5.442  1.00  0.00     0.297 HD
ENDBRANCH  10  12
ENDBRANCH   6  10
BRANCH   7  14
ATOM     14  C   UNL     1       6.154  -1.292   3.297  1.00  0.00     0.040 A 
ATOM     15  C   UNL     1       5.670  -1.785   2.085  1.00  0.00     0.034 A 
ATOM     16  C   UNL     1       5.392  -0.379   4.028  1.00  0.00     0.034 A 
ATOM     17  C   UNL     1       4.439  -1.369   1.616  1.00  0.00     0.043 A 
ATOM     18  C   UNL     1       4.164   0.030   3.549  1.00  0.00     0.043 A 
ATOM     19  C   UNL     1       3.688  -0.463   2.346  1.00  0.00     0.041 A 
ATOM     20  Cl  UNL     1       3.834  -1.981   0.109  1.00  0.00    -0.084 Cl
ATOM     21  Cl  UNL     1       3.214   1.165   4.456  1.00  0.00    -0.084 Cl
ENDBRANCH   7  14
TORSDOF 3
ENDMDL
MODEL 5
REMARK VINA RESULT:    -3.294      5.166      8.810
REMARK INTER + INTRA:          -4.062
REMARK INTER:                  -3.764
REMARK INTRA:                  -0.298
REMARK UNBOUND:                -0.286
REMARK SMILES O=C(O)c1ccc2nc(-c3cc(Cl)cc(Cl)c3)oc2c1
REMARK SMILES IDX 5 1 6 2 20 3 8 4 18 5 4 6 9 7 7 8 19 9 2 10 1 11 3 12 10 14
REMARK SMILES IDX 11 15 17 16 12 17 15 18 14 19 13 20 16 21
REMARK H PARENT 3 13
ROOT
ATOM      1  C   UNL     1       3.484  -0.530   3.102  1.00  0.00     0.018 A 
ATOM      2  C   UNL     1       4.279  -0.655   4.202  1.00  0.00     0.033 A 
ATOM      3  C   UNL     1       5.256  -1.401   1.694  1.00  0.00     0.065 A 
ATOM      4  N   UNL     1       6.577  -1.386   4.954  1.00  0.00    -0.209 NA
ATOM      5  O   UNL     1       7.332  -1.960   2.996  1.00  0.00    -0.436 OA
ATOM      6  C   UNL     1       3.960  -0.902   1.837  1.00  0.00     0.063 A 
ATOM      7  C   UNL     1       7.612  -1.864   4.309  1.00  0.00     0.227 A 
ATOM      8  C   UNL     1       5.581  -1.153   4.073  1.00  0.00     0.110 A 
ATOM      9  C   UNL     1       6.067  -1.524   2.807  1.00  0.00     0.156 A 
ENDROOT
BRANCH   6  10
ATOM     10  C   UNL     1       3.089  -0.768   0.655  1.00  0.00     0.335 C 
ATOM     11  O   UNL     1       2.032  -0.176   0.744  1.00  0.00    -0.246 OA
BRANCH  10  12
ATOM     12  O   UNL     1       3.464  -1.303  -0.523  1.00  0.00    -0.478 OA
ATOM     13  H   UNL     1       4.265  -0.948  -0.932  1.00  0.00     0.297 HD
ENDBRANCH  10  12
ENDBRANCH   6  10
BRANCH   7  14
ATOM     14  C   UNL     1       8.898  -2.242   4.933  1.00  0.00     0.040 A 
ATOM     15  C   UNL     1       9.037  -2.220   6.321  1.00  0.00     0.034 A 
ATOM     16  C   UNL     1       9.979  -2.622   4.134  1.00  0.00     0.034 A 
ATOM     17  C   UNL     1      10.241  -2.575   6.897  1.00  0.00     0.043 A 
ATOM     18  C   UNL     1      11.177  -2.975   4.722  1.00  0.00     0.043 A 
ATOM     19  C   UNL     1      11.309  -2.951   6.100  1.00  0.00     0.041 A 
ATOM     20  Cl  UNL     1      10.416  -2.549   8.624  1.00  0.00    -0.084 Cl
ATOM     21  Cl  UNL     1      12.522  -3.448   3.731  1.00  0.00    -0.084 Cl
ENDBRANCH   7  14
TORSDOF 3
ENDMDL
MODEL 6
REMARK VINA RESULT:    -3.288      5.167      8.969
REMARK INTER + INTRA:          -4.055
REMARK INTER:                  -3.757
REMARK INTRA:                  -0.298
REMARK UNBOUND:                -0.286
REMARK SMILES O=C(O)c1ccc2nc(-c3cc(Cl)cc(Cl)c3)oc2c1
REMARK SMILES IDX 5 1 6 2 20 3 8 4 18 5 4 6 9 7 7 8 19 9 2 10 1 11 3 12 10 14
REMARK SMILES IDX 11 15 17 16 12 17 15 18 14 19 13 20 16 21
REMARK H PARENT 3 13
ROOT
ATOM      1  C   UNL     1       3.489  -0.528   3.106  1.00  0.00     0.018 A 
ATOM      2  C   UNL     1       4.286  -0.652   4.204  1.00  0.00     0.033 A 
ATOM      3  C   UNL     1       5.257  -1.401   1.695  1.00  0.00     0.065 A 
ATOM      4  N   UNL     1       6.585  -1.385   4.952  1.00  0.00    -0.209 NA
ATOM      5  O   UNL     1       7.336  -1.961   2.993  1.00  0.00    -0.436 OA
ATOM      6  C   UNL     1       3.962  -0.901   1.840  1.00  0.00     0.063 A 
ATOM      7  C   UNL     1       7.619  -1.864   4.306  1.00  0.00     0.227 A 
ATOM      8  C   UNL     1       5.587  -1.152   4.073  1.00  0.00     0.110 A 
ATOM      9  C   UNL     1       6.071  -1.524   2.806  1.00  0.00     0.156 A 
ENDROOT
BRANCH   6  10
ATOM     10  C   UNL     1       3.089  -0.767   0.660  1.00  0.00     0.335 C 
ATOM     11  O   UNL     1       2.031  -0.177   0.751  1.00  0.00    -0.246 OA
BRANCH  10  12
ATOM     12  O   UNL     1       3.463  -1.301  -0.520  1.00  0.00    -0.478 OA
ATOM     13  H   UNL     1       4.096  -2.031  -0.491  1.00  0.00     0.297 HD
ENDBRANCH  10  12
ENDBRANCH   6  10
BRANCH   7  14
ATOM     14  C   UNL     1       8.905  -2.243   4.927  1.00  0.00     0.040 A 
ATOM     15  C   UNL     1       9.984  -2.624   4.129  1.00  0.00     0.034 A 
ATOM     16  C   UNL     1       9.045  -2.221   6.316  1.00  0.00     0.034 A 
ATOM     17  C   UNL     1      11.183  -2.976   4.715  1.00  0.00     0.043 A 
ATOM     18  C   UNL     1      10.249  -2.574   6.891  1.00  0.00     0.043 A 
ATOM     19  C   UNL     1      11.316  -2.952   6.093  1.00  0.00     0.041 A 
ATOM     20  Cl  UNL     1      12.527  -3.450   3.724  1.00  0.00    -0.084 Cl
ATOM     21  Cl  UNL     1      10.426  -2.547   8.618  1.00  0.00    -0.084 Cl
ENDBRANCH   7  14
TORSDOF 3
ENDMDL
MODEL 7
REMARK VINA RESULT:    -3.288      3.144      4.846
REMARK INTER + INTRA:          -4.055
REMARK INTER:                  -3.764
REMARK INTRA:                  -0.292
REMARK UNBOUND:                -0.286
REMARK SMILES O=C(O)c1ccc2nc(-c3cc(Cl)cc(Cl)c3)oc2c1
REMARK SMILES IDX 5 1 6 2 20 3 8 4 18 5 4 6 9 7 7 8 19 9 2 10 1 11 3 12 10 14
REMARK SMILES IDX 11 15 17 16 12 17 15 18 14 19 13 20 16 21
REMARK H PARENT 3 13
ROOT
ATOM      1  C   UNL     1      11.136  -2.795   6.462  1.00  0.00     0.018 A 
ATOM      2  C   UNL     1      10.557  -2.751   5.229  1.00  0.00     0.033 A 
ATOM      3  C   UNL     1       9.032  -2.179   7.498  1.00  0.00     0.065 A 
ATOM      4  N   UNL     1       8.373  -2.294   4.044  1.00  0.00    -0.209 NA
ATOM      5  O   UNL     1       7.193  -1.845   5.816  1.00  0.00    -0.436 OA
ATOM      6  C   UNL     1      10.382  -2.513   7.610  1.00  0.00     0.063 A 
ATOM      7  C   UNL     1       7.183  -1.955   4.474  1.00  0.00     0.227 A 
ATOM      8  C   UNL     1       9.203  -2.417   5.102  1.00  0.00     0.110 A 
ATOM      9  C   UNL     1       8.442  -2.127   6.248  1.00  0.00     0.156 A 
ENDROOT
BRANCH   6  10
ATOM     10  C   UNL     1      11.018  -2.570   8.939  1.00  0.00     0.335 C 
ATOM     11  O   UNL     1      10.390  -2.980   9.895  1.00  0.00    -0.246 OA
BRANCH  10  12
ATOM     12  O   UNL     1      12.294  -2.167   9.094  1.00  0.00    -0.478 OA
ATOM     13  H   UNL     1      12.552  -1.346   8.655  1.00  0.00     0.297 HD
ENDBRANCH  10  12
ENDBRANCH   6  10
BRANCH   7  14
ATOM     14  C   UNL     1       6.005  -1.726   3.612  1.00  0.00     0.040 A 
ATOM     15  C   UNL     1       5.023  -0.811   3.995  1.00  0.00     0.034 A 
ATOM     16  C   UNL     1       5.868  -2.427   2.412  1.00  0.00     0.034 A 
ATOM     17  C   UNL     1       3.925  -0.602   3.185  1.00  0.00     0.043 A 
ATOM     18  C   UNL     1       4.766  -2.209   1.611  1.00  0.00     0.043 A 
ATOM     19  C   UNL     1       3.796  -1.299   1.996  1.00  0.00     0.041 A 
ATOM     20  Cl  UNL     1       2.703   0.537   3.659  1.00  0.00    -0.084 Cl
ATOM     21  Cl  UNL     1       4.594  -3.078   0.117  1.00  0.00    -0.084 Cl
ENDBRANCH   7  14
TORSDOF 3
ENDMDL
MODEL 8
REMARK VINA RESULT:    -3.281      3.144      5.155
REMARK INTER + INTRA:          -4.047
REMARK INTER:                  -3.755
REMARK INTRA:                  -0.292
REMARK UNBOUND:                -0.286
REMARK SMILES O=C(O)c1ccc2nc(-c3cc(Cl)cc(Cl)c3)oc2c1
REMARK SMILES IDX 5 1 6 2 20 3 8 4 18 5 4 6 9 7 7 8 19 9 2 10 1 11 3 12 10 14
REMARK SMILES IDX 11 15 17 16 12 17 15 18 14 19 13 20 16 21
REMARK H PARENT 3 13
ROOT
ATOM      1  C   UNL     1      11.135  -2.794   6.462  1.00  0.00     0.018 A 
ATOM      2  C   UNL     1      10.557  -2.750   5.228  1.00  0.00     0.033 A 
ATOM      3  C   UNL     1       9.030  -2.178   7.496  1.00  0.00     0.065 A 
ATOM      4  N   UNL     1       8.374  -2.294   4.042  1.00  0.00    -0.209 NA
ATOM      5  O   UNL     1       7.193  -1.845   5.813  1.00  0.00    -0.436 OA
ATOM      6  C   UNL     1      10.381  -2.512   7.609  1.00  0.00     0.063 A 
ATOM      7  C   UNL     1       7.184  -1.955   4.471  1.00  0.00     0.227 A 
ATOM      8  C   UNL     1       9.203  -2.417   5.101  1.00  0.00     0.110 A 
ATOM      9  C   UNL     1       8.441  -2.127   6.246  1.00  0.00     0.156 A 
ENDROOT
BRANCH   6  10
ATOM     10  C   UNL     1      11.015  -2.569   8.939  1.00  0.00     0.335 C 
ATOM     11  O   UNL     1      10.389  -2.984   9.893  1.00  0.00    -0.246 OA
BRANCH  10  12
ATOM     12  O   UNL     1      12.290  -2.160   9.096  1.00  0.00    -0.478 OA
ATOM     13  H   UNL     1      12.471  -1.222   8.951  1.00  0.00     0.297 HD
ENDBRANCH  10  12
ENDBRANCH   6  10
BRANCH   7  14
ATOM     14  C   UNL     1       6.006  -1.727   3.609  1.00  0.00     0.040 A 
ATOM     15  C   UNL     1       5.870  -2.425   2.409  1.00  0.00     0.034 A 
ATOM     16  C   UNL     1       5.024  -0.811   3.992  1.00  0.00     0.034 A 
ATOM     17  C   UNL     1       4.766  -2.208   1.608  1.00  0.00     0.043 A 
ATOM     18  C   UNL     1       3.925  -0.603   3.183  1.00  0.00     0.043 A 
ATOM     19  C   UNL     1       3.796  -1.298   1.994  1.00  0.00     0.041 A 
ATOM     20  Cl  UNL     1       4.594  -3.076   0.114  1.00  0.00    -0.084 Cl
ATOM     21  Cl  UNL     1       2.703   0.536   3.658  1.00  0.00    -0.084 Cl
ENDBRANCH   7  14
TORSDOF 3
ENDMDL
MODEL 9
REMARK VINA RESULT:    -3.185      3.959      7.776
REMARK INTER + INTRA:          -3.936
REMARK INTER:                  -3.648
REMARK INTRA:                  -0.289
REMARK UNBOUND:                -0.286
REMARK SMILES O=C(O)c1ccc2nc(-c3cc(Cl)cc(Cl)c3)oc2c1
REMARK SMILES IDX 5 1 6 2 20 3 8 4 18 5 4 6 9 7 7 8 19 9 2 10 1 11 3 12 10 14
REMARK SMILES IDX 11 15 17 16 12 17 15 18 14 19 13 20 16 21
REMARK H PARENT 3 13
ROOT
ATOM      1  C   UNL     1       6.823  -0.627   3.153  1.00  0.00     0.018 A 
ATOM      2  C   UNL     1       7.579  -0.230   4.215  1.00  0.00     0.033 A 
ATOM      3  C   UNL     1       7.041  -2.944   3.831  1.00  0.00     0.065 A 
ATOM      4  N   UNL     1       8.844  -1.099   6.222  1.00  0.00    -0.209 NA
ATOM      5  O   UNL     1       8.425  -3.211   5.913  1.00  0.00    -0.436 OA
ATOM      6  C   UNL     1       6.543  -1.985   2.948  1.00  0.00     0.063 A 
ATOM      7  C   UNL     1       9.042  -2.304   6.694  1.00  0.00     0.227 A 
ATOM      8  C   UNL     1       8.085  -1.182   5.108  1.00  0.00     0.110 A 
ATOM      9  C   UNL     1       7.813  -2.547   4.907  1.00  0.00     0.156 A 
ENDROOT
BRANCH   6  10
ATOM     10  C   UNL     1       5.719  -2.401   1.799  1.00  0.00     0.335 C 
ATOM     11  O   UNL     1       5.282  -3.533   1.743  1.00  0.00    -0.246 OA
BRANCH  10  12
ATOM     12  O   UNL     1       5.450  -1.526   0.810  1.00  0.00    -0.478 OA
ATOM     13  H   UNL     1       5.909  -1.659  -0.031  1.00  0.00     0.297 HD
ENDBRANCH  10  12
ENDBRANCH   6  10
BRANCH   7  14
ATOM     14  C   UNL     1       9.827  -2.622   7.905  1.00  0.00     0.040 A 
ATOM     15  C   UNL     1       9.208  -3.216   9.006  1.00  0.00     0.034 A 
ATOM     16  C   UNL     1      11.191  -2.326   7.953  1.00  0.00     0.034 A 
ATOM     17  C   UNL     1       9.947  -3.511  10.134  1.00  0.00     0.043 A 
ATOM     18  C   UNL     1      11.919  -2.626   9.087  1.00  0.00     0.043 A 
ATOM     19  C   UNL     1      11.300  -3.216  10.175  1.00  0.00     0.041 A 
ATOM     20  Cl  UNL     1       9.180  -4.252  11.504  1.00  0.00    -0.084 Cl
ATOM     21  Cl  UNL     1      13.615  -2.260   9.149  1.00  0.00    -0.084 Cl
ENDBRANCH   7  14
TORSDOF 3
ENDMDL
