MODEL 1
REMARK VINA RESULT:    -5.403      0.000      0.000
REMARK INTER + INTRA:          -7.831
REMARK INTER:                  -7.456
REMARK INTRA:                  -0.375
REMARK UNBOUND:                -0.375
REMARK SMILES Cc1n[nH]c(C)c1CCCOc1cc(C(=O)O)ccc1F
REMARK SMILES IDX 11 1 12 2 14 3 18 4 13 5 19 6 20 7 21 8 15 9 16 10 17 11
REMARK SMILES IDX 10 13 9 14 8 15 7 16 5 17 2 18 4 19 3 20 6 21 1 22
REMARK H PARENT 17 12 4 23
ROOT
ATOM      1  O   UNL     1       5.375  -3.771   3.828  1.00  0.00    -0.490 OA
ENDROOT
BRANCH   1   2
ATOM      2  C   UNL     1       4.868  -2.633   3.283  1.00  0.00     0.155 A 
ATOM      3  C   UNL     1       4.116  -0.362   3.517  1.00  0.00     0.063 A 
ATOM      4  C   UNL     1       3.843  -0.314   2.148  1.00  0.00     0.019 A 
ATOM      5  C   UNL     1       4.631  -1.530   4.082  1.00  0.00     0.065 A 
ATOM      6  C   UNL     1       4.088  -1.418   1.358  1.00  0.00     0.044 A 
ATOM      7  C   UNL     1       4.604  -2.574   1.919  1.00  0.00     0.165 A 
ATOM      8  F   UNL     1       4.843  -3.652   1.139  1.00  0.00    -0.203 F 
BRANCH   3   9
ATOM      9  C   UNL     1       3.854   0.818   4.366  1.00  0.00     0.335 C 
ATOM     10  O   UNL     1       3.827   0.703   5.574  1.00  0.00    -0.246 OA
BRANCH   9  11
ATOM     11  O   UNL     1       3.653   2.023   3.799  1.00  0.00    -0.478 OA
ATOM     12  H   UNL     1       3.681   2.794   4.383  1.00  0.00     0.297 HD
ENDBRANCH   9  11
ENDBRANCH   3   9
ENDBRANCH   1   2
BRANCH   1  13
ATOM     13  C   UNL     1       6.609  -4.254   3.291  1.00  0.00     0.230 C 
BRANCH  13  14
ATOM     14  C   UNL     1       7.703  -4.145   4.355  1.00  0.00     0.046 C 
BRANCH  14  15
ATOM     15  C   UNL     1       8.356  -2.763   4.276  1.00  0.00     0.043 C 
BRANCH  15  16
ATOM     16  C   UNL     1       9.682  -2.791   4.990  1.00  0.00    -0.004 A 
ATOM     17  C   UNL     1       9.875  -2.608   6.317  1.00  0.00     0.036 A 
ATOM     18  C   UNL     1      10.930  -3.016   4.401  1.00  0.00     0.063 A 
ATOM     19  N   UNL     1      11.200  -2.708   6.557  1.00  0.00    -0.282 N 
ATOM     20  N   UNL     1      11.841  -2.960   5.338  1.00  0.00    -0.181 NA
ATOM     21  C   UNL     1       8.804  -2.341   7.342  1.00  0.00     0.066 C 
ATOM     22  C   UNL     1      11.183  -3.269   2.936  1.00  0.00     0.069 C 
ATOM     23  H   UNL     1      11.631  -2.620   7.421  1.00  0.00     0.190 HD
ENDBRANCH  15  16
ENDBRANCH  14  15
ENDBRANCH  13  14
ENDBRANCH   1  13
TORSDOF 7
ENDMDL
MODEL 2
REMARK VINA RESULT:    -5.333      2.289      3.930
REMARK INTER + INTRA:          -7.735
REMARK INTER:                  -7.116
REMARK INTRA:                  -0.619
REMARK UNBOUND:                -0.375
REMARK SMILES Cc1n[nH]c(C)c1CCCOc1cc(C(=O)O)ccc1F
REMARK SMILES IDX 11 1 12 2 14 3 18 4 13 5 19 6 20 7 21 8 15 9 16 10 17 11
REMARK SMILES IDX 10 13 9 14 8 15 7 16 5 17 2 18 4 19 3 20 6 21 1 22
REMARK H PARENT 17 12 4 23
ROOT
ATOM      1  O   UNL     1       6.861   0.712   3.282  1.00  0.00    -0.490 OA
ENDROOT
BRANCH   1   2
ATOM      2  C   UNL     1       5.743   0.039   2.900  1.00  0.00     0.155 A 
ATOM      3  C   UNL     1       4.688  -1.699   1.615  1.00  0.00     0.063 A 
ATOM      4  C   UNL     1       3.447  -1.329   2.140  1.00  0.00     0.019 A 
ATOM      5  C   UNL     1       5.838  -1.007   2.002  1.00  0.00     0.065 A 
ATOM      6  C   UNL     1       3.362  -0.288   3.041  1.00  0.00     0.044 A 
ATOM      7  C   UNL     1       4.505   0.394   3.426  1.00  0.00     0.165 A 
ATOM      8  F   UNL     1       4.415   1.413   4.309  1.00  0.00    -0.203 F 
BRANCH   3   9
ATOM      9  C   UNL     1       4.783  -2.813   0.652  1.00  0.00     0.335 C 
ATOM     10  O   UNL     1       5.753  -2.910  -0.071  1.00  0.00    -0.246 OA
BRANCH   9  11
ATOM     11  O   UNL     1       3.794  -3.726   0.579  1.00  0.00    -0.478 OA
ATOM     12  H   UNL     1       3.984  -4.608   0.929  1.00  0.00     0.297 HD
ENDBRANCH   9  11
ENDBRANCH   3   9
ENDBRANCH   1   2
BRANCH   1  13
ATOM     13  C   UNL     1       7.366   0.439   4.592  1.00  0.00     0.230 C 
BRANCH  13  14
ATOM     14  C   UNL     1       8.700  -0.302   4.478  1.00  0.00     0.046 C 
BRANCH  14  15
ATOM     15  C   UNL     1       8.489  -1.784   4.797  1.00  0.00     0.043 C 
BRANCH  15  16
ATOM     16  C   UNL     1       9.725  -2.336   5.459  1.00  0.00    -0.004 A 
ATOM     17  C   UNL     1      10.830  -2.796   4.826  1.00  0.00     0.036 A 
ATOM     18  C   UNL     1       9.935  -2.459   6.836  1.00  0.00     0.063 A 
ATOM     19  N   UNL     1      11.705  -3.201   5.770  1.00  0.00    -0.282 N 
ATOM     20  N   UNL     1      11.119  -2.984   7.024  1.00  0.00    -0.181 NA
ATOM     21  C   UNL     1      11.043  -2.845   3.336  1.00  0.00     0.066 C 
ATOM     22  C   UNL     1       8.961  -2.067   7.918  1.00  0.00     0.069 C 
ATOM     23  H   UNL     1      12.584  -3.577   5.608  1.00  0.00     0.190 HD
ENDBRANCH  15  16
ENDBRANCH  14  15
ENDBRANCH  13  14
ENDBRANCH   1  13
TORSDOF 7
ENDMDL
MODEL 3
REMARK VINA RESULT:    -5.288      0.149      1.773
REMARK INTER + INTRA:          -7.672
REMARK INTER:                  -7.144
REMARK INTRA:                  -0.527
REMARK UNBOUND:                -0.375
REMARK SMILES Cc1n[nH]c(C)c1CCCOc1cc(C(=O)O)ccc1F
REMARK SMILES IDX 11 1 12 2 14 3 18 4 13 5 19 6 20 7 21 8 15 9 16 10 17 11
REMARK SMILES IDX 10 13 9 14 8 15 7 16 5 17 2 18 4 19 3 20 6 21 1 22
REMARK H PARENT 17 12 4 23
ROOT
ATOM      1  O   UNL     1       5.411  -3.780   3.711  1.00  0.00    -0.490 OA
ENDROOT
BRANCH   1   2
ATOM      2  C   UNL     1       4.880  -2.640   3.193  1.00  0.00     0.155 A 
ATOM      3  C   UNL     1       4.109  -0.380   3.476  1.00  0.00     0.063 A 
ATOM      4  C   UNL     1       3.802  -0.318   2.114  1.00  0.00     0.019 A 
ATOM      5  C   UNL     1       4.650  -1.551   4.012  1.00  0.00     0.065 A 
ATOM      6  C   UNL     1       4.040  -1.408   1.304  1.00  0.00     0.044 A 
ATOM      7  C   UNL     1       4.582  -2.566   1.837  1.00  0.00     0.165 A 
ATOM      8  F   UNL     1       4.813  -3.631   1.038  1.00  0.00    -0.203 F 
BRANCH   3   9
ATOM      9  C   UNL     1       3.856   0.785   4.346  1.00  0.00     0.335 C 
ATOM     10  O   UNL     1       3.841   0.650   5.553  1.00  0.00    -0.246 OA
BRANCH   9  11
ATOM     11  O   UNL     1       3.648   1.999   3.801  1.00  0.00    -0.478 OA
ATOM     12  H   UNL     1       3.943   2.766   4.312  1.00  0.00     0.297 HD
ENDBRANCH   9  11
ENDBRANCH   3   9
ENDBRANCH   1   2
BRANCH   1  13
ATOM     13  C   UNL     1       6.736  -4.124   3.296  1.00  0.00     0.230 C 
BRANCH  13  14
ATOM     14  C   UNL     1       7.700  -3.944   4.470  1.00  0.00     0.046 C 
BRANCH  14  15
ATOM     15  C   UNL     1       8.479  -2.639   4.294  1.00  0.00     0.043 C 
BRANCH  15  16
ATOM     16  C   UNL     1       9.832  -2.770   4.945  1.00  0.00    -0.004 A 
ATOM     17  C   UNL     1      11.002  -3.010   4.308  1.00  0.00     0.036 A 
ATOM     18  C   UNL     1      10.102  -2.657   6.313  1.00  0.00     0.063 A 
ATOM     19  N   UNL     1      11.976  -3.055   5.240  1.00  0.00    -0.282 N 
ATOM     20  N   UNL     1      11.386  -2.835   6.492  1.00  0.00    -0.181 NA
ATOM     21  C   UNL     1      11.183  -3.194   2.824  1.00  0.00     0.066 C 
ATOM     22  C   UNL     1       9.087  -2.390   7.395  1.00  0.00     0.069 C 
ATOM     23  H   UNL     1      12.919  -3.213   5.074  1.00  0.00     0.190 HD
ENDBRANCH  15  16
ENDBRANCH  14  15
ENDBRANCH  13  14
ENDBRANCH   1  13
TORSDOF 7
ENDMDL
MODEL 4
REMARK VINA RESULT:    -4.433      3.903      6.910
REMARK INTER + INTRA:          -6.493
REMARK INTER:                  -5.662
REMARK INTRA:                  -0.831
REMARK UNBOUND:                -0.375
REMARK SMILES Cc1n[nH]c(C)c1CCCOc1cc(C(=O)O)ccc1F
REMARK SMILES IDX 11 1 12 2 14 3 18 4 13 5 19 6 20 7 21 8 15 9 16 10 17 11
REMARK SMILES IDX 10 13 9 14 8 15 7 16 5 17 2 18 4 19 3 20 6 21 1 22
REMARK H PARENT 17 12 4 23
ROOT
ATOM      1  O   UNL     1       7.155  -1.392   5.118  1.00  0.00    -0.490 OA
ENDROOT
BRANCH   1   2
ATOM      2  C   UNL     1       8.407  -1.894   5.294  1.00  0.00     0.155 A 
ATOM      3  C   UNL     1      10.496  -2.659   4.382  1.00  0.00     0.063 A 
ATOM      4  C   UNL     1      10.964  -2.909   5.675  1.00  0.00     0.019 A 
ATOM      5  C   UNL     1       9.209  -2.149   4.198  1.00  0.00     0.065 A 
ATOM      6  C   UNL     1      10.158  -2.646   6.763  1.00  0.00     0.044 A 
ATOM      7  C   UNL     1       8.884  -2.135   6.577  1.00  0.00     0.165 A 
ATOM      8  F   UNL     1       8.100  -1.879   7.647  1.00  0.00    -0.203 F 
BRANCH   3   9
ATOM      9  C   UNL     1      11.356  -2.939   3.216  1.00  0.00     0.335 C 
ATOM     10  O   UNL     1      11.369  -4.048   2.723  1.00  0.00    -0.246 OA
BRANCH   9  11
ATOM     11  O   UNL     1      12.123  -1.961   2.695  1.00  0.00    -0.478 OA
ATOM     12  H   UNL     1      11.690  -1.117   2.504  1.00  0.00     0.297 HD
ENDBRANCH   9  11
ENDBRANCH   3   9
ENDBRANCH   1   2
BRANCH   1  13
ATOM     13  C   UNL     1       6.985  -0.421   4.083  1.00  0.00     0.230 C 
BRANCH  13  14
ATOM     14  C   UNL     1       5.494  -0.137   3.891  1.00  0.00     0.046 C 
BRANCH  14  15
ATOM     15  C   UNL     1       4.700  -1.432   4.077  1.00  0.00     0.043 C 
BRANCH  15  16
ATOM     16  C   UNL     1       4.600  -2.155   2.759  1.00  0.00    -0.004 A 
ATOM     17  C   UNL     1       3.912  -1.736   1.671  1.00  0.00     0.036 A 
ATOM     18  C   UNL     1       5.206  -3.375   2.440  1.00  0.00     0.063 A 
ATOM     19  N   UNL     1       4.072  -2.661   0.702  1.00  0.00    -0.282 N 
ATOM     20  N   UNL     1       4.885  -3.682   1.210  1.00  0.00    -0.181 NA
ATOM     21  C   UNL     1       3.111  -0.464   1.563  1.00  0.00     0.066 C 
ATOM     22  C   UNL     1       6.070  -4.199   3.361  1.00  0.00     0.069 C 
ATOM     23  H   UNL     1       3.691  -2.625  -0.189  1.00  0.00     0.190 HD
ENDBRANCH  15  16
ENDBRANCH  14  15
ENDBRANCH  13  14
ENDBRANCH   1  13
TORSDOF 7
ENDMDL
MODEL 5
REMARK VINA RESULT:    -4.429      3.779      6.458
REMARK INTER + INTRA:          -6.487
REMARK INTER:                  -5.675
REMARK INTRA:                  -0.811
REMARK UNBOUND:                -0.375
REMARK SMILES Cc1n[nH]c(C)c1CCCOc1cc(C(=O)O)ccc1F
REMARK SMILES IDX 11 1 12 2 14 3 18 4 13 5 19 6 20 7 21 8 15 9 16 10 17 11
REMARK SMILES IDX 10 13 9 14 8 15 7 16 5 17 2 18 4 19 3 20 6 21 1 22
REMARK H PARENT 17 12 4 23
ROOT
ATOM      1  O   UNL     1       7.886  -2.275   3.327  1.00  0.00    -0.490 OA
ENDROOT
BRANCH   1   2
ATOM      2  C   UNL     1       8.843  -2.429   4.281  1.00  0.00     0.155 A 
ATOM      3  C   UNL     1       9.493  -2.482   6.596  1.00  0.00     0.063 A 
ATOM      4  C   UNL     1      10.809  -2.758   6.215  1.00  0.00     0.019 A 
ATOM      5  C   UNL     1       8.509  -2.318   5.618  1.00  0.00     0.065 A 
ATOM      6  C   UNL     1      11.131  -2.874   4.879  1.00  0.00     0.044 A 
ATOM      7  C   UNL     1      10.152  -2.715   3.912  1.00  0.00     0.165 A 
ATOM      8  F   UNL     1      10.474  -2.830   2.605  1.00  0.00    -0.203 F 
BRANCH   3   9
ATOM      9  C   UNL     1       9.145  -2.358   8.025  1.00  0.00     0.335 C 
ATOM     10  O   UNL     1       7.991  -2.180   8.356  1.00  0.00    -0.246 OA
BRANCH   9  11
ATOM     11  O   UNL     1      10.109  -2.450   8.962  1.00  0.00    -0.478 OA
ATOM     12  H   UNL     1       9.896  -2.949   9.764  1.00  0.00     0.297 HD
ENDBRANCH   9  11
ENDBRANCH   3   9
ENDBRANCH   1   2
BRANCH   1  13
ATOM     13  C   UNL     1       6.624  -2.901   3.567  1.00  0.00     0.230 C 
BRANCH  13  14
ATOM     14  C   UNL     1       5.657  -2.548   2.435  1.00  0.00     0.046 C 
BRANCH  14  15
ATOM     15  C   UNL     1       5.922  -1.116   1.965  1.00  0.00     0.043 C 
BRANCH  15  16
ATOM     16  C   UNL     1       5.136  -0.154   2.816  1.00  0.00    -0.004 A 
ATOM     17  C   UNL     1       3.788  -0.025   2.835  1.00  0.00     0.036 A 
ATOM     18  C   UNL     1       5.668   0.760   3.732  1.00  0.00     0.063 A 
ATOM     19  N   UNL     1       3.480   0.941   3.726  1.00  0.00    -0.282 N 
ATOM     20  N   UNL     1       4.677   1.422   4.272  1.00  0.00    -0.181 NA
ATOM     21  C   UNL     1       2.809  -0.818   2.010  1.00  0.00     0.066 C 
ATOM     22  C   UNL     1       7.132   0.958   4.034  1.00  0.00     0.069 C 
ATOM     23  H   UNL     1       2.588   1.249   3.948  1.00  0.00     0.190 HD
ENDBRANCH  15  16
ENDBRANCH  14  15
ENDBRANCH  13  14
ENDBRANCH   1  13
TORSDOF 7
ENDMDL
MODEL 6
REMARK VINA RESULT:    -4.404      5.000      7.924
REMARK INTER + INTRA:          -6.452
REMARK INTER:                  -5.818
REMARK INTRA:                  -0.634
REMARK UNBOUND:                -0.375
REMARK SMILES Cc1n[nH]c(C)c1CCCOc1cc(C(=O)O)ccc1F
REMARK SMILES IDX 11 1 12 2 14 3 18 4 13 5 19 6 20 7 21 8 15 9 16 10 17 11
REMARK SMILES IDX 10 13 9 14 8 15 7 16 5 17 2 18 4 19 3 20 6 21 1 22
REMARK H PARENT 17 12 4 23
ROOT
ATOM      1  O   UNL     1       9.246  -1.905   6.999  1.00  0.00    -0.490 OA
ENDROOT
BRANCH   1   2
ATOM      2  C   UNL     1       9.834  -2.413   8.115  1.00  0.00     0.155 A 
ATOM      3  C   UNL     1      11.803  -2.843   9.427  1.00  0.00     0.063 A 
ATOM      4  C   UNL     1      11.013  -3.449  10.407  1.00  0.00     0.019 A 
ATOM      5  C   UNL     1      11.204  -2.324   8.277  1.00  0.00     0.065 A 
ATOM      6  C   UNL     1       9.647  -3.528  10.240  1.00  0.00     0.044 A 
ATOM      7  C   UNL     1       9.054  -3.009   9.101  1.00  0.00     0.165 A 
ATOM      8  F   UNL     1       7.715  -3.089   8.943  1.00  0.00    -0.203 F 
BRANCH   3   9
ATOM      9  C   UNL     1      13.266  -2.756   9.603  1.00  0.00     0.335 C 
ATOM     10  O   UNL     1      13.787  -3.222  10.595  1.00  0.00    -0.246 OA
BRANCH   9  11
ATOM     11  O   UNL     1      14.024  -2.164   8.659  1.00  0.00    -0.478 OA
ATOM     12  H   UNL     1      14.928  -1.926   8.907  1.00  0.00     0.297 HD
ENDBRANCH   9  11
ENDBRANCH   3   9
ENDBRANCH   1   2
BRANCH   1  13
ATOM     13  C   UNL     1       9.482  -2.596   5.770  1.00  0.00     0.230 C 
BRANCH  13  14
ATOM     14  C   UNL     1       8.747  -1.881   4.635  1.00  0.00     0.046 C 
BRANCH  14  15
ATOM     15  C   UNL     1       7.252  -1.821   4.953  1.00  0.00     0.043 C 
BRANCH  15  16
ATOM     16  C   UNL     1       6.478  -1.557   3.688  1.00  0.00    -0.004 A 
ATOM     17  C   UNL     1       5.833  -2.483   2.941  1.00  0.00     0.036 A 
ATOM     18  C   UNL     1       6.294  -0.310   3.080  1.00  0.00     0.063 A 
ATOM     19  N   UNL     1       5.266  -1.845   1.895  1.00  0.00    -0.282 N 
ATOM     20  N   UNL     1       5.574  -0.483   2.002  1.00  0.00    -0.181 NA
ATOM     21  C   UNL     1       5.759  -3.960   3.227  1.00  0.00     0.066 C 
ATOM     22  C   UNL     1       6.843   1.004   3.576  1.00  0.00     0.069 C 
ATOM     23  H   UNL     1       4.740  -2.258   1.192  1.00  0.00     0.190 HD
ENDBRANCH  15  16
ENDBRANCH  14  15
ENDBRANCH  13  14
ENDBRANCH   1  13
TORSDOF 7
ENDMDL
MODEL 7
REMARK VINA RESULT:    -4.241      3.883      6.817
REMARK INTER + INTRA:          -6.228
REMARK INTER:                  -5.456
REMARK INTRA:                  -0.771
REMARK UNBOUND:                -0.375
REMARK SMILES Cc1n[nH]c(C)c1CCCOc1cc(C(=O)O)ccc1F
REMARK SMILES IDX 11 1 12 2 14 3 18 4 13 5 19 6 20 7 21 8 15 9 16 10 17 11
REMARK SMILES IDX 10 13 9 14 8 15 7 16 5 17 2 18 4 19 3 20 6 21 1 22
REMARK H PARENT 17 12 4 23
ROOT
ATOM      1  O   UNL     1       6.897  -2.564   4.431  1.00  0.00    -0.490 OA
ENDROOT
BRANCH   1   2
ATOM      2  C   UNL     1       8.212  -2.599   4.775  1.00  0.00     0.155 A 
ATOM      3  C   UNL     1      10.523  -2.866   4.166  1.00  0.00     0.063 A 
ATOM      4  C   UNL     1      10.894  -2.657   5.497  1.00  0.00     0.019 A 
ATOM      5  C   UNL     1       9.173  -2.836   3.810  1.00  0.00     0.065 A 
ATOM      6  C   UNL     1       9.929  -2.415   6.452  1.00  0.00     0.044 A 
ATOM      7  C   UNL     1       8.591  -2.381   6.095  1.00  0.00     0.165 A 
ATOM      8  F   UNL     1       7.650  -2.144   7.035  1.00  0.00    -0.203 F 
BRANCH   3   9
ATOM      9  C   UNL     1      11.554  -3.124   3.141  1.00  0.00     0.335 C 
ATOM     10  O   UNL     1      11.347  -2.827   1.983  1.00  0.00    -0.246 OA
BRANCH   9  11
ATOM     11  O   UNL     1      12.727  -3.685   3.494  1.00  0.00    -0.478 OA
ATOM     12  H   UNL     1      13.038  -3.524   4.396  1.00  0.00     0.297 HD
ENDBRANCH   9  11
ENDBRANCH   3   9
ENDBRANCH   1   2
BRANCH   1  13
ATOM     13  C   UNL     1       6.498  -3.360   3.313  1.00  0.00     0.230 C 
BRANCH  13  14
ATOM     14  C   UNL     1       5.351  -2.665   2.577  1.00  0.00     0.046 C 
BRANCH  14  15
ATOM     15  C   UNL     1       5.810  -1.284   2.106  1.00  0.00     0.043 C 
BRANCH  15  16
ATOM     16  C   UNL     1       5.087  -0.219   2.888  1.00  0.00    -0.004 A 
ATOM     17  C   UNL     1       3.752   0.005   2.883  1.00  0.00     0.036 A 
ATOM     18  C   UNL     1       5.675   0.709   3.754  1.00  0.00     0.063 A 
ATOM     19  N   UNL     1       3.505   1.042   3.711  1.00  0.00    -0.282 N 
ATOM     20  N   UNL     1       4.729   1.470   4.242  1.00  0.00    -0.181 NA
ATOM     21  C   UNL     1       2.726  -0.766   2.095  1.00  0.00     0.066 C 
ATOM     22  C   UNL     1       7.146   0.822   4.062  1.00  0.00     0.069 C 
ATOM     23  H   UNL     1       2.635   1.424   3.903  1.00  0.00     0.190 HD
ENDBRANCH  15  16
ENDBRANCH  14  15
ENDBRANCH  13  14
ENDBRANCH   1  13
TORSDOF 7
ENDMDL
MODEL 8
REMARK VINA RESULT:    -3.987      3.805      6.635
REMARK INTER + INTRA:          -5.877
REMARK INTER:                  -5.301
REMARK INTRA:                  -0.576
REMARK UNBOUND:                -0.375
REMARK SMILES Cc1n[nH]c(C)c1CCCOc1cc(C(=O)O)ccc1F
REMARK SMILES IDX 11 1 12 2 14 3 18 4 13 5 19 6 20 7 21 8 15 9 16 10 17 11
REMARK SMILES IDX 10 13 9 14 8 15 7 16 5 17 2 18 4 19 3 20 6 21 1 22
REMARK H PARENT 17 12 4 23
ROOT
ATOM      1  O   UNL     1       6.784  -1.483   5.010  1.00  0.00    -0.490 OA
ENDROOT
BRANCH   1   2
ATOM      2  C   UNL     1       8.028  -1.889   5.379  1.00  0.00     0.155 A 
ATOM      3  C   UNL     1       9.631  -2.414   7.093  1.00  0.00     0.063 A 
ATOM      4  C   UNL     1      10.573  -2.728   6.110  1.00  0.00     0.019 A 
ATOM      5  C   UNL     1       8.353  -1.993   6.718  1.00  0.00     0.065 A 
ATOM      6  C   UNL     1      10.238  -2.627   4.776  1.00  0.00     0.044 A 
ATOM      7  C   UNL     1       8.969  -2.214   4.407  1.00  0.00     0.165 A 
ATOM      8  F   UNL     1       8.646  -2.117   3.099  1.00  0.00    -0.203 F 
BRANCH   3   9
ATOM      9  C   UNL     1       9.986  -2.522   8.521  1.00  0.00     0.335 C 
ATOM     10  O   UNL     1      11.018  -2.030   8.929  1.00  0.00    -0.246 OA
BRANCH   9  11
ATOM     11  O   UNL     1       9.161  -3.161   9.374  1.00  0.00    -0.478 OA
ATOM     12  H   UNL     1       9.563  -3.562  10.157  1.00  0.00     0.297 HD
ENDBRANCH   9  11
ENDBRANCH   3   9
ENDBRANCH   1   2
BRANCH   1  13
ATOM     13  C   UNL     1       6.700  -0.333   4.166  1.00  0.00     0.230 C 
BRANCH  13  14
ATOM     14  C   UNL     1       5.242  -0.103   3.762  1.00  0.00     0.046 C 
BRANCH  14  15
ATOM     15  C   UNL     1       4.483  -1.431   3.812  1.00  0.00     0.043 C 
BRANCH  15  16
ATOM     16  C   UNL     1       4.536  -2.092   2.459  1.00  0.00    -0.004 A 
ATOM     17  C   UNL     1       3.966  -1.627   1.323  1.00  0.00     0.036 A 
ATOM     18  C   UNL     1       5.187  -3.291   2.154  1.00  0.00     0.063 A 
ATOM     19  N   UNL     1       4.242  -2.504   0.336  1.00  0.00    -0.282 N 
ATOM     20  N   UNL     1       5.006  -3.543   0.883  1.00  0.00    -0.181 NA
ATOM     21  C   UNL     1       3.168  -0.357   1.186  1.00  0.00     0.066 C 
ATOM     22  C   UNL     1       5.955  -4.152   3.125  1.00  0.00     0.069 C 
ATOM     23  H   UNL     1       3.960  -2.430  -0.589  1.00  0.00     0.190 HD
ENDBRANCH  15  16
ENDBRANCH  14  15
ENDBRANCH  13  14
ENDBRANCH   1  13
TORSDOF 7
ENDMDL
MODEL 9
REMARK VINA RESULT:    -3.917      1.721      2.207
REMARK INTER + INTRA:          -5.780
REMARK INTER:                  -5.335
REMARK INTRA:                  -0.445
REMARK UNBOUND:                -0.375
REMARK SMILES Cc1n[nH]c(C)c1CCCOc1cc(C(=O)O)ccc1F
REMARK SMILES IDX 11 1 12 2 14 3 18 4 13 5 19 6 20 7 21 8 15 9 16 10 17 11
REMARK SMILES IDX 10 13 9 14 8 15 7 16 5 17 2 18 4 19 3 20 6 21 1 22
REMARK H PARENT 17 12 4 23
ROOT
ATOM      1  O   UNL     1       5.153  -3.928   3.772  1.00  0.00    -0.490 OA
ENDROOT
BRANCH   1   2
ATOM      2  C   UNL     1       4.688  -2.789   3.194  1.00  0.00     0.155 A 
ATOM      3  C   UNL     1       3.826  -0.552   3.384  1.00  0.00     0.063 A 
ATOM      4  C   UNL     1       3.750  -0.467   1.991  1.00  0.00     0.019 A 
ATOM      5  C   UNL     1       4.298  -1.722   3.982  1.00  0.00     0.065 A 
ATOM      6  C   UNL     1       4.147  -1.534   1.213  1.00  0.00     0.044 A 
ATOM      7  C   UNL     1       4.620  -2.691   1.808  1.00  0.00     0.165 A 
ATOM      8  F   UNL     1       5.007  -3.733   1.040  1.00  0.00    -0.203 F 
BRANCH   3   9
ATOM      9  C   UNL     1       3.402   0.588   4.220  1.00  0.00     0.335 C 
ATOM     10  O   UNL     1       2.225   0.868   4.315  1.00  0.00    -0.246 OA
BRANCH   9  11
ATOM     11  O   UNL     1       4.323   1.315   4.883  1.00  0.00    -0.478 OA
ATOM     12  H   UNL     1       4.571   1.009   5.767  1.00  0.00     0.297 HD
ENDBRANCH   9  11
ENDBRANCH   3   9
ENDBRANCH   1   2
BRANCH   1  13
ATOM     13  C   UNL     1       6.470  -4.349   3.408  1.00  0.00     0.230 C 
BRANCH  13  14
ATOM     14  C   UNL     1       7.494  -3.647   4.301  1.00  0.00     0.046 C 
BRANCH  14  15
ATOM     15  C   UNL     1       8.179  -2.530   3.512  1.00  0.00     0.043 C 
BRANCH  15  16
ATOM     16  C   UNL     1       8.408  -1.344   4.413  1.00  0.00    -0.004 A 
ATOM     17  C   UNL     1       9.100  -1.350   5.576  1.00  0.00     0.036 A 
ATOM     18  C   UNL     1       7.949  -0.042   4.192  1.00  0.00     0.063 A 
ATOM     19  N   UNL     1       9.074  -0.097   6.076  1.00  0.00    -0.282 N 
ATOM     20  N   UNL     1       8.342   0.705   5.192  1.00  0.00    -0.181 NA
ATOM     21  C   UNL     1       9.778  -2.542   6.200  1.00  0.00     0.066 C 
ATOM     22  C   UNL     1       7.133   0.420   3.011  1.00  0.00     0.069 C 
ATOM     23  H   UNL     1       9.488   0.196   6.903  1.00  0.00     0.190 HD
ENDBRANCH  15  16
ENDBRANCH  14  15
ENDBRANCH  13  14
ENDBRANCH   1  13
TORSDOF 7
ENDMDL
