MODEL 1
REMARK VINA RESULT:    -4.131      0.000      0.000
REMARK INTER + INTRA:          -5.017
REMARK INTER:                  -4.734
REMARK INTRA:                  -0.283
REMARK UNBOUND:                -0.283
REMARK SMILES O=C(O)c1ccc2nc(-c3cc(Cl)cc(Cl)c3)oc2c1
REMARK SMILES IDX 5 1 6 2 20 3 8 4 18 5 4 6 9 7 7 8 19 9 2 10 1 11 3 12 10 14
REMARK SMILES IDX 11 15 17 16 12 17 15 18 14 19 13 20 16 21
REMARK H PARENT 3 13
ROOT
ATOM      1  C   UNL     1      15.284  -5.381  -7.595  1.00  0.00     0.018 A 
ATOM      2  C   UNL     1      15.282  -5.166  -6.249  1.00  0.00     0.033 A 
ATOM      3  C   UNL     1      13.083  -4.380  -7.783  1.00  0.00     0.065 A 
ATOM      4  N   UNL     1      13.893  -4.218  -4.364  1.00  0.00    -0.209 NA
ATOM      5  O   UNL     1      12.183  -3.613  -5.565  1.00  0.00    -0.436 OA
ATOM      6  C   UNL     1      14.189  -4.990  -8.378  1.00  0.00     0.063 A 
ATOM      7  C   UNL     1      12.708  -3.660  -4.326  1.00  0.00     0.227 A 
ATOM      8  C   UNL     1      14.179  -4.554  -5.640  1.00  0.00     0.110 A 
ATOM      9  C   UNL     1      13.075  -4.164  -6.418  1.00  0.00     0.156 A 
ENDROOT
BRANCH   6  10
ATOM     10  C   UNL     1      14.205  -5.223  -9.834  1.00  0.00     0.335 C 
ATOM     11  O   UNL     1      14.599  -4.352 -10.584  1.00  0.00    -0.246 OA
BRANCH  10  12
ATOM     12  O   UNL     1      13.783  -6.402 -10.333  1.00  0.00    -0.478 OA
ATOM     13  H   UNL     1      12.829  -6.529 -10.411  1.00  0.00     0.297 HD
ENDBRANCH  10  12
ENDBRANCH   6  10
BRANCH   7  14
ATOM     14  C   UNL     1      12.047  -3.157  -3.104  1.00  0.00     0.040 A 
ATOM     15  C   UNL     1      10.671  -3.317  -2.935  1.00  0.00     0.034 A 
ATOM     16  C   UNL     1      12.797  -2.519  -2.114  1.00  0.00     0.034 A 
ATOM     17  C   UNL     1      10.060  -2.846  -1.790  1.00  0.00     0.043 A 
ATOM     18  C   UNL     1      12.174  -2.052  -0.974  1.00  0.00     0.043 A 
ATOM     19  C   UNL     1      10.809  -2.214  -0.812  1.00  0.00     0.041 A 
ATOM     20  Cl  UNL     1       8.349  -3.044  -1.577  1.00  0.00    -0.084 Cl
ATOM     21  Cl  UNL     1      13.105  -1.258   0.258  1.00  0.00    -0.084 Cl
ENDBRANCH   7  14
TORSDOF 3
ENDMDL
MODEL 2
REMARK VINA RESULT:    -4.129      0.029      2.020
REMARK INTER + INTRA:          -5.016
REMARK INTER:                  -4.733
REMARK INTRA:                  -0.283
REMARK UNBOUND:                -0.283
REMARK SMILES O=C(O)c1ccc2nc(-c3cc(Cl)cc(Cl)c3)oc2c1
REMARK SMILES IDX 5 1 6 2 20 3 8 4 18 5 4 6 9 7 7 8 19 9 2 10 1 11 3 12 10 14
REMARK SMILES IDX 11 15 17 16 12 17 15 18 14 19 13 20 16 21
REMARK H PARENT 3 13
ROOT
ATOM      1  C   UNL     1      15.301  -5.388  -7.605  1.00  0.00     0.018 A 
ATOM      2  C   UNL     1      15.295  -5.172  -6.259  1.00  0.00     0.033 A 
ATOM      3  C   UNL     1      13.101  -4.385  -7.798  1.00  0.00     0.065 A 
ATOM      4  N   UNL     1      13.902  -4.223  -4.377  1.00  0.00    -0.209 NA
ATOM      5  O   UNL     1      12.195  -3.618  -5.582  1.00  0.00    -0.436 OA
ATOM      6  C   UNL     1      14.208  -4.996  -8.391  1.00  0.00     0.063 A 
ATOM      7  C   UNL     1      12.718  -3.665  -4.343  1.00  0.00     0.227 A 
ATOM      8  C   UNL     1      14.191  -4.560  -5.652  1.00  0.00     0.110 A 
ATOM      9  C   UNL     1      13.089  -4.169  -6.433  1.00  0.00     0.156 A 
ENDROOT
BRANCH   6  10
ATOM     10  C   UNL     1      14.228  -5.229  -9.846  1.00  0.00     0.335 C 
ATOM     11  O   UNL     1      14.661  -4.374 -10.592  1.00  0.00    -0.246 OA
BRANCH  10  12
ATOM     12  O   UNL     1      13.764  -6.390 -10.350  1.00  0.00    -0.478 OA
ATOM     13  H   UNL     1      14.331  -7.167 -10.256  1.00  0.00     0.297 HD
ENDBRANCH  10  12
ENDBRANCH   6  10
BRANCH   7  14
ATOM     14  C   UNL     1      12.054  -3.161  -3.122  1.00  0.00     0.040 A 
ATOM     15  C   UNL     1      12.802  -2.537  -2.123  1.00  0.00     0.034 A 
ATOM     16  C   UNL     1      10.675  -3.310  -2.964  1.00  0.00     0.034 A 
ATOM     17  C   UNL     1      12.176  -2.068  -0.986  1.00  0.00     0.043 A 
ATOM     18  C   UNL     1      10.060  -2.837  -1.822  1.00  0.00     0.043 A 
ATOM     19  C   UNL     1      10.808  -2.218  -0.835  1.00  0.00     0.041 A 
ATOM     20  Cl  UNL     1      13.105  -1.291   0.257  1.00  0.00    -0.084 Cl
ATOM     21  Cl  UNL     1       8.344  -3.020  -1.623  1.00  0.00    -0.084 Cl
ENDBRANCH   7  14
TORSDOF 3
ENDMDL
MODEL 3
REMARK VINA RESULT:    -3.953      3.515      5.538
REMARK INTER + INTRA:          -4.814
REMARK INTER:                  -4.518
REMARK INTRA:                  -0.296
REMARK UNBOUND:                -0.283
REMARK SMILES O=C(O)c1ccc2nc(-c3cc(Cl)cc(Cl)c3)oc2c1
REMARK SMILES IDX 5 1 6 2 20 3 8 4 18 5 4 6 9 7 7 8 19 9 2 10 1 11 3 12 10 14
REMARK SMILES IDX 11 15 17 16 12 17 15 18 14 19 13 20 16 21
REMARK H PARENT 3 13
ROOT
ATOM      1  C   UNL     1      13.676  -2.931  -2.500  1.00  0.00     0.018 A 
ATOM      2  C   UNL     1      12.846  -2.274  -1.643  1.00  0.00     0.033 A 
ATOM      3  C   UNL     1      11.768  -3.849  -3.682  1.00  0.00     0.065 A 
ATOM      4  N   UNL     1      10.409  -1.876  -1.107  1.00  0.00    -0.209 NA
ATOM      5  O   UNL     1       9.578  -3.108  -2.695  1.00  0.00    -0.436 OA
ATOM      6  C   UNL     1      13.150  -3.724  -3.530  1.00  0.00     0.063 A 
ATOM      7  C   UNL     1       9.298  -2.304  -1.652  1.00  0.00     0.227 A 
ATOM      8  C   UNL     1      11.458  -2.392  -1.784  1.00  0.00     0.110 A 
ATOM      9  C   UNL     1      10.922  -3.188  -2.811  1.00  0.00     0.156 A 
ENDROOT
BRANCH   6  10
ATOM     10  C   UNL     1      14.058  -4.425  -4.456  1.00  0.00     0.335 C 
ATOM     11  O   UNL     1      13.607  -5.180  -5.294  1.00  0.00    -0.246 OA
BRANCH  10  12
ATOM     12  O   UNL     1      15.389  -4.229  -4.372  1.00  0.00    -0.478 OA
ATOM     13  H   UNL     1      15.701  -3.315  -4.400  1.00  0.00     0.297 HD
ENDBRANCH  10  12
ENDBRANCH   6  10
BRANCH   7  14
ATOM     14  C   UNL     1       7.938  -1.956  -1.190  1.00  0.00     0.040 A 
ATOM     15  C   UNL     1       7.704  -0.733  -0.560  1.00  0.00     0.034 A 
ATOM     16  C   UNL     1       6.883  -2.850  -1.382  1.00  0.00     0.034 A 
ATOM     17  C   UNL     1       6.431  -0.413  -0.132  1.00  0.00     0.043 A 
ATOM     18  C   UNL     1       5.615  -2.519  -0.949  1.00  0.00     0.043 A 
ATOM     19  C   UNL     1       5.389  -1.304  -0.324  1.00  0.00     0.041 A 
ATOM     20  Cl  UNL     1       6.136   1.108   0.652  1.00  0.00    -0.084 Cl
ATOM     21  Cl  UNL     1       4.301  -3.629  -1.186  1.00  0.00    -0.084 Cl
ENDBRANCH   7  14
TORSDOF 3
ENDMDL
MODEL 4
REMARK VINA RESULT:    -3.951      3.516      5.273
REMARK INTER + INTRA:          -4.812
REMARK INTER:                  -4.516
REMARK INTRA:                  -0.296
REMARK UNBOUND:                -0.283
REMARK SMILES O=C(O)c1ccc2nc(-c3cc(Cl)cc(Cl)c3)oc2c1
REMARK SMILES IDX 5 1 6 2 20 3 8 4 18 5 4 6 9 7 7 8 19 9 2 10 1 11 3 12 10 14
REMARK SMILES IDX 11 15 17 16 12 17 15 18 14 19 13 20 16 21
REMARK H PARENT 3 13
ROOT
ATOM      1  C   UNL     1      13.676  -2.927  -2.500  1.00  0.00     0.018 A 
ATOM      2  C   UNL     1      12.845  -2.270  -1.643  1.00  0.00     0.033 A 
ATOM      3  C   UNL     1      11.769  -3.850  -3.680  1.00  0.00     0.065 A 
ATOM      4  N   UNL     1      10.408  -1.874  -1.108  1.00  0.00    -0.209 NA
ATOM      5  O   UNL     1       9.578  -3.110  -2.694  1.00  0.00    -0.436 OA
ATOM      6  C   UNL     1      13.151  -3.722  -3.528  1.00  0.00     0.063 A 
ATOM      7  C   UNL     1       9.297  -2.305  -1.653  1.00  0.00     0.227 A 
ATOM      8  C   UNL     1      11.457  -2.390  -1.784  1.00  0.00     0.110 A 
ATOM      9  C   UNL     1      10.922  -3.189  -2.810  1.00  0.00     0.156 A 
ENDROOT
BRANCH   6  10
ATOM     10  C   UNL     1      14.061  -4.423  -4.453  1.00  0.00     0.335 C 
ATOM     11  O   UNL     1      13.610  -5.178  -5.292  1.00  0.00    -0.246 OA
BRANCH  10  12
ATOM     12  O   UNL     1      15.391  -4.228  -4.367  1.00  0.00    -0.478 OA
ATOM     13  H   UNL     1      15.701  -3.313  -4.351  1.00  0.00     0.297 HD
ENDBRANCH  10  12
ENDBRANCH   6  10
BRANCH   7  14
ATOM     14  C   UNL     1       7.937  -1.958  -1.192  1.00  0.00     0.040 A 
ATOM     15  C   UNL     1       6.882  -2.850  -1.385  1.00  0.00     0.034 A 
ATOM     16  C   UNL     1       7.702  -0.734  -0.561  1.00  0.00     0.034 A 
ATOM     17  C   UNL     1       5.613  -2.521  -0.950  1.00  0.00     0.043 A 
ATOM     18  C   UNL     1       6.430  -0.416  -0.131  1.00  0.00     0.043 A 
ATOM     19  C   UNL     1       5.387  -1.306  -0.325  1.00  0.00     0.041 A 
ATOM     20  Cl  UNL     1       4.300  -3.630  -1.189  1.00  0.00    -0.084 Cl
ATOM     21  Cl  UNL     1       6.136   1.105   0.654  1.00  0.00    -0.084 Cl
ENDBRANCH   7  14
TORSDOF 3
ENDMDL
MODEL 5
REMARK VINA RESULT:    -3.948      4.955      6.610
REMARK INTER + INTRA:          -4.808
REMARK INTER:                  -4.512
REMARK INTRA:                  -0.296
REMARK UNBOUND:                -0.283
REMARK SMILES O=C(O)c1ccc2nc(-c3cc(Cl)cc(Cl)c3)oc2c1
REMARK SMILES IDX 5 1 6 2 20 3 8 4 18 5 4 6 9 7 7 8 19 9 2 10 1 11 3 12 10 14
REMARK SMILES IDX 11 15 17 16 12 17 15 18 14 19 13 20 16 21
REMARK H PARENT 3 13
ROOT
ATOM      1  C   UNL     1      13.528  -3.015  -2.754  1.00  0.00     0.018 A 
ATOM      2  C   UNL     1      12.234  -3.358  -3.008  1.00  0.00     0.033 A 
ATOM      3  C   UNL     1      12.822  -1.643  -0.883  1.00  0.00     0.065 A 
ATOM      4  N   UNL     1       9.862  -3.004  -2.212  1.00  0.00    -0.209 NA
ATOM      5  O   UNL     1      10.328  -1.665  -0.562  1.00  0.00    -0.436 OA
ATOM      6  C   UNL     1      13.839  -2.157  -1.690  1.00  0.00     0.063 A 
ATOM      7  C   UNL     1       9.349  -2.300  -1.234  1.00  0.00     0.227 A 
ATOM      8  C   UNL     1      11.204  -2.850  -2.207  1.00  0.00     0.110 A 
ATOM      9  C   UNL     1      11.507  -1.985  -1.141  1.00  0.00     0.156 A 
ENDROOT
BRANCH   6  10
ATOM     10  C   UNL     1      15.243  -1.798  -1.421  1.00  0.00     0.335 C 
ATOM     11  O   UNL     1      15.525  -1.151  -0.432  1.00  0.00    -0.246 OA
BRANCH  10  12
ATOM     12  O   UNL     1      16.213  -2.186  -2.271  1.00  0.00    -0.478 OA
ATOM     13  H   UNL     1      17.066  -1.737  -2.199  1.00  0.00     0.297 HD
ENDBRANCH  10  12
ENDBRANCH   6  10
BRANCH   7  14
ATOM     14  C   UNL     1       7.909  -2.214  -0.917  1.00  0.00     0.040 A 
ATOM     15  C   UNL     1       7.399  -1.088  -0.268  1.00  0.00     0.034 A 
ATOM     16  C   UNL     1       7.052  -3.260  -1.264  1.00  0.00     0.034 A 
ATOM     17  C   UNL     1       6.052  -1.014   0.025  1.00  0.00     0.043 A 
ATOM     18  C   UNL     1       5.707  -3.174  -0.966  1.00  0.00     0.043 A 
ATOM     19  C   UNL     1       5.207  -2.055  -0.322  1.00  0.00     0.041 A 
ATOM     20  Cl  UNL     1       5.416   0.386   0.831  1.00  0.00    -0.084 Cl
ATOM     21  Cl  UNL     1       4.639  -4.474  -1.397  1.00  0.00    -0.084 Cl
ENDBRANCH   7  14
TORSDOF 3
ENDMDL
MODEL 6
REMARK VINA RESULT:    -3.941      4.957      6.434
REMARK INTER + INTRA:          -4.800
REMARK INTER:                  -4.504
REMARK INTRA:                  -0.296
REMARK UNBOUND:                -0.283
REMARK SMILES O=C(O)c1ccc2nc(-c3cc(Cl)cc(Cl)c3)oc2c1
REMARK SMILES IDX 5 1 6 2 20 3 8 4 18 5 4 6 9 7 7 8 19 9 2 10 1 11 3 12 10 14
REMARK SMILES IDX 11 15 17 16 12 17 15 18 14 19 13 20 16 21
REMARK H PARENT 3 13
ROOT
ATOM      1  C   UNL     1      13.532  -3.009  -2.752  1.00  0.00     0.018 A 
ATOM      2  C   UNL     1      12.238  -3.356  -3.005  1.00  0.00     0.033 A 
ATOM      3  C   UNL     1      12.824  -1.635  -0.884  1.00  0.00     0.065 A 
ATOM      4  N   UNL     1       9.867  -3.005  -2.208  1.00  0.00    -0.209 NA
ATOM      5  O   UNL     1      10.330  -1.661  -0.561  1.00  0.00    -0.436 OA
ATOM      6  C   UNL     1      13.841  -2.148  -1.690  1.00  0.00     0.063 A 
ATOM      7  C   UNL     1       9.353  -2.300  -1.231  1.00  0.00     0.227 A 
ATOM      8  C   UNL     1      11.208  -2.848  -2.204  1.00  0.00     0.110 A 
ATOM      9  C   UNL     1      11.509  -1.980  -1.140  1.00  0.00     0.156 A 
ENDROOT
BRANCH   6  10
ATOM     10  C   UNL     1      15.245  -1.785  -1.422  1.00  0.00     0.335 C 
ATOM     11  O   UNL     1      15.526  -1.132  -0.437  1.00  0.00    -0.246 OA
BRANCH  10  12
ATOM     12  O   UNL     1      16.216  -2.176  -2.271  1.00  0.00    -0.478 OA
ATOM     13  H   UNL     1      16.289  -1.695  -3.106  1.00  0.00     0.297 HD
ENDBRANCH  10  12
ENDBRANCH   6  10
BRANCH   7  14
ATOM     14  C   UNL     1       7.912  -2.217  -0.914  1.00  0.00     0.040 A 
ATOM     15  C   UNL     1       7.057  -3.264  -1.258  1.00  0.00     0.034 A 
ATOM     16  C   UNL     1       7.401  -1.089  -0.268  1.00  0.00     0.034 A 
ATOM     17  C   UNL     1       5.711  -3.180  -0.957  1.00  0.00     0.043 A 
ATOM     18  C   UNL     1       6.055  -1.017   0.027  1.00  0.00     0.043 A 
ATOM     19  C   UNL     1       5.211  -2.059  -0.317  1.00  0.00     0.041 A 
ATOM     20  Cl  UNL     1       4.645  -4.482  -1.384  1.00  0.00    -0.084 Cl
ATOM     21  Cl  UNL     1       5.417   0.384   0.831  1.00  0.00    -0.084 Cl
ENDBRANCH   7  14
TORSDOF 3
ENDMDL
MODEL 7
REMARK VINA RESULT:    -3.794      5.148      8.803
REMARK INTER + INTRA:          -4.631
REMARK INTER:                  -4.334
REMARK INTRA:                  -0.297
REMARK UNBOUND:                -0.283
REMARK SMILES O=C(O)c1ccc2nc(-c3cc(Cl)cc(Cl)c3)oc2c1
REMARK SMILES IDX 5 1 6 2 20 3 8 4 18 5 4 6 9 7 7 8 19 9 2 10 1 11 3 12 10 14
REMARK SMILES IDX 11 15 17 16 12 17 15 18 14 19 13 20 16 21
REMARK H PARENT 3 13
ROOT
ATOM      1  C   UNL     1       5.233  -2.768  -0.943  1.00  0.00     0.018 A 
ATOM      2  C   UNL     1       6.221  -3.403  -1.635  1.00  0.00     0.033 A 
ATOM      3  C   UNL     1       6.850  -1.221  -0.008  1.00  0.00     0.065 A 
ATOM      4  N   UNL     1       8.708  -3.377  -2.075  1.00  0.00    -0.209 NA
ATOM      5  O   UNL     1       9.191  -1.680  -0.802  1.00  0.00    -0.436 OA
ATOM      6  C   UNL     1       5.533  -1.670  -0.124  1.00  0.00     0.063 A 
ATOM      7  C   UNL     1       9.679  -2.613  -1.641  1.00  0.00     0.227 A 
ATOM      8  C   UNL     1       7.546  -2.963  -1.528  1.00  0.00     0.110 A 
ATOM      9  C   UNL     1       7.855  -1.865  -0.705  1.00  0.00     0.156 A 
ENDROOT
BRANCH   6  10
ATOM     10  C   UNL     1       4.456  -0.987   0.614  1.00  0.00     0.335 C 
ATOM     11  O   UNL     1       3.299  -1.314   0.441  1.00  0.00    -0.246 OA
BRANCH  10  12
ATOM     12  O   UNL     1       4.754   0.000   1.482  1.00  0.00    -0.478 OA
ATOM     13  H   UNL     1       5.544  -0.116   2.025  1.00  0.00     0.297 HD
ENDBRANCH  10  12
ENDBRANCH   6  10
BRANCH   7  14
ATOM     14  C   UNL     1      11.101  -2.754  -2.018  1.00  0.00     0.040 A 
ATOM     15  C   UNL     1      11.458  -3.503  -3.140  1.00  0.00     0.034 A 
ATOM     16  C   UNL     1      12.093  -2.139  -1.251  1.00  0.00     0.034 A 
ATOM     17  C   UNL     1      12.789  -3.630  -3.487  1.00  0.00     0.043 A 
ATOM     18  C   UNL     1      13.420  -2.274  -1.608  1.00  0.00     0.043 A 
ATOM     19  C   UNL     1      13.768  -3.018  -2.722  1.00  0.00     0.041 A 
ATOM     20  Cl  UNL     1      13.235  -4.560  -4.883  1.00  0.00    -0.084 Cl
ATOM     21  Cl  UNL     1      14.655  -1.510  -0.656  1.00  0.00    -0.084 Cl
ENDBRANCH   7  14
TORSDOF 3
ENDMDL
MODEL 8
REMARK VINA RESULT:    -3.783      5.145      8.959
REMARK INTER + INTRA:          -4.619
REMARK INTER:                  -4.322
REMARK INTRA:                  -0.297
REMARK UNBOUND:                -0.283
REMARK SMILES O=C(O)c1ccc2nc(-c3cc(Cl)cc(Cl)c3)oc2c1
REMARK SMILES IDX 5 1 6 2 20 3 8 4 18 5 4 6 9 7 7 8 19 9 2 10 1 11 3 12 10 14
REMARK SMILES IDX 11 15 17 16 12 17 15 18 14 19 13 20 16 21
REMARK H PARENT 3 13
ROOT
ATOM      1  C   UNL     1       5.232  -2.775  -0.941  1.00  0.00     0.018 A 
ATOM      2  C   UNL     1       6.220  -3.411  -1.632  1.00  0.00     0.033 A 
ATOM      3  C   UNL     1       6.848  -1.223  -0.013  1.00  0.00     0.065 A 
ATOM      4  N   UNL     1       8.707  -3.384  -2.075  1.00  0.00    -0.209 NA
ATOM      5  O   UNL     1       9.189  -1.682  -0.807  1.00  0.00    -0.436 OA
ATOM      6  C   UNL     1       5.532  -1.674  -0.126  1.00  0.00     0.063 A 
ATOM      7  C   UNL     1       9.678  -2.616  -1.644  1.00  0.00     0.227 A 
ATOM      8  C   UNL     1       7.544  -2.969  -1.527  1.00  0.00     0.110 A 
ATOM      9  C   UNL     1       7.854  -1.869  -0.708  1.00  0.00     0.156 A 
ENDROOT
BRANCH   6  10
ATOM     10  C   UNL     1       4.454  -0.990   0.612  1.00  0.00     0.335 C 
ATOM     11  O   UNL     1       3.297  -1.316   0.436  1.00  0.00    -0.246 OA
BRANCH  10  12
ATOM     12  O   UNL     1       4.752  -0.004   1.480  1.00  0.00    -0.478 OA
ATOM     13  H   UNL     1       5.545   0.518   1.297  1.00  0.00     0.297 HD
ENDBRANCH  10  12
ENDBRANCH   6  10
BRANCH   7  14
ATOM     14  C   UNL     1      11.099  -2.757  -2.022  1.00  0.00     0.040 A 
ATOM     15  C   UNL     1      12.092  -2.143  -1.257  1.00  0.00     0.034 A 
ATOM     16  C   UNL     1      11.454  -3.505  -3.146  1.00  0.00     0.034 A 
ATOM     17  C   UNL     1      13.419  -2.280  -1.614  1.00  0.00     0.043 A 
ATOM     18  C   UNL     1      12.784  -3.634  -3.493  1.00  0.00     0.043 A 
ATOM     19  C   UNL     1      13.764  -3.023  -2.730  1.00  0.00     0.041 A 
ATOM     20  Cl  UNL     1      14.655  -1.517  -0.664  1.00  0.00    -0.084 Cl
ATOM     21  Cl  UNL     1      13.229  -4.564  -4.891  1.00  0.00    -0.084 Cl
ENDBRANCH   7  14
TORSDOF 3
ENDMDL
MODEL 9
REMARK VINA RESULT:    -3.419      3.988      7.796
REMARK INTER + INTRA:          -4.202
REMARK INTER:                  -3.913
REMARK INTRA:                  -0.289
REMARK UNBOUND:                -0.283
REMARK SMILES O=C(O)c1ccc2nc(-c3cc(Cl)cc(Cl)c3)oc2c1
REMARK SMILES IDX 5 1 6 2 20 3 8 4 18 5 4 6 9 7 7 8 19 9 2 10 1 11 3 12 10 14
REMARK SMILES IDX 11 15 17 16 12 17 15 18 14 19 13 20 16 21
REMARK H PARENT 3 13
ROOT
ATOM      1  C   UNL     1       8.410  -2.839  -0.201  1.00  0.00     0.018 A 
ATOM      2  C   UNL     1       9.210  -3.814  -0.718  1.00  0.00     0.033 A 
ATOM      3  C   UNL     1       9.325  -1.227  -1.764  1.00  0.00     0.065 A 
ATOM      4  N   UNL     1      10.979  -4.250  -2.468  1.00  0.00    -0.209 NA
ATOM      5  O   UNL     1      11.066  -2.231  -3.274  1.00  0.00    -0.436 OA
ATOM      6  C   UNL     1       8.455  -1.537  -0.717  1.00  0.00     0.063 A 
ATOM      7  C   UNL     1      11.555  -3.483  -3.360  1.00  0.00     0.227 A 
ATOM      8  C   UNL     1      10.087  -3.517  -1.768  1.00  0.00     0.110 A 
ATOM      9  C   UNL     1      10.142  -2.211  -2.288  1.00  0.00     0.156 A 
ENDROOT
BRANCH   6  10
ATOM     10  C   UNL     1       7.580  -0.492  -0.154  1.00  0.00     0.335 C 
ATOM     11  O   UNL     1       7.415   0.550  -0.755  1.00  0.00    -0.246 OA
BRANCH  10  12
ATOM     12  O   UNL     1       6.965  -0.693   1.028  1.00  0.00    -0.478 OA
ATOM     13  H   UNL     1       6.831  -1.609   1.304  1.00  0.00     0.297 HD
ENDBRANCH  10  12
ENDBRANCH   6  10
BRANCH   7  14
ATOM     14  C   UNL     1      12.590  -3.926  -4.317  1.00  0.00     0.040 A 
ATOM     15  C   UNL     1      12.348  -3.861  -5.690  1.00  0.00     0.034 A 
ATOM     16  C   UNL     1      13.813  -4.412  -3.851  1.00  0.00     0.034 A 
ATOM     17  C   UNL     1      13.320  -4.276  -6.579  1.00  0.00     0.043 A 
ATOM     18  C   UNL     1      14.776  -4.823  -4.750  1.00  0.00     0.043 A 
ATOM     19  C   UNL     1      14.531  -4.756  -6.111  1.00  0.00     0.041 A 
ATOM     20  Cl  UNL     1      13.022  -4.196  -8.287  1.00  0.00    -0.084 Cl
ATOM     21  Cl  UNL     1      16.298  -5.427  -4.172  1.00  0.00    -0.084 Cl
ENDBRANCH   7  14
TORSDOF 3
ENDMDL
