MODEL 1
REMARK VINA RESULT:    -5.451      0.000      0.000
REMARK INTER + INTRA:          -8.120
REMARK INTER:                  -7.522
REMARK INTRA:                  -0.598
REMARK UNBOUND:                -0.598
REMARK SMILES Cc1n[nH]c(C)c1CCCOc1cc(C(=O)O)ccc1F
REMARK SMILES IDX 11 1 12 2 14 3 18 4 13 5 19 6 20 7 21 8 15 9 16 10 17 11
REMARK SMILES IDX 10 13 9 14 8 15 7 16 5 17 2 18 4 19 3 20 6 21 1 22
REMARK H PARENT 17 12 4 23
ROOT
ATOM      1  O   UNL     1       8.210  -3.881   0.314  1.00  0.00    -0.490 OA
ENDROOT
BRANCH   1   2
ATOM      2  C   UNL     1       7.204  -3.003   0.057  1.00  0.00     0.155 A 
ATOM      3  C   UNL     1       6.344  -0.758   0.049  1.00  0.00     0.063 A 
ATOM      4  C   UNL     1       5.140  -1.225  -0.485  1.00  0.00     0.019 A 
ATOM      5  C   UNL     1       7.377  -1.657   0.320  1.00  0.00     0.065 A 
ATOM      6  C   UNL     1       4.979  -2.568  -0.750  1.00  0.00     0.044 A 
ATOM      7  C   UNL     1       6.007  -3.458  -0.485  1.00  0.00     0.165 A 
ATOM      8  F   UNL     1       5.843  -4.773  -0.747  1.00  0.00    -0.203 F 
BRANCH   3   9
ATOM      9  C   UNL     1       6.520   0.680   0.333  1.00  0.00     0.335 C 
ATOM     10  O   UNL     1       7.351   1.043   1.140  1.00  0.00    -0.246 OA
BRANCH   9  11
ATOM     11  O   UNL     1       5.762   1.591  -0.309  1.00  0.00    -0.478 OA
ATOM     12  H   UNL     1       5.073   2.031   0.208  1.00  0.00     0.297 HD
ENDBRANCH   9  11
ENDBRANCH   3   9
ENDBRANCH   1   2
BRANCH   1  13
ATOM     13  C   UNL     1       8.881  -4.447  -0.814  1.00  0.00     0.230 C 
BRANCH  13  14
ATOM     14  C   UNL     1      10.358  -4.053  -0.780  1.00  0.00     0.046 C 
BRANCH  14  15
ATOM     15  C   UNL     1      10.601  -2.899  -1.755  1.00  0.00     0.043 C 
BRANCH  15  16
ATOM     16  C   UNL     1      12.041  -2.908  -2.197  1.00  0.00    -0.004 A 
ATOM     17  C   UNL     1      13.073  -2.306  -1.561  1.00  0.00     0.036 A 
ATOM     18  C   UNL     1      12.549  -3.546  -3.334  1.00  0.00     0.063 A 
ATOM     19  N   UNL     1      14.193  -2.549  -2.274  1.00  0.00    -0.282 N 
ATOM     20  N   UNL     1      13.837  -3.326  -3.385  1.00  0.00    -0.181 NA
ATOM     21  C   UNL     1      12.987  -1.509  -0.286  1.00  0.00     0.066 C 
ATOM     22  C   UNL     1      11.748  -4.339  -4.334  1.00  0.00     0.069 C 
ATOM     23  H   UNL     1      15.086  -2.240  -2.057  1.00  0.00     0.190 HD
ENDBRANCH  15  16
ENDBRANCH  14  15
ENDBRANCH  13  14
ENDBRANCH   1  13
TORSDOF 7
ENDMDL
MODEL 2
REMARK VINA RESULT:    -5.425      2.124      3.757
REMARK INTER + INTRA:          -8.085
REMARK INTER:                  -7.460
REMARK INTRA:                  -0.624
REMARK UNBOUND:                -0.598
REMARK SMILES Cc1n[nH]c(C)c1CCCOc1cc(C(=O)O)ccc1F
REMARK SMILES IDX 11 1 12 2 14 3 18 4 13 5 19 6 20 7 21 8 15 9 16 10 17 11
REMARK SMILES IDX 10 13 9 14 8 15 7 16 5 17 2 18 4 19 3 20 6 21 1 22
REMARK H PARENT 17 12 4 23
ROOT
ATOM      1  O   UNL     1       8.676  -0.813  -0.802  1.00  0.00    -0.490 OA
ENDROOT
BRANCH   1   2
ATOM      2  C   UNL     1       7.394  -1.240  -0.650  1.00  0.00     0.155 A 
ATOM      3  C   UNL     1       5.728  -2.962  -0.856  1.00  0.00     0.063 A 
ATOM      4  C   UNL     1       4.772  -2.095  -0.321  1.00  0.00     0.019 A 
ATOM      5  C   UNL     1       7.045  -2.525  -1.019  1.00  0.00     0.065 A 
ATOM      6  C   UNL     1       5.131  -0.817   0.050  1.00  0.00     0.044 A 
ATOM      7  C   UNL     1       6.438  -0.388  -0.107  1.00  0.00     0.165 A 
ATOM      8  F   UNL     1       6.784   0.866   0.258  1.00  0.00    -0.203 F 
BRANCH   3   9
ATOM      9  C   UNL     1       5.348  -4.331  -1.254  1.00  0.00     0.335 C 
ATOM     10  O   UNL     1       5.575  -4.722  -2.381  1.00  0.00    -0.246 OA
BRANCH   9  11
ATOM     11  O   UNL     1       4.752  -5.150  -0.365  1.00  0.00    -0.478 OA
ATOM     12  H   UNL     1       4.942  -6.095  -0.442  1.00  0.00     0.297 HD
ENDBRANCH   9  11
ENDBRANCH   3   9
ENDBRANCH   1   2
BRANCH   1  13
ATOM     13  C   UNL     1       9.033  -0.273  -2.077  1.00  0.00     0.230 C 
BRANCH  13  14
ATOM     14  C   UNL     1      10.457  -0.703  -2.432  1.00  0.00     0.046 C 
BRANCH  14  15
ATOM     15  C   UNL     1      10.793  -2.006  -1.703  1.00  0.00     0.043 C 
BRANCH  15  16
ATOM     16  C   UNL     1      12.206  -2.415  -2.029  1.00  0.00    -0.004 A 
ATOM     17  C   UNL     1      12.587  -3.220  -3.048  1.00  0.00     0.036 A 
ATOM     18  C   UNL     1      13.357  -2.024  -1.336  1.00  0.00     0.063 A 
ATOM     19  N   UNL     1      13.930  -3.340  -2.997  1.00  0.00    -0.282 N 
ATOM     20  N   UNL     1      14.390  -2.584  -1.911  1.00  0.00    -0.181 NA
ATOM     21  C   UNL     1      11.675  -3.866  -4.058  1.00  0.00     0.066 C 
ATOM     22  C   UNL     1      13.398  -1.124  -0.127  1.00  0.00     0.069 C 
ATOM     23  H   UNL     1      14.480  -3.859  -3.605  1.00  0.00     0.190 HD
ENDBRANCH  15  16
ENDBRANCH  14  15
ENDBRANCH  13  14
ENDBRANCH   1  13
TORSDOF 7
ENDMDL
MODEL 3
REMARK VINA RESULT:    -5.411      2.133      3.322
REMARK INTER + INTRA:          -8.064
REMARK INTER:                  -7.412
REMARK INTRA:                  -0.652
REMARK UNBOUND:                -0.598
REMARK SMILES Cc1n[nH]c(C)c1CCCOc1cc(C(=O)O)ccc1F
REMARK SMILES IDX 11 1 12 2 14 3 18 4 13 5 19 6 20 7 21 8 15 9 16 10 17 11
REMARK SMILES IDX 10 13 9 14 8 15 7 16 5 17 2 18 4 19 3 20 6 21 1 22
REMARK H PARENT 17 12 4 23
ROOT
ATOM      1  O   UNL     1       8.679  -0.812  -0.828  1.00  0.00    -0.490 OA
ENDROOT
BRANCH   1   2
ATOM      2  C   UNL     1       7.399  -1.239  -0.662  1.00  0.00     0.155 A 
ATOM      3  C   UNL     1       5.731  -2.961  -0.853  1.00  0.00     0.063 A 
ATOM      4  C   UNL     1       4.781  -2.095  -0.305  1.00  0.00     0.019 A 
ATOM      5  C   UNL     1       7.046  -2.524  -1.029  1.00  0.00     0.065 A 
ATOM      6  C   UNL     1       5.144  -0.817   0.064  1.00  0.00     0.044 A 
ATOM      7  C   UNL     1       6.449  -0.388  -0.108  1.00  0.00     0.165 A 
ATOM      8  F   UNL     1       6.798   0.866   0.255  1.00  0.00    -0.203 F 
BRANCH   3   9
ATOM      9  C   UNL     1       5.346  -4.330  -1.248  1.00  0.00     0.335 C 
ATOM     10  O   UNL     1       5.568  -4.722  -2.375  1.00  0.00    -0.246 OA
BRANCH   9  11
ATOM     11  O   UNL     1       4.754  -5.147  -0.355  1.00  0.00    -0.478 OA
ATOM     12  H   UNL     1       5.284  -5.880  -0.012  1.00  0.00     0.297 HD
ENDBRANCH   9  11
ENDBRANCH   3   9
ENDBRANCH   1   2
BRANCH   1  13
ATOM     13  C   UNL     1       9.038  -0.327  -2.124  1.00  0.00     0.230 C 
BRANCH  13  14
ATOM     14  C   UNL     1      10.493  -0.695  -2.421  1.00  0.00     0.046 C 
BRANCH  14  15
ATOM     15  C   UNL     1      10.844  -2.002  -1.706  1.00  0.00     0.043 C 
BRANCH  15  16
ATOM     16  C   UNL     1      12.291  -2.338  -1.955  1.00  0.00    -0.004 A 
ATOM     17  C   UNL     1      13.344  -1.927  -1.210  1.00  0.00     0.036 A 
ATOM     18  C   UNL     1      12.785  -3.136  -2.993  1.00  0.00     0.063 A 
ATOM     19  N   UNL     1      14.464  -2.441  -1.761  1.00  0.00    -0.282 N 
ATOM     20  N   UNL     1      14.087  -3.192  -2.882  1.00  0.00    -0.181 NA
ATOM     21  C   UNL     1      13.277  -1.052   0.015  1.00  0.00     0.066 C 
ATOM     22  C   UNL     1      11.959  -3.805  -4.062  1.00  0.00     0.069 C 
ATOM     23  H   UNL     1      15.369  -2.311  -1.439  1.00  0.00     0.190 HD
ENDBRANCH  15  16
ENDBRANCH  14  15
ENDBRANCH  13  14
ENDBRANCH   1  13
TORSDOF 7
ENDMDL
MODEL 4
REMARK VINA RESULT:    -5.375      0.232      1.780
REMARK INTER + INTRA:          -8.015
REMARK INTER:                  -7.433
REMARK INTRA:                  -0.582
REMARK UNBOUND:                -0.598
REMARK SMILES Cc1n[nH]c(C)c1CCCOc1cc(C(=O)O)ccc1F
REMARK SMILES IDX 11 1 12 2 14 3 18 4 13 5 19 6 20 7 21 8 15 9 16 10 17 11
REMARK SMILES IDX 10 13 9 14 8 15 7 16 5 17 2 18 4 19 3 20 6 21 1 22
REMARK H PARENT 17 12 4 23
ROOT
ATOM      1  O   UNL     1       8.242  -3.894   0.273  1.00  0.00    -0.490 OA
ENDROOT
BRANCH   1   2
ATOM      2  C   UNL     1       7.230  -3.021   0.025  1.00  0.00     0.155 A 
ATOM      3  C   UNL     1       6.355  -0.781   0.037  1.00  0.00     0.063 A 
ATOM      4  C   UNL     1       5.154  -1.252  -0.500  1.00  0.00     0.019 A 
ATOM      5  C   UNL     1       7.395  -1.676   0.298  1.00  0.00     0.065 A 
ATOM      6  C   UNL     1       5.001  -2.594  -0.775  1.00  0.00     0.044 A 
ATOM      7  C   UNL     1       6.035  -3.479  -0.519  1.00  0.00     0.165 A 
ATOM      8  F   UNL     1       5.879  -4.794  -0.791  1.00  0.00    -0.203 F 
BRANCH   3   9
ATOM      9  C   UNL     1       6.523   0.655   0.331  1.00  0.00     0.335 C 
ATOM     10  O   UNL     1       7.364   1.018   1.128  1.00  0.00    -0.246 OA
BRANCH   9  11
ATOM     11  O   UNL     1       5.746   1.565  -0.289  1.00  0.00    -0.478 OA
ATOM     12  H   UNL     1       5.106   2.043   0.258  1.00  0.00     0.297 HD
ENDBRANCH   9  11
ENDBRANCH   3   9
ENDBRANCH   1   2
BRANCH   1  13
ATOM     13  C   UNL     1       8.983  -4.367  -0.855  1.00  0.00     0.230 C 
BRANCH  13  14
ATOM     14  C   UNL     1      10.410  -3.819  -0.793  1.00  0.00     0.046 C 
BRANCH  14  15
ATOM     15  C   UNL     1      10.643  -2.871  -1.970  1.00  0.00     0.043 C 
BRANCH  15  16
ATOM     16  C   UNL     1      12.056  -3.027  -2.470  1.00  0.00    -0.004 A 
ATOM     17  C   UNL     1      12.438  -3.696  -3.582  1.00  0.00     0.036 A 
ATOM     18  C   UNL     1      13.205  -2.501  -1.869  1.00  0.00     0.063 A 
ATOM     19  N   UNL     1      13.781  -3.603  -3.678  1.00  0.00    -0.282 N 
ATOM     20  N   UNL     1      14.240  -2.851  -2.589  1.00  0.00    -0.181 NA
ATOM     21  C   UNL     1      11.527  -4.417  -4.542  1.00  0.00     0.066 C 
ATOM     22  C   UNL     1      13.244  -1.682  -0.604  1.00  0.00     0.069 C 
ATOM     23  H   UNL     1      14.331  -3.988  -4.377  1.00  0.00     0.190 HD
ENDBRANCH  15  16
ENDBRANCH  14  15
ENDBRANCH  13  14
ENDBRANCH   1  13
TORSDOF 7
ENDMDL
MODEL 5
REMARK VINA RESULT:    -4.547      3.931      7.036
REMARK INTER + INTRA:          -6.873
REMARK INTER:                  -6.037
REMARK INTRA:                  -0.835
REMARK UNBOUND:                -0.598
REMARK SMILES Cc1n[nH]c(C)c1CCCOc1cc(C(=O)O)ccc1F
REMARK SMILES IDX 11 1 12 2 14 3 18 4 13 5 19 6 20 7 21 8 15 9 16 10 17 11
REMARK SMILES IDX 10 13 9 14 8 15 7 16 5 17 2 18 4 19 3 20 6 21 1 22
REMARK H PARENT 17 12 4 23
ROOT
ATOM      1  O   UNL     1       9.923  -1.471  -0.753  1.00  0.00    -0.490 OA
ENDROOT
BRANCH   1   2
ATOM      2  C   UNL     1      11.019  -1.984  -1.374  1.00  0.00     0.155 A 
ATOM      3  C   UNL     1      12.000  -3.262  -3.159  1.00  0.00     0.063 A 
ATOM      4  C   UNL     1      13.271  -3.015  -2.632  1.00  0.00     0.019 A 
ATOM      5  C   UNL     1      10.872  -2.741  -2.521  1.00  0.00     0.065 A 
ATOM      6  C   UNL     1      13.407  -2.255  -1.490  1.00  0.00     0.044 A 
ATOM      7  C   UNL     1      12.287  -1.735  -0.862  1.00  0.00     0.165 A 
ATOM      8  F   UNL     1      12.428  -0.990   0.257  1.00  0.00    -0.203 F 
BRANCH   3   9
ATOM      9  C   UNL     1      11.851  -4.075  -4.381  1.00  0.00     0.335 C 
ATOM     10  O   UNL     1      11.676  -5.274  -4.296  1.00  0.00    -0.246 OA
BRANCH   9  11
ATOM     11  O   UNL     1      11.901  -3.486  -5.592  1.00  0.00    -0.478 OA
ATOM     12  H   UNL     1      12.055  -4.062  -6.355  1.00  0.00     0.297 HD
ENDBRANCH   9  11
ENDBRANCH   3   9
ENDBRANCH   1   2
BRANCH   1  13
ATOM     13  C   UNL     1       8.860  -1.009  -1.590  1.00  0.00     0.230 C 
BRANCH  13  14
ATOM     14  C   UNL     1       7.662  -0.619  -0.723  1.00  0.00     0.046 C 
BRANCH  14  15
ATOM     15  C   UNL     1       7.480  -1.653   0.391  1.00  0.00     0.043 C 
BRANCH  15  16
ATOM     16  C   UNL     1       6.635  -2.793  -0.114  1.00  0.00    -0.004 A 
ATOM     17  C   UNL     1       5.319  -2.732  -0.425  1.00  0.00     0.036 A 
ATOM     18  C   UNL     1       7.072  -4.101  -0.350  1.00  0.00     0.063 A 
ATOM     19  N   UNL     1       4.936  -3.959  -0.836  1.00  0.00    -0.282 N 
ATOM     20  N   UNL     1       6.054  -4.802  -0.776  1.00  0.00    -0.181 NA
ATOM     21  C   UNL     1       4.440  -1.513  -0.329  1.00  0.00     0.066 C 
ATOM     22  C   UNL     1       8.473  -4.616  -0.137  1.00  0.00     0.069 C 
ATOM     23  H   UNL     1       4.045  -4.213  -1.122  1.00  0.00     0.190 HD
ENDBRANCH  15  16
ENDBRANCH  14  15
ENDBRANCH  13  14
ENDBRANCH   1  13
TORSDOF 7
ENDMDL
MODEL 6
REMARK VINA RESULT:    -4.510      3.836      6.584
REMARK INTER + INTRA:          -6.822
REMARK INTER:                  -6.009
REMARK INTRA:                  -0.813
REMARK UNBOUND:                -0.598
REMARK SMILES Cc1n[nH]c(C)c1CCCOc1cc(C(=O)O)ccc1F
REMARK SMILES IDX 11 1 12 2 14 3 18 4 13 5 19 6 20 7 21 8 15 9 16 10 17 11
REMARK SMILES IDX 10 13 9 14 8 15 7 16 5 17 2 18 4 19 3 20 6 21 1 22
REMARK H PARENT 17 12 4 23
ROOT
ATOM      1  O   UNL     1       9.342  -2.999  -2.103  1.00  0.00    -0.490 OA
ENDROOT
BRANCH   1   2
ATOM      2  C   UNL     1      10.696  -2.885  -2.141  1.00  0.00     0.155 A 
ATOM      3  C   UNL     1      12.753  -2.095  -1.176  1.00  0.00     0.063 A 
ATOM      4  C   UNL     1      13.465  -2.671  -2.231  1.00  0.00     0.019 A 
ATOM      5  C   UNL     1      11.361  -2.206  -1.136  1.00  0.00     0.065 A 
ATOM      6  C   UNL     1      12.793  -3.351  -3.226  1.00  0.00     0.044 A 
ATOM      7  C   UNL     1      11.414  -3.464  -3.182  1.00  0.00     0.165 A 
ATOM      8  F   UNL     1      10.762  -4.131  -4.159  1.00  0.00    -0.203 F 
BRANCH   3   9
ATOM      9  C   UNL     1      13.468  -1.367  -0.110  1.00  0.00     0.335 C 
ATOM     10  O   UNL     1      12.858  -0.941   0.849  1.00  0.00    -0.246 OA
BRANCH   9  11
ATOM     11  O   UNL     1      14.800  -1.183  -0.198  1.00  0.00    -0.478 OA
ATOM     12  H   UNL     1      15.139  -0.820  -1.028  1.00  0.00     0.297 HD
ENDBRANCH   9  11
ENDBRANCH   3   9
ENDBRANCH   1   2
BRANCH   1  13
ATOM     13  C   UNL     1       8.762  -3.429  -0.869  1.00  0.00     0.230 C 
BRANCH  13  14
ATOM     14  C   UNL     1       7.237  -3.387  -0.982  1.00  0.00     0.046 C 
BRANCH  14  15
ATOM     15  C   UNL     1       6.828  -2.286  -1.963  1.00  0.00     0.043 C 
BRANCH  15  16
ATOM     16  C   UNL     1       6.622  -0.995  -1.214  1.00  0.00    -0.004 A 
ATOM     17  C   UNL     1       5.641  -0.743  -0.316  1.00  0.00     0.036 A 
ATOM     18  C   UNL     1       7.415   0.153  -1.318  1.00  0.00     0.063 A 
ATOM     19  N   UNL     1       5.804   0.522   0.127  1.00  0.00    -0.282 N 
ATOM     20  N   UNL     1       6.922   1.065  -0.521  1.00  0.00    -0.181 NA
ATOM     21  C   UNL     1       4.562  -1.702   0.112  1.00  0.00     0.066 C 
ATOM     22  C   UNL     1       8.622   0.315  -2.206  1.00  0.00     0.069 C 
ATOM     23  H   UNL     1       5.245   0.975   0.777  1.00  0.00     0.190 HD
ENDBRANCH  15  16
ENDBRANCH  14  15
ENDBRANCH  13  14
ENDBRANCH   1  13
TORSDOF 7
ENDMDL
MODEL 7
REMARK VINA RESULT:    -4.480      3.800      6.565
REMARK INTER + INTRA:          -6.780
REMARK INTER:                  -5.925
REMARK INTRA:                  -0.855
REMARK UNBOUND:                -0.598
REMARK SMILES Cc1n[nH]c(C)c1CCCOc1cc(C(=O)O)ccc1F
REMARK SMILES IDX 11 1 12 2 14 3 18 4 13 5 19 6 20 7 21 8 15 9 16 10 17 11
REMARK SMILES IDX 10 13 9 14 8 15 7 16 5 17 2 18 4 19 3 20 6 21 1 22
REMARK H PARENT 17 12 4 23
ROOT
ATOM      1  O   UNL     1       9.332  -3.312  -2.205  1.00  0.00    -0.490 OA
ENDROOT
BRANCH   1   2
ATOM      2  C   UNL     1      10.675  -3.105  -2.236  1.00  0.00     0.155 A 
ATOM      3  C   UNL     1      12.671  -2.195  -1.250  1.00  0.00     0.063 A 
ATOM      4  C   UNL     1      13.423  -2.701  -2.314  1.00  0.00     0.019 A 
ATOM      5  C   UNL     1      11.290  -2.402  -1.217  1.00  0.00     0.065 A 
ATOM      6  C   UNL     1      12.801  -3.406  -3.323  1.00  0.00     0.044 A 
ATOM      7  C   UNL     1      11.433  -3.614  -3.286  1.00  0.00     0.165 A 
ATOM      8  F   UNL     1      10.830  -4.306  -4.277  1.00  0.00    -0.203 F 
BRANCH   3   9
ATOM      9  C   UNL     1      13.333  -1.440  -0.169  1.00  0.00     0.335 C 
ATOM     10  O   UNL     1      13.454  -0.235  -0.254  1.00  0.00    -0.246 OA
BRANCH   9  11
ATOM     11  O   UNL     1      13.798  -2.088   0.918  1.00  0.00    -0.478 OA
ATOM     12  H   UNL     1      13.141  -2.453   1.526  1.00  0.00     0.297 HD
ENDBRANCH   9  11
ENDBRANCH   3   9
ENDBRANCH   1   2
BRANCH   1  13
ATOM     13  C   UNL     1       8.715  -3.372  -0.917  1.00  0.00     0.230 C 
BRANCH  13  14
ATOM     14  C   UNL     1       7.194  -3.387  -1.081  1.00  0.00     0.046 C 
BRANCH  14  15
ATOM     15  C   UNL     1       6.769  -2.244  -2.004  1.00  0.00     0.043 C 
BRANCH  15  16
ATOM     16  C   UNL     1       6.632  -0.975  -1.204  1.00  0.00    -0.004 A 
ATOM     17  C   UNL     1       7.441   0.107  -1.281  1.00  0.00     0.036 A 
ATOM     18  C   UNL     1       5.641  -0.704  -0.253  1.00  0.00     0.063 A 
ATOM     19  N   UNL     1       6.983   1.027  -0.406  1.00  0.00    -0.282 N 
ATOM     20  N   UNL     1       5.855   0.492   0.230  1.00  0.00    -0.181 NA
ATOM     21  C   UNL     1       8.638   0.258  -2.182  1.00  0.00     0.066 C 
ATOM     22  C   UNL     1       4.528  -1.636   0.152  1.00  0.00     0.069 C 
ATOM     23  H   UNL     1       7.367   1.903  -0.245  1.00  0.00     0.190 HD
ENDBRANCH  15  16
ENDBRANCH  14  15
ENDBRANCH  13  14
ENDBRANCH   1  13
TORSDOF 7
ENDMDL
MODEL 8
REMARK VINA RESULT:    -4.235      3.954      7.003
REMARK INTER + INTRA:          -6.442
REMARK INTER:                  -5.633
REMARK INTRA:                  -0.809
REMARK UNBOUND:                -0.598
REMARK SMILES Cc1n[nH]c(C)c1CCCOc1cc(C(=O)O)ccc1F
REMARK SMILES IDX 11 1 12 2 14 3 18 4 13 5 19 6 20 7 21 8 15 9 16 10 17 11
REMARK SMILES IDX 10 13 9 14 8 15 7 16 5 17 2 18 4 19 3 20 6 21 1 22
REMARK H PARENT 17 12 4 23
ROOT
ATOM      1  O   UNL     1       9.580  -2.732  -0.760  1.00  0.00    -0.490 OA
ENDROOT
BRANCH   1   2
ATOM      2  C   UNL     1      10.728  -2.827  -1.482  1.00  0.00     0.155 A 
ATOM      3  C   UNL     1      11.915  -3.611  -3.421  1.00  0.00     0.063 A 
ATOM      4  C   UNL     1      13.081  -3.001  -2.949  1.00  0.00     0.019 A 
ATOM      5  C   UNL     1      10.736  -3.519  -2.679  1.00  0.00     0.065 A 
ATOM      6  C   UNL     1      13.062  -2.308  -1.757  1.00  0.00     0.044 A 
ATOM      7  C   UNL     1      11.890  -2.215  -1.025  1.00  0.00     0.165 A 
ATOM      8  F   UNL     1      11.878  -1.534   0.142  1.00  0.00    -0.203 F 
BRANCH   3   9
ATOM      9  C   UNL     1      11.932  -4.353  -4.697  1.00  0.00     0.335 C 
ATOM     10  O   UNL     1      10.891  -4.602  -5.268  1.00  0.00    -0.246 OA
BRANCH   9  11
ATOM     11  O   UNL     1      13.105  -4.748  -5.230  1.00  0.00    -0.478 OA
ATOM     12  H   UNL     1      13.746  -4.056  -5.445  1.00  0.00     0.297 HD
ENDBRANCH   9  11
ENDBRANCH   3   9
ENDBRANCH   1   2
BRANCH   1  13
ATOM     13  C   UNL     1       8.694  -3.852  -0.800  1.00  0.00     0.230 C 
BRANCH  13  14
ATOM     14  C   UNL     1       7.256  -3.371  -0.598  1.00  0.00     0.046 C 
BRANCH  14  15
ATOM     15  C   UNL     1       6.893  -2.373  -1.700  1.00  0.00     0.043 C 
BRANCH  15  16
ATOM     16  C   UNL     1       6.656  -1.016  -1.090  1.00  0.00    -0.004 A 
ATOM     17  C   UNL     1       5.647  -0.685  -0.250  1.00  0.00     0.036 A 
ATOM     18  C   UNL     1       7.443   0.124  -1.286  1.00  0.00     0.063 A 
ATOM     19  N   UNL     1       5.787   0.619   0.068  1.00  0.00    -0.282 N 
ATOM     20  N   UNL     1       6.920   1.106  -0.599  1.00  0.00    -0.181 NA
ATOM     21  C   UNL     1       4.562  -1.607   0.241  1.00  0.00     0.066 C 
ATOM     22  C   UNL     1       8.675   0.209  -2.151  1.00  0.00     0.069 C 
ATOM     23  H   UNL     1       5.206   1.129   0.653  1.00  0.00     0.190 HD
ENDBRANCH  15  16
ENDBRANCH  14  15
ENDBRANCH  13  14
ENDBRANCH   1  13
TORSDOF 7
ENDMDL
MODEL 9
REMARK VINA RESULT:    -4.161      3.898      6.796
REMARK INTER + INTRA:          -6.340
REMARK INTER:                  -5.678
REMARK INTRA:                  -0.663
REMARK UNBOUND:                -0.598
REMARK SMILES Cc1n[nH]c(C)c1CCCOc1cc(C(=O)O)ccc1F
REMARK SMILES IDX 11 1 12 2 14 3 18 4 13 5 19 6 20 7 21 8 15 9 16 10 17 11
REMARK SMILES IDX 10 13 9 14 8 15 7 16 5 17 2 18 4 19 3 20 6 21 1 22
REMARK H PARENT 17 12 4 23
ROOT
ATOM      1  O   UNL     1       9.645  -1.533  -0.790  1.00  0.00    -0.490 OA
ENDROOT
BRANCH   1   2
ATOM      2  C   UNL     1      10.792  -1.993  -1.354  1.00  0.00     0.155 A 
ATOM      3  C   UNL     1      13.194  -2.115  -1.401  1.00  0.00     0.063 A 
ATOM      4  C   UNL     1      13.125  -2.954  -2.517  1.00  0.00     0.019 A 
ATOM      5  C   UNL     1      12.017  -1.636  -0.822  1.00  0.00     0.065 A 
ATOM      6  C   UNL     1      11.899  -3.310  -3.038  1.00  0.00     0.044 A 
ATOM      7  C   UNL     1      10.734  -2.837  -2.458  1.00  0.00     0.165 A 
ATOM      8  F   UNL     1       9.535  -3.190  -2.973  1.00  0.00    -0.203 F 
BRANCH   3   9
ATOM      9  C   UNL     1      14.504  -1.732  -0.841  1.00  0.00     0.335 C 
ATOM     10  O   UNL     1      15.524  -2.001  -1.443  1.00  0.00    -0.246 OA
BRANCH   9  11
ATOM     11  O   UNL     1      14.569  -1.078   0.335  1.00  0.00    -0.478 OA
ATOM     12  H   UNL     1      14.832  -0.148   0.307  1.00  0.00     0.297 HD
ENDBRANCH   9  11
ENDBRANCH   3   9
ENDBRANCH   1   2
BRANCH   1  13
ATOM     13  C   UNL     1       8.824  -0.680  -1.592  1.00  0.00     0.230 C 
BRANCH  13  14
ATOM     14  C   UNL     1       7.417  -0.619  -0.995  1.00  0.00     0.046 C 
BRANCH  14  15
ATOM     15  C   UNL     1       7.316  -1.601   0.174  1.00  0.00     0.043 C 
BRANCH  15  16
ATOM     16  C   UNL     1       6.481  -2.786  -0.235  1.00  0.00    -0.004 A 
ATOM     17  C   UNL     1       5.160  -2.767  -0.527  1.00  0.00     0.036 A 
ATOM     18  C   UNL     1       6.936  -4.100  -0.387  1.00  0.00     0.063 A 
ATOM     19  N   UNL     1       4.790  -4.026  -0.846  1.00  0.00    -0.282 N 
ATOM     20  N   UNL     1       5.922  -4.845  -0.746  1.00  0.00    -0.181 NA
ATOM     21  C   UNL     1       4.262  -1.558  -0.502  1.00  0.00     0.066 C 
ATOM     22  C   UNL     1       8.348  -4.578  -0.163  1.00  0.00     0.069 C 
ATOM     23  H   UNL     1       3.899  -4.312  -1.098  1.00  0.00     0.190 HD
ENDBRANCH  15  16
ENDBRANCH  14  15
ENDBRANCH  13  14
ENDBRANCH   1  13
TORSDOF 7
ENDMDL
