MODEL 1
REMARK VINA RESULT:    -5.463      0.000      0.000
REMARK INTER + INTRA:          -8.082
REMARK INTER:                  -7.539
REMARK INTRA:                  -0.543
REMARK UNBOUND:                -0.543
REMARK SMILES Cc1n[nH]c(C)c1CCCOc1cc(C(=O)O)ccc1F
REMARK SMILES IDX 11 1 12 2 14 3 18 4 13 5 19 6 20 7 21 8 15 9 16 10 17 11
REMARK SMILES IDX 10 13 9 14 8 15 7 16 5 17 2 18 4 19 3 20 6 21 1 22
REMARK H PARENT 17 12 4 23
ROOT
ATOM      1  O   UNL     1      -6.326  -2.617   3.816  1.00  0.00    -0.490 OA
ENDROOT
BRANCH   1   2
ATOM      2  C   UNL     1      -5.147  -1.959   3.970  1.00  0.00     0.155 A 
ATOM      3  C   UNL     1      -3.929   0.069   4.402  1.00  0.00     0.063 A 
ATOM      4  C   UNL     1      -2.726  -0.634   4.290  1.00  0.00     0.019 A 
ATOM      5  C   UNL     1      -5.142  -0.603   4.240  1.00  0.00     0.065 A 
ATOM      6  C   UNL     1      -2.741  -1.987   4.027  1.00  0.00     0.044 A 
ATOM      7  C   UNL     1      -3.946  -2.653   3.871  1.00  0.00     0.165 A 
ATOM      8  F   UNL     1      -3.954  -3.979   3.613  1.00  0.00    -0.203 F 
BRANCH   3   9
ATOM      9  C   UNL     1      -3.916   1.518   4.684  1.00  0.00     0.335 C 
ATOM     10  O   UNL     1      -4.895   2.193   4.440  1.00  0.00    -0.246 OA
BRANCH   9  11
ATOM     11  O   UNL     1      -2.820   2.090   5.219  1.00  0.00    -0.478 OA
ATOM     12  H   UNL     1      -1.985   1.609   5.130  1.00  0.00     0.297 HD
ENDBRANCH   9  11
ENDBRANCH   3   9
ENDBRANCH   1   2
BRANCH   1  13
ATOM     13  C   UNL     1      -6.666  -3.580   4.817  1.00  0.00     0.230 C 
BRANCH  13  14
ATOM     14  C   UNL     1      -7.916  -3.116   5.567  1.00  0.00     0.046 C 
BRANCH  14  15
ATOM     15  C   UNL     1      -7.503  -2.405   6.857  1.00  0.00     0.043 C 
BRANCH  15  16
ATOM     16  C   UNL     1      -8.621  -2.496   7.862  1.00  0.00    -0.004 A 
ATOM     17  C   UNL     1      -9.669  -1.646   7.967  1.00  0.00     0.036 A 
ATOM     18  C   UNL     1      -8.764  -3.478   8.849  1.00  0.00     0.063 A 
ATOM     19  N   UNL     1     -10.443  -2.071   8.987  1.00  0.00    -0.282 N 
ATOM     20  N   UNL     1      -9.851  -3.220   9.528  1.00  0.00    -0.181 NA
ATOM     21  C   UNL     1      -9.926  -0.442   7.099  1.00  0.00     0.066 C 
ATOM     22  C   UNL     1      -7.819  -4.627   9.095  1.00  0.00     0.069 C 
ATOM     23  H   UNL     1     -11.264  -1.654   9.293  1.00  0.00     0.190 HD
ENDBRANCH  15  16
ENDBRANCH  14  15
ENDBRANCH  13  14
ENDBRANCH   1  13
TORSDOF 7
ENDMDL
MODEL 2
REMARK VINA RESULT:    -5.425      2.310      3.924
REMARK INTER + INTRA:          -8.029
REMARK INTER:                  -7.605
REMARK INTRA:                  -0.424
REMARK UNBOUND:                -0.543
REMARK SMILES Cc1n[nH]c(C)c1CCCOc1cc(C(=O)O)ccc1F
REMARK SMILES IDX 11 1 12 2 14 3 18 4 13 5 19 6 20 7 21 8 15 9 16 10 17 11
REMARK SMILES IDX 10 13 9 14 8 15 7 16 5 17 2 18 4 19 3 20 6 21 1 22
REMARK H PARENT 17 12 4 23
ROOT
ATOM      1  O   UNL     1      -4.350  -0.466   7.419  1.00  0.00    -0.490 OA
ENDROOT
BRANCH   1   2
ATOM      2  C   UNL     1      -3.924  -0.734   6.156  1.00  0.00     0.155 A 
ATOM      3  C   UNL     1      -3.349  -2.315   4.438  1.00  0.00     0.063 A 
ATOM      4  C   UNL     1      -3.062  -1.260   3.568  1.00  0.00     0.019 A 
ATOM      5  C   UNL     1      -3.782  -2.044   5.737  1.00  0.00     0.065 A 
ATOM      6  C   UNL     1      -3.213   0.043   3.992  1.00  0.00     0.044 A 
ATOM      7  C   UNL     1      -3.647   0.310   5.280  1.00  0.00     0.165 A 
ATOM      8  F   UNL     1      -3.792   1.589   5.689  1.00  0.00    -0.203 F 
BRANCH   3   9
ATOM      9  C   UNL     1      -3.190  -3.712   3.987  1.00  0.00     0.335 C 
ATOM     10  O   UNL     1      -3.015  -4.596   4.799  1.00  0.00    -0.246 OA
BRANCH   9  11
ATOM     11  O   UNL     1      -3.245  -4.005   2.673  1.00  0.00    -0.478 OA
ATOM     12  H   UNL     1      -2.792  -4.810   2.383  1.00  0.00     0.297 HD
ENDBRANCH   9  11
ENDBRANCH   3   9
ENDBRANCH   1   2
BRANCH   1  13
ATOM     13  C   UNL     1      -5.560   0.285   7.550  1.00  0.00     0.230 C 
BRANCH  13  14
ATOM     14  C   UNL     1      -6.597  -0.550   8.303  1.00  0.00     0.046 C 
BRANCH  14  15
ATOM     15  C   UNL     1      -7.433  -1.350   7.301  1.00  0.00     0.043 C 
BRANCH  15  16
ATOM     16  C   UNL     1      -8.685  -1.848   7.975  1.00  0.00    -0.004 A 
ATOM     17  C   UNL     1      -8.800  -2.982   8.705  1.00  0.00     0.036 A 
ATOM     18  C   UNL     1      -9.933  -1.216   7.963  1.00  0.00     0.063 A 
ATOM     19  N   UNL     1     -10.076  -3.069   9.133  1.00  0.00    -0.282 N 
ATOM     20  N   UNL     1     -10.770  -1.951   8.651  1.00  0.00    -0.181 NA
ATOM     21  C   UNL     1      -7.699  -3.971   8.988  1.00  0.00     0.066 C 
ATOM     22  C   UNL     1     -10.261   0.080   7.267  1.00  0.00     0.069 C 
ATOM     23  H   UNL     1     -10.449  -3.780   9.677  1.00  0.00     0.190 HD
ENDBRANCH  15  16
ENDBRANCH  14  15
ENDBRANCH  13  14
ENDBRANCH   1  13
TORSDOF 7
ENDMDL
MODEL 3
REMARK VINA RESULT:    -5.351      0.072      1.770
REMARK INTER + INTRA:          -7.927
REMARK INTER:                  -7.352
REMARK INTRA:                  -0.575
REMARK UNBOUND:                -0.543
REMARK SMILES Cc1n[nH]c(C)c1CCCOc1cc(C(=O)O)ccc1F
REMARK SMILES IDX 11 1 12 2 14 3 18 4 13 5 19 6 20 7 21 8 15 9 16 10 17 11
REMARK SMILES IDX 10 13 9 14 8 15 7 16 5 17 2 18 4 19 3 20 6 21 1 22
REMARK H PARENT 17 12 4 23
ROOT
ATOM      1  O   UNL     1      -6.332  -2.589   3.826  1.00  0.00    -0.490 OA
ENDROOT
BRANCH   1   2
ATOM      2  C   UNL     1      -5.151  -1.930   3.969  1.00  0.00     0.155 A 
ATOM      3  C   UNL     1      -3.929   0.096   4.396  1.00  0.00     0.063 A 
ATOM      4  C   UNL     1      -2.728  -0.606   4.268  1.00  0.00     0.019 A 
ATOM      5  C   UNL     1      -5.144  -0.576   4.245  1.00  0.00     0.065 A 
ATOM      6  C   UNL     1      -2.745  -1.959   3.999  1.00  0.00     0.044 A 
ATOM      7  C   UNL     1      -3.952  -2.624   3.854  1.00  0.00     0.165 A 
ATOM      8  F   UNL     1      -3.962  -3.949   3.591  1.00  0.00    -0.203 F 
BRANCH   3   9
ATOM      9  C   UNL     1      -3.914   1.543   4.685  1.00  0.00     0.335 C 
ATOM     10  O   UNL     1      -4.895   2.220   4.452  1.00  0.00    -0.246 OA
BRANCH   9  11
ATOM     11  O   UNL     1      -2.813   2.113   5.213  1.00  0.00    -0.478 OA
ATOM     12  H   UNL     1      -2.187   2.516   4.595  1.00  0.00     0.297 HD
ENDBRANCH   9  11
ENDBRANCH   3   9
ENDBRANCH   1   2
BRANCH   1  13
ATOM     13  C   UNL     1      -6.675  -3.534   4.842  1.00  0.00     0.230 C 
BRANCH  13  14
ATOM     14  C   UNL     1      -7.935  -3.064   5.572  1.00  0.00     0.046 C 
BRANCH  14  15
ATOM     15  C   UNL     1      -7.542  -2.410   6.899  1.00  0.00     0.043 C 
BRANCH  15  16
ATOM     16  C   UNL     1      -8.689  -2.512   7.869  1.00  0.00    -0.004 A 
ATOM     17  C   UNL     1      -8.855  -3.473   8.809  1.00  0.00     0.036 A 
ATOM     18  C   UNL     1      -9.769  -1.628   7.963  1.00  0.00     0.063 A 
ATOM     19  N   UNL     1     -10.002  -3.209   9.469  1.00  0.00    -0.282 N 
ATOM     20  N   UNL     1     -10.560  -2.048   8.917  1.00  0.00    -0.181 NA
ATOM     21  C   UNL     1      -7.926  -4.629   9.070  1.00  0.00     0.066 C 
ATOM     22  C   UNL     1      -9.990  -0.408   7.106  1.00  0.00     0.069 C 
ATOM     23  H   UNL     1     -10.375  -3.731  10.196  1.00  0.00     0.190 HD
ENDBRANCH  15  16
ENDBRANCH  14  15
ENDBRANCH  13  14
ENDBRANCH   1  13
TORSDOF 7
ENDMDL
MODEL 4
REMARK VINA RESULT:    -5.295      2.154      3.335
REMARK INTER + INTRA:          -7.849
REMARK INTER:                  -7.235
REMARK INTRA:                  -0.614
REMARK UNBOUND:                -0.543
REMARK SMILES Cc1n[nH]c(C)c1CCCOc1cc(C(=O)O)ccc1F
REMARK SMILES IDX 11 1 12 2 14 3 18 4 13 5 19 6 20 7 21 8 15 9 16 10 17 11
REMARK SMILES IDX 10 13 9 14 8 15 7 16 5 17 2 18 4 19 3 20 6 21 1 22
REMARK H PARENT 17 12 4 23
ROOT
ATOM      1  O   UNL     1      -5.815  -0.194   6.091  1.00  0.00    -0.490 OA
ENDROOT
BRANCH   1   2
ATOM      2  C   UNL     1      -4.774  -0.558   5.296  1.00  0.00     0.155 A 
ATOM      3  C   UNL     1      -3.477  -2.264   4.204  1.00  0.00     0.063 A 
ATOM      4  C   UNL     1      -2.648  -1.280   3.660  1.00  0.00     0.019 A 
ATOM      5  C   UNL     1      -4.545  -1.894   5.026  1.00  0.00     0.065 A 
ATOM      6  C   UNL     1      -2.888   0.051   3.930  1.00  0.00     0.044 A 
ATOM      7  C   UNL     1      -3.950   0.415   4.741  1.00  0.00     0.165 A 
ATOM      8  F   UNL     1      -4.180   1.721   5.002  1.00  0.00    -0.203 F 
BRANCH   3   9
ATOM      9  C   UNL     1      -3.223  -3.689   3.917  1.00  0.00     0.335 C 
ATOM     10  O   UNL     1      -3.041  -4.470   4.829  1.00  0.00    -0.246 OA
BRANCH   9  11
ATOM     11  O   UNL     1      -3.200  -4.125   2.642  1.00  0.00    -0.478 OA
ATOM     12  H   UNL     1      -3.847  -4.802   2.397  1.00  0.00     0.297 HD
ENDBRANCH   9  11
ENDBRANCH   3   9
ENDBRANCH   1   2
BRANCH   1  13
ATOM     13  C   UNL     1      -5.558  -0.103   7.494  1.00  0.00     0.230 C 
BRANCH  13  14
ATOM     14  C   UNL     1      -6.782  -0.595   8.269  1.00  0.00     0.046 C 
BRANCH  14  15
ATOM     15  C   UNL     1      -7.584  -1.562   7.395  1.00  0.00     0.043 C 
BRANCH  15  16
ATOM     16  C   UNL     1      -8.871  -1.920   8.092  1.00  0.00    -0.004 A 
ATOM     17  C   UNL     1     -10.025  -1.214   8.045  1.00  0.00     0.036 A 
ATOM     18  C   UNL     1      -9.087  -3.044   8.896  1.00  0.00     0.063 A 
ATOM     19  N   UNL     1     -10.936  -1.865   8.799  1.00  0.00    -0.282 N 
ATOM     20  N   UNL     1     -10.322  -3.008   9.326  1.00  0.00    -0.181 NA
ATOM     21  C   UNL     1     -10.251   0.068   7.288  1.00  0.00     0.066 C 
ATOM     22  C   UNL     1      -8.068  -4.106   9.222  1.00  0.00     0.069 C 
ATOM     23  H   UNL     1     -11.854  -1.589   8.949  1.00  0.00     0.190 HD
ENDBRANCH  15  16
ENDBRANCH  14  15
ENDBRANCH  13  14
ENDBRANCH   1  13
TORSDOF 7
ENDMDL
MODEL 5
REMARK VINA RESULT:    -4.484      3.931      7.026
REMARK INTER + INTRA:          -6.730
REMARK INTER:                  -5.914
REMARK INTRA:                  -0.816
REMARK UNBOUND:                -0.543
REMARK SMILES Cc1n[nH]c(C)c1CCCOc1cc(C(=O)O)ccc1F
REMARK SMILES IDX 11 1 12 2 14 3 18 4 13 5 19 6 20 7 21 8 15 9 16 10 17 11
REMARK SMILES IDX 10 13 9 14 8 15 7 16 5 17 2 18 4 19 3 20 6 21 1 22
REMARK H PARENT 17 12 4 23
ROOT
ATOM      1  O   UNL     1      -6.946  -0.835   6.288  1.00  0.00    -0.490 OA
ENDROOT
BRANCH   1   2
ATOM      2  C   UNL     1      -7.821  -1.464   7.117  1.00  0.00     0.155 A 
ATOM      3  C   UNL     1      -8.328  -3.237   8.660  1.00  0.00     0.063 A 
ATOM      4  C   UNL     1      -9.621  -2.729   8.813  1.00  0.00     0.019 A 
ATOM      5  C   UNL     1      -7.428  -2.597   7.805  1.00  0.00     0.065 A 
ATOM      6  C   UNL     1     -10.001  -1.595   8.127  1.00  0.00     0.044 A 
ATOM      7  C   UNL     1      -9.106  -0.959   7.284  1.00  0.00     0.165 A 
ATOM      8  F   UNL     1      -9.485   0.152   6.614  1.00  0.00    -0.203 F 
BRANCH   3   9
ATOM      9  C   UNL     1      -7.917  -4.450   9.393  1.00  0.00     0.335 C 
ATOM     10  O   UNL     1      -6.765  -4.829   9.344  1.00  0.00    -0.246 OA
BRANCH   9  11
ATOM     11  O   UNL     1      -8.820  -5.134  10.124  1.00  0.00    -0.478 OA
ATOM     12  H   UNL     1      -9.311  -4.636  10.793  1.00  0.00     0.297 HD
ENDBRANCH   9  11
ENDBRANCH   3   9
ENDBRANCH   1   2
BRANCH   1  13
ATOM     13  C   UNL     1      -5.612  -0.654   6.769  1.00  0.00     0.230 C 
BRANCH  13  14
ATOM     14  C   UNL     1      -4.756  -0.022   5.670  1.00  0.00     0.046 C 
BRANCH  14  15
ATOM     15  C   UNL     1      -5.207  -0.548   4.306  1.00  0.00     0.043 C 
BRANCH  15  16
ATOM     16  C   UNL     1      -4.476  -1.827   3.992  1.00  0.00    -0.004 A 
ATOM     17  C   UNL     1      -3.152  -1.945   3.739  1.00  0.00     0.036 A 
ATOM     18  C   UNL     1      -5.044  -3.103   3.916  1.00  0.00     0.063 A 
ATOM     19  N   UNL     1      -2.893  -3.249   3.505  1.00  0.00    -0.282 N 
ATOM     20  N   UNL     1      -4.098  -3.955   3.618  1.00  0.00    -0.181 NA
ATOM     21  C   UNL     1      -2.147  -0.823   3.723  1.00  0.00     0.066 C 
ATOM     22  C   UNL     1      -6.499  -3.436   4.129  1.00  0.00     0.069 C 
ATOM     23  H   UNL     1      -2.026  -3.630   3.296  1.00  0.00     0.190 HD
ENDBRANCH  15  16
ENDBRANCH  14  15
ENDBRANCH  13  14
ENDBRANCH   1  13
TORSDOF 7
ENDMDL
MODEL 6
REMARK VINA RESULT:    -4.463      3.795      6.502
REMARK INTER + INTRA:          -6.701
REMARK INTER:                  -5.863
REMARK INTRA:                  -0.838
REMARK UNBOUND:                -0.543
REMARK SMILES Cc1n[nH]c(C)c1CCCOc1cc(C(=O)O)ccc1F
REMARK SMILES IDX 11 1 12 2 14 3 18 4 13 5 19 6 20 7 21 8 15 9 16 10 17 11
REMARK SMILES IDX 10 13 9 14 8 15 7 16 5 17 2 18 4 19 3 20 6 21 1 22
REMARK H PARENT 17 12 4 23
ROOT
ATOM      1  O   UNL     1      -6.282  -2.693   6.659  1.00  0.00    -0.490 OA
ENDROOT
BRANCH   1   2
ATOM      2  C   UNL     1      -7.467  -2.526   7.304  1.00  0.00     0.155 A 
ATOM      3  C   UNL     1      -9.542  -1.343   7.586  1.00  0.00     0.063 A 
ATOM      4  C   UNL     1      -9.889  -2.209   8.627  1.00  0.00     0.019 A 
ATOM      5  C   UNL     1      -8.323  -1.508   6.925  1.00  0.00     0.065 A 
ATOM      6  C   UNL     1      -9.032  -3.225   8.993  1.00  0.00     0.044 A 
ATOM      7  C   UNL     1      -7.826  -3.389   8.333  1.00  0.00     0.165 A 
ATOM      8  F   UNL     1      -6.990  -4.387   8.697  1.00  0.00    -0.203 F 
BRANCH   3   9
ATOM      9  C   UNL     1     -10.457  -0.255   7.192  1.00  0.00     0.335 C 
ATOM     10  O   UNL     1     -11.521  -0.120   7.760  1.00  0.00    -0.246 OA
BRANCH   9  11
ATOM     11  O   UNL     1     -10.108   0.594   6.204  1.00  0.00    -0.478 OA
ATOM     12  H   UNL     1      -9.187   0.569   5.909  1.00  0.00     0.297 HD
ENDBRANCH   9  11
ENDBRANCH   3   9
ENDBRANCH   1   2
BRANCH   1  13
ATOM     13  C   UNL     1      -6.296  -2.571   5.234  1.00  0.00     0.230 C 
BRANCH  13  14
ATOM     14  C   UNL     1      -4.862  -2.633   4.704  1.00  0.00     0.046 C 
BRANCH  14  15
ATOM     15  C   UNL     1      -3.910  -2.026   5.736  1.00  0.00     0.043 C 
BRANCH  15  16
ATOM     16  C   UNL     1      -3.748  -0.552   5.466  1.00  0.00    -0.004 A 
ATOM     17  C   UNL     1      -3.137  -0.002   4.391  1.00  0.00     0.036 A 
ATOM     18  C   UNL     1      -4.208   0.489   6.279  1.00  0.00     0.063 A 
ATOM     19  N   UNL     1      -3.203   1.340   4.523  1.00  0.00    -0.282 N 
ATOM     20  N   UNL     1      -3.876   1.623   5.718  1.00  0.00    -0.181 NA
ATOM     21  C   UNL     1      -2.499  -0.753   3.252  1.00  0.00     0.066 C 
ATOM     22  C   UNL     1      -4.948   0.332   7.583  1.00  0.00     0.069 C 
ATOM     23  H   UNL     1      -2.846   1.992   3.900  1.00  0.00     0.190 HD
ENDBRANCH  15  16
ENDBRANCH  14  15
ENDBRANCH  13  14
ENDBRANCH   1  13
TORSDOF 7
ENDMDL
MODEL 7
REMARK VINA RESULT:    -4.437      3.918      7.003
REMARK INTER + INTRA:          -6.666
REMARK INTER:                  -5.835
REMARK INTRA:                  -0.831
REMARK UNBOUND:                -0.543
REMARK SMILES Cc1n[nH]c(C)c1CCCOc1cc(C(=O)O)ccc1F
REMARK SMILES IDX 11 1 12 2 14 3 18 4 13 5 19 6 20 7 21 8 15 9 16 10 17 11
REMARK SMILES IDX 10 13 9 14 8 15 7 16 5 17 2 18 4 19 3 20 6 21 1 22
REMARK H PARENT 17 12 4 23
ROOT
ATOM      1  O   UNL     1      -6.969  -0.756   6.231  1.00  0.00    -0.490 OA
ENDROOT
BRANCH   1   2
ATOM      2  C   UNL     1      -7.831  -1.395   7.066  1.00  0.00     0.155 A 
ATOM      3  C   UNL     1      -8.309  -3.178   8.607  1.00  0.00     0.063 A 
ATOM      4  C   UNL     1      -9.604  -2.679   8.776  1.00  0.00     0.019 A 
ATOM      5  C   UNL     1      -7.423  -2.527   7.746  1.00  0.00     0.065 A 
ATOM      6  C   UNL     1     -10.000  -1.546   8.098  1.00  0.00     0.044 A 
ATOM      7  C   UNL     1      -9.118  -0.900   7.248  1.00  0.00     0.165 A 
ATOM      8  F   UNL     1      -9.512   0.211   6.587  1.00  0.00    -0.203 F 
BRANCH   3   9
ATOM      9  C   UNL     1      -7.882  -4.390   9.332  1.00  0.00     0.335 C 
ATOM     10  O   UNL     1      -8.007  -5.482   8.816  1.00  0.00    -0.246 OA
BRANCH   9  11
ATOM     11  O   UNL     1      -7.347  -4.285  10.564  1.00  0.00    -0.478 OA
ATOM     12  H   UNL     1      -7.937  -4.443  11.315  1.00  0.00     0.297 HD
ENDBRANCH   9  11
ENDBRANCH   3   9
ENDBRANCH   1   2
BRANCH   1  13
ATOM     13  C   UNL     1      -5.645  -0.526   6.718  1.00  0.00     0.230 C 
BRANCH  13  14
ATOM     14  C   UNL     1      -4.776   0.030   5.588  1.00  0.00     0.046 C 
BRANCH  14  15
ATOM     15  C   UNL     1      -5.225  -0.575   4.256  1.00  0.00     0.043 C 
BRANCH  15  16
ATOM     16  C   UNL     1      -4.470  -1.854   4.004  1.00  0.00    -0.004 A 
ATOM     17  C   UNL     1      -5.000  -3.098   3.968  1.00  0.00     0.036 A 
ATOM     18  C   UNL     1      -3.097  -1.965   3.760  1.00  0.00     0.063 A 
ATOM     19  N   UNL     1      -3.998  -3.966   3.716  1.00  0.00    -0.282 N 
ATOM     20  N   UNL     1      -2.812  -3.231   3.594  1.00  0.00    -0.181 NA
ATOM     21  C   UNL     1      -6.451  -3.451   4.171  1.00  0.00     0.066 C 
ATOM     22  C   UNL     1      -2.113  -0.824   3.709  1.00  0.00     0.069 C 
ATOM     23  H   UNL     1      -4.083  -4.929   3.635  1.00  0.00     0.190 HD
ENDBRANCH  15  16
ENDBRANCH  14  15
ENDBRANCH  13  14
ENDBRANCH   1  13
TORSDOF 7
ENDMDL
MODEL 8
REMARK VINA RESULT:    -4.436      4.721      8.111
REMARK INTER + INTRA:          -6.664
REMARK INTER:                  -5.987
REMARK INTRA:                  -0.677
REMARK UNBOUND:                -0.543
REMARK SMILES Cc1n[nH]c(C)c1CCCOc1cc(C(=O)O)ccc1F
REMARK SMILES IDX 11 1 12 2 14 3 18 4 13 5 19 6 20 7 21 8 15 9 16 10 17 11
REMARK SMILES IDX 10 13 9 14 8 15 7 16 5 17 2 18 4 19 3 20 6 21 1 22
REMARK H PARENT 17 12 4 23
ROOT
ATOM      1  O   UNL     1      -8.142  -3.805   8.372  1.00  0.00    -0.490 OA
ENDROOT
BRANCH   1   2
ATOM      2  C   UNL     1      -8.593  -4.387   9.516  1.00  0.00     0.155 A 
ATOM      3  C   UNL     1     -10.410  -5.130  10.904  1.00  0.00     0.063 A 
ATOM      4  C   UNL     1      -9.493  -5.587  11.854  1.00  0.00     0.019 A 
ATOM      5  C   UNL     1      -9.951  -4.528   9.730  1.00  0.00     0.065 A 
ATOM      6  C   UNL     1      -8.140  -5.447  11.628  1.00  0.00     0.044 A 
ATOM      7  C   UNL     1      -7.687  -4.853  10.462  1.00  0.00     0.165 A 
ATOM      8  F   UNL     1      -6.359  -4.719  10.246  1.00  0.00    -0.203 F 
BRANCH   3   9
ATOM      9  C   UNL     1     -11.859  -5.279  11.142  1.00  0.00     0.335 C 
ATOM     10  O   UNL     1     -12.259  -5.706  12.205  1.00  0.00    -0.246 OA
BRANCH   9  11
ATOM     11  O   UNL     1     -12.738  -4.934  10.181  1.00  0.00    -0.478 OA
ATOM     12  H   UNL     1     -12.739  -5.468   9.374  1.00  0.00     0.297 HD
ENDBRANCH   9  11
ENDBRANCH   3   9
ENDBRANCH   1   2
BRANCH   1  13
ATOM     13  C   UNL     1      -8.404  -2.409   8.208  1.00  0.00     0.230 C 
BRANCH  13  14
ATOM     14  C   UNL     1      -7.765  -1.922   6.906  1.00  0.00     0.046 C 
BRANCH  14  15
ATOM     15  C   UNL     1      -6.312  -2.397   6.842  1.00  0.00     0.043 C 
BRANCH  15  16
ATOM     16  C   UNL     1      -5.575  -1.619   5.783  1.00  0.00    -0.004 A 
ATOM     17  C   UNL     1      -5.529  -1.917   4.463  1.00  0.00     0.036 A 
ATOM     18  C   UNL     1      -4.823  -0.457   5.988  1.00  0.00     0.063 A 
ATOM     19  N   UNL     1      -4.769  -0.982   3.856  1.00  0.00    -0.282 N 
ATOM     20  N   UNL     1      -4.334  -0.078   4.835  1.00  0.00    -0.181 NA
ATOM     21  C   UNL     1      -6.204  -3.085   3.792  1.00  0.00     0.066 C 
ATOM     22  C   UNL     1      -4.604   0.232   7.310  1.00  0.00     0.069 C 
ATOM     23  H   UNL     1      -4.560  -0.942   2.910  1.00  0.00     0.190 HD
ENDBRANCH  15  16
ENDBRANCH  14  15
ENDBRANCH  13  14
ENDBRANCH   1  13
TORSDOF 7
ENDMDL
MODEL 9
REMARK VINA RESULT:    -4.224      3.927      6.913
REMARK INTER + INTRA:          -6.371
REMARK INTER:                  -5.572
REMARK INTRA:                  -0.799
REMARK UNBOUND:                -0.543
REMARK SMILES Cc1n[nH]c(C)c1CCCOc1cc(C(=O)O)ccc1F
REMARK SMILES IDX 11 1 12 2 14 3 18 4 13 5 19 6 20 7 21 8 15 9 16 10 17 11
REMARK SMILES IDX 10 13 9 14 8 15 7 16 5 17 2 18 4 19 3 20 6 21 1 22
REMARK H PARENT 17 12 4 23
ROOT
ATOM      1  O   UNL     1      -6.936  -1.858   5.678  1.00  0.00    -0.490 OA
ENDROOT
BRANCH   1   2
ATOM      2  C   UNL     1      -7.714  -2.171   6.748  1.00  0.00     0.155 A 
ATOM      3  C   UNL     1      -8.183  -3.562   8.653  1.00  0.00     0.063 A 
ATOM      4  C   UNL     1      -9.310  -2.786   8.937  1.00  0.00     0.019 A 
ATOM      5  C   UNL     1      -7.385  -3.247   7.551  1.00  0.00     0.065 A 
ATOM      6  C   UNL     1      -9.627  -1.710   8.134  1.00  0.00     0.044 A 
ATOM      7  C   UNL     1      -8.831  -1.397   7.045  1.00  0.00     0.165 A 
ATOM      8  F   UNL     1      -9.146  -0.342   6.262  1.00  0.00    -0.203 F 
BRANCH   3   9
ATOM      9  C   UNL     1      -7.841  -4.713   9.510  1.00  0.00     0.335 C 
ATOM     10  O   UNL     1      -6.757  -5.248   9.405  1.00  0.00    -0.246 OA
BRANCH   9  11
ATOM     11  O   UNL     1      -8.731  -5.167  10.415  1.00  0.00    -0.478 OA
ATOM     12  H   UNL     1      -9.283  -4.506  10.857  1.00  0.00     0.297 HD
ENDBRANCH   9  11
ENDBRANCH   3   9
ENDBRANCH   1   2
BRANCH   1  13
ATOM     13  C   UNL     1      -6.323  -2.946   4.982  1.00  0.00     0.230 C 
BRANCH  13  14
ATOM     14  C   UNL     1      -4.985  -2.488   4.398  1.00  0.00     0.046 C 
BRANCH  14  15
ATOM     15  C   UNL     1      -4.074  -2.005   5.528  1.00  0.00     0.043 C 
BRANCH  15  16
ATOM     16  C   UNL     1      -3.829  -0.526   5.379  1.00  0.00    -0.004 A 
ATOM     17  C   UNL     1      -3.170   0.074   4.360  1.00  0.00     0.036 A 
ATOM     18  C   UNL     1      -4.247   0.472   6.267  1.00  0.00     0.063 A 
ATOM     19  N   UNL     1      -3.166   1.402   4.598  1.00  0.00    -0.282 N 
ATOM     20  N   UNL     1      -3.844   1.627   5.803  1.00  0.00    -0.181 NA
ATOM     21  C   UNL     1      -2.553  -0.618   3.173  1.00  0.00     0.066 C 
ATOM     22  C   UNL     1      -5.017   0.252   7.544  1.00  0.00     0.069 C 
ATOM     23  H   UNL     1      -2.764   2.081   4.034  1.00  0.00     0.190 HD
ENDBRANCH  15  16
ENDBRANCH  14  15
ENDBRANCH  13  14
ENDBRANCH   1  13
TORSDOF 7
ENDMDL
