MODEL 1
REMARK VINA RESULT:    -4.001      0.000      0.000
REMARK INTER + INTRA:          -4.868
REMARK INTER:                  -4.585
REMARK INTRA:                  -0.283
REMARK UNBOUND:                -0.283
REMARK SMILES O=C(O)c1ccc2nc(-c3cc(Cl)cc(Cl)c3)oc2c1
REMARK SMILES IDX 5 1 6 2 20 3 8 4 18 5 4 6 9 7 7 8 19 9 2 10 1 11 3 12 10 14
REMARK SMILES IDX 11 15 17 16 12 17 15 18 14 19 13 20 16 21
REMARK H PARENT 3 13
ROOT
ATOM      1  C   UNL     1     -10.068  -6.592  13.064  1.00  0.00     0.018 A 
ATOM      2  C   UNL     1     -10.513  -5.896  11.981  1.00  0.00     0.033 A 
ATOM      3  C   UNL     1      -7.801  -5.842  12.645  1.00  0.00     0.065 A 
ATOM      4  N   UNL     1      -9.750  -4.391  10.101  1.00  0.00    -0.209 NA
ATOM      5  O   UNL     1      -7.638  -4.358  10.622  1.00  0.00    -0.436 OA
ATOM      6  C   UNL     1      -8.710  -6.573  13.411  1.00  0.00     0.063 A 
ATOM      7  C   UNL     1      -8.576  -3.918   9.762  1.00  0.00     0.227 A 
ATOM      8  C   UNL     1      -9.612  -5.159  11.203  1.00  0.00     0.110 A 
ATOM      9  C   UNL     1      -8.248  -5.139  11.541  1.00  0.00     0.156 A 
ENDROOT
BRANCH   6  10
ATOM     10  C   UNL     1      -8.241  -7.325  14.590  1.00  0.00     0.335 C 
ATOM     11  O   UNL     1      -8.231  -6.795  15.683  1.00  0.00    -0.246 OA
BRANCH  10  12
ATOM     12  O   UNL     1      -7.824  -8.599  14.454  1.00  0.00    -0.478 OA
ATOM     13  H   UNL     1      -7.486  -8.861  13.588  1.00  0.00     0.297 HD
ENDBRANCH  10  12
ENDBRANCH   6  10
BRANCH   7  14
ATOM     14  C   UNL     1      -8.320  -3.034   8.606  1.00  0.00     0.040 A 
ATOM     15  C   UNL     1      -9.265  -2.078   8.233  1.00  0.00     0.034 A 
ATOM     16  C   UNL     1      -7.132  -3.154   7.883  1.00  0.00     0.034 A 
ATOM     17  C   UNL     1      -9.019  -1.254   7.152  1.00  0.00     0.043 A 
ATOM     18  C   UNL     1      -6.898  -2.325   6.804  1.00  0.00     0.043 A 
ATOM     19  C   UNL     1      -7.839  -1.377   6.439  1.00  0.00     0.041 A 
ATOM     20  Cl  UNL     1     -10.192  -0.063   6.686  1.00  0.00    -0.084 Cl
ATOM     21  Cl  UNL     1      -5.421  -2.471   5.903  1.00  0.00    -0.084 Cl
ENDBRANCH   7  14
TORSDOF 3
ENDMDL
MODEL 2
REMARK VINA RESULT:    -3.998      0.012      2.019
REMARK INTER + INTRA:          -4.865
REMARK INTER:                  -4.582
REMARK INTRA:                  -0.283
REMARK UNBOUND:                -0.283
REMARK SMILES O=C(O)c1ccc2nc(-c3cc(Cl)cc(Cl)c3)oc2c1
REMARK SMILES IDX 5 1 6 2 20 3 8 4 18 5 4 6 9 7 7 8 19 9 2 10 1 11 3 12 10 14
REMARK SMILES IDX 11 15 17 16 12 17 15 18 14 19 13 20 16 21
REMARK H PARENT 3 13
ROOT
ATOM      1  C   UNL     1     -10.061  -6.592  13.059  1.00  0.00     0.018 A 
ATOM      2  C   UNL     1     -10.507  -5.898  11.974  1.00  0.00     0.033 A 
ATOM      3  C   UNL     1      -7.795  -5.835  12.643  1.00  0.00     0.065 A 
ATOM      4  N   UNL     1      -9.744  -4.392  10.094  1.00  0.00    -0.209 NA
ATOM      5  O   UNL     1      -7.633  -4.352  10.619  1.00  0.00    -0.436 OA
ATOM      6  C   UNL     1      -8.704  -6.568  13.408  1.00  0.00     0.063 A 
ATOM      7  C   UNL     1      -8.572  -3.916   9.757  1.00  0.00     0.227 A 
ATOM      8  C   UNL     1      -9.606  -5.159  11.197  1.00  0.00     0.110 A 
ATOM      9  C   UNL     1      -8.242  -5.134  11.538  1.00  0.00     0.156 A 
ENDROOT
BRANCH   6  10
ATOM     10  C   UNL     1      -8.235  -7.317  14.588  1.00  0.00     0.335 C 
ATOM     11  O   UNL     1      -8.205  -6.779  15.677  1.00  0.00    -0.246 OA
BRANCH  10  12
ATOM     12  O   UNL     1      -7.838  -8.599  14.459  1.00  0.00    -0.478 OA
ATOM     13  H   UNL     1      -8.479  -9.222  14.092  1.00  0.00     0.297 HD
ENDBRANCH  10  12
ENDBRANCH   6  10
BRANCH   7  14
ATOM     14  C   UNL     1      -8.317  -3.032   8.601  1.00  0.00     0.040 A 
ATOM     15  C   UNL     1      -7.132  -3.154   7.873  1.00  0.00     0.034 A 
ATOM     16  C   UNL     1      -9.260  -2.071   8.233  1.00  0.00     0.034 A 
ATOM     17  C   UNL     1      -6.900  -2.326   6.793  1.00  0.00     0.043 A 
ATOM     18  C   UNL     1      -9.017  -1.248   7.151  1.00  0.00     0.043 A 
ATOM     19  C   UNL     1      -7.840  -1.374   6.433  1.00  0.00     0.041 A 
ATOM     20  Cl  UNL     1      -5.428  -2.476   5.886  1.00  0.00    -0.084 Cl
ATOM     21  Cl  UNL     1     -10.189  -0.052   6.692  1.00  0.00    -0.084 Cl
ENDBRANCH   7  14
TORSDOF 3
ENDMDL
MODEL 3
REMARK VINA RESULT:    -3.783      5.068      6.640
REMARK INTER + INTRA:          -4.619
REMARK INTER:                  -4.323
REMARK INTRA:                  -0.296
REMARK UNBOUND:                -0.283
REMARK SMILES O=C(O)c1ccc2nc(-c3cc(Cl)cc(Cl)c3)oc2c1
REMARK SMILES IDX 5 1 6 2 20 3 8 4 18 5 4 6 9 7 7 8 19 9 2 10 1 11 3 12 10 14
REMARK SMILES IDX 11 15 17 16 12 17 15 18 14 19 13 20 16 21
REMARK H PARENT 3 13
ROOT
ATOM      1  C   UNL     1     -10.013  -2.509   8.957  1.00  0.00     0.018 A 
ATOM      2  C   UNL     1      -8.807  -3.005   8.562  1.00  0.00     0.033 A 
ATOM      3  C   UNL     1      -9.755  -0.622   7.456  1.00  0.00     0.065 A 
ATOM      4  N   UNL     1      -6.848  -2.556   7.031  1.00  0.00    -0.209 NA
ATOM      5  O   UNL     1      -7.591  -0.698   6.178  1.00  0.00    -0.436 OA
ATOM      6  C   UNL     1     -10.503  -1.315   8.410  1.00  0.00     0.063 A 
ATOM      7  C   UNL     1      -6.584  -1.591   6.185  1.00  0.00     0.227 A 
ATOM      8  C   UNL     1      -8.047  -2.320   7.606  1.00  0.00     0.110 A 
ATOM      9  C   UNL     1      -8.529  -1.119   7.056  1.00  0.00     0.156 A 
ENDROOT
BRANCH   6  10
ATOM     10  C   UNL     1     -11.812  -0.791   8.841  1.00  0.00     0.335 C 
ATOM     11  O   UNL     1     -12.194   0.291   8.442  1.00  0.00    -0.246 OA
BRANCH  10  12
ATOM     12  O   UNL     1     -12.584  -1.511   9.678  1.00  0.00    -0.478 OA
ATOM     13  H   UNL     1     -13.175  -1.019  10.263  1.00  0.00     0.297 HD
ENDBRANCH  10  12
ENDBRANCH   6  10
BRANCH   7  14
ATOM     14  C   UNL     1      -5.361  -1.497   5.362  1.00  0.00     0.040 A 
ATOM     15  C   UNL     1      -4.684  -2.655   4.977  1.00  0.00     0.034 A 
ATOM     16  C   UNL     1      -4.877  -0.248   4.966  1.00  0.00     0.034 A 
ATOM     17  C   UNL     1      -3.542  -2.560   4.206  1.00  0.00     0.043 A 
ATOM     18  C   UNL     1      -3.734  -0.167   4.196  1.00  0.00     0.043 A 
ATOM     19  C   UNL     1      -3.068  -1.319   3.818  1.00  0.00     0.041 A 
ATOM     20  Cl  UNL     1      -2.699  -4.000   3.726  1.00  0.00    -0.084 Cl
ATOM     21  Cl  UNL     1      -3.131   1.385   3.703  1.00  0.00    -0.084 Cl
ENDBRANCH   7  14
TORSDOF 3
ENDMDL
MODEL 4
REMARK VINA RESULT:    -3.781      5.068      6.478
REMARK INTER + INTRA:          -4.616
REMARK INTER:                  -4.320
REMARK INTRA:                  -0.296
REMARK UNBOUND:                -0.283
REMARK SMILES O=C(O)c1ccc2nc(-c3cc(Cl)cc(Cl)c3)oc2c1
REMARK SMILES IDX 5 1 6 2 20 3 8 4 18 5 4 6 9 7 7 8 19 9 2 10 1 11 3 12 10 14
REMARK SMILES IDX 11 15 17 16 12 17 15 18 14 19 13 20 16 21
REMARK H PARENT 3 13
ROOT
ATOM      1  C   UNL     1     -10.013  -2.510   8.959  1.00  0.00     0.018 A 
ATOM      2  C   UNL     1      -8.807  -3.006   8.562  1.00  0.00     0.033 A 
ATOM      3  C   UNL     1      -9.755  -0.621   7.459  1.00  0.00     0.065 A 
ATOM      4  N   UNL     1      -6.849  -2.557   7.030  1.00  0.00    -0.209 NA
ATOM      5  O   UNL     1      -7.592  -0.697   6.180  1.00  0.00    -0.436 OA
ATOM      6  C   UNL     1     -10.502  -1.315   8.413  1.00  0.00     0.063 A 
ATOM      7  C   UNL     1      -6.585  -1.591   6.185  1.00  0.00     0.227 A 
ATOM      8  C   UNL     1      -8.047  -2.321   7.606  1.00  0.00     0.110 A 
ATOM      9  C   UNL     1      -8.529  -1.119   7.058  1.00  0.00     0.156 A 
ENDROOT
BRANCH   6  10
ATOM     10  C   UNL     1     -11.810  -0.790   8.845  1.00  0.00     0.335 C 
ATOM     11  O   UNL     1     -12.186   0.298   8.458  1.00  0.00    -0.246 OA
BRANCH  10  12
ATOM     12  O   UNL     1     -12.589  -1.517   9.671  1.00  0.00    -0.478 OA
ATOM     13  H   UNL     1     -13.201  -1.031  10.238  1.00  0.00     0.297 HD
ENDBRANCH  10  12
ENDBRANCH   6  10
BRANCH   7  14
ATOM     14  C   UNL     1      -5.363  -1.498   5.361  1.00  0.00     0.040 A 
ATOM     15  C   UNL     1      -4.879  -0.251   4.964  1.00  0.00     0.034 A 
ATOM     16  C   UNL     1      -4.688  -2.657   4.975  1.00  0.00     0.034 A 
ATOM     17  C   UNL     1      -3.735  -0.170   4.194  1.00  0.00     0.043 A 
ATOM     18  C   UNL     1      -3.545  -2.564   4.206  1.00  0.00     0.043 A 
ATOM     19  C   UNL     1      -3.070  -1.323   3.815  1.00  0.00     0.041 A 
ATOM     20  Cl  UNL     1      -3.130   1.381   3.700  1.00  0.00    -0.084 Cl
ATOM     21  Cl  UNL     1      -2.704  -4.005   3.725  1.00  0.00    -0.084 Cl
ENDBRANCH   7  14
TORSDOF 3
ENDMDL
MODEL 5
REMARK VINA RESULT:    -3.771      3.278      5.034
REMARK INTER + INTRA:          -4.605
REMARK INTER:                  -4.320
REMARK INTRA:                  -0.285
REMARK UNBOUND:                -0.283
REMARK SMILES O=C(O)c1ccc2nc(-c3cc(Cl)cc(Cl)c3)oc2c1
REMARK SMILES IDX 5 1 6 2 20 3 8 4 18 5 4 6 9 7 7 8 19 9 2 10 1 11 3 12 10 14
REMARK SMILES IDX 11 15 17 16 12 17 15 18 14 19 13 20 16 21
REMARK H PARENT 3 13
ROOT
ATOM      1  C   UNL     1      -9.919  -2.859   9.024  1.00  0.00     0.018 A 
ATOM      2  C   UNL     1      -9.416  -1.939   8.154  1.00  0.00     0.033 A 
ATOM      3  C   UNL     1      -7.847  -4.116   8.929  1.00  0.00     0.065 A 
ATOM      4  N   UNL     1      -7.364  -1.360   6.797  1.00  0.00    -0.209 NA
ATOM      5  O   UNL     1      -6.151  -3.061   7.402  1.00  0.00    -0.436 OA
ATOM      6  C   UNL     1      -9.143  -3.956   9.424  1.00  0.00     0.063 A 
ATOM      7  C   UNL     1      -6.200  -1.943   6.655  1.00  0.00     0.227 A 
ATOM      8  C   UNL     1      -8.117  -2.087   7.650  1.00  0.00     0.110 A 
ATOM      9  C   UNL     1      -7.335  -3.187   8.043  1.00  0.00     0.156 A 
ENDROOT
BRANCH   6  10
ATOM     10  C   UNL     1      -9.696  -4.942  10.370  1.00  0.00     0.335 C 
ATOM     11  O   UNL     1     -10.486  -5.779   9.982  1.00  0.00    -0.246 OA
BRANCH  10  12
ATOM     12  O   UNL     1      -9.326  -4.914  11.666  1.00  0.00    -0.478 OA
ATOM     13  H   UNL     1      -9.391  -5.743  12.159  1.00  0.00     0.297 HD
ENDBRANCH  10  12
ENDBRANCH   6  10
BRANCH   7  14
ATOM     14  C   UNL     1      -5.103  -1.445   5.799  1.00  0.00     0.040 A 
ATOM     15  C   UNL     1      -4.944  -0.075   5.589  1.00  0.00     0.034 A 
ATOM     16  C   UNL     1      -4.221  -2.345   5.197  1.00  0.00     0.034 A 
ATOM     17  C   UNL     1      -3.916   0.383   4.789  1.00  0.00     0.043 A 
ATOM     18  C   UNL     1      -3.197  -1.875   4.400  1.00  0.00     0.043 A 
ATOM     19  C   UNL     1      -3.045  -0.514   4.195  1.00  0.00     0.041 A 
ATOM     20  Cl  UNL     1      -3.716   2.088   4.526  1.00  0.00    -0.084 Cl
ATOM     21  Cl  UNL     1      -2.099  -2.992   3.651  1.00  0.00    -0.084 Cl
ENDBRANCH   7  14
TORSDOF 3
ENDMDL
MODEL 6
REMARK VINA RESULT:    -3.762      3.275      5.309
REMARK INTER + INTRA:          -4.594
REMARK INTER:                  -4.310
REMARK INTRA:                  -0.285
REMARK UNBOUND:                -0.283
REMARK SMILES O=C(O)c1ccc2nc(-c3cc(Cl)cc(Cl)c3)oc2c1
REMARK SMILES IDX 5 1 6 2 20 3 8 4 18 5 4 6 9 7 7 8 19 9 2 10 1 11 3 12 10 14
REMARK SMILES IDX 11 15 17 16 12 17 15 18 14 19 13 20 16 21
REMARK H PARENT 3 13
ROOT
ATOM      1  C   UNL     1      -9.926  -2.861   9.022  1.00  0.00     0.018 A 
ATOM      2  C   UNL     1      -9.422  -1.942   8.150  1.00  0.00     0.033 A 
ATOM      3  C   UNL     1      -7.853  -4.117   8.933  1.00  0.00     0.065 A 
ATOM      4  N   UNL     1      -7.370  -1.365   6.795  1.00  0.00    -0.209 NA
ATOM      5  O   UNL     1      -6.156  -3.064   7.406  1.00  0.00    -0.436 OA
ATOM      6  C   UNL     1      -9.150  -3.957   9.425  1.00  0.00     0.063 A 
ATOM      7  C   UNL     1      -6.205  -1.947   6.656  1.00  0.00     0.227 A 
ATOM      8  C   UNL     1      -8.124  -2.091   7.649  1.00  0.00     0.110 A 
ATOM      9  C   UNL     1      -7.341  -3.189   8.045  1.00  0.00     0.156 A 
ENDROOT
BRANCH   6  10
ATOM     10  C   UNL     1      -9.703  -4.941  10.373  1.00  0.00     0.335 C 
ATOM     11  O   UNL     1     -10.522  -5.754   9.994  1.00  0.00    -0.246 OA
BRANCH  10  12
ATOM     12  O   UNL     1      -9.302  -4.938  11.659  1.00  0.00    -0.478 OA
ATOM     13  H   UNL     1      -8.905  -5.752  11.997  1.00  0.00     0.297 HD
ENDBRANCH  10  12
ENDBRANCH   6  10
BRANCH   7  14
ATOM     14  C   UNL     1      -5.107  -1.451   5.800  1.00  0.00     0.040 A 
ATOM     15  C   UNL     1      -4.228  -2.350   5.196  1.00  0.00     0.034 A 
ATOM     16  C   UNL     1      -4.945  -0.079   5.595  1.00  0.00     0.034 A 
ATOM     17  C   UNL     1      -3.205  -1.880   4.397  1.00  0.00     0.043 A 
ATOM     18  C   UNL     1      -3.918   0.379   4.794  1.00  0.00     0.043 A 
ATOM     19  C   UNL     1      -3.049  -0.518   4.197  1.00  0.00     0.041 A 
ATOM     20  Cl  UNL     1      -2.111  -2.996   3.642  1.00  0.00    -0.084 Cl
ATOM     21  Cl  UNL     1      -3.714   2.084   4.538  1.00  0.00    -0.084 Cl
ENDBRANCH   7  14
TORSDOF 3
ENDMDL
MODEL 7
REMARK VINA RESULT:    -3.609      4.936      8.706
REMARK INTER + INTRA:          -4.420
REMARK INTER:                  -4.122
REMARK INTRA:                  -0.298
REMARK UNBOUND:                -0.283
REMARK SMILES O=C(O)c1ccc2nc(-c3cc(Cl)cc(Cl)c3)oc2c1
REMARK SMILES IDX 5 1 6 2 20 3 8 4 18 5 4 6 9 7 7 8 19 9 2 10 1 11 3 12 10 14
REMARK SMILES IDX 11 15 17 16 12 17 15 18 14 19 13 20 16 21
REMARK H PARENT 3 13
ROOT
ATOM      1  C   UNL     1      -3.586   0.038   3.961  1.00  0.00     0.018 A 
ATOM      2  C   UNL     1      -4.796   0.361   4.500  1.00  0.00     0.033 A 
ATOM      3  C   UNL     1      -3.655  -2.129   5.046  1.00  0.00     0.065 A 
ATOM      4  N   UNL     1      -6.639  -0.521   5.986  1.00  0.00    -0.209 NA
ATOM      5  O   UNL     1      -5.741  -2.456   6.410  1.00  0.00    -0.436 OA
ATOM      6  C   UNL     1      -3.002  -1.208   4.225  1.00  0.00     0.063 A 
ATOM      7  C   UNL     1      -6.799  -1.652   6.626  1.00  0.00     0.227 A 
ATOM      8  C   UNL     1      -5.462  -0.553   5.325  1.00  0.00     0.110 A 
ATOM      9  C   UNL     1      -4.880  -1.804   5.598  1.00  0.00     0.156 A 
ENDROOT
BRANCH   6  10
ATOM     10  C   UNL     1      -1.696  -1.549   3.632  1.00  0.00     0.335 C 
ATOM     11  O   UNL     1      -1.092  -0.722   2.978  1.00  0.00    -0.246 OA
BRANCH  10  12
ATOM     12  O   UNL     1      -1.173  -2.777   3.813  1.00  0.00    -0.478 OA
ATOM     13  H   UNL     1      -1.795  -3.511   3.901  1.00  0.00     0.297 HD
ENDBRANCH  10  12
ENDBRANCH   6  10
BRANCH   7  14
ATOM     14  C   UNL     1      -7.968  -1.993   7.463  1.00  0.00     0.040 A 
ATOM     15  C   UNL     1      -7.957  -3.149   8.245  1.00  0.00     0.034 A 
ATOM     16  C   UNL     1      -9.088  -1.160   7.475  1.00  0.00     0.034 A 
ATOM     17  C   UNL     1      -9.052  -3.462   9.026  1.00  0.00     0.043 A 
ATOM     18  C   UNL     1     -10.177  -1.483   8.260  1.00  0.00     0.043 A 
ATOM     19  C   UNL     1     -10.160  -2.632   9.033  1.00  0.00     0.041 A 
ATOM     20  Cl  UNL     1      -9.040  -4.899   9.999  1.00  0.00    -0.084 Cl
ATOM     21  Cl  UNL     1     -11.571  -0.449   8.276  1.00  0.00    -0.084 Cl
ENDBRANCH   7  14
TORSDOF 3
ENDMDL
MODEL 8
REMARK VINA RESULT:    -3.602      4.933      8.531
REMARK INTER + INTRA:          -4.412
REMARK INTER:                  -4.114
REMARK INTRA:                  -0.298
REMARK UNBOUND:                -0.283
REMARK SMILES O=C(O)c1ccc2nc(-c3cc(Cl)cc(Cl)c3)oc2c1
REMARK SMILES IDX 5 1 6 2 20 3 8 4 18 5 4 6 9 7 7 8 19 9 2 10 1 11 3 12 10 14
REMARK SMILES IDX 11 15 17 16 12 17 15 18 14 19 13 20 16 21
REMARK H PARENT 3 13
ROOT
ATOM      1  C   UNL     1      -3.580   0.036   3.966  1.00  0.00     0.018 A 
ATOM      2  C   UNL     1      -4.789   0.359   4.505  1.00  0.00     0.033 A 
ATOM      3  C   UNL     1      -3.650  -2.133   5.049  1.00  0.00     0.065 A 
ATOM      4  N   UNL     1      -6.632  -0.522   5.991  1.00  0.00    -0.209 NA
ATOM      5  O   UNL     1      -5.736  -2.459   6.414  1.00  0.00    -0.436 OA
ATOM      6  C   UNL     1      -2.997  -1.212   4.228  1.00  0.00     0.063 A 
ATOM      7  C   UNL     1      -6.792  -1.654   6.631  1.00  0.00     0.227 A 
ATOM      8  C   UNL     1      -5.455  -0.555   5.330  1.00  0.00     0.110 A 
ATOM      9  C   UNL     1      -4.874  -1.807   5.602  1.00  0.00     0.156 A 
ENDROOT
BRANCH   6  10
ATOM     10  C   UNL     1      -1.691  -1.553   3.634  1.00  0.00     0.335 C 
ATOM     11  O   UNL     1      -1.087  -0.726   2.980  1.00  0.00    -0.246 OA
BRANCH  10  12
ATOM     12  O   UNL     1      -1.168  -2.782   3.815  1.00  0.00    -0.478 OA
ATOM     13  H   UNL     1      -0.971  -3.296   3.021  1.00  0.00     0.297 HD
ENDBRANCH  10  12
ENDBRANCH   6  10
BRANCH   7  14
ATOM     14  C   UNL     1      -7.961  -1.995   7.469  1.00  0.00     0.040 A 
ATOM     15  C   UNL     1      -9.082  -1.164   7.480  1.00  0.00     0.034 A 
ATOM     16  C   UNL     1      -7.947  -3.150   8.253  1.00  0.00     0.034 A 
ATOM     17  C   UNL     1     -10.171  -1.489   8.264  1.00  0.00     0.043 A 
ATOM     18  C   UNL     1      -9.042  -3.464   9.033  1.00  0.00     0.043 A 
ATOM     19  C   UNL     1     -10.151  -2.636   9.040  1.00  0.00     0.041 A 
ATOM     20  Cl  UNL     1     -11.567  -0.457   8.280  1.00  0.00    -0.084 Cl
ATOM     21  Cl  UNL     1      -9.027  -4.900  10.009  1.00  0.00    -0.084 Cl
ENDBRANCH   7  14
TORSDOF 3
ENDMDL
MODEL 9
REMARK VINA RESULT:    -3.513      3.980      8.011
REMARK INTER + INTRA:          -4.309
REMARK INTER:                  -4.021
REMARK INTRA:                  -0.288
REMARK UNBOUND:                -0.283
REMARK SMILES O=C(O)c1ccc2nc(-c3cc(Cl)cc(Cl)c3)oc2c1
REMARK SMILES IDX 5 1 6 2 20 3 8 4 18 5 4 6 9 7 7 8 19 9 2 10 1 11 3 12 10 14
REMARK SMILES IDX 11 15 17 16 12 17 15 18 14 19 13 20 16 21
REMARK H PARENT 3 13
ROOT
ATOM      1  C   UNL     1      -6.073  -1.810   4.699  1.00  0.00     0.018 A 
ATOM      2  C   UNL     1      -6.794  -2.875   5.152  1.00  0.00     0.033 A 
ATOM      3  C   UNL     1      -6.047  -0.850   6.926  1.00  0.00     0.065 A 
ATOM      4  N   UNL     1      -7.852  -3.854   7.227  1.00  0.00    -0.209 NA
ATOM      5  O   UNL     1      -7.271  -2.271   8.600  1.00  0.00    -0.436 OA
ATOM      6  C   UNL     1      -5.689  -0.787   5.578  1.00  0.00     0.063 A 
ATOM      7  C   UNL     1      -7.914  -3.446   8.470  1.00  0.00     0.227 A 
ATOM      8  C   UNL     1      -7.159  -2.950   6.502  1.00  0.00     0.110 A 
ATOM      9  C   UNL     1      -6.782  -1.926   7.389  1.00  0.00     0.156 A 
ENDROOT
BRANCH   6  10
ATOM     10  C   UNL     1      -4.905   0.356   5.077  1.00  0.00     0.335 C 
ATOM     11  O   UNL     1      -4.830   0.565   3.883  1.00  0.00    -0.246 OA
BRANCH  10  12
ATOM     12  O   UNL     1      -4.270   1.169   5.944  1.00  0.00    -0.478 OA
ATOM     13  H   UNL     1      -4.542   2.097   5.956  1.00  0.00     0.297 HD
ENDBRANCH  10  12
ENDBRANCH   6  10
BRANCH   7  14
ATOM     14  C   UNL     1      -8.592  -4.169   9.566  1.00  0.00     0.040 A 
ATOM     15  C   UNL     1      -7.848  -4.699  10.621  1.00  0.00     0.034 A 
ATOM     16  C   UNL     1      -9.979  -4.326   9.549  1.00  0.00     0.034 A 
ATOM     17  C   UNL     1      -8.487  -5.372  11.643  1.00  0.00     0.043 A 
ATOM     18  C   UNL     1     -10.607  -5.001  10.576  1.00  0.00     0.043 A 
ATOM     19  C   UNL     1      -9.864  -5.524  11.620  1.00  0.00     0.041 A 
ATOM     20  Cl  UNL     1      -7.565  -6.031  12.957  1.00  0.00    -0.084 Cl
ATOM     21  Cl  UNL     1     -12.332  -5.197  10.557  1.00  0.00    -0.084 Cl
ENDBRANCH   7  14
TORSDOF 3
ENDMDL
