MODEL 1
REMARK VINA RESULT:    -4.318      0.000      0.000
REMARK INTER + INTRA:          -5.234
REMARK INTER:                  -4.949
REMARK INTRA:                  -0.284
REMARK UNBOUND:                -0.284
REMARK SMILES O=C(O)c1ccc2nc(-c3cc(Cl)cc(Cl)c3)oc2c1
REMARK SMILES IDX 5 1 6 2 20 3 8 4 18 5 4 6 9 7 7 8 19 9 2 10 1 11 3 12 10 14
REMARK SMILES IDX 11 15 17 16 12 17 15 18 14 19 13 20 16 21
REMARK H PARENT 3 13
ROOT
ATOM      1  C   UNL     1     -14.863   8.993  -7.667  1.00  0.00     0.018 A 
ATOM      2  C   UNL     1     -14.929   7.734  -7.150  1.00  0.00     0.033 A 
ATOM      3  C   UNL     1     -12.441   8.875  -7.707  1.00  0.00     0.065 A 
ATOM      4  N   UNL     1     -13.504   5.786  -6.403  1.00  0.00    -0.209 NA
ATOM      5  O   UNL     1     -11.570   6.684  -6.834  1.00  0.00    -0.436 OA
ATOM      6  C   UNL     1     -13.621   9.578  -7.953  1.00  0.00     0.063 A 
ATOM      7  C   UNL     1     -12.209   5.594  -6.368  1.00  0.00     0.227 A 
ATOM      8  C   UNL     1     -13.753   7.018  -6.898  1.00  0.00     0.110 A 
ATOM      9  C   UNL     1     -12.504   7.599  -7.178  1.00  0.00     0.156 A 
ENDROOT
BRANCH   6  10
ATOM     10  C   UNL     1     -13.562  10.939  -8.518  1.00  0.00     0.335 C 
ATOM     11  O   UNL     1     -13.821  11.121  -9.691  1.00  0.00    -0.246 OA
BRANCH  10  12
ATOM     12  O   UNL     1     -13.221  11.980  -7.734  1.00  0.00    -0.478 OA
ATOM     13  H   UNL     1     -13.916  12.356  -7.177  1.00  0.00     0.297 HD
ENDBRANCH  10  12
ENDBRANCH   6  10
BRANCH   7  14
ATOM     14  C   UNL     1     -11.547   4.364  -5.888  1.00  0.00     0.040 A 
ATOM     15  C   UNL     1     -12.146   3.120  -6.094  1.00  0.00     0.034 A 
ATOM     16  C   UNL     1     -10.321   4.441  -5.225  1.00  0.00     0.034 A 
ATOM     17  C   UNL     1     -11.522   1.973  -5.643  1.00  0.00     0.043 A 
ATOM     18  C   UNL     1      -9.707   3.288  -4.779  1.00  0.00     0.043 A 
ATOM     19  C   UNL     1     -10.306   2.057  -4.986  1.00  0.00     0.041 A 
ATOM     20  Cl  UNL     1     -12.263   0.425  -5.899  1.00  0.00    -0.084 Cl
ATOM     21  Cl  UNL     1      -8.182   3.382  -3.954  1.00  0.00    -0.084 Cl
ENDBRANCH   7  14
TORSDOF 3
ENDMDL
MODEL 2
REMARK VINA RESULT:    -4.311      0.024      2.019
REMARK INTER + INTRA:          -5.225
REMARK INTER:                  -4.941
REMARK INTRA:                  -0.284
REMARK UNBOUND:                -0.284
REMARK SMILES O=C(O)c1ccc2nc(-c3cc(Cl)cc(Cl)c3)oc2c1
REMARK SMILES IDX 5 1 6 2 20 3 8 4 18 5 4 6 9 7 7 8 19 9 2 10 1 11 3 12 10 14
REMARK SMILES IDX 11 15 17 16 12 17 15 18 14 19 13 20 16 21
REMARK H PARENT 3 13
ROOT
ATOM      1  C   UNL     1     -14.859   8.983  -7.668  1.00  0.00     0.018 A 
ATOM      2  C   UNL     1     -14.926   7.725  -7.149  1.00  0.00     0.033 A 
ATOM      3  C   UNL     1     -12.437   8.864  -7.707  1.00  0.00     0.065 A 
ATOM      4  N   UNL     1     -13.502   5.778  -6.398  1.00  0.00    -0.209 NA
ATOM      5  O   UNL     1     -11.568   6.674  -6.830  1.00  0.00    -0.436 OA
ATOM      6  C   UNL     1     -13.617   9.567  -7.955  1.00  0.00     0.063 A 
ATOM      7  C   UNL     1     -12.207   5.586  -6.362  1.00  0.00     0.227 A 
ATOM      8  C   UNL     1     -13.750   7.009  -6.895  1.00  0.00     0.110 A 
ATOM      9  C   UNL     1     -12.501   7.589  -7.175  1.00  0.00     0.156 A 
ENDROOT
BRANCH   6  10
ATOM     10  C   UNL     1     -13.558  10.927  -8.522  1.00  0.00     0.335 C 
ATOM     11  O   UNL     1     -13.820  11.108  -9.695  1.00  0.00    -0.246 OA
BRANCH  10  12
ATOM     12  O   UNL     1     -13.211  11.969  -7.741  1.00  0.00    -0.478 OA
ATOM     13  H   UNL     1     -13.926  12.434  -7.286  1.00  0.00     0.297 HD
ENDBRANCH  10  12
ENDBRANCH   6  10
BRANCH   7  14
ATOM     14  C   UNL     1     -11.546   4.355  -5.880  1.00  0.00     0.040 A 
ATOM     15  C   UNL     1     -10.333   4.434  -5.196  1.00  0.00     0.034 A 
ATOM     16  C   UNL     1     -12.134   3.109  -6.107  1.00  0.00     0.034 A 
ATOM     17  C   UNL     1      -9.721   3.281  -4.746  1.00  0.00     0.043 A 
ATOM     18  C   UNL     1     -11.512   1.963  -5.652  1.00  0.00     0.043 A 
ATOM     19  C   UNL     1     -10.308   2.048  -4.975  1.00  0.00     0.041 A 
ATOM     20  Cl  UNL     1      -8.211   3.376  -3.894  1.00  0.00    -0.084 Cl
ATOM     21  Cl  UNL     1     -12.241   0.413  -5.934  1.00  0.00    -0.084 Cl
ENDBRANCH   7  14
TORSDOF 3
ENDMDL
MODEL 3
REMARK VINA RESULT:    -4.016      5.143      6.757
REMARK INTER + INTRA:          -4.887
REMARK INTER:                  -4.591
REMARK INTRA:                  -0.296
REMARK UNBOUND:                -0.284
REMARK SMILES O=C(O)c1ccc2nc(-c3cc(Cl)cc(Cl)c3)oc2c1
REMARK SMILES IDX 5 1 6 2 20 3 8 4 18 5 4 6 9 7 7 8 19 9 2 10 1 11 3 12 10 14
REMARK SMILES IDX 11 15 17 16 12 17 15 18 14 19 13 20 16 21
REMARK H PARENT 3 13
ROOT
ATOM      1  C   UNL     1     -12.987   3.534  -6.401  1.00  0.00     0.018 A 
ATOM      2  C   UNL     1     -11.889   4.110  -5.836  1.00  0.00     0.033 A 
ATOM      3  C   UNL     1     -12.010   1.333  -6.115  1.00  0.00     0.065 A 
ATOM      4  N   UNL     1      -9.638   3.584  -4.817  1.00  0.00    -0.209 NA
ATOM      5  O   UNL     1      -9.737   1.422  -5.043  1.00  0.00    -0.436 OA
ATOM      6  C   UNL     1     -13.063   2.142  -6.546  1.00  0.00     0.063 A 
ATOM      7  C   UNL     1      -8.998   2.460  -4.608  1.00  0.00     0.227 A 
ATOM      8  C   UNL     1     -10.825   3.311  -5.399  1.00  0.00     0.110 A 
ATOM      9  C   UNL     1     -10.891   1.914  -5.546  1.00  0.00     0.156 A 
ENDROOT
BRANCH   6  10
ATOM     10  C   UNL     1     -14.259   1.530  -7.153  1.00  0.00     0.335 C 
ATOM     11  O   UNL     1     -14.315   0.325  -7.302  1.00  0.00    -0.246 OA
BRANCH  10  12
ATOM     12  O   UNL     1     -15.289   2.306  -7.545  1.00  0.00    -0.478 OA
ATOM     13  H   UNL     1     -16.178   2.004  -7.316  1.00  0.00     0.297 HD
ENDBRANCH  10  12
ENDBRANCH   6  10
BRANCH   7  14
ATOM     14  C   UNL     1      -7.662   2.348  -3.987  1.00  0.00     0.040 A 
ATOM     15  C   UNL     1      -7.237   3.303  -3.062  1.00  0.00     0.034 A 
ATOM     16  C   UNL     1      -6.819   1.288  -4.325  1.00  0.00     0.034 A 
ATOM     17  C   UNL     1      -5.988   3.192  -2.484  1.00  0.00     0.043 A 
ATOM     18  C   UNL     1      -5.572   1.188  -3.741  1.00  0.00     0.043 A 
ATOM     19  C   UNL     1      -5.156   2.138  -2.823  1.00  0.00     0.041 A 
ATOM     20  Cl  UNL     1      -5.457   4.378  -1.333  1.00  0.00    -0.084 Cl
ATOM     21  Cl  UNL     1      -4.522  -0.130  -4.159  1.00  0.00    -0.084 Cl
ENDBRANCH   7  14
TORSDOF 3
ENDMDL
MODEL 4
REMARK VINA RESULT:    -4.009      5.145      6.600
REMARK INTER + INTRA:          -4.879
REMARK INTER:                  -4.583
REMARK INTRA:                  -0.296
REMARK UNBOUND:                -0.284
REMARK SMILES O=C(O)c1ccc2nc(-c3cc(Cl)cc(Cl)c3)oc2c1
REMARK SMILES IDX 5 1 6 2 20 3 8 4 18 5 4 6 9 7 7 8 19 9 2 10 1 11 3 12 10 14
REMARK SMILES IDX 11 15 17 16 12 17 15 18 14 19 13 20 16 21
REMARK H PARENT 3 13
ROOT
ATOM      1  C   UNL     1     -12.989   3.531  -6.405  1.00  0.00     0.018 A 
ATOM      2  C   UNL     1     -11.892   4.107  -5.838  1.00  0.00     0.033 A 
ATOM      3  C   UNL     1     -12.010   1.331  -6.118  1.00  0.00     0.065 A 
ATOM      4  N   UNL     1      -9.642   3.583  -4.817  1.00  0.00    -0.209 NA
ATOM      5  O   UNL     1      -9.739   1.421  -5.043  1.00  0.00    -0.436 OA
ATOM      6  C   UNL     1     -13.064   2.138  -6.550  1.00  0.00     0.063 A 
ATOM      7  C   UNL     1      -9.001   2.459  -4.607  1.00  0.00     0.227 A 
ATOM      8  C   UNL     1     -10.828   3.309  -5.400  1.00  0.00     0.110 A 
ATOM      9  C   UNL     1     -10.893   1.912  -5.547  1.00  0.00     0.156 A 
ENDROOT
BRANCH   6  10
ATOM     10  C   UNL     1     -14.258   1.525  -7.159  1.00  0.00     0.335 C 
ATOM     11  O   UNL     1     -14.312   0.321  -7.311  1.00  0.00    -0.246 OA
BRANCH  10  12
ATOM     12  O   UNL     1     -15.290   2.301  -7.548  1.00  0.00    -0.478 OA
ATOM     13  H   UNL     1     -15.182   3.256  -7.452  1.00  0.00     0.297 HD
ENDBRANCH  10  12
ENDBRANCH   6  10
BRANCH   7  14
ATOM     14  C   UNL     1      -7.666   2.349  -3.985  1.00  0.00     0.040 A 
ATOM     15  C   UNL     1      -6.822   1.289  -4.319  1.00  0.00     0.034 A 
ATOM     16  C   UNL     1      -7.244   3.305  -3.059  1.00  0.00     0.034 A 
ATOM     17  C   UNL     1      -5.575   1.192  -3.734  1.00  0.00     0.043 A 
ATOM     18  C   UNL     1      -5.994   3.197  -2.481  1.00  0.00     0.043 A 
ATOM     19  C   UNL     1      -5.162   2.144  -2.817  1.00  0.00     0.041 A 
ATOM     20  Cl  UNL     1      -4.523  -0.125  -4.149  1.00  0.00    -0.084 Cl
ATOM     21  Cl  UNL     1      -5.467   4.385  -1.329  1.00  0.00    -0.084 Cl
ENDBRANCH   7  14
TORSDOF 3
ENDMDL
MODEL 5
REMARK VINA RESULT:    -3.991      3.501      5.543
REMARK INTER + INTRA:          -4.858
REMARK INTER:                  -4.562
REMARK INTRA:                  -0.296
REMARK UNBOUND:                -0.284
REMARK SMILES O=C(O)c1ccc2nc(-c3cc(Cl)cc(Cl)c3)oc2c1
REMARK SMILES IDX 5 1 6 2 20 3 8 4 18 5 4 6 9 7 7 8 19 9 2 10 1 11 3 12 10 14
REMARK SMILES IDX 11 15 17 16 12 17 15 18 14 19 13 20 16 21
REMARK H PARENT 3 13
ROOT
ATOM      1  C   UNL     1     -13.004   3.617  -6.302  1.00  0.00     0.018 A 
ATOM      2  C   UNL     1     -12.105   2.620  -6.070  1.00  0.00     0.033 A 
ATOM      3  C   UNL     1     -11.399   5.272  -5.551  1.00  0.00     0.065 A 
ATOM      4  N   UNL     1      -9.757   2.175  -5.250  1.00  0.00    -0.209 NA
ATOM      5  O   UNL     1      -9.217   4.243  -4.844  1.00  0.00    -0.436 OA
ATOM      6  C   UNL     1     -12.663   4.953  -6.049  1.00  0.00     0.063 A 
ATOM      7  C   UNL     1      -8.803   2.962  -4.820  1.00  0.00     0.227 A 
ATOM      8  C   UNL     1     -10.833   2.926  -5.572  1.00  0.00     0.110 A 
ATOM      9  C   UNL     1     -10.485   4.263  -5.310  1.00  0.00     0.156 A 
ENDROOT
BRANCH   6  10
ATOM     10  C   UNL     1     -13.642   6.024  -6.309  1.00  0.00     0.335 C 
ATOM     11  O   UNL     1     -13.400   7.165  -5.969  1.00  0.00    -0.246 OA
BRANCH  10  12
ATOM     12  O   UNL     1     -14.807   5.738  -6.924  1.00  0.00    -0.478 OA
ATOM     13  H   UNL     1     -15.594   5.675  -6.367  1.00  0.00     0.297 HD
ENDBRANCH  10  12
ENDBRANCH   6  10
BRANCH   7  14
ATOM     14  C   UNL     1      -7.469   2.510  -4.373  1.00  0.00     0.040 A 
ATOM     15  C   UNL     1      -6.763   3.243  -3.419  1.00  0.00     0.034 A 
ATOM     16  C   UNL     1      -6.909   1.346  -4.906  1.00  0.00     0.034 A 
ATOM     17  C   UNL     1      -5.517   2.814  -3.005  1.00  0.00     0.043 A 
ATOM     18  C   UNL     1      -5.663   0.928  -4.484  1.00  0.00     0.043 A 
ATOM     19  C   UNL     1      -4.968   1.660  -3.537  1.00  0.00     0.041 A 
ATOM     20  Cl  UNL     1      -4.637   3.724  -1.818  1.00  0.00    -0.084 Cl
ATOM     21  Cl  UNL     1      -4.966  -0.519  -5.145  1.00  0.00    -0.084 Cl
ENDBRANCH   7  14
TORSDOF 3
ENDMDL
MODEL 6
REMARK VINA RESULT:    -3.987      3.514      5.289
REMARK INTER + INTRA:          -4.854
REMARK INTER:                  -4.559
REMARK INTRA:                  -0.296
REMARK UNBOUND:                -0.284
REMARK SMILES O=C(O)c1ccc2nc(-c3cc(Cl)cc(Cl)c3)oc2c1
REMARK SMILES IDX 5 1 6 2 20 3 8 4 18 5 4 6 9 7 7 8 19 9 2 10 1 11 3 12 10 14
REMARK SMILES IDX 11 15 17 16 12 17 15 18 14 19 13 20 16 21
REMARK H PARENT 3 13
ROOT
ATOM      1  C   UNL     1     -13.003   3.603  -6.303  1.00  0.00     0.018 A 
ATOM      2  C   UNL     1     -12.102   2.608  -6.073  1.00  0.00     0.033 A 
ATOM      3  C   UNL     1     -11.402   5.260  -5.548  1.00  0.00     0.065 A 
ATOM      4  N   UNL     1      -9.753   2.167  -5.252  1.00  0.00    -0.209 NA
ATOM      5  O   UNL     1      -9.218   4.235  -4.841  1.00  0.00    -0.436 OA
ATOM      6  C   UNL     1     -12.666   4.940  -6.046  1.00  0.00     0.063 A 
ATOM      7  C   UNL     1      -8.801   2.955  -4.820  1.00  0.00     0.227 A 
ATOM      8  C   UNL     1     -10.830   2.915  -5.573  1.00  0.00     0.110 A 
ATOM      9  C   UNL     1     -10.486   4.252  -5.308  1.00  0.00     0.156 A 
ENDROOT
BRANCH   6  10
ATOM     10  C   UNL     1     -13.647   6.009  -6.305  1.00  0.00     0.335 C 
ATOM     11  O   UNL     1     -13.421   7.143  -5.934  1.00  0.00    -0.246 OA
BRANCH  10  12
ATOM     12  O   UNL     1     -14.795   5.728  -6.953  1.00  0.00    -0.478 OA
ATOM     13  H   UNL     1     -15.307   4.973  -6.632  1.00  0.00     0.297 HD
ENDBRANCH  10  12
ENDBRANCH   6  10
BRANCH   7  14
ATOM     14  C   UNL     1      -7.466   2.505  -4.374  1.00  0.00     0.040 A 
ATOM     15  C   UNL     1      -6.905   1.341  -4.903  1.00  0.00     0.034 A 
ATOM     16  C   UNL     1      -6.761   3.242  -3.420  1.00  0.00     0.034 A 
ATOM     17  C   UNL     1      -5.657   0.927  -4.483  1.00  0.00     0.043 A 
ATOM     18  C   UNL     1      -5.514   2.817  -3.008  1.00  0.00     0.043 A 
ATOM     19  C   UNL     1      -4.963   1.662  -3.537  1.00  0.00     0.041 A 
ATOM     20  Cl  UNL     1      -4.957  -0.520  -5.140  1.00  0.00    -0.084 Cl
ATOM     21  Cl  UNL     1      -4.635   3.732  -1.822  1.00  0.00    -0.084 Cl
ENDBRANCH   7  14
TORSDOF 3
ENDMDL
MODEL 7
REMARK VINA RESULT:    -3.821      5.243      8.952
REMARK INTER + INTRA:          -4.664
REMARK INTER:                  -4.366
REMARK INTRA:                  -0.298
REMARK UNBOUND:                -0.284
REMARK SMILES O=C(O)c1ccc2nc(-c3cc(Cl)cc(Cl)c3)oc2c1
REMARK SMILES IDX 5 1 6 2 20 3 8 4 18 5 4 6 9 7 7 8 19 9 2 10 1 11 3 12 10 14
REMARK SMILES IDX 11 15 17 16 12 17 15 18 14 19 13 20 16 21
REMARK H PARENT 3 13
ROOT
ATOM      1  C   UNL     1      -5.246   2.943  -3.007  1.00  0.00     0.018 A 
ATOM      2  C   UNL     1      -6.288   3.770  -3.304  1.00  0.00     0.033 A 
ATOM      3  C   UNL     1      -6.448   1.054  -3.937  1.00  0.00     0.065 A 
ATOM      4  N   UNL     1      -8.597   3.811  -4.329  1.00  0.00    -0.209 NA
ATOM      5  O   UNL     1      -8.716   1.694  -4.815  1.00  0.00    -0.436 OA
ATOM      6  C   UNL     1      -5.311   1.578  -3.320  1.00  0.00     0.063 A 
ATOM      7  C   UNL     1      -9.351   2.880  -4.857  1.00  0.00     0.227 A 
ATOM      8  C   UNL     1      -7.435   3.257  -3.923  1.00  0.00     0.110 A 
ATOM      9  C   UNL     1      -7.510   1.888  -4.236  1.00  0.00     0.156 A 
ENDROOT
BRANCH   6  10
ATOM     10  C   UNL     1      -4.175   0.695  -3.000  1.00  0.00     0.335 C 
ATOM     11  O   UNL     1      -4.162  -0.449  -3.406  1.00  0.00    -0.246 OA
BRANCH  10  12
ATOM     12  O   UNL     1      -3.151   1.158  -2.255  1.00  0.00    -0.478 OA
ATOM     13  H   UNL     1      -2.276   1.162  -2.666  1.00  0.00     0.297 HD
ENDBRANCH  10  12
ENDBRANCH   6  10
BRANCH   7  14
ATOM     14  C   UNL     1     -10.701   3.099  -5.417  1.00  0.00     0.040 A 
ATOM     15  C   UNL     1     -11.203   4.395  -5.551  1.00  0.00     0.034 A 
ATOM     16  C   UNL     1     -11.481   2.010  -5.812  1.00  0.00     0.034 A 
ATOM     17  C   UNL     1     -12.465   4.593  -6.075  1.00  0.00     0.043 A 
ATOM     18  C   UNL     1     -12.741   2.221  -6.335  1.00  0.00     0.043 A 
ATOM     19  C   UNL     1     -13.233   3.509  -6.465  1.00  0.00     0.041 A 
ATOM     20  Cl  UNL     1     -13.090   6.203  -6.244  1.00  0.00    -0.084 Cl
ATOM     21  Cl  UNL     1     -13.712   0.869  -6.827  1.00  0.00    -0.084 Cl
ENDBRANCH   7  14
TORSDOF 3
ENDMDL
MODEL 8
REMARK VINA RESULT:    -3.815      5.228      8.796
REMARK INTER + INTRA:          -4.657
REMARK INTER:                  -4.358
REMARK INTRA:                  -0.298
REMARK UNBOUND:                -0.284
REMARK SMILES O=C(O)c1ccc2nc(-c3cc(Cl)cc(Cl)c3)oc2c1
REMARK SMILES IDX 5 1 6 2 20 3 8 4 18 5 4 6 9 7 7 8 19 9 2 10 1 11 3 12 10 14
REMARK SMILES IDX 11 15 17 16 12 17 15 18 14 19 13 20 16 21
REMARK H PARENT 3 13
ROOT
ATOM      1  C   UNL     1      -5.250   2.943  -2.988  1.00  0.00     0.018 A 
ATOM      2  C   UNL     1      -6.291   3.773  -3.277  1.00  0.00     0.033 A 
ATOM      3  C   UNL     1      -6.449   1.065  -3.945  1.00  0.00     0.065 A 
ATOM      4  N   UNL     1      -8.598   3.827  -4.307  1.00  0.00    -0.209 NA
ATOM      5  O   UNL     1      -8.714   1.715  -4.819  1.00  0.00    -0.436 OA
ATOM      6  C   UNL     1      -5.313   1.582  -3.319  1.00  0.00     0.063 A 
ATOM      7  C   UNL     1      -9.350   2.902  -4.849  1.00  0.00     0.227 A 
ATOM      8  C   UNL     1      -7.436   3.267  -3.905  1.00  0.00     0.110 A 
ATOM      9  C   UNL     1      -7.510   1.903  -4.236  1.00  0.00     0.156 A 
ENDROOT
BRANCH   6  10
ATOM     10  C   UNL     1      -4.178   0.696  -3.006  1.00  0.00     0.335 C 
ATOM     11  O   UNL     1      -4.172  -0.449  -3.412  1.00  0.00    -0.246 OA
BRANCH  10  12
ATOM     12  O   UNL     1      -3.147   1.155  -2.269  1.00  0.00    -0.478 OA
ATOM     13  H   UNL     1      -2.446   1.626  -2.740  1.00  0.00     0.297 HD
ENDBRANCH  10  12
ENDBRANCH   6  10
BRANCH   7  14
ATOM     14  C   UNL     1     -10.699   3.128  -5.409  1.00  0.00     0.040 A 
ATOM     15  C   UNL     1     -11.487   2.044  -5.799  1.00  0.00     0.034 A 
ATOM     16  C   UNL     1     -11.190   4.427  -5.550  1.00  0.00     0.034 A 
ATOM     17  C   UNL     1     -12.747   2.262  -6.321  1.00  0.00     0.043 A 
ATOM     18  C   UNL     1     -12.451   4.632  -6.072  1.00  0.00     0.043 A 
ATOM     19  C   UNL     1     -13.228   3.553  -6.458  1.00  0.00     0.041 A 
ATOM     20  Cl  UNL     1     -13.729   0.916  -6.806  1.00  0.00    -0.084 Cl
ATOM     21  Cl  UNL     1     -13.064   6.248  -6.248  1.00  0.00    -0.084 Cl
ENDBRANCH   7  14
TORSDOF 3
ENDMDL
MODEL 9
REMARK VINA RESULT:    -3.468      6.068      7.511
REMARK INTER + INTRA:          -4.259
REMARK INTER:                  -3.969
REMARK INTRA:                  -0.289
REMARK UNBOUND:                -0.284
REMARK SMILES O=C(O)c1ccc2nc(-c3cc(Cl)cc(Cl)c3)oc2c1
REMARK SMILES IDX 5 1 6 2 20 3 8 4 18 5 4 6 9 7 7 8 19 9 2 10 1 11 3 12 10 14
REMARK SMILES IDX 11 15 17 16 12 17 15 18 14 19 13 20 16 21
REMARK H PARENT 3 13
ROOT
ATOM      1  C   UNL     1      -7.355   2.953  -5.491  1.00  0.00     0.018 A 
ATOM      2  C   UNL     1      -8.237   2.473  -6.412  1.00  0.00     0.033 A 
ATOM      3  C   UNL     1      -9.091   2.961  -3.798  1.00  0.00     0.065 A 
ATOM      4  N   UNL     1     -10.643   1.766  -6.720  1.00  0.00    -0.209 NA
ATOM      5  O   UNL     1     -11.301   2.154  -4.682  1.00  0.00    -0.436 OA
ATOM      6  C   UNL     1      -7.768   3.201  -4.174  1.00  0.00     0.063 A 
ATOM      7  C   UNL     1     -11.668   1.724  -5.905  1.00  0.00     0.227 A 
ATOM      8  C   UNL     1      -9.567   2.228  -6.048  1.00  0.00     0.110 A 
ATOM      9  C   UNL     1      -9.990   2.479  -4.731  1.00  0.00     0.156 A 
ENDROOT
BRANCH   6  10
ATOM     10  C   UNL     1      -6.803   3.714  -3.185  1.00  0.00     0.335 C 
ATOM     11  O   UNL     1      -5.728   4.143  -3.552  1.00  0.00    -0.246 OA
BRANCH  10  12
ATOM     12  O   UNL     1      -7.114   3.706  -1.874  1.00  0.00    -0.478 OA
ATOM     13  H   UNL     1      -7.846   3.139  -1.599  1.00  0.00     0.297 HD
ENDBRANCH  10  12
ENDBRANCH   6  10
BRANCH   7  14
ATOM     14  C   UNL     1     -13.025   1.272  -6.273  1.00  0.00     0.040 A 
ATOM     15  C   UNL     1     -13.731   1.925  -7.284  1.00  0.00     0.034 A 
ATOM     16  C   UNL     1     -13.607   0.189  -5.610  1.00  0.00     0.034 A 
ATOM     17  C   UNL     1     -14.999   1.497  -7.625  1.00  0.00     0.043 A 
ATOM     18  C   UNL     1     -14.875  -0.229  -5.960  1.00  0.00     0.043 A 
ATOM     19  C   UNL     1     -15.570   0.423  -6.964  1.00  0.00     0.041 A 
ATOM     20  Cl  UNL     1     -15.879   2.308  -8.882  1.00  0.00    -0.084 Cl
ATOM     21  Cl  UNL     1     -15.601  -1.576  -5.137  1.00  0.00    -0.084 Cl
ENDBRANCH   7  14
TORSDOF 3
ENDMDL
