MODEL 1
REMARK VINA RESULT:    -5.479      0.000      0.000
REMARK INTER + INTRA:          -8.216
REMARK INTER:                  -7.561
REMARK INTRA:                  -0.655
REMARK UNBOUND:                -0.655
REMARK SMILES Cc1n[nH]c(C)c1CCCOc1cc(C(=O)O)ccc1F
REMARK SMILES IDX 11 1 12 2 14 3 18 4 13 5 19 6 20 7 21 8 15 9 16 10 17 11
REMARK SMILES IDX 10 13 9 14 8 15 7 16 5 17 2 18 4 19 3 20 6 21 1 22
REMARK H PARENT 17 12 4 23
ROOT
ATOM      1  O   UNL     1      -8.237   3.540  -3.544  1.00  0.00    -0.490 OA
ENDROOT
BRANCH   1   2
ATOM      2  C   UNL     1      -7.060   2.861  -3.485  1.00  0.00     0.155 A 
ATOM      3  C   UNL     1      -5.614   1.117  -4.289  1.00  0.00     0.063 A 
ATOM      4  C   UNL     1      -4.645   1.495  -3.355  1.00  0.00     0.019 A 
ATOM      5  C   UNL     1      -6.826   1.808  -4.349  1.00  0.00     0.065 A 
ATOM      6  C   UNL     1      -4.886   2.551  -2.501  1.00  0.00     0.044 A 
ATOM      7  C   UNL     1      -6.087   3.238  -2.566  1.00  0.00     0.165 A 
ATOM      8  F   UNL     1      -6.317   4.271  -1.727  1.00  0.00    -0.203 F 
BRANCH   3   9
ATOM      9  C   UNL     1      -5.359  -0.013  -5.204  1.00  0.00     0.335 C 
ATOM     10  O   UNL     1      -6.131  -0.949  -5.243  1.00  0.00    -0.246 OA
BRANCH   9  11
ATOM     11  O   UNL     1      -4.273  -0.001  -6.001  1.00  0.00    -0.478 OA
ATOM     12  H   UNL     1      -4.266  -0.622  -6.744  1.00  0.00     0.297 HD
ENDBRANCH   9  11
ENDBRANCH   3   9
ENDBRANCH   1   2
BRANCH   1  13
ATOM     13  C   UNL     1      -9.347   2.976  -2.840  1.00  0.00     0.230 C 
BRANCH  13  14
ATOM     14  C   UNL     1     -10.646   3.348  -3.556  1.00  0.00     0.046 C 
BRANCH  14  15
ATOM     15  C   UNL     1     -10.447   3.229  -5.069  1.00  0.00     0.043 C 
BRANCH  15  16
ATOM     16  C   UNL     1     -11.785   3.295  -5.759  1.00  0.00    -0.004 A 
ATOM     17  C   UNL     1     -12.521   2.237  -6.173  1.00  0.00     0.036 A 
ATOM     18  C   UNL     1     -12.489   4.460  -6.079  1.00  0.00     0.063 A 
ATOM     19  N   UNL     1     -13.647   2.716  -6.741  1.00  0.00    -0.282 N 
ATOM     20  N   UNL     1     -13.602   4.115  -6.674  1.00  0.00    -0.181 NA
ATOM     21  C   UNL     1     -12.149   0.785  -6.025  1.00  0.00     0.066 C 
ATOM     22  C   UNL     1     -12.038   5.871  -5.799  1.00  0.00     0.069 C 
ATOM     23  H   UNL     1     -14.361   2.186  -7.128  1.00  0.00     0.190 HD
ENDBRANCH  15  16
ENDBRANCH  14  15
ENDBRANCH  13  14
ENDBRANCH   1  13
TORSDOF 7
ENDMDL
MODEL 2
REMARK VINA RESULT:    -5.460      1.972      3.700
REMARK INTER + INTRA:          -8.190
REMARK INTER:                  -7.557
REMARK INTRA:                  -0.633
REMARK UNBOUND:                -0.655
REMARK SMILES Cc1n[nH]c(C)c1CCCOc1cc(C(=O)O)ccc1F
REMARK SMILES IDX 11 1 12 2 14 3 18 4 13 5 19 6 20 7 21 8 15 9 16 10 17 11
REMARK SMILES IDX 10 13 9 14 8 15 7 16 5 17 2 18 4 19 3 20 6 21 1 22
REMARK H PARENT 17 12 4 23
ROOT
ATOM      1  O   UNL     1      -7.788   1.501  -5.284  1.00  0.00    -0.490 OA
ENDROOT
BRANCH   1   2
ATOM      2  C   UNL     1      -6.769   1.735  -4.415  1.00  0.00     0.155 A 
ATOM      3  C   UNL     1      -5.823   2.992  -2.597  1.00  0.00     0.063 A 
ATOM      4  C   UNL     1      -4.680   2.189  -2.642  1.00  0.00     0.019 A 
ATOM      5  C   UNL     1      -6.869   2.758  -3.491  1.00  0.00     0.065 A 
ATOM      6  C   UNL     1      -4.591   1.167  -3.563  1.00  0.00     0.044 A 
ATOM      7  C   UNL     1      -5.633   0.934  -4.446  1.00  0.00     0.165 A 
ATOM      8  F   UNL     1      -5.540  -0.069  -5.346  1.00  0.00    -0.203 F 
BRANCH   3   9
ATOM      9  C   UNL     1      -5.921   4.086  -1.611  1.00  0.00     0.335 C 
ATOM     10  O   UNL     1      -6.150   5.219  -1.982  1.00  0.00    -0.246 OA
BRANCH   9  11
ATOM     11  O   UNL     1      -5.763   3.826  -0.299  1.00  0.00    -0.478 OA
ATOM     12  H   UNL     1      -5.165   3.103  -0.063  1.00  0.00     0.297 HD
ENDBRANCH   9  11
ENDBRANCH   3   9
ENDBRANCH   1   2
BRANCH   1  13
ATOM     13  C   UNL     1      -7.804   2.274  -6.487  1.00  0.00     0.230 C 
BRANCH  13  14
ATOM     14  C   UNL     1      -9.250   2.613  -6.856  1.00  0.00     0.046 C 
BRANCH  14  15
ATOM     15  C   UNL     1     -10.109   2.629  -5.589  1.00  0.00     0.043 C 
BRANCH  15  16
ATOM     16  C   UNL     1     -11.526   2.991  -5.947  1.00  0.00    -0.004 A 
ATOM     17  C   UNL     1     -12.041   4.242  -5.995  1.00  0.00     0.036 A 
ATOM     18  C   UNL     1     -12.542   2.094  -6.295  1.00  0.00     0.063 A 
ATOM     19  N   UNL     1     -13.338   4.139  -6.354  1.00  0.00    -0.282 N 
ATOM     20  N   UNL     1     -13.630   2.781  -6.533  1.00  0.00    -0.181 NA
ATOM     21  C   UNL     1     -11.299   5.519  -5.700  1.00  0.00     0.066 C 
ATOM     22  C   UNL     1     -12.409   0.595  -6.372  1.00  0.00     0.069 C 
ATOM     23  H   UNL     1     -13.959   4.876  -6.467  1.00  0.00     0.190 HD
ENDBRANCH  15  16
ENDBRANCH  14  15
ENDBRANCH  13  14
ENDBRANCH   1  13
TORSDOF 7
ENDMDL
MODEL 3
REMARK VINA RESULT:    -5.428      0.365      1.791
REMARK INTER + INTRA:          -8.145
REMARK INTER:                  -7.487
REMARK INTRA:                  -0.658
REMARK UNBOUND:                -0.655
REMARK SMILES Cc1n[nH]c(C)c1CCCOc1cc(C(=O)O)ccc1F
REMARK SMILES IDX 11 1 12 2 14 3 18 4 13 5 19 6 20 7 21 8 15 9 16 10 17 11
REMARK SMILES IDX 10 13 9 14 8 15 7 16 5 17 2 18 4 19 3 20 6 21 1 22
REMARK H PARENT 17 12 4 23
ROOT
ATOM      1  O   UNL     1      -8.227   3.505  -3.464  1.00  0.00    -0.490 OA
ENDROOT
BRANCH   1   2
ATOM      2  C   UNL     1      -7.045   2.833  -3.429  1.00  0.00     0.155 A 
ATOM      3  C   UNL     1      -5.600   1.105  -4.270  1.00  0.00     0.063 A 
ATOM      4  C   UNL     1      -4.620   1.480  -3.347  1.00  0.00     0.019 A 
ATOM      5  C   UNL     1      -6.817   1.789  -4.306  1.00  0.00     0.065 A 
ATOM      6  C   UNL     1      -4.855   2.526  -2.480  1.00  0.00     0.044 A 
ATOM      7  C   UNL     1      -6.060   3.207  -2.521  1.00  0.00     0.165 A 
ATOM      8  F   UNL     1      -6.284   4.231  -1.669  1.00  0.00    -0.203 F 
BRANCH   3   9
ATOM      9  C   UNL     1      -5.352  -0.014  -5.200  1.00  0.00     0.335 C 
ATOM     10  O   UNL     1      -6.111  -0.962  -5.226  1.00  0.00    -0.246 OA
BRANCH   9  11
ATOM     11  O   UNL     1      -4.288   0.019  -6.025  1.00  0.00    -0.478 OA
ATOM     12  H   UNL     1      -4.468  -0.002  -6.976  1.00  0.00     0.297 HD
ENDBRANCH   9  11
ENDBRANCH   3   9
ENDBRANCH   1   2
BRANCH   1  13
ATOM     13  C   UNL     1      -9.318   2.936  -2.736  1.00  0.00     0.230 C 
BRANCH  13  14
ATOM     14  C   UNL     1     -10.633   3.283  -3.436  1.00  0.00     0.046 C 
BRANCH  14  15
ATOM     15  C   UNL     1     -10.406   3.338  -4.949  1.00  0.00     0.043 C 
BRANCH  15  16
ATOM     16  C   UNL     1     -11.700   3.681  -5.639  1.00  0.00    -0.004 A 
ATOM     17  C   UNL     1     -12.175   4.927  -5.869  1.00  0.00     0.036 A 
ATOM     18  C   UNL     1     -12.621   2.767  -6.163  1.00  0.00     0.063 A 
ATOM     19  N   UNL     1     -13.357   4.806  -6.509  1.00  0.00    -0.282 N 
ATOM     20  N   UNL     1     -13.618   3.439  -6.678  1.00  0.00    -0.181 NA
ATOM     21  C   UNL     1     -11.504   6.218  -5.481  1.00  0.00     0.066 C 
ATOM     22  C   UNL     1     -12.493   1.265  -6.128  1.00  0.00     0.069 C 
ATOM     23  H   UNL     1     -13.926   5.535  -6.799  1.00  0.00     0.190 HD
ENDBRANCH  15  16
ENDBRANCH  14  15
ENDBRANCH  13  14
ENDBRANCH   1  13
TORSDOF 7
ENDMDL
MODEL 4
REMARK VINA RESULT:    -5.412      2.128      3.305
REMARK INTER + INTRA:          -8.124
REMARK INTER:                  -7.652
REMARK INTRA:                  -0.472
REMARK UNBOUND:                -0.655
REMARK SMILES Cc1n[nH]c(C)c1CCCOc1cc(C(=O)O)ccc1F
REMARK SMILES IDX 11 1 12 2 14 3 18 4 13 5 19 6 20 7 21 8 15 9 16 10 17 11
REMARK SMILES IDX 10 13 9 14 8 15 7 16 5 17 2 18 4 19 3 20 6 21 1 22
REMARK H PARENT 17 12 4 23
ROOT
ATOM      1  O   UNL     1      -6.896   2.864  -6.232  1.00  0.00    -0.490 OA
ENDROOT
BRANCH   1   2
ATOM      2  C   UNL     1      -6.295   2.582  -5.045  1.00  0.00     0.155 A 
ATOM      3  C   UNL     1      -5.785   3.172  -2.771  1.00  0.00     0.063 A 
ATOM      4  C   UNL     1      -5.067   1.982  -2.627  1.00  0.00     0.019 A 
ATOM      5  C   UNL     1      -6.400   3.468  -3.989  1.00  0.00     0.065 A 
ATOM      6  C   UNL     1      -4.973   1.102  -3.684  1.00  0.00     0.044 A 
ATOM      7  C   UNL     1      -5.588   1.395  -4.890  1.00  0.00     0.165 A 
ATOM      8  F   UNL     1      -5.492   0.528  -5.922  1.00  0.00    -0.203 F 
BRANCH   3   9
ATOM      9  C   UNL     1      -5.888   4.117  -1.641  1.00  0.00     0.335 C 
ATOM     10  O   UNL     1      -6.101   5.293  -1.850  1.00  0.00    -0.246 OA
BRANCH   9  11
ATOM     11  O   UNL     1      -5.752   3.671  -0.376  1.00  0.00    -0.478 OA
ATOM     12  H   UNL     1      -6.565   3.534   0.131  1.00  0.00     0.297 HD
ENDBRANCH   9  11
ENDBRANCH   3   9
ENDBRANCH   1   2
BRANCH   1  13
ATOM     13  C   UNL     1      -7.921   1.969  -6.668  1.00  0.00     0.230 C 
BRANCH  13  14
ATOM     14  C   UNL     1      -9.225   2.745  -6.864  1.00  0.00     0.046 C 
BRANCH  14  15
ATOM     15  C   UNL     1     -10.108   2.580  -5.625  1.00  0.00     0.043 C 
BRANCH  15  16
ATOM     16  C   UNL     1     -11.548   2.820  -5.997  1.00  0.00    -0.004 A 
ATOM     17  C   UNL     1     -12.464   1.869  -6.292  1.00  0.00     0.036 A 
ATOM     18  C   UNL     1     -12.176   4.066  -6.093  1.00  0.00     0.063 A 
ATOM     19  N   UNL     1     -13.628   2.491  -6.571  1.00  0.00    -0.282 N 
ATOM     20  N   UNL     1     -13.421   3.871  -6.443  1.00  0.00    -0.181 NA
ATOM     21  C   UNL     1     -12.226   0.381  -6.306  1.00  0.00     0.066 C 
ATOM     22  C   UNL     1     -11.527   5.405  -5.847  1.00  0.00     0.069 C 
ATOM     23  H   UNL     1     -14.461   2.059  -6.817  1.00  0.00     0.190 HD
ENDBRANCH  15  16
ENDBRANCH  14  15
ENDBRANCH  13  14
ENDBRANCH   1  13
TORSDOF 7
ENDMDL
MODEL 5
REMARK VINA RESULT:    -4.589      3.802      7.128
REMARK INTER + INTRA:          -6.988
REMARK INTER:                  -6.173
REMARK INTRA:                  -0.814
REMARK UNBOUND:                -0.655
REMARK SMILES Cc1n[nH]c(C)c1CCCOc1cc(C(=O)O)ccc1F
REMARK SMILES IDX 11 1 12 2 14 3 18 4 13 5 19 6 20 7 21 8 15 9 16 10 17 11
REMARK SMILES IDX 10 13 9 14 8 15 7 16 5 17 2 18 4 19 3 20 6 21 1 22
REMARK H PARENT 17 12 4 23
ROOT
ATOM      1  O   UNL     1      -9.201   1.717  -5.103  1.00  0.00    -0.490 OA
ENDROOT
BRANCH   1   2
ATOM      2  C   UNL     1     -10.331   2.388  -5.454  1.00  0.00     0.155 A 
ATOM      3  C   UNL     1     -11.511   4.456  -5.790  1.00  0.00     0.063 A 
ATOM      4  C   UNL     1     -12.645   3.740  -6.183  1.00  0.00     0.019 A 
ATOM      5  C   UNL     1     -10.351   3.770  -5.424  1.00  0.00     0.065 A 
ATOM      6  C   UNL     1     -12.613   2.362  -6.215  1.00  0.00     0.044 A 
ATOM      7  C   UNL     1     -11.460   1.684  -5.857  1.00  0.00     0.165 A 
ATOM      8  F   UNL     1     -11.436   0.333  -5.890  1.00  0.00    -0.203 F 
BRANCH   3   9
ATOM      9  C   UNL     1     -11.541   5.931  -5.755  1.00  0.00     0.335 C 
ATOM     10  O   UNL     1     -11.816   6.509  -4.724  1.00  0.00    -0.246 OA
BRANCH   9  11
ATOM     11  O   UNL     1     -11.258   6.636  -6.868  1.00  0.00    -0.478 OA
ATOM     12  H   UNL     1     -11.784   6.444  -7.657  1.00  0.00     0.297 HD
ENDBRANCH   9  11
ENDBRANCH   3   9
ENDBRANCH   1   2
BRANCH   1  13
ATOM     13  C   UNL     1      -7.970   2.186  -5.658  1.00  0.00     0.230 C 
BRANCH  13  14
ATOM     14  C   UNL     1      -6.803   1.428  -5.021  1.00  0.00     0.046 C 
BRANCH  14  15
ATOM     15  C   UNL     1      -7.157   1.067  -3.577  1.00  0.00     0.043 C 
BRANCH  15  16
ATOM     16  C   UNL     1      -6.699   2.168  -2.656  1.00  0.00    -0.004 A 
ATOM     17  C   UNL     1      -5.415   2.518  -2.410  1.00  0.00     0.036 A 
ATOM     18  C   UNL     1      -7.526   3.015  -1.910  1.00  0.00     0.063 A 
ATOM     19  N   UNL     1      -5.430   3.545  -1.534  1.00  0.00    -0.282 N 
ATOM     20  N   UNL     1      -6.767   3.835  -1.232  1.00  0.00    -0.181 NA
ATOM     21  C   UNL     1      -4.190   1.876  -3.007  1.00  0.00     0.066 C 
ATOM     22  C   UNL     1      -9.033   2.979  -1.883  1.00  0.00     0.069 C 
ATOM     23  H   UNL     1      -4.652   4.000  -1.176  1.00  0.00     0.190 HD
ENDBRANCH  15  16
ENDBRANCH  14  15
ENDBRANCH  13  14
ENDBRANCH   1  13
TORSDOF 7
ENDMDL
MODEL 6
REMARK VINA RESULT:    -4.586      2.162      3.027
REMARK INTER + INTRA:          -6.984
REMARK INTER:                  -6.377
REMARK INTRA:                  -0.607
REMARK UNBOUND:                -0.655
REMARK SMILES Cc1n[nH]c(C)c1CCCOc1cc(C(=O)O)ccc1F
REMARK SMILES IDX 11 1 12 2 14 3 18 4 13 5 19 6 20 7 21 8 15 9 16 10 17 11
REMARK SMILES IDX 10 13 9 14 8 15 7 16 5 17 2 18 4 19 3 20 6 21 1 22
REMARK H PARENT 17 12 4 23
ROOT
ATOM      1  O   UNL     1      -9.079   1.929  -2.896  1.00  0.00    -0.490 OA
ENDROOT
BRANCH   1   2
ATOM      2  C   UNL     1      -7.725   2.041  -2.925  1.00  0.00     0.155 A 
ATOM      3  C   UNL     1      -5.708   3.170  -2.260  1.00  0.00     0.063 A 
ATOM      4  C   UNL     1      -4.955   2.246  -2.990  1.00  0.00     0.019 A 
ATOM      5  C   UNL     1      -7.100   3.061  -2.232  1.00  0.00     0.065 A 
ATOM      6  C   UNL     1      -5.586   1.228  -3.673  1.00  0.00     0.044 A 
ATOM      7  C   UNL     1      -6.967   1.120  -3.639  1.00  0.00     0.165 A 
ATOM      8  F   UNL     1      -7.579   0.120  -4.311  1.00  0.00    -0.203 F 
BRANCH   3   9
ATOM      9  C   UNL     1      -5.036   4.261  -1.528  1.00  0.00     0.335 C 
ATOM     10  O   UNL     1      -3.835   4.411  -1.630  1.00  0.00    -0.246 OA
BRANCH   9  11
ATOM     11  O   UNL     1      -5.755   5.093  -0.750  1.00  0.00    -0.478 OA
ATOM     12  H   UNL     1      -5.998   4.773   0.130  1.00  0.00     0.297 HD
ENDBRANCH   9  11
ENDBRANCH   3   9
ENDBRANCH   1   2
BRANCH   1  13
ATOM     13  C   UNL     1      -9.802   2.971  -2.236  1.00  0.00     0.230 C 
BRANCH  13  14
ATOM     14  C   UNL     1     -10.925   3.468  -3.148  1.00  0.00     0.046 C 
BRANCH  14  15
ATOM     15  C   UNL     1     -10.498   3.322  -4.610  1.00  0.00     0.043 C 
BRANCH  15  16
ATOM     16  C   UNL     1     -11.702   3.467  -5.504  1.00  0.00    -0.004 A 
ATOM     17  C   UNL     1     -12.412   2.455  -6.054  1.00  0.00     0.036 A 
ATOM     18  C   UNL     1     -12.288   4.672  -5.906  1.00  0.00     0.063 A 
ATOM     19  N   UNL     1     -13.407   3.000  -6.784  1.00  0.00    -0.282 N 
ATOM     20  N   UNL     1     -13.306   4.393  -6.679  1.00  0.00    -0.181 NA
ATOM     21  C   UNL     1     -12.139   0.983  -5.882  1.00  0.00     0.066 C 
ATOM     22  C   UNL     1     -11.820   6.053  -5.525  1.00  0.00     0.069 C 
ATOM     23  H   UNL     1     -14.075   2.513  -7.292  1.00  0.00     0.190 HD
ENDBRANCH  15  16
ENDBRANCH  14  15
ENDBRANCH  13  14
ENDBRANCH   1  13
TORSDOF 7
ENDMDL
MODEL 7
REMARK VINA RESULT:    -4.563      3.706      6.593
REMARK INTER + INTRA:          -6.952
REMARK INTER:                  -6.078
REMARK INTRA:                  -0.874
REMARK UNBOUND:                -0.655
REMARK SMILES Cc1n[nH]c(C)c1CCCOc1cc(C(=O)O)ccc1F
REMARK SMILES IDX 11 1 12 2 14 3 18 4 13 5 19 6 20 7 21 8 15 9 16 10 17 11
REMARK SMILES IDX 10 13 9 14 8 15 7 16 5 17 2 18 4 19 3 20 6 21 1 22
REMARK H PARENT 17 12 4 23
ROOT
ATOM      1  O   UNL     1      -9.064   3.919  -4.367  1.00  0.00    -0.490 OA
ENDROOT
BRANCH   1   2
ATOM      2  C   UNL     1     -10.251   3.725  -5.001  1.00  0.00     0.155 A 
ATOM      3  C   UNL     1     -11.941   2.248  -5.862  1.00  0.00     0.063 A 
ATOM      4  C   UNL     1     -12.684   3.352  -6.288  1.00  0.00     0.019 A 
ATOM      5  C   UNL     1     -10.719   2.442  -5.216  1.00  0.00     0.065 A 
ATOM      6  C   UNL     1     -12.212   4.628  -6.064  1.00  0.00     0.044 A 
ATOM      7  C   UNL     1     -11.002   4.819  -5.418  1.00  0.00     0.165 A 
ATOM      8  F   UNL     1     -10.546   6.072  -5.201  1.00  0.00    -0.203 F 
BRANCH   3   9
ATOM      9  C   UNL     1     -12.443   0.880  -6.101  1.00  0.00     0.335 C 
ATOM     10  O   UNL     1     -13.105   0.320  -5.252  1.00  0.00    -0.246 OA
BRANCH   9  11
ATOM     11  O   UNL     1     -12.171   0.257  -7.264  1.00  0.00    -0.478 OA
ATOM     12  H   UNL     1     -11.419   0.587  -7.775  1.00  0.00     0.297 HD
ENDBRANCH   9  11
ENDBRANCH   3   9
ENDBRANCH   1   2
BRANCH   1  13
ATOM     13  C   UNL     1      -8.727   3.000  -3.325  1.00  0.00     0.230 C 
BRANCH  13  14
ATOM     14  C   UNL     1      -7.274   3.220  -2.901  1.00  0.00     0.046 C 
BRANCH  14  15
ATOM     15  C   UNL     1      -6.409   3.446  -4.143  1.00  0.00     0.043 C 
BRANCH  15  16
ATOM     16  C   UNL     1      -5.921   2.119  -4.664  1.00  0.00    -0.004 A 
ATOM     17  C   UNL     1      -6.286   1.539  -5.831  1.00  0.00     0.036 A 
ATOM     18  C   UNL     1      -5.006   1.272  -4.030  1.00  0.00     0.063 A 
ATOM     19  N   UNL     1      -5.630   0.364  -5.929  1.00  0.00    -0.282 N 
ATOM     20  N   UNL     1      -4.836   0.217  -4.784  1.00  0.00    -0.181 NA
ATOM     21  C   UNL     1      -7.251   2.104  -6.840  1.00  0.00     0.066 C 
ATOM     22  C   UNL     1      -4.340   1.526  -2.702  1.00  0.00     0.069 C 
ATOM     23  H   UNL     1      -5.697  -0.268  -6.662  1.00  0.00     0.190 HD
ENDBRANCH  15  16
ENDBRANCH  14  15
ENDBRANCH  13  14
ENDBRANCH   1  13
TORSDOF 7
ENDMDL
MODEL 8
REMARK VINA RESULT:    -4.467      3.736      6.643
REMARK INTER + INTRA:          -6.819
REMARK INTER:                  -6.066
REMARK INTRA:                  -0.753
REMARK UNBOUND:                -0.655
REMARK SMILES Cc1n[nH]c(C)c1CCCOc1cc(C(=O)O)ccc1F
REMARK SMILES IDX 11 1 12 2 14 3 18 4 13 5 19 6 20 7 21 8 15 9 16 10 17 11
REMARK SMILES IDX 10 13 9 14 8 15 7 16 5 17 2 18 4 19 3 20 6 21 1 22
REMARK H PARENT 17 12 4 23
ROOT
ATOM      1  O   UNL     1      -8.980   3.657  -4.547  1.00  0.00    -0.490 OA
ENDROOT
BRANCH   1   2
ATOM      2  C   UNL     1     -10.210   3.573  -5.120  1.00  0.00     0.155 A 
ATOM      3  C   UNL     1     -12.039   2.254  -5.955  1.00  0.00     0.063 A 
ATOM      4  C   UNL     1     -12.729   3.424  -6.281  1.00  0.00     0.019 A 
ATOM      5  C   UNL     1     -10.773   2.336  -5.371  1.00  0.00     0.065 A 
ATOM      6  C   UNL     1     -12.162   4.654  -6.022  1.00  0.00     0.044 A 
ATOM      7  C   UNL     1     -10.909   4.733  -5.438  1.00  0.00     0.165 A 
ATOM      8  F   UNL     1     -10.359   5.941  -5.186  1.00  0.00    -0.203 F 
BRANCH   3   9
ATOM      9  C   UNL     1     -12.643   0.936  -6.231  1.00  0.00     0.335 C 
ATOM     10  O   UNL     1     -12.690   0.516  -7.369  1.00  0.00    -0.246 OA
BRANCH   9  11
ATOM     11  O   UNL     1     -13.136   0.195  -5.219  1.00  0.00    -0.478 OA
ATOM     12  H   UNL     1     -12.960  -0.756  -5.244  1.00  0.00     0.297 HD
ENDBRANCH   9  11
ENDBRANCH   3   9
ENDBRANCH   1   2
BRANCH   1  13
ATOM     13  C   UNL     1      -8.783   2.942  -3.325  1.00  0.00     0.230 C 
BRANCH  13  14
ATOM     14  C   UNL     1      -7.333   3.105  -2.867  1.00  0.00     0.046 C 
BRANCH  14  15
ATOM     15  C   UNL     1      -6.448   3.416  -4.076  1.00  0.00     0.043 C 
BRANCH  15  16
ATOM     16  C   UNL     1      -5.898   2.132  -4.640  1.00  0.00    -0.004 A 
ATOM     17  C   UNL     1      -5.000   1.318  -4.038  1.00  0.00     0.036 A 
ATOM     18  C   UNL     1      -6.230   1.567  -5.876  1.00  0.00     0.063 A 
ATOM     19  N   UNL     1      -4.767   0.278  -4.866  1.00  0.00    -0.282 N 
ATOM     20  N   UNL     1      -5.547   0.460  -6.016  1.00  0.00    -0.181 NA
ATOM     21  C   UNL     1      -4.373   1.533  -2.685  1.00  0.00     0.066 C 
ATOM     22  C   UNL     1      -7.197   2.141  -6.879  1.00  0.00     0.069 C 
ATOM     23  H   UNL     1      -4.165  -0.463  -4.697  1.00  0.00     0.190 HD
ENDBRANCH  15  16
ENDBRANCH  14  15
ENDBRANCH  13  14
ENDBRANCH   1  13
TORSDOF 7
ENDMDL
MODEL 9
REMARK VINA RESULT:    -4.240      3.894      6.881
REMARK INTER + INTRA:          -6.507
REMARK INTER:                  -5.953
REMARK INTRA:                  -0.554
REMARK UNBOUND:                -0.655
REMARK SMILES Cc1n[nH]c(C)c1CCCOc1cc(C(=O)O)ccc1F
REMARK SMILES IDX 11 1 12 2 14 3 18 4 13 5 19 6 20 7 21 8 15 9 16 10 17 11
REMARK SMILES IDX 10 13 9 14 8 15 7 16 5 17 2 18 4 19 3 20 6 21 1 22
REMARK H PARENT 17 12 4 23
ROOT
ATOM      1  O   UNL     1      -9.004   1.661  -5.067  1.00  0.00    -0.490 OA
ENDROOT
BRANCH   1   2
ATOM      2  C   UNL     1     -10.149   2.307  -5.412  1.00  0.00     0.155 A 
ATOM      3  C   UNL     1     -12.417   2.252  -6.210  1.00  0.00     0.063 A 
ATOM      4  C   UNL     1     -12.484   3.644  -6.103  1.00  0.00     0.019 A 
ATOM      5  C   UNL     1     -11.240   1.586  -5.861  1.00  0.00     0.065 A 
ATOM      6  C   UNL     1     -11.392   4.354  -5.648  1.00  0.00     0.044 A 
ATOM      7  C   UNL     1     -10.228   3.690  -5.298  1.00  0.00     0.165 A 
ATOM      8  F   UNL     1      -9.162   4.391  -4.854  1.00  0.00    -0.203 F 
BRANCH   3   9
ATOM      9  C   UNL     1     -13.584   1.490  -6.695  1.00  0.00     0.335 C 
ATOM     10  O   UNL     1     -14.561   2.076  -7.113  1.00  0.00    -0.246 OA
BRANCH   9  11
ATOM     11  O   UNL     1     -13.561   0.143  -6.680  1.00  0.00    -0.478 OA
ATOM     12  H   UNL     1     -12.790  -0.288  -7.075  1.00  0.00     0.297 HD
ENDBRANCH   9  11
ENDBRANCH   3   9
ENDBRANCH   1   2
BRANCH   1  13
ATOM     13  C   UNL     1      -7.800   2.089  -5.708  1.00  0.00     0.230 C 
BRANCH  13  14
ATOM     14  C   UNL     1      -6.596   1.457  -5.006  1.00  0.00     0.046 C 
BRANCH  14  15
ATOM     15  C   UNL     1      -6.979   1.088  -3.571  1.00  0.00     0.043 C 
BRANCH  15  16
ATOM     16  C   UNL     1      -6.571   2.200  -2.640  1.00  0.00    -0.004 A 
ATOM     17  C   UNL     1      -5.304   2.601  -2.385  1.00  0.00     0.036 A 
ATOM     18  C   UNL     1      -7.436   3.006  -1.892  1.00  0.00     0.063 A 
ATOM     19  N   UNL     1      -5.365   3.620  -1.501  1.00  0.00    -0.282 N 
ATOM     20  N   UNL     1      -6.714   3.852  -1.203  1.00  0.00    -0.181 NA
ATOM     21  C   UNL     1      -4.051   2.016  -2.981  1.00  0.00     0.066 C 
ATOM     22  C   UNL     1      -8.940   2.907  -1.872  1.00  0.00     0.069 C 
ATOM     23  H   UNL     1      -4.609   4.104  -1.136  1.00  0.00     0.190 HD
ENDBRANCH  15  16
ENDBRANCH  14  15
ENDBRANCH  13  14
ENDBRANCH   1  13
TORSDOF 7
ENDMDL
