MODEL 1
REMARK VINA RESULT:    -5.198      0.000      0.000
REMARK INTER + INTRA:          -7.834
REMARK INTER:                  -7.173
REMARK INTRA:                  -0.661
REMARK UNBOUND:                -0.661
REMARK SMILES Cc1n[nH]c(C)c1CCCOc1cc(C(=O)O)ccc1F
REMARK SMILES IDX 11 1 12 2 14 3 18 4 13 5 19 6 20 7 21 8 15 9 16 10 17 11
REMARK SMILES IDX 10 13 9 14 8 15 7 16 5 17 2 18 4 19 3 20 6 21 1 22
REMARK H PARENT 17 12 4 23
ROOT
ATOM      1  O   UNL     1       8.013  -1.304  -3.105  1.00  0.00    -0.490 OA
ENDROOT
BRANCH   1   2
ATOM      2  C   UNL     1       6.687  -1.313  -2.807  1.00  0.00     0.155 A 
ATOM      3  C   UNL     1       4.477  -2.198  -3.148  1.00  0.00     0.063 A 
ATOM      4  C   UNL     1       3.981  -1.323  -2.178  1.00  0.00     0.019 A 
ATOM      5  C   UNL     1       5.838  -2.188  -3.460  1.00  0.00     0.065 A 
ATOM      6  C   UNL     1       4.836  -0.458  -1.528  1.00  0.00     0.044 A 
ATOM      7  C   UNL     1       6.187  -0.454  -1.835  1.00  0.00     0.165 A 
ATOM      8  F   UNL     1       7.020   0.396  -1.195  1.00  0.00    -0.203 F 
BRANCH   3   9
ATOM      9  C   UNL     1       3.564  -3.125  -3.845  1.00  0.00     0.335 C 
ATOM     10  O   UNL     1       2.463  -2.749  -4.191  1.00  0.00    -0.246 OA
BRANCH   9  11
ATOM     11  O   UNL     1       3.956  -4.388  -4.104  1.00  0.00    -0.478 OA
ATOM     12  H   UNL     1       3.259  -5.045  -4.245  1.00  0.00     0.297 HD
ENDBRANCH   9  11
ENDBRANCH   3   9
ENDBRANCH   1   2
BRANCH   1  13
ATOM     13  C   UNL     1       8.437  -0.429  -4.153  1.00  0.00     0.230 C 
BRANCH  13  14
ATOM     14  C   UNL     1       9.822  -0.855  -4.643  1.00  0.00     0.046 C 
BRANCH  14  15
ATOM     15  C   UNL     1       9.913  -2.382  -4.650  1.00  0.00     0.043 C 
BRANCH  15  16
ATOM     16  C   UNL     1      11.088  -2.812  -5.490  1.00  0.00    -0.004 A 
ATOM     17  C   UNL     1      11.042  -3.193  -6.788  1.00  0.00     0.036 A 
ATOM     18  C   UNL     1      12.420  -2.882  -5.069  1.00  0.00     0.063 A 
ATOM     19  N   UNL     1      12.299  -3.500  -7.172  1.00  0.00    -0.282 N 
ATOM     20  N   UNL     1      13.146  -3.301  -6.073  1.00  0.00    -0.181 NA
ATOM     21  C   UNL     1       9.808  -3.263  -7.650  1.00  0.00     0.066 C 
ATOM     22  C   UNL     1      12.929  -2.545  -3.690  1.00  0.00     0.069 C 
ATOM     23  H   UNL     1      12.569  -3.805  -8.052  1.00  0.00     0.190 HD
ENDBRANCH  15  16
ENDBRANCH  14  15
ENDBRANCH  13  14
ENDBRANCH   1  13
TORSDOF 7
ENDMDL
MODEL 2
REMARK VINA RESULT:    -5.196      0.775      1.885
REMARK INTER + INTRA:          -7.831
REMARK INTER:                  -7.192
REMARK INTRA:                  -0.640
REMARK UNBOUND:                -0.661
REMARK SMILES Cc1n[nH]c(C)c1CCCOc1cc(C(=O)O)ccc1F
REMARK SMILES IDX 11 1 12 2 14 3 18 4 13 5 19 6 20 7 21 8 15 9 16 10 17 11
REMARK SMILES IDX 10 13 9 14 8 15 7 16 5 17 2 18 4 19 3 20 6 21 1 22
REMARK H PARENT 17 12 4 23
ROOT
ATOM      1  O   UNL     1       7.568  -0.216  -4.068  1.00  0.00    -0.490 OA
ENDROOT
BRANCH   1   2
ATOM      2  C   UNL     1       6.440  -0.581  -3.402  1.00  0.00     0.155 A 
ATOM      3  C   UNL     1       4.466  -1.942  -3.229  1.00  0.00     0.063 A 
ATOM      4  C   UNL     1       4.145  -1.317  -2.021  1.00  0.00     0.019 A 
ATOM      5  C   UNL     1       5.621  -1.567  -3.918  1.00  0.00     0.065 A 
ATOM      6  C   UNL     1       4.972  -0.338  -1.511  1.00  0.00     0.044 A 
ATOM      7  C   UNL     1       6.120   0.029  -2.194  1.00  0.00     0.165 A 
ATOM      8  F   UNL     1       6.925   0.988  -1.688  1.00  0.00    -0.203 F 
BRANCH   3   9
ATOM      9  C   UNL     1       3.583  -2.990  -3.778  1.00  0.00     0.335 C 
ATOM     10  O   UNL     1       2.474  -2.703  -4.177  1.00  0.00    -0.246 OA
BRANCH   9  11
ATOM     11  O   UNL     1       4.013  -4.266  -3.841  1.00  0.00    -0.478 OA
ATOM     12  H   UNL     1       4.769  -4.503  -3.286  1.00  0.00     0.297 HD
ENDBRANCH   9  11
ENDBRANCH   3   9
ENDBRANCH   1   2
BRANCH   1  13
ATOM     13  C   UNL     1       8.758  -0.955  -3.781  1.00  0.00     0.230 C 
BRANCH  13  14
ATOM     14  C   UNL     1       9.271  -1.613  -5.063  1.00  0.00     0.046 C 
BRANCH  14  15
ATOM     15  C   UNL     1       9.863  -2.984  -4.731  1.00  0.00     0.043 C 
BRANCH  15  16
ATOM     16  C   UNL     1      11.320  -3.009  -5.113  1.00  0.00    -0.004 A 
ATOM     17  C   UNL     1      12.366  -2.787  -4.283  1.00  0.00     0.036 A 
ATOM     18  C   UNL     1      11.832  -3.272  -6.388  1.00  0.00     0.063 A 
ATOM     19  N   UNL     1      13.498  -2.898  -5.008  1.00  0.00    -0.282 N 
ATOM     20  N   UNL     1      13.137  -3.199  -6.328  1.00  0.00    -0.181 NA
ATOM     21  C   UNL     1      12.280  -2.471  -2.813  1.00  0.00     0.066 C 
ATOM     22  C   UNL     1      11.020  -3.575  -7.622  1.00  0.00     0.069 C 
ATOM     23  H   UNL     1      14.402  -2.789  -4.675  1.00  0.00     0.190 HD
ENDBRANCH  15  16
ENDBRANCH  14  15
ENDBRANCH  13  14
ENDBRANCH   1  13
TORSDOF 7
ENDMDL
MODEL 3
REMARK VINA RESULT:    -5.178      2.056      3.027
REMARK INTER + INTRA:          -7.806
REMARK INTER:                  -7.149
REMARK INTRA:                  -0.657
REMARK UNBOUND:                -0.661
REMARK SMILES Cc1n[nH]c(C)c1CCCOc1cc(C(=O)O)ccc1F
REMARK SMILES IDX 11 1 12 2 14 3 18 4 13 5 19 6 20 7 21 8 15 9 16 10 17 11
REMARK SMILES IDX 10 13 9 14 8 15 7 16 5 17 2 18 4 19 3 20 6 21 1 22
REMARK H PARENT 17 12 4 23
ROOT
ATOM      1  O   UNL     1       7.020  -3.721  -3.398  1.00  0.00    -0.490 OA
ENDROOT
BRANCH   1   2
ATOM      2  C   UNL     1       6.062  -2.839  -3.009  1.00  0.00     0.155 A 
ATOM      3  C   UNL     1       5.404  -0.875  -1.788  1.00  0.00     0.063 A 
ATOM      4  C   UNL     1       4.091  -1.041  -2.235  1.00  0.00     0.019 A 
ATOM      5  C   UNL     1       6.390  -1.782  -2.181  1.00  0.00     0.065 A 
ATOM      6  C   UNL     1       3.774  -2.095  -3.067  1.00  0.00     0.044 A 
ATOM      7  C   UNL     1       4.755  -2.991  -3.459  1.00  0.00     0.165 A 
ATOM      8  F   UNL     1       4.438  -4.021  -4.274  1.00  0.00    -0.203 F 
BRANCH   3   9
ATOM      9  C   UNL     1       5.746   0.252  -0.898  1.00  0.00     0.335 C 
ATOM     10  O   UNL     1       5.103   0.445   0.113  1.00  0.00    -0.246 OA
BRANCH   9  11
ATOM     11  O   UNL     1       6.778   1.062  -1.205  1.00  0.00    -0.478 OA
ATOM     12  H   UNL     1       6.865   1.332  -2.130  1.00  0.00     0.297 HD
ENDBRANCH   9  11
ENDBRANCH   3   9
ENDBRANCH   1   2
BRANCH   1  13
ATOM     13  C   UNL     1       7.779  -3.384  -4.563  1.00  0.00     0.230 C 
BRANCH  13  14
ATOM     14  C   UNL     1       9.265  -3.337  -4.206  1.00  0.00     0.046 C 
BRANCH  14  15
ATOM     15  C   UNL     1       9.939  -2.202  -4.980  1.00  0.00     0.043 C 
BRANCH  15  16
ATOM     16  C   UNL     1      11.110  -2.748  -5.756  1.00  0.00    -0.004 A 
ATOM     17  C   UNL     1      11.081  -3.191  -7.035  1.00  0.00     0.036 A 
ATOM     18  C   UNL     1      12.420  -2.881  -5.285  1.00  0.00     0.063 A 
ATOM     19  N   UNL     1      12.327  -3.596  -7.358  1.00  0.00    -0.282 N 
ATOM     20  N   UNL     1      13.149  -3.396  -6.241  1.00  0.00    -0.181 NA
ATOM     21  C   UNL     1       9.874  -3.224  -7.935  1.00  0.00     0.066 C 
ATOM     22  C   UNL     1      12.906  -2.508  -3.907  1.00  0.00     0.069 C 
ATOM     23  H   UNL     1      12.604  -3.961  -8.212  1.00  0.00     0.190 HD
ENDBRANCH  15  16
ENDBRANCH  14  15
ENDBRANCH  13  14
ENDBRANCH   1  13
TORSDOF 7
ENDMDL
MODEL 4
REMARK VINA RESULT:    -5.166      2.084      3.616
REMARK INTER + INTRA:          -7.790
REMARK INTER:                  -7.165
REMARK INTRA:                  -0.625
REMARK UNBOUND:                -0.661
REMARK SMILES Cc1n[nH]c(C)c1CCCOc1cc(C(=O)O)ccc1F
REMARK SMILES IDX 11 1 12 2 14 3 18 4 13 5 19 6 20 7 21 8 15 9 16 10 17 11
REMARK SMILES IDX 10 13 9 14 8 15 7 16 5 17 2 18 4 19 3 20 6 21 1 22
REMARK H PARENT 17 12 4 23
ROOT
ATOM      1  O   UNL     1       7.071  -2.935  -4.510  1.00  0.00    -0.490 OA
ENDROOT
BRANCH   1   2
ATOM      2  C   UNL     1       6.173  -2.292  -3.717  1.00  0.00     0.155 A 
ATOM      3  C   UNL     1       5.656  -0.577  -2.113  1.00  0.00     0.063 A 
ATOM      4  C   UNL     1       4.319  -0.984  -2.113  1.00  0.00     0.019 A 
ATOM      5  C   UNL     1       6.583  -1.238  -2.921  1.00  0.00     0.065 A 
ATOM      6  C   UNL     1       3.919  -2.032  -2.915  1.00  0.00     0.044 A 
ATOM      7  C   UNL     1       4.838  -2.684  -3.720  1.00  0.00     0.165 A 
ATOM      8  F   UNL     1       4.439  -3.710  -4.503  1.00  0.00    -0.203 F 
BRANCH   3   9
ATOM      9  C   UNL     1       6.088   0.545  -1.256  1.00  0.00     0.335 C 
ATOM     10  O   UNL     1       7.040   0.411  -0.515  1.00  0.00    -0.246 OA
BRANCH   9  11
ATOM     11  O   UNL     1       5.429   1.719  -1.302  1.00  0.00    -0.478 OA
ATOM     12  H   UNL     1       5.955   2.511  -1.485  1.00  0.00     0.297 HD
ENDBRANCH   9  11
ENDBRANCH   3   9
ENDBRANCH   1   2
BRANCH   1  13
ATOM     13  C   UNL     1       7.758  -4.051  -3.938  1.00  0.00     0.230 C 
BRANCH  13  14
ATOM     14  C   UNL     1       9.140  -4.182  -4.581  1.00  0.00     0.046 C 
BRANCH  14  15
ATOM     15  C   UNL     1       9.731  -2.789  -4.808  1.00  0.00     0.043 C 
BRANCH  15  16
ATOM     16  C   UNL     1      11.176  -2.916  -5.214  1.00  0.00    -0.004 A 
ATOM     17  C   UNL     1      12.248  -2.750  -4.404  1.00  0.00     0.036 A 
ATOM     18  C   UNL     1      11.648  -3.232  -6.492  1.00  0.00     0.063 A 
ATOM     19  N   UNL     1      13.358  -2.948  -5.146  1.00  0.00    -0.282 N 
ATOM     20  N   UNL     1      12.955  -3.245  -6.454  1.00  0.00    -0.181 NA
ATOM     21  C   UNL     1      12.209  -2.407  -2.938  1.00  0.00     0.066 C 
ATOM     22  C   UNL     1      10.796  -3.500  -7.707  1.00  0.00     0.069 C 
ATOM     23  H   UNL     1      14.273  -2.893  -4.829  1.00  0.00     0.190 HD
ENDBRANCH  15  16
ENDBRANCH  14  15
ENDBRANCH  13  14
ENDBRANCH   1  13
TORSDOF 7
ENDMDL
MODEL 5
REMARK VINA RESULT:    -4.728      4.238      7.856
REMARK INTER + INTRA:          -7.185
REMARK INTER:                  -6.701
REMARK INTRA:                  -0.484
REMARK UNBOUND:                -0.661
REMARK SMILES Cc1n[nH]c(C)c1CCCOc1cc(C(=O)O)ccc1F
REMARK SMILES IDX 11 1 12 2 14 3 18 4 13 5 19 6 20 7 21 8 15 9 16 10 17 11
REMARK SMILES IDX 10 13 9 14 8 15 7 16 5 17 2 18 4 19 3 20 6 21 1 22
REMARK H PARENT 17 12 4 23
ROOT
ATOM      1  O   UNL     1       8.327  -2.593  -5.324  1.00  0.00    -0.490 OA
ENDROOT
BRANCH   1   2
ATOM      2  C   UNL     1       9.635  -2.790  -5.635  1.00  0.00     0.155 A 
ATOM      3  C   UNL     1      11.952  -2.824  -4.993  1.00  0.00     0.063 A 
ATOM      4  C   UNL     1      12.302  -3.208  -6.290  1.00  0.00     0.019 A 
ATOM      5  C   UNL     1      10.609  -2.615  -4.670  1.00  0.00     0.065 A 
ATOM      6  C   UNL     1      11.323  -3.386  -7.244  1.00  0.00     0.044 A 
ATOM      7  C   UNL     1       9.992  -3.183  -6.921  1.00  0.00     0.165 A 
ATOM      8  F   UNL     1       9.037  -3.359  -7.860  1.00  0.00    -0.203 F 
BRANCH   3   9
ATOM      9  C   UNL     1      12.998  -2.633  -3.969  1.00  0.00     0.335 C 
ATOM     10  O   UNL     1      12.773  -1.952  -2.990  1.00  0.00    -0.246 OA
BRANCH   9  11
ATOM     11  O   UNL     1      14.201  -3.222  -4.118  1.00  0.00    -0.478 OA
ATOM     12  H   UNL     1      14.207  -4.177  -4.269  1.00  0.00     0.297 HD
ENDBRANCH   9  11
ENDBRANCH   3   9
ENDBRANCH   1   2
BRANCH   1  13
ATOM     13  C   UNL     1       7.860  -3.158  -4.096  1.00  0.00     0.230 C 
BRANCH  13  14
ATOM     14  C   UNL     1       7.602  -2.039  -3.086  1.00  0.00     0.046 C 
BRANCH  14  15
ATOM     15  C   UNL     1       6.550  -1.079  -3.645  1.00  0.00     0.043 C 
BRANCH  15  16
ATOM     16  C   UNL     1       5.345  -1.071  -2.741  1.00  0.00    -0.004 A 
ATOM     17  C   UNL     1       5.167  -0.280  -1.658  1.00  0.00     0.036 A 
ATOM     18  C   UNL     1       4.209  -1.876  -2.877  1.00  0.00     0.063 A 
ATOM     19  N   UNL     1       3.964  -0.578  -1.123  1.00  0.00    -0.282 N 
ATOM     20  N   UNL     1       3.384  -1.587  -1.904  1.00  0.00    -0.181 NA
ATOM     21  C   UNL     1       6.138   0.750  -1.141  1.00  0.00     0.066 C 
ATOM     22  C   UNL     1       3.981  -2.908  -3.951  1.00  0.00     0.069 C 
ATOM     23  H   UNL     1       3.572  -0.168  -0.337  1.00  0.00     0.190 HD
ENDBRANCH  15  16
ENDBRANCH  14  15
ENDBRANCH  13  14
ENDBRANCH   1  13
TORSDOF 7
ENDMDL
MODEL 6
REMARK VINA RESULT:    -4.716      4.242      7.711
REMARK INTER + INTRA:          -7.168
REMARK INTER:                  -6.688
REMARK INTRA:                  -0.480
REMARK UNBOUND:                -0.661
REMARK SMILES Cc1n[nH]c(C)c1CCCOc1cc(C(=O)O)ccc1F
REMARK SMILES IDX 11 1 12 2 14 3 18 4 13 5 19 6 20 7 21 8 15 9 16 10 17 11
REMARK SMILES IDX 10 13 9 14 8 15 7 16 5 17 2 18 4 19 3 20 6 21 1 22
REMARK H PARENT 17 12 4 23
ROOT
ATOM      1  O   UNL     1       8.367  -2.611  -5.342  1.00  0.00    -0.490 OA
ENDROOT
BRANCH   1   2
ATOM      2  C   UNL     1       9.673  -2.809  -5.664  1.00  0.00     0.155 A 
ATOM      3  C   UNL     1      11.996  -2.837  -5.040  1.00  0.00     0.063 A 
ATOM      4  C   UNL     1      12.335  -3.228  -6.338  1.00  0.00     0.019 A 
ATOM      5  C   UNL     1      10.655  -2.628  -4.708  1.00  0.00     0.065 A 
ATOM      6  C   UNL     1      11.348  -3.411  -7.283  1.00  0.00     0.044 A 
ATOM      7  C   UNL     1      10.019  -3.208  -6.950  1.00  0.00     0.165 A 
ATOM      8  F   UNL     1       9.057  -3.390  -7.881  1.00  0.00    -0.203 F 
BRANCH   3   9
ATOM      9  C   UNL     1      13.050  -2.640  -4.026  1.00  0.00     0.335 C 
ATOM     10  O   UNL     1      12.831  -1.956  -3.047  1.00  0.00    -0.246 OA
BRANCH   9  11
ATOM     11  O   UNL     1      14.253  -3.226  -4.183  1.00  0.00    -0.478 OA
ATOM     12  H   UNL     1      14.257  -4.157  -4.448  1.00  0.00     0.297 HD
ENDBRANCH   9  11
ENDBRANCH   3   9
ENDBRANCH   1   2
BRANCH   1  13
ATOM     13  C   UNL     1       7.930  -3.103  -4.073  1.00  0.00     0.230 C 
BRANCH  13  14
ATOM     14  C   UNL     1       7.642  -1.924  -3.142  1.00  0.00     0.046 C 
BRANCH  14  15
ATOM     15  C   UNL     1       6.516  -1.072  -3.731  1.00  0.00     0.043 C 
BRANCH  15  16
ATOM     16  C   UNL     1       5.328  -1.097  -2.805  1.00  0.00    -0.004 A 
ATOM     17  C   UNL     1       4.246  -1.903  -2.919  1.00  0.00     0.036 A 
ATOM     18  C   UNL     1       5.150  -0.297  -1.672  1.00  0.00     0.063 A 
ATOM     19  N   UNL     1       3.411  -1.617  -1.898  1.00  0.00    -0.282 N 
ATOM     20  N   UNL     1       3.999  -0.602  -1.131  1.00  0.00    -0.181 NA
ATOM     21  C   UNL     1       4.016  -2.934  -3.993  1.00  0.00     0.066 C 
ATOM     22  C   UNL     1       6.114   0.747  -1.168  1.00  0.00     0.069 C 
ATOM     23  H   UNL     1       2.555  -2.039  -1.726  1.00  0.00     0.190 HD
ENDBRANCH  15  16
ENDBRANCH  14  15
ENDBRANCH  13  14
ENDBRANCH   1  13
TORSDOF 7
ENDMDL
MODEL 7
REMARK VINA RESULT:    -4.706      4.110      7.266
REMARK INTER + INTRA:          -7.155
REMARK INTER:                  -6.628
REMARK INTRA:                  -0.527
REMARK UNBOUND:                -0.661
REMARK SMILES Cc1n[nH]c(C)c1CCCOc1cc(C(=O)O)ccc1F
REMARK SMILES IDX 11 1 12 2 14 3 18 4 13 5 19 6 20 7 21 8 15 9 16 10 17 11
REMARK SMILES IDX 10 13 9 14 8 15 7 16 5 17 2 18 4 19 3 20 6 21 1 22
REMARK H PARENT 17 12 4 23
ROOT
ATOM      1  O   UNL     1       9.374  -2.057  -3.418  1.00  0.00    -0.490 OA
ENDROOT
BRANCH   1   2
ATOM      2  C   UNL     1      10.440  -2.410  -4.184  1.00  0.00     0.155 A 
ATOM      3  C   UNL     1      11.349  -3.145  -6.285  1.00  0.00     0.063 A 
ATOM      4  C   UNL     1      12.633  -3.117  -5.736  1.00  0.00     0.019 A 
ATOM      5  C   UNL     1      10.251  -2.788  -5.500  1.00  0.00     0.065 A 
ATOM      6  C   UNL     1      12.813  -2.732  -4.424  1.00  0.00     0.044 A 
ATOM      7  C   UNL     1      11.723  -2.374  -3.648  1.00  0.00     0.165 A 
ATOM      8  F   UNL     1      11.905  -1.998  -2.363  1.00  0.00    -0.203 F 
BRANCH   3   9
ATOM      9  C   UNL     1      11.153  -3.556  -7.690  1.00  0.00     0.335 C 
ATOM     10  O   UNL     1      10.157  -4.173  -8.009  1.00  0.00    -0.246 OA
BRANCH   9  11
ATOM     11  O   UNL     1      12.077  -3.241  -8.618  1.00  0.00    -0.478 OA
ATOM     12  H   UNL     1      11.754  -2.864  -9.449  1.00  0.00     0.297 HD
ENDBRANCH   9  11
ENDBRANCH   3   9
ENDBRANCH   1   2
BRANCH   1  13
ATOM     13  C   UNL     1       8.459  -1.111  -3.976  1.00  0.00     0.230 C 
BRANCH  13  14
ATOM     14  C   UNL     1       7.128  -1.804  -4.274  1.00  0.00     0.046 C 
BRANCH  14  15
ATOM     15  C   UNL     1       6.584  -2.437  -2.992  1.00  0.00     0.043 C 
BRANCH  15  16
ATOM     16  C   UNL     1       5.221  -1.870  -2.691  1.00  0.00    -0.004 A 
ATOM     17  C   UNL     1       4.038  -2.366  -3.124  1.00  0.00     0.036 A 
ATOM     18  C   UNL     1       4.953  -0.743  -1.907  1.00  0.00     0.063 A 
ATOM     19  N   UNL     1       3.058  -1.576  -2.638  1.00  0.00    -0.282 N 
ATOM     20  N   UNL     1       3.658  -0.561  -1.881  1.00  0.00    -0.181 NA
ATOM     21  C   UNL     1       3.850  -3.581  -3.994  1.00  0.00     0.066 C 
ATOM     22  C   UNL     1       5.981   0.122  -1.222  1.00  0.00     0.069 C 
ATOM     23  H   UNL     1       2.107  -1.689  -2.787  1.00  0.00     0.190 HD
ENDBRANCH  15  16
ENDBRANCH  14  15
ENDBRANCH  13  14
ENDBRANCH   1  13
TORSDOF 7
ENDMDL
MODEL 8
REMARK VINA RESULT:    -4.705      4.106      7.469
REMARK INTER + INTRA:          -7.153
REMARK INTER:                  -6.621
REMARK INTRA:                  -0.532
REMARK UNBOUND:                -0.661
REMARK SMILES Cc1n[nH]c(C)c1CCCOc1cc(C(=O)O)ccc1F
REMARK SMILES IDX 11 1 12 2 14 3 18 4 13 5 19 6 20 7 21 8 15 9 16 10 17 11
REMARK SMILES IDX 10 13 9 14 8 15 7 16 5 17 2 18 4 19 3 20 6 21 1 22
REMARK H PARENT 17 12 4 23
ROOT
ATOM      1  O   UNL     1       9.363  -2.071  -3.420  1.00  0.00    -0.490 OA
ENDROOT
BRANCH   1   2
ATOM      2  C   UNL     1      10.463  -2.410  -4.143  1.00  0.00     0.155 A 
ATOM      3  C   UNL     1      11.467  -3.106  -6.214  1.00  0.00     0.063 A 
ATOM      4  C   UNL     1      12.725  -3.089  -5.606  1.00  0.00     0.019 A 
ATOM      5  C   UNL     1      10.334  -2.764  -5.473  1.00  0.00     0.065 A 
ATOM      6  C   UNL     1      12.845  -2.729  -4.280  1.00  0.00     0.044 A 
ATOM      7  C   UNL     1      11.720  -2.385  -3.549  1.00  0.00     0.165 A 
ATOM      8  F   UNL     1      11.844  -2.033  -2.250  1.00  0.00    -0.203 F 
BRANCH   3   9
ATOM      9  C   UNL     1      11.336  -3.491  -7.633  1.00  0.00     0.335 C 
ATOM     10  O   UNL     1      12.321  -3.549  -8.341  1.00  0.00    -0.246 OA
BRANCH   9  11
ATOM     11  O   UNL     1      10.123  -3.783  -8.142  1.00  0.00    -0.478 OA
ATOM     12  H   UNL     1      10.093  -4.087  -9.060  1.00  0.00     0.297 HD
ENDBRANCH   9  11
ENDBRANCH   3   9
ENDBRANCH   1   2
BRANCH   1  13
ATOM     13  C   UNL     1       8.393  -1.242  -4.065  1.00  0.00     0.230 C 
BRANCH  13  14
ATOM     14  C   UNL     1       7.098  -2.031  -4.260  1.00  0.00     0.046 C 
BRANCH  14  15
ATOM     15  C   UNL     1       6.571  -2.492  -2.899  1.00  0.00     0.043 C 
BRANCH  15  16
ATOM     16  C   UNL     1       5.222  -1.872  -2.645  1.00  0.00    -0.004 A 
ATOM     17  C   UNL     1       4.982  -0.762  -1.909  1.00  0.00     0.036 A 
ATOM     18  C   UNL     1       3.997  -2.338  -3.134  1.00  0.00     0.063 A 
ATOM     19  N   UNL     1       3.651  -0.538  -1.925  1.00  0.00    -0.282 N 
ATOM     20  N   UNL     1       3.054  -1.543  -2.697  1.00  0.00    -0.181 NA
ATOM     21  C   UNL     1       6.015   0.072  -1.198  1.00  0.00     0.066 C 
ATOM     22  C   UNL     1       3.796  -3.553  -4.003  1.00  0.00     0.069 C 
ATOM     23  H   UNL     1       3.190   0.190  -1.480  1.00  0.00     0.190 HD
ENDBRANCH  15  16
ENDBRANCH  14  15
ENDBRANCH  13  14
ENDBRANCH   1  13
TORSDOF 7
ENDMDL
MODEL 9
REMARK VINA RESULT:    -4.252      4.452      7.949
REMARK INTER + INTRA:          -6.528
REMARK INTER:                  -5.871
REMARK INTRA:                  -0.657
REMARK UNBOUND:                -0.661
REMARK SMILES Cc1n[nH]c(C)c1CCCOc1cc(C(=O)O)ccc1F
REMARK SMILES IDX 11 1 12 2 14 3 18 4 13 5 19 6 20 7 21 8 15 9 16 10 17 11
REMARK SMILES IDX 10 13 9 14 8 15 7 16 5 17 2 18 4 19 3 20 6 21 1 22
REMARK H PARENT 17 12 4 23
ROOT
ATOM      1  O   UNL     1       8.784  -3.149  -5.549  1.00  0.00    -0.490 OA
ENDROOT
BRANCH   1   2
ATOM      2  C   UNL     1       9.558  -3.183  -6.667  1.00  0.00     0.155 A 
ATOM      3  C   UNL     1      11.677  -3.587  -7.728  1.00  0.00     0.063 A 
ATOM      4  C   UNL     1      11.117  -3.254  -8.964  1.00  0.00     0.019 A 
ATOM      5  C   UNL     1      10.888  -3.549  -6.577  1.00  0.00     0.065 A 
ATOM      6  C   UNL     1       9.788  -2.896  -9.045  1.00  0.00     0.044 A 
ATOM      7  C   UNL     1       9.006  -2.864  -7.902  1.00  0.00     0.165 A 
ATOM      8  F   UNL     1       7.704  -2.512  -7.988  1.00  0.00    -0.203 F 
BRANCH   3   9
ATOM      9  C   UNL     1      13.100  -3.971  -7.638  1.00  0.00     0.335 C 
ATOM     10  O   UNL     1      13.794  -3.527  -6.747  1.00  0.00    -0.246 OA
BRANCH   9  11
ATOM     11  O   UNL     1      13.626  -4.821  -8.542  1.00  0.00    -0.478 OA
ATOM     12  H   UNL     1      14.370  -5.366  -8.251  1.00  0.00     0.297 HD
ENDBRANCH   9  11
ENDBRANCH   3   9
ENDBRANCH   1   2
BRANCH   1  13
ATOM     13  C   UNL     1       9.018  -2.079  -4.630  1.00  0.00     0.230 C 
BRANCH  13  14
ATOM     14  C   UNL     1       7.682  -1.456  -4.223  1.00  0.00     0.046 C 
BRANCH  14  15
ATOM     15  C   UNL     1       7.217  -2.066  -2.899  1.00  0.00     0.043 C 
BRANCH  15  16
ATOM     16  C   UNL     1       5.796  -1.649  -2.624  1.00  0.00    -0.004 A 
ATOM     17  C   UNL     1       5.407  -0.550  -1.936  1.00  0.00     0.036 A 
ATOM     18  C   UNL     1       4.644  -2.325  -3.041  1.00  0.00     0.063 A 
ATOM     19  N   UNL     1       4.057  -0.535  -1.913  1.00  0.00    -0.282 N 
ATOM     20  N   UNL     1       3.602  -1.663  -2.609  1.00  0.00    -0.181 NA
ATOM     21  C   UNL     1       6.317   0.474  -1.310  1.00  0.00     0.066 C 
ATOM     22  C   UNL     1       4.610  -3.604  -3.838  1.00  0.00     0.069 C 
ATOM     23  H   UNL     1       3.501   0.136  -1.488  1.00  0.00     0.190 HD
ENDBRANCH  15  16
ENDBRANCH  14  15
ENDBRANCH  13  14
ENDBRANCH   1  13
TORSDOF 7
ENDMDL
