MODEL 1
REMARK VINA RESULT:    -4.979      0.000      0.000
REMARK INTER + INTRA:          -6.003
REMARK INTER:                  -5.707
REMARK INTRA:                  -0.296
REMARK UNBOUND:                -0.296
REMARK SMILES O=C(O)c1ccc2nc(-c3cc(Cl)cc(Cl)c3)oc2c1
REMARK SMILES IDX 5 1 6 2 20 3 8 4 18 5 4 6 9 7 7 8 19 9 2 10 1 11 3 12 10 14
REMARK SMILES IDX 11 15 17 16 12 17 15 18 14 19 13 20 16 21
REMARK H PARENT 3 13
ROOT
ATOM      1  C   UNL     1      12.345  -2.907  -5.141  1.00  0.00     0.018 A 
ATOM      2  C   UNL     1      11.586  -2.508  -4.082  1.00  0.00     0.033 A 
ATOM      3  C   UNL     1      10.356  -3.133  -6.511  1.00  0.00     0.065 A 
ATOM      4  N   UNL     1       9.205  -2.059  -3.365  1.00  0.00    -0.209 NA
ATOM      5  O   UNL     1       8.255  -2.551  -5.259  1.00  0.00    -0.436 OA
ATOM      6  C   UNL     1      11.742  -3.222  -6.367  1.00  0.00     0.063 A 
ATOM      7  C   UNL     1       8.058  -2.141  -3.992  1.00  0.00     0.227 A 
ATOM      8  C   UNL     1      10.195  -2.414  -4.212  1.00  0.00     0.110 A 
ATOM      9  C   UNL     1       9.582  -2.733  -5.437  1.00  0.00     0.156 A 
ENDROOT
BRANCH   6  10
ATOM     10  C   UNL     1      12.573  -3.646  -7.508  1.00  0.00     0.335 C 
ATOM     11  O   UNL     1      12.110  -3.646  -8.631  1.00  0.00    -0.246 OA
BRANCH  10  12
ATOM     12  O   UNL     1      13.848  -4.036  -7.306  1.00  0.00    -0.478 OA
ATOM     13  H   UNL     1      14.122  -4.868  -7.713  1.00  0.00     0.297 HD
ENDBRANCH  10  12
ENDBRANCH   6  10
BRANCH   7  14
ATOM     14  C   UNL     1       6.743  -1.831  -3.395  1.00  0.00     0.040 A 
ATOM     15  C   UNL     1       5.578  -2.365  -3.949  1.00  0.00     0.034 A 
ATOM     16  C   UNL     1       6.660  -1.002  -2.274  1.00  0.00     0.034 A 
ATOM     17  C   UNL     1       4.352  -2.072  -3.385  1.00  0.00     0.043 A 
ATOM     18  C   UNL     1       5.428  -0.717  -1.720  1.00  0.00     0.043 A 
ATOM     19  C   UNL     1       4.277  -1.249  -2.274  1.00  0.00     0.041 A 
ATOM     20  Cl  UNL     1       2.902  -2.735  -4.072  1.00  0.00    -0.084 Cl
ATOM     21  Cl  UNL     1       5.323   0.313  -0.326  1.00  0.00    -0.084 Cl
ENDBRANCH   7  14
TORSDOF 3
ENDMDL
MODEL 2
REMARK VINA RESULT:    -4.976      0.021      2.020
REMARK INTER + INTRA:          -5.999
REMARK INTER:                  -5.703
REMARK INTRA:                  -0.296
REMARK UNBOUND:                -0.296
REMARK SMILES O=C(O)c1ccc2nc(-c3cc(Cl)cc(Cl)c3)oc2c1
REMARK SMILES IDX 5 1 6 2 20 3 8 4 18 5 4 6 9 7 7 8 19 9 2 10 1 11 3 12 10 14
REMARK SMILES IDX 11 15 17 16 12 17 15 18 14 19 13 20 16 21
REMARK H PARENT 3 13
ROOT
ATOM      1  C   UNL     1      12.362  -2.892  -5.152  1.00  0.00     0.018 A 
ATOM      2  C   UNL     1      11.604  -2.486  -4.095  1.00  0.00     0.033 A 
ATOM      3  C   UNL     1      10.371  -3.146  -6.512  1.00  0.00     0.065 A 
ATOM      4  N   UNL     1       9.224  -2.044  -3.375  1.00  0.00    -0.209 NA
ATOM      5  O   UNL     1       8.270  -2.564  -5.260  1.00  0.00    -0.436 OA
ATOM      6  C   UNL     1      11.757  -3.225  -6.373  1.00  0.00     0.063 A 
ATOM      7  C   UNL     1       8.075  -2.141  -3.997  1.00  0.00     0.227 A 
ATOM      8  C   UNL     1      10.212  -2.403  -4.221  1.00  0.00     0.110 A 
ATOM      9  C   UNL     1       9.598  -2.739  -5.440  1.00  0.00     0.156 A 
ENDROOT
BRANCH   6  10
ATOM     10  C   UNL     1      12.588  -3.657  -7.511  1.00  0.00     0.335 C 
ATOM     11  O   UNL     1      12.119  -3.677  -8.632  1.00  0.00    -0.246 OA
BRANCH  10  12
ATOM     12  O   UNL     1      13.867  -4.031  -7.309  1.00  0.00    -0.478 OA
ATOM     13  H   UNL     1      14.310  -3.676  -6.528  1.00  0.00     0.297 HD
ENDBRANCH  10  12
ENDBRANCH   6  10
BRANCH   7  14
ATOM     14  C   UNL     1       6.759  -1.832  -3.399  1.00  0.00     0.040 A 
ATOM     15  C   UNL     1       6.675  -1.005  -2.279  1.00  0.00     0.034 A 
ATOM     16  C   UNL     1       5.595  -2.369  -3.952  1.00  0.00     0.034 A 
ATOM     17  C   UNL     1       5.442  -0.719  -1.725  1.00  0.00     0.043 A 
ATOM     18  C   UNL     1       4.369  -2.077  -3.390  1.00  0.00     0.043 A 
ATOM     19  C   UNL     1       4.292  -1.255  -2.279  1.00  0.00     0.041 A 
ATOM     20  Cl  UNL     1       5.335   0.311  -0.332  1.00  0.00    -0.084 Cl
ATOM     21  Cl  UNL     1       2.920  -2.743  -4.077  1.00  0.00    -0.084 Cl
ENDBRANCH   7  14
TORSDOF 3
ENDMDL
MODEL 3
REMARK VINA RESULT:    -4.938      1.319      2.023
REMARK INTER + INTRA:          -5.955
REMARK INTER:                  -5.659
REMARK INTRA:                  -0.297
REMARK UNBOUND:                -0.296
REMARK SMILES O=C(O)c1ccc2nc(-c3cc(Cl)cc(Cl)c3)oc2c1
REMARK SMILES IDX 5 1 6 2 20 3 8 4 18 5 4 6 9 7 7 8 19 9 2 10 1 11 3 12 10 14
REMARK SMILES IDX 11 15 17 16 12 17 15 18 14 19 13 20 16 21
REMARK H PARENT 3 13
ROOT
ATOM      1  C   UNL     1      12.011  -3.096  -6.081  1.00  0.00     0.018 A 
ATOM      2  C   UNL     1      10.658  -3.063  -6.243  1.00  0.00     0.033 A 
ATOM      3  C   UNL     1      11.779  -2.350  -3.785  1.00  0.00     0.065 A 
ATOM      4  N   UNL     1       8.498  -2.543  -5.040  1.00  0.00    -0.209 NA
ATOM      5  O   UNL     1       9.379  -1.984  -3.131  1.00  0.00    -0.436 OA
ATOM      6  C   UNL     1      12.588  -2.743  -4.853  1.00  0.00     0.063 A 
ATOM      7  C   UNL     1       8.234  -2.136  -3.824  1.00  0.00     0.227 A 
ATOM      8  C   UNL     1       9.835  -2.671  -5.180  1.00  0.00     0.110 A 
ATOM      9  C   UNL     1      10.406  -2.311  -3.947  1.00  0.00     0.156 A 
ENDROOT
BRANCH   6  10
ATOM     10  C   UNL     1      14.052  -2.788  -4.688  1.00  0.00     0.335 C 
ATOM     11  O   UNL     1      14.557  -2.429  -3.643  1.00  0.00    -0.246 OA
BRANCH  10  12
ATOM     12  O   UNL     1      14.831  -3.226  -5.697  1.00  0.00    -0.478 OA
ATOM     13  H   UNL     1      15.486  -3.904  -5.483  1.00  0.00     0.297 HD
ENDBRANCH  10  12
ENDBRANCH   6  10
BRANCH   7  14
ATOM     14  C   UNL     1       6.880  -1.880  -3.291  1.00  0.00     0.040 A 
ATOM     15  C   UNL     1       5.770  -2.496  -3.871  1.00  0.00     0.034 A 
ATOM     16  C   UNL     1       6.706  -1.020  -2.204  1.00  0.00     0.034 A 
ATOM     17  C   UNL     1       4.508  -2.253  -3.368  1.00  0.00     0.043 A 
ATOM     18  C   UNL     1       5.438  -0.786  -1.710  1.00  0.00     0.043 A 
ATOM     19  C   UNL     1       4.342  -1.400  -2.290  1.00  0.00     0.041 A 
ATOM     20  Cl  UNL     1       3.126  -3.018  -4.088  1.00  0.00    -0.084 Cl
ATOM     21  Cl  UNL     1       5.219   0.283  -0.359  1.00  0.00    -0.084 Cl
ENDBRANCH   7  14
TORSDOF 3
ENDMDL
MODEL 4
REMARK VINA RESULT:    -4.935      1.318      2.856
REMARK INTER + INTRA:          -5.952
REMARK INTER:                  -5.655
REMARK INTRA:                  -0.297
REMARK UNBOUND:                -0.296
REMARK SMILES O=C(O)c1ccc2nc(-c3cc(Cl)cc(Cl)c3)oc2c1
REMARK SMILES IDX 5 1 6 2 20 3 8 4 18 5 4 6 9 7 7 8 19 9 2 10 1 11 3 12 10 14
REMARK SMILES IDX 11 15 17 16 12 17 15 18 14 19 13 20 16 21
REMARK H PARENT 3 13
ROOT
ATOM      1  C   UNL     1      12.010  -3.098  -6.082  1.00  0.00     0.018 A 
ATOM      2  C   UNL     1      10.657  -3.064  -6.242  1.00  0.00     0.033 A 
ATOM      3  C   UNL     1      11.782  -2.349  -3.787  1.00  0.00     0.065 A 
ATOM      4  N   UNL     1       8.499  -2.541  -5.036  1.00  0.00    -0.209 NA
ATOM      5  O   UNL     1       9.384  -1.981  -3.129  1.00  0.00    -0.436 OA
ATOM      6  C   UNL     1      12.589  -2.744  -4.856  1.00  0.00     0.063 A 
ATOM      7  C   UNL     1       8.238  -2.133  -3.819  1.00  0.00     0.227 A 
ATOM      8  C   UNL     1       9.836  -2.671  -5.178  1.00  0.00     0.110 A 
ATOM      9  C   UNL     1      10.409  -2.309  -3.946  1.00  0.00     0.156 A 
ENDROOT
BRANCH   6  10
ATOM     10  C   UNL     1      14.054  -2.790  -4.694  1.00  0.00     0.335 C 
ATOM     11  O   UNL     1      14.561  -2.427  -3.651  1.00  0.00    -0.246 OA
BRANCH  10  12
ATOM     12  O   UNL     1      14.830  -3.233  -5.702  1.00  0.00    -0.478 OA
ATOM     13  H   UNL     1      14.475  -3.946  -6.249  1.00  0.00     0.297 HD
ENDBRANCH  10  12
ENDBRANCH   6  10
BRANCH   7  14
ATOM     14  C   UNL     1       6.885  -1.876  -3.284  1.00  0.00     0.040 A 
ATOM     15  C   UNL     1       6.712  -1.017  -2.198  1.00  0.00     0.034 A 
ATOM     16  C   UNL     1       5.774  -2.492  -3.864  1.00  0.00     0.034 A 
ATOM     17  C   UNL     1       5.445  -0.781  -1.703  1.00  0.00     0.043 A 
ATOM     18  C   UNL     1       4.512  -2.247  -3.360  1.00  0.00     0.043 A 
ATOM     19  C   UNL     1       4.347  -1.395  -2.282  1.00  0.00     0.041 A 
ATOM     20  Cl  UNL     1       5.227   0.287  -0.352  1.00  0.00    -0.084 Cl
ATOM     21  Cl  UNL     1       3.129  -3.012  -4.080  1.00  0.00    -0.084 Cl
ENDBRANCH   7  14
TORSDOF 3
ENDMDL
MODEL 5
REMARK VINA RESULT:    -4.194      3.751      7.433
REMARK INTER + INTRA:          -5.104
REMARK INTER:                  -4.807
REMARK INTRA:                  -0.296
REMARK UNBOUND:                -0.296
REMARK SMILES O=C(O)c1ccc2nc(-c3cc(Cl)cc(Cl)c3)oc2c1
REMARK SMILES IDX 5 1 6 2 20 3 8 4 18 5 4 6 9 7 7 8 19 9 2 10 1 11 3 12 10 14
REMARK SMILES IDX 11 15 17 16 12 17 15 18 14 19 13 20 16 21
REMARK H PARENT 3 13
ROOT
ATOM      1  C   UNL     1       5.323  -0.489  -1.614  1.00  0.00     0.018 A 
ATOM      2  C   UNL     1       6.681  -0.445  -1.727  1.00  0.00     0.033 A 
ATOM      3  C   UNL     1       5.185  -1.940  -3.552  1.00  0.00     0.065 A 
ATOM      4  N   UNL     1       8.614  -1.292  -3.115  1.00  0.00    -0.209 NA
ATOM      5  O   UNL     1       7.442  -2.449  -4.536  1.00  0.00    -0.436 OA
ATOM      6  C   UNL     1       4.559  -1.236  -2.522  1.00  0.00     0.063 A 
ATOM      7  C   UNL     1       8.679  -2.065  -4.170  1.00  0.00     0.227 A 
ATOM      8  C   UNL     1       7.321  -1.147  -2.756  1.00  0.00     0.110 A 
ATOM      9  C   UNL     1       6.561  -1.895  -3.673  1.00  0.00     0.156 A 
ENDROOT
BRANCH   6  10
ATOM     10  C   UNL     1       3.092  -1.280  -2.386  1.00  0.00     0.335 C 
ATOM     11  O   UNL     1       2.408  -1.667  -3.312  1.00  0.00    -0.246 OA
BRANCH  10  12
ATOM     12  O   UNL     1       2.509  -0.891  -1.235  1.00  0.00    -0.478 OA
ATOM     13  H   UNL     1       2.477  -1.538  -0.518  1.00  0.00     0.297 HD
ENDBRANCH  10  12
ENDBRANCH   6  10
BRANCH   7  14
ATOM     14  C   UNL     1       9.927  -2.457  -4.858  1.00  0.00     0.040 A 
ATOM     15  C   UNL     1       9.890  -2.892  -6.183  1.00  0.00     0.034 A 
ATOM     16  C   UNL     1      11.148  -2.395  -4.183  1.00  0.00     0.034 A 
ATOM     17  C   UNL     1      11.060  -3.255  -6.821  1.00  0.00     0.043 A 
ATOM     18  C   UNL     1      12.310  -2.761  -4.831  1.00  0.00     0.043 A 
ATOM     19  C   UNL     1      12.267  -3.191  -6.146  1.00  0.00     0.041 A 
ATOM     20  Cl  UNL     1      11.017  -3.795  -8.470  1.00  0.00    -0.084 Cl
ATOM     21  Cl  UNL     1      13.830  -2.684  -3.993  1.00  0.00    -0.084 Cl
ENDBRANCH   7  14
TORSDOF 3
ENDMDL
MODEL 6
REMARK VINA RESULT:    -4.189      3.750      7.681
REMARK INTER + INTRA:          -5.097
REMARK INTER:                  -4.801
REMARK INTRA:                  -0.296
REMARK UNBOUND:                -0.296
REMARK SMILES O=C(O)c1ccc2nc(-c3cc(Cl)cc(Cl)c3)oc2c1
REMARK SMILES IDX 5 1 6 2 20 3 8 4 18 5 4 6 9 7 7 8 19 9 2 10 1 11 3 12 10 14
REMARK SMILES IDX 11 15 17 16 12 17 15 18 14 19 13 20 16 21
REMARK H PARENT 3 13
ROOT
ATOM      1  C   UNL     1       5.323  -0.508  -1.620  1.00  0.00     0.018 A 
ATOM      2  C   UNL     1       6.681  -0.466  -1.728  1.00  0.00     0.033 A 
ATOM      3  C   UNL     1       5.189  -1.944  -3.569  1.00  0.00     0.065 A 
ATOM      4  N   UNL     1       8.618  -1.304  -3.115  1.00  0.00    -0.209 NA
ATOM      5  O   UNL     1       7.449  -2.449  -4.549  1.00  0.00    -0.436 OA
ATOM      6  C   UNL     1       4.561  -1.247  -2.536  1.00  0.00     0.063 A 
ATOM      7  C   UNL     1       8.686  -2.070  -4.176  1.00  0.00     0.227 A 
ATOM      8  C   UNL     1       7.324  -1.160  -2.760  1.00  0.00     0.110 A 
ATOM      9  C   UNL     1       6.566  -1.900  -3.685  1.00  0.00     0.156 A 
ENDROOT
BRANCH   6  10
ATOM     10  C   UNL     1       3.093  -1.290  -2.405  1.00  0.00     0.335 C 
ATOM     11  O   UNL     1       2.413  -1.683  -3.332  1.00  0.00    -0.246 OA
BRANCH  10  12
ATOM     12  O   UNL     1       2.506  -0.892  -1.260  1.00  0.00    -0.478 OA
ATOM     13  H   UNL     1       2.648   0.025  -0.989  1.00  0.00     0.297 HD
ENDBRANCH  10  12
ENDBRANCH   6  10
BRANCH   7  14
ATOM     14  C   UNL     1       9.935  -2.458  -4.862  1.00  0.00     0.040 A 
ATOM     15  C   UNL     1      11.155  -2.395  -4.187  1.00  0.00     0.034 A 
ATOM     16  C   UNL     1       9.900  -2.889  -6.190  1.00  0.00     0.034 A 
ATOM     17  C   UNL     1      12.319  -2.761  -4.834  1.00  0.00     0.043 A 
ATOM     18  C   UNL     1      11.071  -3.252  -6.826  1.00  0.00     0.043 A 
ATOM     19  C   UNL     1      12.277  -3.187  -6.150  1.00  0.00     0.041 A 
ATOM     20  Cl  UNL     1      13.837  -2.684  -3.996  1.00  0.00    -0.084 Cl
ATOM     21  Cl  UNL     1      11.029  -3.789  -8.477  1.00  0.00    -0.084 Cl
ENDBRANCH   7  14
TORSDOF 3
ENDMDL
MODEL 7
REMARK VINA RESULT:    -3.580      4.002      7.244
REMARK INTER + INTRA:          -4.400
REMARK INTER:                  -4.113
REMARK INTRA:                  -0.287
REMARK UNBOUND:                -0.296
REMARK SMILES O=C(O)c1ccc2nc(-c3cc(Cl)cc(Cl)c3)oc2c1
REMARK SMILES IDX 5 1 6 2 20 3 8 4 18 5 4 6 9 7 7 8 19 9 2 10 1 11 3 12 10 14
REMARK SMILES IDX 11 15 17 16 12 17 15 18 14 19 13 20 16 21
REMARK H PARENT 3 13
ROOT
ATOM      1  C   UNL     1       5.053  -1.214  -4.176  1.00  0.00     0.018 A 
ATOM      2  C   UNL     1       6.313  -0.706  -4.281  1.00  0.00     0.033 A 
ATOM      3  C   UNL     1       5.953  -3.441  -3.840  1.00  0.00     0.065 A 
ATOM      4  N   UNL     1       8.755  -1.351  -4.230  1.00  0.00    -0.209 NA
ATOM      5  O   UNL     1       8.466  -3.480  -3.892  1.00  0.00    -0.436 OA
ATOM      6  C   UNL     1       4.856  -2.584  -3.952  1.00  0.00     0.063 A 
ATOM      7  C   UNL     1       9.368  -2.496  -4.064  1.00  0.00     0.227 A 
ATOM      8  C   UNL     1       7.422  -1.554  -4.171  1.00  0.00     0.110 A 
ATOM      9  C   UNL     1       7.233  -2.930  -3.952  1.00  0.00     0.156 A 
ENDROOT
BRANCH   6  10
ATOM     10  C   UNL     1       3.488  -3.121  -3.834  1.00  0.00     0.335 C 
ATOM     11  O   UNL     1       2.533  -2.386  -3.980  1.00  0.00    -0.246 OA
BRANCH  10  12
ATOM     12  O   UNL     1       3.298  -4.428  -3.563  1.00  0.00    -0.478 OA
ATOM     13  H   UNL     1       3.422  -5.050  -4.292  1.00  0.00     0.297 HD
ENDBRANCH  10  12
ENDBRANCH   6  10
BRANCH   7  14
ATOM     14  C   UNL     1      10.834  -2.680  -4.065  1.00  0.00     0.040 A 
ATOM     15  C   UNL     1      11.518  -2.851  -5.269  1.00  0.00     0.034 A 
ATOM     16  C   UNL     1      11.541  -2.683  -2.861  1.00  0.00     0.034 A 
ATOM     17  C   UNL     1      12.889  -3.022  -5.264  1.00  0.00     0.043 A 
ATOM     18  C   UNL     1      12.911  -2.855  -2.868  1.00  0.00     0.043 A 
ATOM     19  C   UNL     1      13.583  -3.024  -4.066  1.00  0.00     0.041 A 
ATOM     20  Cl  UNL     1      13.742  -3.235  -6.760  1.00  0.00    -0.084 Cl
ATOM     21  Cl  UNL     1      13.791  -2.859  -1.371  1.00  0.00    -0.084 Cl
ENDBRANCH   7  14
TORSDOF 3
ENDMDL
MODEL 8
REMARK VINA RESULT:    -3.572      3.746      5.615
REMARK INTER + INTRA:          -4.390
REMARK INTER:                  -4.107
REMARK INTRA:                  -0.283
REMARK UNBOUND:                -0.296
REMARK SMILES O=C(O)c1ccc2nc(-c3cc(Cl)cc(Cl)c3)oc2c1
REMARK SMILES IDX 5 1 6 2 20 3 8 4 18 5 4 6 9 7 7 8 19 9 2 10 1 11 3 12 10 14
REMARK SMILES IDX 11 15 17 16 12 17 15 18 14 19 13 20 16 21
REMARK H PARENT 3 13
ROOT
ATOM      1  C   UNL     1      11.769  -2.837 -12.127  1.00  0.00     0.018 A 
ATOM      2  C   UNL     1      10.957  -2.290 -11.179  1.00  0.00     0.033 A 
ATOM      3  C   UNL     1      12.901  -4.154 -10.435  1.00  0.00     0.065 A 
ATOM      4  N   UNL     1      10.462  -2.303  -8.701  1.00  0.00    -0.209 NA
ATOM      5  O   UNL     1      11.982  -3.752  -8.129  1.00  0.00    -0.436 OA
ATOM      6  C   UNL     1      12.748  -3.775 -11.770  1.00  0.00     0.063 A 
ATOM      7  C   UNL     1      10.989  -2.954  -7.693  1.00  0.00     0.227 A 
ATOM      8  C   UNL     1      11.100  -2.662  -9.836  1.00  0.00     0.110 A 
ATOM      9  C   UNL     1      12.082  -3.598  -9.468  1.00  0.00     0.156 A 
ENDROOT
BRANCH   6  10
ATOM     10  C   UNL     1      13.616  -4.363 -12.805  1.00  0.00     0.335 C 
ATOM     11  O   UNL     1      13.204  -5.273 -13.497  1.00  0.00    -0.246 OA
BRANCH  10  12
ATOM     12  O   UNL     1      14.866  -3.893 -12.985  1.00  0.00    -0.478 OA
ATOM     13  H   UNL     1      15.412  -4.338 -13.646  1.00  0.00     0.297 HD
ENDBRANCH  10  12
ENDBRANCH   6  10
BRANCH   7  14
ATOM     14  C   UNL     1      10.558  -2.828  -6.286  1.00  0.00     0.040 A 
ATOM     15  C   UNL     1       9.202  -2.711  -5.976  1.00  0.00     0.034 A 
ATOM     16  C   UNL     1      11.506  -2.824  -5.261  1.00  0.00     0.034 A 
ATOM     17  C   UNL     1       8.805  -2.595  -4.658  1.00  0.00     0.043 A 
ATOM     18  C   UNL     1      11.097  -2.707  -3.947  1.00  0.00     0.043 A 
ATOM     19  C   UNL     1       9.750  -2.592  -3.646  1.00  0.00     0.041 A 
ATOM     20  Cl  UNL     1       7.120  -2.451  -4.270  1.00  0.00    -0.084 Cl
ATOM     21  Cl  UNL     1      12.274  -2.703  -2.671  1.00  0.00    -0.084 Cl
ENDBRANCH   7  14
TORSDOF 3
ENDMDL
MODEL 9
REMARK VINA RESULT:    -3.506      3.766      5.908
REMARK INTER + INTRA:          -4.314
REMARK INTER:                  -4.031
REMARK INTRA:                  -0.284
REMARK UNBOUND:                -0.296
REMARK SMILES O=C(O)c1ccc2nc(-c3cc(Cl)cc(Cl)c3)oc2c1
REMARK SMILES IDX 5 1 6 2 20 3 8 4 18 5 4 6 9 7 7 8 19 9 2 10 1 11 3 12 10 14
REMARK SMILES IDX 11 15 17 16 12 17 15 18 14 19 13 20 16 21
REMARK H PARENT 3 13
ROOT
ATOM      1  C   UNL     1      11.917  -2.946 -12.184  1.00  0.00     0.018 A 
ATOM      2  C   UNL     1      11.053  -2.427 -11.266  1.00  0.00     0.033 A 
ATOM      3  C   UNL     1      13.095  -4.141 -10.433  1.00  0.00     0.065 A 
ATOM      4  N   UNL     1      10.508  -2.404  -8.800  1.00  0.00    -0.209 NA
ATOM      5  O   UNL     1      12.104  -3.736  -8.158  1.00  0.00    -0.436 OA
ATOM      6  C   UNL     1      12.945  -3.809 -11.781  1.00  0.00     0.063 A 
ATOM      7  C   UNL     1      11.054  -2.991  -7.764  1.00  0.00     0.227 A 
ATOM      8  C   UNL     1      11.191  -2.752  -9.911  1.00  0.00     0.110 A 
ATOM      9  C   UNL     1      12.223  -3.613  -9.499  1.00  0.00     0.156 A 
ENDROOT
BRANCH   6  10
ATOM     10  C   UNL     1      13.870  -4.369 -12.783  1.00  0.00     0.335 C 
ATOM     11  O   UNL     1      14.979  -3.891 -12.920  1.00  0.00    -0.246 OA
BRANCH  10  12
ATOM     12  O   UNL     1      13.486  -5.411 -13.547  1.00  0.00    -0.478 OA
ATOM     13  H   UNL     1      13.285  -5.224 -14.474  1.00  0.00     0.297 HD
ENDBRANCH  10  12
ENDBRANCH   6  10
BRANCH   7  14
ATOM     14  C   UNL     1      10.587  -2.855  -6.369  1.00  0.00     0.040 A 
ATOM     15  C   UNL     1      11.506  -2.849  -5.319  1.00  0.00     0.034 A 
ATOM     16  C   UNL     1       9.223  -2.732  -6.096  1.00  0.00     0.034 A 
ATOM     17  C   UNL     1      11.062  -2.720  -4.017  1.00  0.00     0.043 A 
ATOM     18  C   UNL     1       8.792  -2.604  -4.791  1.00  0.00     0.043 A 
ATOM     19  C   UNL     1       9.709  -2.599  -3.754  1.00  0.00     0.041 A 
ATOM     20  Cl  UNL     1      12.204  -2.712  -2.709  1.00  0.00    -0.084 Cl
ATOM     21  Cl  UNL     1       7.096  -2.451  -4.450  1.00  0.00    -0.084 Cl
ENDBRANCH   7  14
TORSDOF 3
ENDMDL
