MODEL 1
REMARK VINA RESULT:    -5.910      0.000      0.000
REMARK INTER + INTRA:          -8.823
REMARK INTER:                  -8.156
REMARK INTRA:                  -0.667
REMARK UNBOUND:                -0.667
REMARK SMILES Cc1n[nH]c(C)c1CCCOc1cc(C(=O)O)ccc1F
REMARK SMILES IDX 11 1 12 2 14 3 18 4 13 5 19 6 20 7 21 8 15 9 16 10 17 11
REMARK SMILES IDX 10 13 9 14 8 15 7 16 5 17 2 18 4 19 3 20 6 21 1 22
REMARK H PARENT 17 12 4 23
ROOT
ATOM      1  O   UNL     1      -8.559   0.257   2.862  1.00  0.00    -0.490 OA
ENDROOT
BRANCH   1   2
ATOM      2  C   UNL     1      -7.716  -0.398   2.019  1.00  0.00     0.155 A 
ATOM      3  C   UNL     1      -6.743  -2.444   1.214  1.00  0.00     0.063 A 
ATOM      4  C   UNL     1      -5.997  -1.718   0.282  1.00  0.00     0.019 A 
ATOM      5  C   UNL     1      -7.606  -1.774   2.084  1.00  0.00     0.065 A 
ATOM      6  C   UNL     1      -6.118  -0.346   0.220  1.00  0.00     0.044 A 
ATOM      7  C   UNL     1      -6.978   0.316   1.081  1.00  0.00     0.165 A 
ATOM      8  F   UNL     1      -7.093   1.661   1.016  1.00  0.00    -0.203 F 
BRANCH   3   9
ATOM      9  C   UNL     1      -6.616  -3.913   1.282  1.00  0.00     0.335 C 
ATOM     10  O   UNL     1      -6.860  -4.497   2.318  1.00  0.00    -0.246 OA
BRANCH   9  11
ATOM     11  O   UNL     1      -6.235  -4.607   0.191  1.00  0.00    -0.478 OA
ATOM     12  H   UNL     1      -6.853  -5.271  -0.145  1.00  0.00     0.297 HD
ENDBRANCH   9  11
ENDBRANCH   3   9
ENDBRANCH   1   2
BRANCH   1  13
ATOM     13  C   UNL     1      -9.816   0.676   2.325  1.00  0.00     0.230 C 
BRANCH  13  14
ATOM     14  C   UNL     1     -10.950  -0.006   3.093  1.00  0.00     0.046 C 
BRANCH  14  15
ATOM     15  C   UNL     1     -11.627  -1.041   2.192  1.00  0.00     0.043 C 
BRANCH  15  16
ATOM     16  C   UNL     1     -13.105  -1.069   2.481  1.00  0.00    -0.004 A 
ATOM     17  C   UNL     1     -13.715  -1.803   3.441  1.00  0.00     0.036 A 
ATOM     18  C   UNL     1     -14.089  -0.337   1.808  1.00  0.00     0.063 A 
ATOM     19  N   UNL     1     -15.039  -1.549   3.373  1.00  0.00    -0.282 N 
ATOM     20  N   UNL     1     -15.249  -0.629   2.338  1.00  0.00    -0.181 NA
ATOM     21  C   UNL     1     -13.038  -2.736   4.410  1.00  0.00     0.066 C 
ATOM     22  C   UNL     1     -13.855   0.614   0.663  1.00  0.00     0.069 C 
ATOM     23  H   UNL     1     -15.724  -1.936   3.941  1.00  0.00     0.190 HD
ENDBRANCH  15  16
ENDBRANCH  14  15
ENDBRANCH  13  14
ENDBRANCH   1  13
TORSDOF 7
ENDMDL
MODEL 2
REMARK VINA RESULT:    -5.865      0.324      1.795
REMARK INTER + INTRA:          -8.760
REMARK INTER:                  -8.054
REMARK INTRA:                  -0.706
REMARK UNBOUND:                -0.667
REMARK SMILES Cc1n[nH]c(C)c1CCCOc1cc(C(=O)O)ccc1F
REMARK SMILES IDX 11 1 12 2 14 3 18 4 13 5 19 6 20 7 21 8 15 9 16 10 17 11
REMARK SMILES IDX 10 13 9 14 8 15 7 16 5 17 2 18 4 19 3 20 6 21 1 22
REMARK H PARENT 17 12 4 23
ROOT
ATOM      1  O   UNL     1      -8.618   0.253   2.776  1.00  0.00    -0.490 OA
ENDROOT
BRANCH   1   2
ATOM      2  C   UNL     1      -7.746  -0.400   1.962  1.00  0.00     0.155 A 
ATOM      3  C   UNL     1      -6.738  -2.443   1.193  1.00  0.00     0.063 A 
ATOM      4  C   UNL     1      -5.965  -1.715   0.284  1.00  0.00     0.019 A 
ATOM      5  C   UNL     1      -7.631  -1.775   2.034  1.00  0.00     0.065 A 
ATOM      6  C   UNL     1      -6.091  -0.343   0.215  1.00  0.00     0.044 A 
ATOM      7  C   UNL     1      -6.981   0.316   1.047  1.00  0.00     0.165 A 
ATOM      8  F   UNL     1      -7.100   1.660   0.975  1.00  0.00    -0.203 F 
BRANCH   3   9
ATOM      9  C   UNL     1      -6.606  -3.911   1.268  1.00  0.00     0.335 C 
ATOM     10  O   UNL     1      -6.839  -4.489   2.310  1.00  0.00    -0.246 OA
BRANCH   9  11
ATOM     11  O   UNL     1      -6.232  -4.610   0.178  1.00  0.00    -0.478 OA
ATOM     12  H   UNL     1      -5.363  -4.408  -0.196  1.00  0.00     0.297 HD
ENDBRANCH   9  11
ENDBRANCH   3   9
ENDBRANCH   1   2
BRANCH   1  13
ATOM     13  C   UNL     1      -9.918   0.527   2.246  1.00  0.00     0.230 C 
BRANCH  13  14
ATOM     14  C   UNL     1     -10.979  -0.106   3.148  1.00  0.00     0.046 C 
BRANCH  14  15
ATOM     15  C   UNL     1     -11.680  -1.237   2.394  1.00  0.00     0.043 C 
BRANCH  15  16
ATOM     16  C   UNL     1     -13.126  -1.300   2.813  1.00  0.00    -0.004 A 
ATOM     17  C   UNL     1     -14.154  -0.640   2.230  1.00  0.00     0.036 A 
ATOM     18  C   UNL     1     -13.645  -2.057   3.869  1.00  0.00     0.063 A 
ATOM     19  N   UNL     1     -15.281  -0.962   2.898  1.00  0.00    -0.282 N 
ATOM     20  N   UNL     1     -14.935  -1.850   3.925  1.00  0.00    -0.181 NA
ATOM     21  C   UNL     1     -14.056   0.288   1.047  1.00  0.00     0.066 C 
ATOM     22  C   UNL     1     -12.852  -2.948   4.791  1.00  0.00     0.069 C 
ATOM     23  H   UNL     1     -16.173  -0.636   2.702  1.00  0.00     0.190 HD
ENDBRANCH  15  16
ENDBRANCH  14  15
ENDBRANCH  13  14
ENDBRANCH   1  13
TORSDOF 7
ENDMDL
MODEL 3
REMARK VINA RESULT:    -5.785      2.102      3.696
REMARK INTER + INTRA:          -8.650
REMARK INTER:                  -7.973
REMARK INTRA:                  -0.677
REMARK UNBOUND:                -0.667
REMARK SMILES Cc1n[nH]c(C)c1CCCOc1cc(C(=O)O)ccc1F
REMARK SMILES IDX 11 1 12 2 14 3 18 4 13 5 19 6 20 7 21 8 15 9 16 10 17 11
REMARK SMILES IDX 10 13 9 14 8 15 7 16 5 17 2 18 4 19 3 20 6 21 1 22
REMARK H PARENT 17 12 4 23
ROOT
ATOM      1  O   UNL     1      -9.178  -2.753   1.467  1.00  0.00    -0.490 OA
ENDROOT
BRANCH   1   2
ATOM      2  C   UNL     1      -7.996  -2.167   1.138  1.00  0.00     0.155 A 
ATOM      3  C   UNL     1      -6.725  -0.209   0.561  1.00  0.00     0.063 A 
ATOM      4  C   UNL     1      -5.569  -0.989   0.477  1.00  0.00     0.019 A 
ATOM      5  C   UNL     1      -7.942  -0.808   0.894  1.00  0.00     0.065 A 
ATOM      6  C   UNL     1      -5.631  -2.343   0.728  1.00  0.00     0.044 A 
ATOM      7  C   UNL     1      -6.838  -2.934   1.062  1.00  0.00     0.165 A 
ATOM      8  F   UNL     1      -6.893  -4.262   1.307  1.00  0.00    -0.203 F 
BRANCH   3   9
ATOM      9  C   UNL     1      -6.662   1.241   0.294  1.00  0.00     0.335 C 
ATOM     10  O   UNL     1      -7.410   1.742  -0.520  1.00  0.00    -0.246 OA
BRANCH   9  11
ATOM     11  O   UNL     1      -5.777   2.010   0.959  1.00  0.00    -0.478 OA
ATOM     12  H   UNL     1      -6.008   2.942   1.079  1.00  0.00     0.297 HD
ENDBRANCH   9  11
ENDBRANCH   3   9
ENDBRANCH   1   2
BRANCH   1  13
ATOM     13  C   UNL     1     -10.203  -2.750   0.470  1.00  0.00     0.230 C 
BRANCH  13  14
ATOM     14  C   UNL     1     -11.574  -2.725   1.149  1.00  0.00     0.046 C 
BRANCH  14  15
ATOM     15  C   UNL     1     -11.665  -1.507   2.070  1.00  0.00     0.043 C 
BRANCH  15  16
ATOM     16  C   UNL     1     -13.094  -1.313   2.508  1.00  0.00    -0.004 A 
ATOM     17  C   UNL     1     -14.004  -0.504   1.918  1.00  0.00     0.036 A 
ATOM     18  C   UNL     1     -13.715  -1.943   3.591  1.00  0.00     0.063 A 
ATOM     19  N   UNL     1     -15.159  -0.612   2.608  1.00  0.00    -0.282 N 
ATOM     20  N   UNL     1     -14.951  -1.519   3.656  1.00  0.00    -0.181 NA
ATOM     21  C   UNL     1     -13.770   0.363   0.709  1.00  0.00     0.066 C 
ATOM     22  C   UNL     1     -13.069  -2.931   4.529  1.00  0.00     0.069 C 
ATOM     23  H   UNL     1     -15.986  -0.145   2.414  1.00  0.00     0.190 HD
ENDBRANCH  15  16
ENDBRANCH  14  15
ENDBRANCH  13  14
ENDBRANCH   1  13
TORSDOF 7
ENDMDL
MODEL 4
REMARK VINA RESULT:    -5.695      2.105      3.251
REMARK INTER + INTRA:          -8.526
REMARK INTER:                  -7.867
REMARK INTRA:                  -0.659
REMARK UNBOUND:                -0.667
REMARK SMILES Cc1n[nH]c(C)c1CCCOc1cc(C(=O)O)ccc1F
REMARK SMILES IDX 11 1 12 2 14 3 18 4 13 5 19 6 20 7 21 8 15 9 16 10 17 11
REMARK SMILES IDX 10 13 9 14 8 15 7 16 5 17 2 18 4 19 3 20 6 21 1 22
REMARK H PARENT 17 12 4 23
ROOT
ATOM      1  O   UNL     1      -9.174  -2.778   1.416  1.00  0.00    -0.490 OA
ENDROOT
BRANCH   1   2
ATOM      2  C   UNL     1      -7.993  -2.182   1.103  1.00  0.00     0.155 A 
ATOM      3  C   UNL     1      -6.732  -0.210   0.549  1.00  0.00     0.063 A 
ATOM      4  C   UNL     1      -5.568  -0.980   0.475  1.00  0.00     0.019 A 
ATOM      5  C   UNL     1      -7.948  -0.821   0.865  1.00  0.00     0.065 A 
ATOM      6  C   UNL     1      -5.622  -2.336   0.720  1.00  0.00     0.044 A 
ATOM      7  C   UNL     1      -6.828  -2.938   1.038  1.00  0.00     0.165 A 
ATOM      8  F   UNL     1      -6.875  -4.268   1.277  1.00  0.00    -0.203 F 
BRANCH   3   9
ATOM      9  C   UNL     1      -6.678   1.241   0.288  1.00  0.00     0.335 C 
ATOM     10  O   UNL     1      -7.431   1.742  -0.521  1.00  0.00    -0.246 OA
BRANCH   9  11
ATOM     11  O   UNL     1      -5.796   2.012   0.954  1.00  0.00    -0.478 OA
ATOM     12  H   UNL     1      -6.147   2.793   1.404  1.00  0.00     0.297 HD
ENDBRANCH   9  11
ENDBRANCH   3   9
ENDBRANCH   1   2
BRANCH   1  13
ATOM     13  C   UNL     1     -10.203  -2.741   0.423  1.00  0.00     0.230 C 
BRANCH  13  14
ATOM     14  C   UNL     1     -11.570  -2.712   1.108  1.00  0.00     0.046 C 
BRANCH  14  15
ATOM     15  C   UNL     1     -11.699  -1.431   1.936  1.00  0.00     0.043 C 
BRANCH  15  16
ATOM     16  C   UNL     1     -13.147  -1.204   2.288  1.00  0.00    -0.004 A 
ATOM     17  C   UNL     1     -13.810  -1.759   3.328  1.00  0.00     0.036 A 
ATOM     18  C   UNL     1     -14.040  -0.375   1.600  1.00  0.00     0.063 A 
ATOM     19  N   UNL     1     -15.080  -1.304   3.296  1.00  0.00    -0.282 N 
ATOM     20  N   UNL     1     -15.201  -0.440   2.200  1.00  0.00    -0.181 NA
ATOM     21  C   UNL     1     -13.234  -2.714   4.340  1.00  0.00     0.066 C 
ATOM     22  C   UNL     1     -13.724   0.441   0.373  1.00  0.00     0.069 C 
ATOM     23  H   UNL     1     -15.785  -1.535   3.921  1.00  0.00     0.190 HD
ENDBRANCH  15  16
ENDBRANCH  14  15
ENDBRANCH  13  14
ENDBRANCH   1  13
TORSDOF 7
ENDMDL
MODEL 5
REMARK VINA RESULT:    -4.850      4.199      7.152
REMARK INTER + INTRA:          -7.360
REMARK INTER:                  -6.830
REMARK INTRA:                  -0.530
REMARK UNBOUND:                -0.667
REMARK SMILES Cc1n[nH]c(C)c1CCCOc1cc(C(=O)O)ccc1F
REMARK SMILES IDX 11 1 12 2 14 3 18 4 13 5 19 6 20 7 21 8 15 9 16 10 17 11
REMARK SMILES IDX 10 13 9 14 8 15 7 16 5 17 2 18 4 19 3 20 6 21 1 22
REMARK H PARENT 17 12 4 23
ROOT
ATOM      1  O   UNL     1     -11.014  -0.464   1.282  1.00  0.00    -0.490 OA
ENDROOT
BRANCH   1   2
ATOM      2  C   UNL     1     -12.283  -0.606   1.748  1.00  0.00     0.155 A 
ATOM      3  C   UNL     1     -13.838  -1.573   3.307  1.00  0.00     0.063 A 
ATOM      4  C   UNL     1     -14.882  -0.876   2.692  1.00  0.00     0.019 A 
ATOM      5  C   UNL     1     -12.534  -1.433   2.828  1.00  0.00     0.065 A 
ATOM      6  C   UNL     1     -14.621  -0.049   1.620  1.00  0.00     0.044 A 
ATOM      7  C   UNL     1     -13.326   0.092   1.149  1.00  0.00     0.165 A 
ATOM      8  F   UNL     1     -13.077   0.904   0.099  1.00  0.00    -0.203 F 
BRANCH   3   9
ATOM      9  C   UNL     1     -14.114  -2.459   4.455  1.00  0.00     0.335 C 
ATOM     10  O   UNL     1     -15.209  -2.451   4.979  1.00  0.00    -0.246 OA
BRANCH   9  11
ATOM     11  O   UNL     1     -13.152  -3.281   4.918  1.00  0.00    -0.478 OA
ATOM     12  H   UNL     1     -12.743  -3.047   5.763  1.00  0.00     0.297 HD
ENDBRANCH   9  11
ENDBRANCH   3   9
ENDBRANCH   1   2
BRANCH   1  13
ATOM     13  C   UNL     1      -9.966  -0.422   2.254  1.00  0.00     0.230 C 
BRANCH  13  14
ATOM     14  C   UNL     1      -9.106  -1.681   2.130  1.00  0.00     0.046 C 
BRANCH  14  15
ATOM     15  C   UNL     1      -8.574  -1.795   0.700  1.00  0.00     0.043 C 
BRANCH  15  16
ATOM     16  C   UNL     1      -7.069  -1.711   0.714  1.00  0.00    -0.004 A 
ATOM     17  C   UNL     1      -6.216  -2.742   0.917  1.00  0.00     0.036 A 
ATOM     18  C   UNL     1      -6.308  -0.555   0.514  1.00  0.00     0.063 A 
ATOM     19  N   UNL     1      -4.959  -2.254   0.855  1.00  0.00    -0.282 N 
ATOM     20  N   UNL     1      -5.043  -0.878   0.605  1.00  0.00    -0.181 NA
ATOM     21  C   UNL     1      -6.600  -4.176   1.168  1.00  0.00     0.066 C 
ATOM     22  C   UNL     1      -6.850   0.827   0.252  1.00  0.00     0.069 C 
ATOM     23  H   UNL     1      -4.143  -2.765   0.964  1.00  0.00     0.190 HD
ENDBRANCH  15  16
ENDBRANCH  14  15
ENDBRANCH  13  14
ENDBRANCH   1  13
TORSDOF 7
ENDMDL
MODEL 6
REMARK VINA RESULT:    -4.804      4.399      7.617
REMARK INTER + INTRA:          -7.296
REMARK INTER:                  -6.767
REMARK INTRA:                  -0.529
REMARK UNBOUND:                -0.667
REMARK SMILES Cc1n[nH]c(C)c1CCCOc1cc(C(=O)O)ccc1F
REMARK SMILES IDX 11 1 12 2 14 3 18 4 13 5 19 6 20 7 21 8 15 9 16 10 17 11
REMARK SMILES IDX 10 13 9 14 8 15 7 16 5 17 2 18 4 19 3 20 6 21 1 22
REMARK H PARENT 17 12 4 23
ROOT
ATOM      1  O   UNL     1     -10.852  -1.837   2.549  1.00  0.00    -0.490 OA
ENDROOT
BRANCH   1   2
ATOM      2  C   UNL     1     -12.180  -1.575   2.669  1.00  0.00     0.155 A 
ATOM      3  C   UNL     1     -14.150  -0.401   1.945  1.00  0.00     0.063 A 
ATOM      4  C   UNL     1     -14.898  -1.061   2.924  1.00  0.00     0.019 A 
ATOM      5  C   UNL     1     -12.784  -0.664   1.822  1.00  0.00     0.065 A 
ATOM      6  C   UNL     1     -14.288  -1.971   3.761  1.00  0.00     0.044 A 
ATOM      7  C   UNL     1     -12.934  -2.234   3.634  1.00  0.00     0.165 A 
ATOM      8  F   UNL     1     -12.343  -3.128   4.456  1.00  0.00    -0.203 F 
BRANCH   3   9
ATOM      9  C   UNL     1     -14.800   0.574   1.048  1.00  0.00     0.335 C 
ATOM     10  O   UNL     1     -14.397   0.717  -0.088  1.00  0.00    -0.246 OA
BRANCH   9  11
ATOM     11  O   UNL     1     -15.846   1.301   1.488  1.00  0.00    -0.478 OA
ATOM     12  H   UNL     1     -15.671   2.223   1.726  1.00  0.00     0.297 HD
ENDBRANCH   9  11
ENDBRANCH   3   9
ENDBRANCH   1   2
BRANCH   1  13
ATOM     13  C   UNL     1     -10.364  -2.129   1.238  1.00  0.00     0.230 C 
BRANCH  13  14
ATOM     14  C   UNL     1      -9.445  -0.999   0.772  1.00  0.00     0.046 C 
BRANCH  14  15
ATOM     15  C   UNL     1      -8.263  -0.872   1.736  1.00  0.00     0.043 C 
BRANCH  15  16
ATOM     16  C   UNL     1      -6.973  -1.017   0.972  1.00  0.00    -0.004 A 
ATOM     17  C   UNL     1      -6.288  -2.167   0.777  1.00  0.00     0.036 A 
ATOM     18  C   UNL     1      -6.274   0.013   0.334  1.00  0.00     0.063 A 
ATOM     19  N   UNL     1      -5.191  -1.874   0.046  1.00  0.00    -0.282 N 
ATOM     20  N   UNL     1      -5.203  -0.498  -0.216  1.00  0.00    -0.181 NA
ATOM     21  C   UNL     1      -6.679  -3.531   1.283  1.00  0.00     0.066 C 
ATOM     22  C   UNL     1      -6.680   1.465   0.296  1.00  0.00     0.069 C 
ATOM     23  H   UNL     1      -4.515  -2.505  -0.245  1.00  0.00     0.190 HD
ENDBRANCH  15  16
ENDBRANCH  14  15
ENDBRANCH  13  14
ENDBRANCH   1  13
TORSDOF 7
ENDMDL
MODEL 7
REMARK VINA RESULT:    -4.803      3.867      6.690
REMARK INTER + INTRA:          -7.294
REMARK INTER:                  -6.490
REMARK INTRA:                  -0.804
REMARK UNBOUND:                -0.667
REMARK SMILES Cc1n[nH]c(C)c1CCCOc1cc(C(=O)O)ccc1F
REMARK SMILES IDX 11 1 12 2 14 3 18 4 13 5 19 6 20 7 21 8 15 9 16 10 17 11
REMARK SMILES IDX 10 13 9 14 8 15 7 16 5 17 2 18 4 19 3 20 6 21 1 22
REMARK H PARENT 17 12 4 23
ROOT
ATOM      1  O   UNL     1     -10.540  -0.482   1.280  1.00  0.00    -0.490 OA
ENDROOT
BRANCH   1   2
ATOM      2  C   UNL     1     -11.740  -0.771   1.850  1.00  0.00     0.155 A 
ATOM      3  C   UNL     1     -13.030  -1.887   3.545  1.00  0.00     0.063 A 
ATOM      4  C   UNL     1     -14.200  -1.343   3.007  1.00  0.00     0.019 A 
ATOM      5  C   UNL     1     -11.797  -1.596   2.958  1.00  0.00     0.065 A 
ATOM      6  C   UNL     1     -14.132  -0.517   1.904  1.00  0.00     0.044 A 
ATOM      7  C   UNL     1     -12.907  -0.225   1.328  1.00  0.00     0.165 A 
ATOM      8  F   UNL     1     -12.847   0.585   0.248  1.00  0.00    -0.203 F 
BRANCH   3   9
ATOM      9  C   UNL     1     -13.099  -2.771   4.724  1.00  0.00     0.335 C 
ATOM     10  O   UNL     1     -12.083  -3.242   5.191  1.00  0.00    -0.246 OA
BRANCH   9  11
ATOM     11  O   UNL     1     -14.292  -3.051   5.287  1.00  0.00    -0.478 OA
ATOM     12  H   UNL     1     -14.372  -3.898   5.749  1.00  0.00     0.297 HD
ENDBRANCH   9  11
ENDBRANCH   3   9
ENDBRANCH   1   2
BRANCH   1  13
ATOM     13  C   UNL     1      -9.443  -0.237   2.164  1.00  0.00     0.230 C 
BRANCH  13  14
ATOM     14  C   UNL     1      -8.189   0.075   1.346  1.00  0.00     0.046 C 
BRANCH  14  15
ATOM     15  C   UNL     1      -8.200  -0.754   0.060  1.00  0.00     0.043 C 
BRANCH  15  16
ATOM     16  C   UNL     1      -7.577  -2.100   0.323  1.00  0.00    -0.004 A 
ATOM     17  C   UNL     1      -6.269  -2.336   0.578  1.00  0.00     0.036 A 
ATOM     18  C   UNL     1      -8.249  -3.327   0.355  1.00  0.00     0.063 A 
ATOM     19  N   UNL     1      -6.117  -3.665   0.757  1.00  0.00    -0.282 N 
ATOM     20  N   UNL     1      -7.374  -4.266   0.608  1.00  0.00    -0.181 NA
ATOM     21  C   UNL     1      -5.177  -1.300   0.648  1.00  0.00     0.066 C 
ATOM     22  C   UNL     1      -9.724  -3.532   0.125  1.00  0.00     0.069 C 
ATOM     23  H   UNL     1      -5.286  -4.123   0.954  1.00  0.00     0.190 HD
ENDBRANCH  15  16
ENDBRANCH  14  15
ENDBRANCH  13  14
ENDBRANCH   1  13
TORSDOF 7
ENDMDL
MODEL 8
REMARK VINA RESULT:    -4.791      4.402      7.766
REMARK INTER + INTRA:          -7.278
REMARK INTER:                  -6.729
REMARK INTRA:                  -0.550
REMARK UNBOUND:                -0.667
REMARK SMILES Cc1n[nH]c(C)c1CCCOc1cc(C(=O)O)ccc1F
REMARK SMILES IDX 11 1 12 2 14 3 18 4 13 5 19 6 20 7 21 8 15 9 16 10 17 11
REMARK SMILES IDX 10 13 9 14 8 15 7 16 5 17 2 18 4 19 3 20 6 21 1 22
REMARK H PARENT 17 12 4 23
ROOT
ATOM      1  O   UNL     1     -10.830  -1.862   2.449  1.00  0.00    -0.490 OA
ENDROOT
BRANCH   1   2
ATOM      2  C   UNL     1     -12.153  -1.577   2.585  1.00  0.00     0.155 A 
ATOM      3  C   UNL     1     -14.111  -0.373   1.881  1.00  0.00     0.063 A 
ATOM      4  C   UNL     1     -14.858  -1.016   2.872  1.00  0.00     0.019 A 
ATOM      5  C   UNL     1     -12.752  -0.659   1.742  1.00  0.00     0.065 A 
ATOM      6  C   UNL     1     -14.253  -1.934   3.704  1.00  0.00     0.044 A 
ATOM      7  C   UNL     1     -12.905  -2.220   3.561  1.00  0.00     0.165 A 
ATOM      8  F   UNL     1     -12.318  -3.121   4.380  1.00  0.00    -0.203 F 
BRANCH   3   9
ATOM      9  C   UNL     1     -14.756   0.610   0.989  1.00  0.00     0.335 C 
ATOM     10  O   UNL     1     -14.272   0.853  -0.098  1.00  0.00    -0.246 OA
BRANCH   9  11
ATOM     11  O   UNL     1     -15.886   1.233   1.378  1.00  0.00    -0.478 OA
ATOM     12  H   UNL     1     -16.073   2.094   0.978  1.00  0.00     0.297 HD
ENDBRANCH   9  11
ENDBRANCH   3   9
ENDBRANCH   1   2
BRANCH   1  13
ATOM     13  C   UNL     1     -10.372  -2.206   1.140  1.00  0.00     0.230 C 
BRANCH  13  14
ATOM     14  C   UNL     1      -9.451  -1.103   0.616  1.00  0.00     0.046 C 
BRANCH  14  15
ATOM     15  C   UNL     1      -8.323  -0.860   1.622  1.00  0.00     0.043 C 
BRANCH  15  16
ATOM     16  C   UNL     1      -6.993  -0.991   0.928  1.00  0.00    -0.004 A 
ATOM     17  C   UNL     1      -6.292   0.014   0.351  1.00  0.00     0.036 A 
ATOM     18  C   UNL     1      -6.259  -2.172   0.771  1.00  0.00     0.063 A 
ATOM     19  N   UNL     1      -5.160  -0.514  -0.158  1.00  0.00    -0.282 N 
ATOM     20  N   UNL     1      -5.164  -1.888   0.114  1.00  0.00    -0.181 NA
ATOM     21  C   UNL     1      -6.704   1.461   0.290  1.00  0.00     0.066 C 
ATOM     22  C   UNL     1      -6.666  -3.537   1.262  1.00  0.00     0.069 C 
ATOM     23  H   UNL     1      -4.466  -0.028  -0.630  1.00  0.00     0.190 HD
ENDBRANCH  15  16
ENDBRANCH  14  15
ENDBRANCH  13  14
ENDBRANCH   1  13
TORSDOF 7
ENDMDL
MODEL 9
REMARK VINA RESULT:    -4.698      1.869      2.432
REMARK INTER + INTRA:          -7.150
REMARK INTER:                  -6.245
REMARK INTRA:                  -0.905
REMARK UNBOUND:                -0.667
REMARK SMILES Cc1n[nH]c(C)c1CCCOc1cc(C(=O)O)ccc1F
REMARK SMILES IDX 11 1 12 2 14 3 18 4 13 5 19 6 20 7 21 8 15 9 16 10 17 11
REMARK SMILES IDX 10 13 9 14 8 15 7 16 5 17 2 18 4 19 3 20 6 21 1 22
REMARK H PARENT 17 12 4 23
ROOT
ATOM      1  O   UNL     1      -8.574   0.089   3.171  1.00  0.00    -0.490 OA
ENDROOT
BRANCH   1   2
ATOM      2  C   UNL     1      -7.826  -0.769   2.426  1.00  0.00     0.155 A 
ATOM      3  C   UNL     1      -6.168  -1.159   0.729  1.00  0.00     0.063 A 
ATOM      4  C   UNL     1      -6.301  -2.536   0.921  1.00  0.00     0.019 A 
ATOM      5  C   UNL     1      -6.938  -0.275   1.489  1.00  0.00     0.065 A 
ATOM      6  C   UNL     1      -7.186  -3.019   1.863  1.00  0.00     0.044 A 
ATOM      7  C   UNL     1      -7.944  -2.141   2.619  1.00  0.00     0.165 A 
ATOM      8  F   UNL     1      -8.809  -2.620   3.540  1.00  0.00    -0.203 F 
BRANCH   3   9
ATOM      9  C   UNL     1      -5.222  -0.639  -0.277  1.00  0.00     0.335 C 
ATOM     10  O   UNL     1      -4.215  -1.263  -0.544  1.00  0.00    -0.246 OA
BRANCH   9  11
ATOM     11  O   UNL     1      -5.479   0.525  -0.905  1.00  0.00    -0.478 OA
ATOM     12  H   UNL     1      -4.792   1.205  -0.869  1.00  0.00     0.297 HD
ENDBRANCH   9  11
ENDBRANCH   3   9
ENDBRANCH   1   2
BRANCH   1  13
ATOM     13  C   UNL     1      -9.620   0.792   2.497  1.00  0.00     0.230 C 
BRANCH  13  14
ATOM     14  C   UNL     1     -10.974   0.348   3.054  1.00  0.00     0.046 C 
BRANCH  14  15
ATOM     15  C   UNL     1     -11.556  -0.752   2.164  1.00  0.00     0.043 C 
BRANCH  15  16
ATOM     16  C   UNL     1     -13.024  -0.913   2.458  1.00  0.00    -0.004 A 
ATOM     17  C   UNL     1     -13.564  -1.710   3.410  1.00  0.00     0.036 A 
ATOM     18  C   UNL     1     -14.072  -0.260   1.801  1.00  0.00     0.063 A 
ATOM     19  N   UNL     1     -14.905  -1.571   3.352  1.00  0.00    -0.282 N 
ATOM     20  N   UNL     1     -15.200  -0.659   2.331  1.00  0.00    -0.181 NA
ATOM     21  C   UNL     1     -12.803  -2.594   4.364  1.00  0.00     0.066 C 
ATOM     22  C   UNL     1     -13.927   0.724   0.668  1.00  0.00     0.069 C 
ATOM     23  H   UNL     1     -15.550  -2.024   3.917  1.00  0.00     0.190 HD
ENDBRANCH  15  16
ENDBRANCH  14  15
ENDBRANCH  13  14
ENDBRANCH   1  13
TORSDOF 7
ENDMDL
