MODEL 1
REMARK VINA RESULT:    -4.890      0.000      0.000
REMARK INTER + INTRA:          -5.902
REMARK INTER:                  -5.605
REMARK INTRA:                  -0.297
REMARK UNBOUND:                -0.297
REMARK SMILES O=C(O)c1ccc2nc(-c3cc(Cl)cc(Cl)c3)oc2c1
REMARK SMILES IDX 5 1 6 2 20 3 8 4 18 5 4 6 9 7 7 8 19 9 2 10 1 11 3 12 10 14
REMARK SMILES IDX 11 15 17 16 12 17 15 18 14 19 13 20 16 21
REMARK H PARENT 3 13
ROOT
ATOM      1  C   UNL     1      -6.308  -1.978   1.437  1.00  0.00     0.018 A 
ATOM      2  C   UNL     1      -7.377  -2.387   2.176  1.00  0.00     0.033 A 
ATOM      3  C   UNL     1      -7.718  -0.437   0.205  1.00  0.00     0.065 A 
ATOM      4  N   UNL     1      -9.857  -2.028   2.500  1.00  0.00    -0.209 NA
ATOM      5  O   UNL     1     -10.115  -0.514   0.960  1.00  0.00    -0.436 OA
ATOM      6  C   UNL     1      -6.463  -1.000   0.445  1.00  0.00     0.063 A 
ATOM      7  C   UNL     1     -10.725  -1.243   1.912  1.00  0.00     0.227 A 
ATOM      8  C   UNL     1      -8.642  -1.831   1.945  1.00  0.00     0.110 A 
ATOM      9  C   UNL     1      -8.806  -0.853   0.949  1.00  0.00     0.156 A 
ENDROOT
BRANCH   6  10
ATOM     10  C   UNL     1      -5.297  -0.561  -0.344  1.00  0.00     0.335 C 
ATOM     11  O   UNL     1      -4.292  -1.243  -0.372  1.00  0.00    -0.246 OA
BRANCH  10  12
ATOM     12  O   UNL     1      -5.346   0.596  -1.034  1.00  0.00    -0.478 OA
ATOM     13  H   UNL     1      -6.135   1.142  -0.919  1.00  0.00     0.297 HD
ENDBRANCH  10  12
ENDBRANCH   6  10
BRANCH   7  14
ATOM     14  C   UNL     1     -12.163  -1.171   2.245  1.00  0.00     0.040 A 
ATOM     15  C   UNL     1     -13.006  -0.318   1.531  1.00  0.00     0.034 A 
ATOM     16  C   UNL     1     -12.684  -1.956   3.276  1.00  0.00     0.034 A 
ATOM     17  C   UNL     1     -14.349  -0.256   1.846  1.00  0.00     0.043 A 
ATOM     18  C   UNL     1     -14.028  -1.885   3.581  1.00  0.00     0.043 A 
ATOM     19  C   UNL     1     -14.859  -1.037   2.869  1.00  0.00     0.041 A 
ATOM     20  Cl  UNL     1     -15.400   0.803   0.959  1.00  0.00    -0.084 Cl
ATOM     21  Cl  UNL     1     -14.678  -2.861   4.863  1.00  0.00    -0.084 Cl
ENDBRANCH   7  14
TORSDOF 3
ENDMDL
MODEL 2
REMARK VINA RESULT:    -4.890      0.016      2.019
REMARK INTER + INTRA:          -5.902
REMARK INTER:                  -5.604
REMARK INTRA:                  -0.297
REMARK UNBOUND:                -0.297
REMARK SMILES O=C(O)c1ccc2nc(-c3cc(Cl)cc(Cl)c3)oc2c1
REMARK SMILES IDX 5 1 6 2 20 3 8 4 18 5 4 6 9 7 7 8 19 9 2 10 1 11 3 12 10 14
REMARK SMILES IDX 11 15 17 16 12 17 15 18 14 19 13 20 16 21
REMARK H PARENT 3 13
ROOT
ATOM      1  C   UNL     1      -6.322  -1.979   1.425  1.00  0.00     0.018 A 
ATOM      2  C   UNL     1      -7.391  -2.389   2.163  1.00  0.00     0.033 A 
ATOM      3  C   UNL     1      -7.730  -0.431   0.200  1.00  0.00     0.065 A 
ATOM      4  N   UNL     1      -9.870  -2.029   2.490  1.00  0.00    -0.209 NA
ATOM      5  O   UNL     1     -10.127  -0.508   0.955  1.00  0.00    -0.436 OA
ATOM      6  C   UNL     1      -6.476  -0.996   0.438  1.00  0.00     0.063 A 
ATOM      7  C   UNL     1     -10.738  -1.241   1.905  1.00  0.00     0.227 A 
ATOM      8  C   UNL     1      -8.655  -1.832   1.935  1.00  0.00     0.110 A 
ATOM      9  C   UNL     1      -8.819  -0.848   0.943  1.00  0.00     0.156 A 
ENDROOT
BRANCH   6  10
ATOM     10  C   UNL     1      -5.310  -0.555  -0.350  1.00  0.00     0.335 C 
ATOM     11  O   UNL     1      -4.304  -1.235  -0.376  1.00  0.00    -0.246 OA
BRANCH  10  12
ATOM     12  O   UNL     1      -5.361   0.601  -1.040  1.00  0.00    -0.478 OA
ATOM     13  H   UNL     1      -4.523   1.058  -1.193  1.00  0.00     0.297 HD
ENDBRANCH  10  12
ENDBRANCH   6  10
BRANCH   7  14
ATOM     14  C   UNL     1     -12.176  -1.169   2.238  1.00  0.00     0.040 A 
ATOM     15  C   UNL     1     -12.697  -1.954   3.267  1.00  0.00     0.034 A 
ATOM     16  C   UNL     1     -13.019  -0.315   1.524  1.00  0.00     0.034 A 
ATOM     17  C   UNL     1     -14.042  -1.881   3.575  1.00  0.00     0.043 A 
ATOM     18  C   UNL     1     -14.361  -0.251   1.841  1.00  0.00     0.043 A 
ATOM     19  C   UNL     1     -14.872  -1.033   2.863  1.00  0.00     0.041 A 
ATOM     20  Cl  UNL     1     -14.692  -2.857   4.855  1.00  0.00    -0.084 Cl
ATOM     21  Cl  UNL     1     -15.410   0.810   0.953  1.00  0.00    -0.084 Cl
ENDBRANCH   7  14
TORSDOF 3
ENDMDL
MODEL 3
REMARK VINA RESULT:    -4.795      3.753      7.416
REMARK INTER + INTRA:          -5.793
REMARK INTER:                  -5.498
REMARK INTRA:                  -0.295
REMARK UNBOUND:                -0.297
REMARK SMILES O=C(O)c1ccc2nc(-c3cc(Cl)cc(Cl)c3)oc2c1
REMARK SMILES IDX 5 1 6 2 20 3 8 4 18 5 4 6 9 7 7 8 19 9 2 10 1 11 3 12 10 14
REMARK SMILES IDX 11 15 17 16 12 17 15 18 14 19 13 20 16 21
REMARK H PARENT 3 13
ROOT
ATOM      1  C   UNL     1     -14.526  -1.222   3.068  1.00  0.00     0.018 A 
ATOM      2  C   UNL     1     -13.319  -1.823   3.265  1.00  0.00     0.033 A 
ATOM      3  C   UNL     1     -13.594   0.115   1.273  1.00  0.00     0.065 A 
ATOM      4  N   UNL     1     -10.935  -1.875   2.431  1.00  0.00    -0.209 NA
ATOM      5  O   UNL     1     -11.156  -0.361   0.884  1.00  0.00    -0.436 OA
ATOM      6  C   UNL     1     -14.680  -0.249   2.071  1.00  0.00     0.063 A 
ATOM      7  C   UNL     1     -10.309  -1.216   1.487  1.00  0.00     0.227 A 
ATOM      8  C   UNL     1     -12.221  -1.467   2.472  1.00  0.00     0.110 A 
ATOM      9  C   UNL     1     -12.366  -0.489   1.472  1.00  0.00     0.156 A 
ENDROOT
BRANCH   6  10
ATOM     10  C   UNL     1     -15.992   0.391   1.863  1.00  0.00     0.335 C 
ATOM     11  O   UNL     1     -16.080   1.386   1.173  1.00  0.00    -0.246 OA
BRANCH  10  12
ATOM     12  O   UNL     1     -17.094  -0.129   2.440  1.00  0.00    -0.478 OA
ATOM     13  H   UNL     1     -17.747   0.496   2.780  1.00  0.00     0.297 HD
ENDBRANCH  10  12
ENDBRANCH   6  10
BRANCH   7  14
ATOM     14  C   UNL     1      -8.883  -1.386   1.138  1.00  0.00     0.040 A 
ATOM     15  C   UNL     1      -8.157  -0.315   0.617  1.00  0.00     0.034 A 
ATOM     16  C   UNL     1      -8.258  -2.621   1.328  1.00  0.00     0.034 A 
ATOM     17  C   UNL     1      -6.824  -0.480   0.294  1.00  0.00     0.043 A 
ATOM     18  C   UNL     1      -6.926  -2.773   1.001  1.00  0.00     0.043 A 
ATOM     19  C   UNL     1      -6.210  -1.707   0.484  1.00  0.00     0.041 A 
ATOM     20  Cl  UNL     1      -5.918   0.851  -0.355  1.00  0.00    -0.084 Cl
ATOM     21  Cl  UNL     1      -6.146  -4.307   1.236  1.00  0.00    -0.084 Cl
ENDBRANCH   7  14
TORSDOF 3
ENDMDL
MODEL 4
REMARK VINA RESULT:    -4.786      3.753      7.648
REMARK INTER + INTRA:          -5.782
REMARK INTER:                  -5.487
REMARK INTRA:                  -0.295
REMARK UNBOUND:                -0.297
REMARK SMILES O=C(O)c1ccc2nc(-c3cc(Cl)cc(Cl)c3)oc2c1
REMARK SMILES IDX 5 1 6 2 20 3 8 4 18 5 4 6 9 7 7 8 19 9 2 10 1 11 3 12 10 14
REMARK SMILES IDX 11 15 17 16 12 17 15 18 14 19 13 20 16 21
REMARK H PARENT 3 13
ROOT
ATOM      1  C   UNL     1     -14.530  -1.227   3.071  1.00  0.00     0.018 A 
ATOM      2  C   UNL     1     -13.323  -1.828   3.267  1.00  0.00     0.033 A 
ATOM      3  C   UNL     1     -13.598   0.114   1.277  1.00  0.00     0.065 A 
ATOM      4  N   UNL     1     -10.939  -1.879   2.433  1.00  0.00    -0.209 NA
ATOM      5  O   UNL     1     -11.160  -0.362   0.889  1.00  0.00    -0.436 OA
ATOM      6  C   UNL     1     -14.684  -0.252   2.075  1.00  0.00     0.063 A 
ATOM      7  C   UNL     1     -10.313  -1.218   1.491  1.00  0.00     0.227 A 
ATOM      8  C   UNL     1     -12.225  -1.471   2.474  1.00  0.00     0.110 A 
ATOM      9  C   UNL     1     -12.370  -0.491   1.477  1.00  0.00     0.156 A 
ENDROOT
BRANCH   6  10
ATOM     10  C   UNL     1     -15.996   0.387   1.868  1.00  0.00     0.335 C 
ATOM     11  O   UNL     1     -16.084   1.382   1.176  1.00  0.00    -0.246 OA
BRANCH  10  12
ATOM     12  O   UNL     1     -17.097  -0.130   2.448  1.00  0.00    -0.478 OA
ATOM     13  H   UNL     1     -17.696   0.490   2.884  1.00  0.00     0.297 HD
ENDBRANCH  10  12
ENDBRANCH   6  10
BRANCH   7  14
ATOM     14  C   UNL     1      -8.887  -1.388   1.141  1.00  0.00     0.040 A 
ATOM     15  C   UNL     1      -8.260  -2.620   1.331  1.00  0.00     0.034 A 
ATOM     16  C   UNL     1      -8.161  -0.314   0.621  1.00  0.00     0.034 A 
ATOM     17  C   UNL     1      -6.928  -2.772   1.001  1.00  0.00     0.043 A 
ATOM     18  C   UNL     1      -6.830  -0.478   0.296  1.00  0.00     0.043 A 
ATOM     19  C   UNL     1      -6.214  -1.703   0.486  1.00  0.00     0.041 A 
ATOM     20  Cl  UNL     1      -6.147  -4.304   1.235  1.00  0.00    -0.084 Cl
ATOM     21  Cl  UNL     1      -5.925   0.855  -0.351  1.00  0.00    -0.084 Cl
ENDBRANCH   7  14
TORSDOF 3
ENDMDL
MODEL 5
REMARK VINA RESULT:    -4.783      3.932      7.612
REMARK INTER + INTRA:          -5.779
REMARK INTER:                  -5.484
REMARK INTRA:                  -0.295
REMARK UNBOUND:                -0.297
REMARK SMILES O=C(O)c1ccc2nc(-c3cc(Cl)cc(Cl)c3)oc2c1
REMARK SMILES IDX 5 1 6 2 20 3 8 4 18 5 4 6 9 7 7 8 19 9 2 10 1 11 3 12 10 14
REMARK SMILES IDX 11 15 17 16 12 17 15 18 14 19 13 20 16 21
REMARK H PARENT 3 13
ROOT
ATOM      1  C   UNL     1     -14.627  -0.994   2.699  1.00  0.00     0.018 A 
ATOM      2  C   UNL     1     -13.648  -0.456   1.920  1.00  0.00     0.033 A 
ATOM      3  C   UNL     1     -13.002  -2.417   3.802  1.00  0.00     0.065 A 
ATOM      4  N   UNL     1     -11.167  -0.551   1.451  1.00  0.00    -0.209 NA
ATOM      5  O   UNL     1     -10.673  -2.082   2.916  1.00  0.00    -0.436 OA
ATOM      6  C   UNL     1     -14.319  -1.978   3.650  1.00  0.00     0.063 A 
ATOM      7  C   UNL     1     -10.193  -1.262   1.962  1.00  0.00     0.227 A 
ATOM      8  C   UNL     1     -12.323  -0.887   2.062  1.00  0.00     0.110 A 
ATOM      9  C   UNL     1     -12.006  -1.877   3.010  1.00  0.00     0.156 A 
ENDROOT
BRANCH   6  10
ATOM     10  C   UNL     1     -15.386  -2.548   4.491  1.00  0.00     0.335 C 
ATOM     11  O   UNL     1     -15.173  -3.547   5.148  1.00  0.00    -0.246 OA
BRANCH  10  12
ATOM     12  O   UNL     1     -16.599  -1.962   4.531  1.00  0.00    -0.478 OA
ATOM     13  H   UNL     1     -16.884  -1.600   5.381  1.00  0.00     0.297 HD
ENDBRANCH  10  12
ENDBRANCH   6  10
BRANCH   7  14
ATOM     14  C   UNL     1      -8.776  -1.178   1.551  1.00  0.00     0.040 A 
ATOM     15  C   UNL     1      -8.261   0.020   1.054  1.00  0.00     0.034 A 
ATOM     16  C   UNL     1      -7.948  -2.297   1.657  1.00  0.00     0.034 A 
ATOM     17  C   UNL     1      -6.936   0.093   0.672  1.00  0.00     0.043 A 
ATOM     18  C   UNL     1      -6.625  -2.212   1.272  1.00  0.00     0.043 A 
ATOM     19  C   UNL     1      -6.120  -1.021   0.780  1.00  0.00     0.041 A 
ATOM     20  Cl  UNL     1      -6.292   1.582   0.055  1.00  0.00    -0.084 Cl
ATOM     21  Cl  UNL     1      -5.594  -3.603   1.403  1.00  0.00    -0.084 Cl
ENDBRANCH   7  14
TORSDOF 3
ENDMDL
MODEL 6
REMARK VINA RESULT:    -4.777      3.932      7.836
REMARK INTER + INTRA:          -5.772
REMARK INTER:                  -5.477
REMARK INTRA:                  -0.295
REMARK UNBOUND:                -0.297
REMARK SMILES O=C(O)c1ccc2nc(-c3cc(Cl)cc(Cl)c3)oc2c1
REMARK SMILES IDX 5 1 6 2 20 3 8 4 18 5 4 6 9 7 7 8 19 9 2 10 1 11 3 12 10 14
REMARK SMILES IDX 11 15 17 16 12 17 15 18 14 19 13 20 16 21
REMARK H PARENT 3 13
ROOT
ATOM      1  C   UNL     1     -14.627  -0.994   2.698  1.00  0.00     0.018 A 
ATOM      2  C   UNL     1     -13.647  -0.457   1.919  1.00  0.00     0.033 A 
ATOM      3  C   UNL     1     -13.003  -2.417   3.802  1.00  0.00     0.065 A 
ATOM      4  N   UNL     1     -11.166  -0.554   1.450  1.00  0.00    -0.209 NA
ATOM      5  O   UNL     1     -10.674  -2.084   2.916  1.00  0.00    -0.436 OA
ATOM      6  C   UNL     1     -14.319  -1.977   3.649  1.00  0.00     0.063 A 
ATOM      7  C   UNL     1     -10.193  -1.265   1.962  1.00  0.00     0.227 A 
ATOM      8  C   UNL     1     -12.323  -0.889   2.062  1.00  0.00     0.110 A 
ATOM      9  C   UNL     1     -12.006  -1.878   3.010  1.00  0.00     0.156 A 
ENDROOT
BRANCH   6  10
ATOM     10  C   UNL     1     -15.387  -2.547   4.491  1.00  0.00     0.335 C 
ATOM     11  O   UNL     1     -15.173  -3.544   5.150  1.00  0.00    -0.246 OA
BRANCH  10  12
ATOM     12  O   UNL     1     -16.600  -1.961   4.528  1.00  0.00    -0.478 OA
ATOM     13  H   UNL     1     -17.233  -2.302   5.175  1.00  0.00     0.297 HD
ENDBRANCH  10  12
ENDBRANCH   6  10
BRANCH   7  14
ATOM     14  C   UNL     1      -8.776  -1.182   1.550  1.00  0.00     0.040 A 
ATOM     15  C   UNL     1      -7.948  -2.299   1.657  1.00  0.00     0.034 A 
ATOM     16  C   UNL     1      -8.261   0.017   1.053  1.00  0.00     0.034 A 
ATOM     17  C   UNL     1      -6.625  -2.215   1.270  1.00  0.00     0.043 A 
ATOM     18  C   UNL     1      -6.937   0.089   0.670  1.00  0.00     0.043 A 
ATOM     19  C   UNL     1      -6.120  -1.023   0.779  1.00  0.00     0.041 A 
ATOM     20  Cl  UNL     1      -5.593  -3.604   1.402  1.00  0.00    -0.084 Cl
ATOM     21  Cl  UNL     1      -6.294   1.579   0.051  1.00  0.00    -0.084 Cl
ENDBRANCH   7  14
TORSDOF 3
ENDMDL
MODEL 7
REMARK VINA RESULT:    -4.464      2.111      3.060
REMARK INTER + INTRA:          -5.414
REMARK INTER:                  -5.127
REMARK INTRA:                  -0.287
REMARK UNBOUND:                -0.297
REMARK SMILES O=C(O)c1ccc2nc(-c3cc(Cl)cc(Cl)c3)oc2c1
REMARK SMILES IDX 5 1 6 2 20 3 8 4 18 5 4 6 9 7 7 8 19 9 2 10 1 11 3 12 10 14
REMARK SMILES IDX 11 15 17 16 12 17 15 18 14 19 13 20 16 21
REMARK H PARENT 3 13
ROOT
ATOM      1  C   UNL     1      -7.033  -1.697   2.368  1.00  0.00     0.018 A 
ATOM      2  C   UNL     1      -8.049  -0.842   2.673  1.00  0.00     0.033 A 
ATOM      3  C   UNL     1      -8.521  -3.003   0.968  1.00  0.00     0.065 A 
ATOM      4  N   UNL     1     -10.498  -0.391   2.250  1.00  0.00    -0.209 NA
ATOM      5  O   UNL     1     -10.859  -2.080   0.926  1.00  0.00    -0.436 OA
ATOM      6  C   UNL     1      -7.254  -2.785   1.512  1.00  0.00     0.063 A 
ATOM      7  C   UNL     1     -11.404  -1.007   1.531  1.00  0.00     0.227 A 
ATOM      8  C   UNL     1      -9.325  -1.049   2.135  1.00  0.00     0.110 A 
ATOM      9  C   UNL     1      -9.556  -2.141   1.279  1.00  0.00     0.156 A 
ENDROOT
BRANCH   6  10
ATOM     10  C   UNL     1      -6.146  -3.700   1.183  1.00  0.00     0.335 C 
ATOM     11  O   UNL     1      -5.033  -3.488   1.622  1.00  0.00    -0.246 OA
BRANCH  10  12
ATOM     12  O   UNL     1      -6.366  -4.771   0.396  1.00  0.00    -0.478 OA
ATOM     13  H   UNL     1      -6.326  -4.630  -0.559  1.00  0.00     0.297 HD
ENDBRANCH  10  12
ENDBRANCH   6  10
BRANCH   7  14
ATOM     14  C   UNL     1     -12.814  -0.587   1.404  1.00  0.00     0.040 A 
ATOM     15  C   UNL     1     -13.726  -0.872   2.421  1.00  0.00     0.034 A 
ATOM     16  C   UNL     1     -13.241   0.098   0.264  1.00  0.00     0.034 A 
ATOM     17  C   UNL     1     -15.043  -0.475   2.296  1.00  0.00     0.043 A 
ATOM     18  C   UNL     1     -14.560   0.490   0.151  1.00  0.00     0.043 A 
ATOM     19  C   UNL     1     -15.459   0.203   1.163  1.00  0.00     0.041 A 
ATOM     20  Cl  UNL     1     -16.178  -0.829   3.560  1.00  0.00    -0.084 Cl
ATOM     21  Cl  UNL     1     -15.092   1.341  -1.266  1.00  0.00    -0.084 Cl
ENDBRANCH   7  14
TORSDOF 3
ENDMDL
MODEL 8
REMARK VINA RESULT:    -4.455      2.209      2.452
REMARK INTER + INTRA:          -5.403
REMARK INTER:                  -5.115
REMARK INTRA:                  -0.288
REMARK UNBOUND:                -0.297
REMARK SMILES O=C(O)c1ccc2nc(-c3cc(Cl)cc(Cl)c3)oc2c1
REMARK SMILES IDX 5 1 6 2 20 3 8 4 18 5 4 6 9 7 7 8 19 9 2 10 1 11 3 12 10 14
REMARK SMILES IDX 11 15 17 16 12 17 15 18 14 19 13 20 16 21
REMARK H PARENT 3 13
ROOT
ATOM      1  C   UNL     1      -7.043  -1.916   2.484  1.00  0.00     0.018 A 
ATOM      2  C   UNL     1      -8.052  -1.056   2.799  1.00  0.00     0.033 A 
ATOM      3  C   UNL     1      -8.503  -3.105   0.956  1.00  0.00     0.065 A 
ATOM      4  N   UNL     1     -10.473  -0.524   2.310  1.00  0.00    -0.209 NA
ATOM      5  O   UNL     1     -10.818  -2.126   0.879  1.00  0.00    -0.436 OA
ATOM      6  C   UNL     1      -7.254  -2.949   1.559  1.00  0.00     0.063 A 
ATOM      7  C   UNL     1     -11.362  -1.077   1.523  1.00  0.00     0.227 A 
ATOM      8  C   UNL     1      -9.310  -1.202   2.202  1.00  0.00     0.110 A 
ATOM      9  C   UNL     1      -9.531  -2.238   1.277  1.00  0.00     0.156 A 
ENDROOT
BRANCH   6  10
ATOM     10  C   UNL     1      -6.154  -3.869   1.221  1.00  0.00     0.335 C 
ATOM     11  O   UNL     1      -5.075  -3.753   1.768  1.00  0.00    -0.246 OA
BRANCH  10  12
ATOM     12  O   UNL     1      -6.343  -4.839   0.305  1.00  0.00    -0.478 OA
ATOM     13  H   UNL     1      -6.267  -4.587  -0.625  1.00  0.00     0.297 HD
ENDBRANCH  10  12
ENDBRANCH   6  10
BRANCH   7  14
ATOM     14  C   UNL     1     -12.758  -0.617   1.367  1.00  0.00     0.040 A 
ATOM     15  C   UNL     1     -13.136   0.103   0.233  1.00  0.00     0.034 A 
ATOM     16  C   UNL     1     -13.703  -0.900   2.355  1.00  0.00     0.034 A 
ATOM     17  C   UNL     1     -14.441   0.530   0.093  1.00  0.00     0.043 A 
ATOM     18  C   UNL     1     -15.006  -0.468   2.203  1.00  0.00     0.043 A 
ATOM     19  C   UNL     1     -15.374   0.246   1.076  1.00  0.00     0.041 A 
ATOM     20  Cl  UNL     1     -14.914   1.425  -1.318  1.00  0.00    -0.084 Cl
ATOM     21  Cl  UNL     1     -16.183  -0.819   3.430  1.00  0.00    -0.084 Cl
ENDBRANCH   7  14
TORSDOF 3
ENDMDL
MODEL 9
REMARK VINA RESULT:    -4.044      5.277      8.822
REMARK INTER + INTRA:          -4.932
REMARK INTER:                  -4.647
REMARK INTRA:                  -0.285
REMARK UNBOUND:                -0.297
REMARK SMILES O=C(O)c1ccc2nc(-c3cc(Cl)cc(Cl)c3)oc2c1
REMARK SMILES IDX 5 1 6 2 20 3 8 4 18 5 4 6 9 7 7 8 19 9 2 10 1 11 3 12 10 14
REMARK SMILES IDX 11 15 17 16 12 17 15 18 14 19 13 20 16 21
REMARK H PARENT 3 13
ROOT
ATOM      1  C   UNL     1     -16.597  -3.562   7.945  1.00  0.00     0.018 A 
ATOM      2  C   UNL     1     -16.596  -3.237   6.621  1.00  0.00     0.033 A 
ATOM      3  C   UNL     1     -14.222  -3.092   8.085  1.00  0.00     0.065 A 
ATOM      4  N   UNL     1     -15.101  -2.460   4.738  1.00  0.00    -0.209 NA
ATOM      5  O   UNL     1     -13.255  -2.355   5.884  1.00  0.00    -0.436 OA
ATOM      6  C   UNL     1     -15.413  -3.492   8.693  1.00  0.00     0.063 A 
ATOM      7  C   UNL     1     -13.824  -2.177   4.677  1.00  0.00     0.227 A 
ATOM      8  C   UNL     1     -15.408  -2.834   5.999  1.00  0.00     0.110 A 
ATOM      9  C   UNL     1     -14.216  -2.767   6.741  1.00  0.00     0.156 A 
ENDROOT
BRANCH   6  10
ATOM     10  C   UNL     1     -15.427  -3.840  10.125  1.00  0.00     0.335 C 
ATOM     11  O   UNL     1     -15.863  -3.049  10.938  1.00  0.00    -0.246 OA
BRANCH  10  12
ATOM     12  O   UNL     1     -14.956  -5.035  10.534  1.00  0.00    -0.478 OA
ATOM     13  H   UNL     1     -15.135  -5.795   9.965  1.00  0.00     0.297 HD
ENDBRANCH  10  12
ENDBRANCH   6  10
BRANCH   7  14
ATOM     14  C   UNL     1     -13.113  -1.730   3.462  1.00  0.00     0.040 A 
ATOM     15  C   UNL     1     -13.793  -1.015   2.475  1.00  0.00     0.034 A 
ATOM     16  C   UNL     1     -11.757  -2.021   3.296  1.00  0.00     0.034 A 
ATOM     17  C   UNL     1     -13.122  -0.599   1.342  1.00  0.00     0.043 A 
ATOM     18  C   UNL     1     -11.098  -1.599   2.159  1.00  0.00     0.043 A 
ATOM     19  C   UNL     1     -11.778  -0.891   1.184  1.00  0.00     0.041 A 
ATOM     20  Cl  UNL     1     -13.965   0.291   0.113  1.00  0.00    -0.084 Cl
ATOM     21  Cl  UNL     1      -9.412  -1.961   1.951  1.00  0.00    -0.084 Cl
ENDBRANCH   7  14
TORSDOF 3
ENDMDL
