MODEL 1
REMARK VINA RESULT:    -2.737      0.000      0.000
REMARK INTER + INTRA:          -3.418
REMARK INTER:                  -3.137
REMARK INTRA:                  -0.281
REMARK UNBOUND:                -0.281
REMARK SMILES O=C(O)c1ccc2nc(-c3cc(Cl)cc(Cl)c3)oc2c1
REMARK SMILES IDX 5 1 6 2 20 3 8 4 18 5 4 6 9 7 7 8 19 9 2 10 1 11 3 12 10 14
REMARK SMILES IDX 11 15 17 16 12 17 15 18 14 19 13 20 16 21
REMARK H PARENT 3 13
ROOT
ATOM      1  C   UNL     1       4.619  16.956   2.200  1.00  0.00     0.018 A 
ATOM      2  C   UNL     1       5.356  15.810   2.200  1.00  0.00     0.033 A 
ATOM      3  C   UNL     1       2.586  15.678   2.537  1.00  0.00     0.065 A 
ATOM      4  N   UNL     1       5.173  13.299   2.410  1.00  0.00    -0.209 NA
ATOM      5  O   UNL     1       3.015  13.205   2.666  1.00  0.00    -0.436 OA
ATOM      6  C   UNL     1       3.228  16.907   2.370  1.00  0.00     0.063 A 
ATOM      7  C   UNL     1       4.156  12.494   2.588  1.00  0.00     0.227 A 
ATOM      8  C   UNL     1       4.724  14.571   2.367  1.00  0.00     0.110 A 
ATOM      9  C   UNL     1       3.329  14.512   2.533  1.00  0.00     0.156 A 
ENDROOT
BRANCH   6  10
ATOM     10  C   UNL     1       2.443  18.154   2.374  1.00  0.00     0.335 C 
ATOM     11  O   UNL     1       2.157  18.695   1.325  1.00  0.00    -0.246 OA
BRANCH  10  12
ATOM     12  O   UNL     1       2.043  18.695   3.542  1.00  0.00    -0.478 OA
ATOM     13  H   UNL     1       2.248  19.628   3.686  1.00  0.00     0.297 HD
ENDBRANCH  10  12
ENDBRANCH   6  10
BRANCH   7  14
ATOM     14  C   UNL     1       4.247  11.022   2.688  1.00  0.00     0.040 A 
ATOM     15  C   UNL     1       3.588  10.347   3.716  1.00  0.00     0.034 A 
ATOM     16  C   UNL     1       4.994  10.302   1.753  1.00  0.00     0.034 A 
ATOM     17  C   UNL     1       3.676   8.972   3.802  1.00  0.00     0.043 A 
ATOM     18  C   UNL     1       5.074   8.927   1.850  1.00  0.00     0.043 A 
ATOM     19  C   UNL     1       4.418   8.263   2.873  1.00  0.00     0.041 A 
ATOM     20  Cl  UNL     1       2.857   8.129   5.080  1.00  0.00    -0.084 Cl
ATOM     21  Cl  UNL     1       6.002   8.030   0.689  1.00  0.00    -0.084 Cl
ENDBRANCH   7  14
TORSDOF 3
ENDMDL
MODEL 2
REMARK VINA RESULT:    -2.721      0.029      2.020
REMARK INTER + INTRA:          -3.400
REMARK INTER:                  -3.119
REMARK INTRA:                  -0.281
REMARK UNBOUND:                -0.281
REMARK SMILES O=C(O)c1ccc2nc(-c3cc(Cl)cc(Cl)c3)oc2c1
REMARK SMILES IDX 5 1 6 2 20 3 8 4 18 5 4 6 9 7 7 8 19 9 2 10 1 11 3 12 10 14
REMARK SMILES IDX 11 15 17 16 12 17 15 18 14 19 13 20 16 21
REMARK H PARENT 3 13
ROOT
ATOM      1  C   UNL     1       4.598  16.958   2.221  1.00  0.00     0.018 A 
ATOM      2  C   UNL     1       5.337  15.813   2.212  1.00  0.00     0.033 A 
ATOM      3  C   UNL     1       2.569  15.674   2.554  1.00  0.00     0.065 A 
ATOM      4  N   UNL     1       5.161  13.300   2.405  1.00  0.00    -0.209 NA
ATOM      5  O   UNL     1       3.003  13.200   2.667  1.00  0.00    -0.436 OA
ATOM      6  C   UNL     1       3.208  16.905   2.394  1.00  0.00     0.063 A 
ATOM      7  C   UNL     1       4.145  12.492   2.581  1.00  0.00     0.227 A 
ATOM      8  C   UNL     1       4.708  14.572   2.372  1.00  0.00     0.110 A 
ATOM      9  C   UNL     1       3.314  14.510   2.541  1.00  0.00     0.156 A 
ENDROOT
BRANCH   6  10
ATOM     10  C   UNL     1       2.420  18.150   2.408  1.00  0.00     0.335 C 
ATOM     11  O   UNL     1       2.126  18.695   1.363  1.00  0.00    -0.246 OA
BRANCH  10  12
ATOM     12  O   UNL     1       2.027  18.686   3.580  1.00  0.00    -0.478 OA
ATOM     13  H   UNL     1       1.780  18.071   4.284  1.00  0.00     0.297 HD
ENDBRANCH  10  12
ENDBRANCH   6  10
BRANCH   7  14
ATOM     14  C   UNL     1       4.239  11.020   2.671  1.00  0.00     0.040 A 
ATOM     15  C   UNL     1       4.985  10.307   1.732  1.00  0.00     0.034 A 
ATOM     16  C   UNL     1       3.581  10.338   3.695  1.00  0.00     0.034 A 
ATOM     17  C   UNL     1       5.070   8.932   1.822  1.00  0.00     0.043 A 
ATOM     18  C   UNL     1       3.673   8.963   3.775  1.00  0.00     0.043 A 
ATOM     19  C   UNL     1       4.415   8.261   2.840  1.00  0.00     0.041 A 
ATOM     20  Cl  UNL     1       5.999   8.042   0.656  1.00  0.00    -0.084 Cl
ATOM     21  Cl  UNL     1       2.855   8.111   5.049  1.00  0.00    -0.084 Cl
ENDBRANCH   7  14
TORSDOF 3
ENDMDL
MODEL 3
REMARK VINA RESULT:    -2.579      5.290      6.204
REMARK INTER + INTRA:          -3.237
REMARK INTER:                  -2.947
REMARK INTRA:                  -0.290
REMARK UNBOUND:                -0.281
REMARK SMILES O=C(O)c1ccc2nc(-c3cc(Cl)cc(Cl)c3)oc2c1
REMARK SMILES IDX 5 1 6 2 20 3 8 4 18 5 4 6 9 7 7 8 19 9 2 10 1 11 3 12 10 14
REMARK SMILES IDX 11 15 17 16 12 17 15 18 14 19 13 20 16 21
REMARK H PARENT 3 13
ROOT
ATOM      1  C   UNL     1      10.823  12.445   6.503  1.00  0.00     0.018 A 
ATOM      2  C   UNL     1      10.330  11.365   5.834  1.00  0.00     0.033 A 
ATOM      3  C   UNL     1       8.613  13.442   6.569  1.00  0.00     0.065 A 
ATOM      4  N   UNL     1       8.207  10.386   4.876  1.00  0.00    -0.209 NA
ATOM      5  O   UNL     1       6.878  12.010   5.448  1.00  0.00    -0.436 OA
ATOM      6  C   UNL     1       9.973  13.494   6.881  1.00  0.00     0.063 A 
ATOM      7  C   UNL     1       6.969  10.813   4.840  1.00  0.00     0.227 A 
ATOM      8  C   UNL     1       8.968  11.300   5.515  1.00  0.00     0.110 A 
ATOM      9  C   UNL     1       8.110  12.351   5.886  1.00  0.00     0.156 A 
ENDROOT
BRANCH   6  10
ATOM     10  C   UNL     1      10.517  14.654   7.610  1.00  0.00     0.335 C 
ATOM     11  O   UNL     1      11.570  14.556   8.208  1.00  0.00    -0.246 OA
BRANCH  10  12
ATOM     12  O   UNL     1       9.845  15.823   7.615  1.00  0.00    -0.478 OA
ATOM     13  H   UNL     1       9.153  15.934   6.950  1.00  0.00     0.297 HD
ENDBRANCH  10  12
ENDBRANCH   6  10
BRANCH   7  14
ATOM     14  C   UNL     1       5.840  10.086   4.223  1.00  0.00     0.040 A 
ATOM     15  C   UNL     1       4.663   9.876   4.943  1.00  0.00     0.034 A 
ATOM     16  C   UNL     1       5.947   9.606   2.916  1.00  0.00     0.034 A 
ATOM     17  C   UNL     1       3.612   9.198   4.359  1.00  0.00     0.043 A 
ATOM     18  C   UNL     1       4.889   8.929   2.343  1.00  0.00     0.043 A 
ATOM     19  C   UNL     1       3.724   8.724   3.063  1.00  0.00     0.041 A 
ATOM     20  Cl  UNL     1       2.147   8.936   5.253  1.00  0.00    -0.084 Cl
ATOM     21  Cl  UNL     1       5.020   8.332   0.718  1.00  0.00    -0.084 Cl
ENDBRANCH   7  14
TORSDOF 3
ENDMDL
MODEL 4
REMARK VINA RESULT:    -2.447      3.792      7.572
REMARK INTER + INTRA:          -3.085
REMARK INTER:                  -2.792
REMARK INTRA:                  -0.293
REMARK UNBOUND:                -0.281
REMARK SMILES O=C(O)c1ccc2nc(-c3cc(Cl)cc(Cl)c3)oc2c1
REMARK SMILES IDX 5 1 6 2 20 3 8 4 18 5 4 6 9 7 7 8 19 9 2 10 1 11 3 12 10 14
REMARK SMILES IDX 11 15 17 16 12 17 15 18 14 19 13 20 16 21
REMARK H PARENT 3 13
ROOT
ATOM      1  C   UNL     1       5.195   7.930   2.044  1.00  0.00     0.018 A 
ATOM      2  C   UNL     1       5.481   9.133   1.471  1.00  0.00     0.033 A 
ATOM      3  C   UNL     1       3.848   9.029   3.735  1.00  0.00     0.065 A 
ATOM      4  N   UNL     1       5.061  11.616   1.683  1.00  0.00    -0.209 NA
ATOM      5  O   UNL     1       3.795  11.526   3.450  1.00  0.00    -0.436 OA
ATOM      6  C   UNL     1       4.375   7.862   3.179  1.00  0.00     0.063 A 
ATOM      7  C   UNL     1       4.369  12.330   2.535  1.00  0.00     0.227 A 
ATOM      8  C   UNL     1       4.958  10.312   2.018  1.00  0.00     0.110 A 
ATOM      9  C   UNL     1       4.140  10.252   3.160  1.00  0.00     0.156 A 
ENDROOT
BRANCH   6  10
ATOM     10  C   UNL     1       4.068   6.554   3.787  1.00  0.00     0.335 C 
ATOM     11  O   UNL     1       4.668   5.561   3.426  1.00  0.00    -0.246 OA
BRANCH  10  12
ATOM     12  O   UNL     1       3.122   6.459   4.741  1.00  0.00    -0.478 OA
ATOM     13  H   UNL     1       2.905   5.573   5.059  1.00  0.00     0.297 HD
ENDBRANCH  10  12
ENDBRANCH   6  10
BRANCH   7  14
ATOM     14  C   UNL     1       4.238  13.801   2.498  1.00  0.00     0.040 A 
ATOM     15  C   UNL     1       3.014  14.404   2.787  1.00  0.00     0.034 A 
ATOM     16  C   UNL     1       5.341  14.594   2.172  1.00  0.00     0.034 A 
ATOM     17  C   UNL     1       2.899  15.780   2.751  1.00  0.00     0.043 A 
ATOM     18  C   UNL     1       5.214  15.968   2.139  1.00  0.00     0.043 A 
ATOM     19  C   UNL     1       3.996  16.560   2.427  1.00  0.00     0.041 A 
ATOM     20  Cl  UNL     1       1.377  16.532   3.111  1.00  0.00    -0.084 Cl
ATOM     21  Cl  UNL     1       6.583  16.956   1.735  1.00  0.00    -0.084 Cl
ENDBRANCH   7  14
TORSDOF 3
ENDMDL
MODEL 5
REMARK VINA RESULT:    -2.439      3.791      7.773
REMARK INTER + INTRA:          -3.076
REMARK INTER:                  -2.783
REMARK INTRA:                  -0.294
REMARK UNBOUND:                -0.281
REMARK SMILES O=C(O)c1ccc2nc(-c3cc(Cl)cc(Cl)c3)oc2c1
REMARK SMILES IDX 5 1 6 2 20 3 8 4 18 5 4 6 9 7 7 8 19 9 2 10 1 11 3 12 10 14
REMARK SMILES IDX 11 15 17 16 12 17 15 18 14 19 13 20 16 21
REMARK H PARENT 3 13
ROOT
ATOM      1  C   UNL     1       5.196   7.948   2.030  1.00  0.00     0.018 A 
ATOM      2  C   UNL     1       5.481   9.153   1.460  1.00  0.00     0.033 A 
ATOM      3  C   UNL     1       3.848   9.040   3.724  1.00  0.00     0.065 A 
ATOM      4  N   UNL     1       5.059  11.634   1.680  1.00  0.00    -0.209 NA
ATOM      5  O   UNL     1       3.792  11.538   3.446  1.00  0.00    -0.436 OA
ATOM      6  C   UNL     1       4.376   7.875   3.165  1.00  0.00     0.063 A 
ATOM      7  C   UNL     1       4.366  12.346   2.534  1.00  0.00     0.227 A 
ATOM      8  C   UNL     1       4.957  10.329   2.011  1.00  0.00     0.110 A 
ATOM      9  C   UNL     1       4.138  10.265   3.152  1.00  0.00     0.156 A 
ENDROOT
BRANCH   6  10
ATOM     10  C   UNL     1       4.070   6.566   3.768  1.00  0.00     0.335 C 
ATOM     11  O   UNL     1       4.663   5.573   3.397  1.00  0.00    -0.246 OA
BRANCH  10  12
ATOM     12  O   UNL     1       3.132   6.470   4.731  1.00  0.00    -0.478 OA
ATOM     13  H   UNL     1       3.044   5.615   5.174  1.00  0.00     0.297 HD
ENDBRANCH  10  12
ENDBRANCH   6  10
BRANCH   7  14
ATOM     14  C   UNL     1       4.234  13.817   2.500  1.00  0.00     0.040 A 
ATOM     15  C   UNL     1       5.334  14.612   2.175  1.00  0.00     0.034 A 
ATOM     16  C   UNL     1       3.008  14.417   2.796  1.00  0.00     0.034 A 
ATOM     17  C   UNL     1       5.204  15.986   2.145  1.00  0.00     0.043 A 
ATOM     18  C   UNL     1       2.891  15.792   2.762  1.00  0.00     0.043 A 
ATOM     19  C   UNL     1       3.986  16.576   2.439  1.00  0.00     0.041 A 
ATOM     20  Cl  UNL     1       6.570  16.978   1.740  1.00  0.00    -0.084 Cl
ATOM     21  Cl  UNL     1       1.368  16.541   3.129  1.00  0.00    -0.084 Cl
ENDBRANCH   7  14
TORSDOF 3
ENDMDL
MODEL 6
REMARK VINA RESULT:    -2.412      5.818      7.470
REMARK INTER + INTRA:          -3.045
REMARK INTER:                  -2.752
REMARK INTRA:                  -0.293
REMARK UNBOUND:                -0.281
REMARK SMILES O=C(O)c1ccc2nc(-c3cc(Cl)cc(Cl)c3)oc2c1
REMARK SMILES IDX 5 1 6 2 20 3 8 4 18 5 4 6 9 7 7 8 19 9 2 10 1 11 3 12 10 14
REMARK SMILES IDX 11 15 17 16 12 17 15 18 14 19 13 20 16 21
REMARK H PARENT 3 13
ROOT
ATOM      1  C   UNL     1       2.593   8.497   3.557  1.00  0.00     0.018 A 
ATOM      2  C   UNL     1       3.170   9.179   4.586  1.00  0.00     0.033 A 
ATOM      3  C   UNL     1       4.604   8.758   2.226  1.00  0.00     0.065 A 
ATOM      4  N   UNL     1       5.292  10.360   5.281  1.00  0.00    -0.209 NA
ATOM      5  O   UNL     1       6.400  10.033   3.438  1.00  0.00    -0.436 OA
ATOM      6  C   UNL     1       3.301   8.276   2.367  1.00  0.00     0.063 A 
ATOM      7  C   UNL     1       6.431  10.573   4.671  1.00  0.00     0.227 A 
ATOM      8  C   UNL     1       4.476   9.667   4.458  1.00  0.00     0.110 A 
ATOM      9  C   UNL     1       5.191   9.454   3.266  1.00  0.00     0.156 A 
ENDROOT
BRANCH   6  10
ATOM     10  C   UNL     1       2.669   7.532   1.263  1.00  0.00     0.335 C 
ATOM     11  O   UNL     1       1.478   7.294   1.294  1.00  0.00    -0.246 OA
BRANCH  10  12
ATOM     12  O   UNL     1       3.412   7.114   0.219  1.00  0.00    -0.478 OA
ATOM     13  H   UNL     1       4.365   7.265   0.270  1.00  0.00     0.297 HD
ENDBRANCH  10  12
ENDBRANCH   6  10
BRANCH   7  14
ATOM     14  C   UNL     1       7.580  11.300   5.250  1.00  0.00     0.040 A 
ATOM     15  C   UNL     1       7.369  12.443   6.022  1.00  0.00     0.034 A 
ATOM     16  C   UNL     1       8.881  10.846   5.025  1.00  0.00     0.034 A 
ATOM     17  C   UNL     1       8.447  13.117   6.562  1.00  0.00     0.043 A 
ATOM     18  C   UNL     1       9.950  11.529   5.570  1.00  0.00     0.043 A 
ATOM     19  C   UNL     1       9.734  12.662   6.335  1.00  0.00     0.041 A 
ATOM     20  Cl  UNL     1       8.187  14.538   7.524  1.00  0.00    -0.084 Cl
ATOM     21  Cl  UNL     1      11.569  10.966   5.292  1.00  0.00    -0.084 Cl
ENDBRANCH   7  14
TORSDOF 3
ENDMDL
MODEL 7
REMARK VINA RESULT:    -2.406      3.923      7.631
REMARK INTER + INTRA:          -3.039
REMARK INTER:                  -2.748
REMARK INTRA:                  -0.290
REMARK UNBOUND:                -0.281
REMARK SMILES O=C(O)c1ccc2nc(-c3cc(Cl)cc(Cl)c3)oc2c1
REMARK SMILES IDX 5 1 6 2 20 3 8 4 18 5 4 6 9 7 7 8 19 9 2 10 1 11 3 12 10 14
REMARK SMILES IDX 11 15 17 16 12 17 15 18 14 19 13 20 16 21
REMARK H PARENT 3 13
ROOT
ATOM      1  C   UNL     1       4.399   8.664   3.458  1.00  0.00     0.018 A 
ATOM      2  C   UNL     1       4.024   9.861   3.991  1.00  0.00     0.033 A 
ATOM      3  C   UNL     1       5.260   9.787   1.488  1.00  0.00     0.065 A 
ATOM      4  N   UNL     1       4.003  12.347   3.547  1.00  0.00    -0.209 NA
ATOM      5  O   UNL     1       4.962  12.281   1.595  1.00  0.00    -0.436 OA
ATOM      6  C   UNL     1       5.022   8.612   2.203  1.00  0.00     0.063 A 
ATOM      7  C   UNL     1       4.424  13.074   2.541  1.00  0.00     0.227 A 
ATOM      8  C   UNL     1       4.256  11.047   3.285  1.00  0.00     0.110 A 
ATOM      9  C   UNL     1       4.876  11.002   2.024  1.00  0.00     0.156 A 
ENDROOT
BRANCH   6  10
ATOM     10  C   UNL     1       5.430   7.312   1.638  1.00  0.00     0.335 C 
ATOM     11  O   UNL     1       5.206   6.287   2.250  1.00  0.00    -0.246 OA
BRANCH  10  12
ATOM     12  O   UNL     1       6.052   7.261   0.443  1.00  0.00    -0.478 OA
ATOM     13  H   UNL     1       5.653   6.700  -0.235  1.00  0.00     0.297 HD
ENDBRANCH  10  12
ENDBRANCH   6  10
BRANCH   7  14
ATOM     14  C   UNL     1       4.324  14.545   2.458  1.00  0.00     0.040 A 
ATOM     15  C   UNL     1       3.078  15.169   2.543  1.00  0.00     0.034 A 
ATOM     16  C   UNL     1       5.475  15.318   2.294  1.00  0.00     0.034 A 
ATOM     17  C   UNL     1       2.991  16.545   2.466  1.00  0.00     0.043 A 
ATOM     18  C   UNL     1       5.375  16.693   2.218  1.00  0.00     0.043 A 
ATOM     19  C   UNL     1       4.137  17.305   2.303  1.00  0.00     0.041 A 
ATOM     20  Cl  UNL     1       1.443  17.323   2.572  1.00  0.00    -0.084 Cl
ATOM     21  Cl  UNL     1       6.806  17.655   2.014  1.00  0.00    -0.084 Cl
ENDBRANCH   7  14
TORSDOF 3
ENDMDL
MODEL 8
REMARK VINA RESULT:    -2.397      5.816      7.653
REMARK INTER + INTRA:          -3.028
REMARK INTER:                  -2.734
REMARK INTRA:                  -0.294
REMARK UNBOUND:                -0.281
REMARK SMILES O=C(O)c1ccc2nc(-c3cc(Cl)cc(Cl)c3)oc2c1
REMARK SMILES IDX 5 1 6 2 20 3 8 4 18 5 4 6 9 7 7 8 19 9 2 10 1 11 3 12 10 14
REMARK SMILES IDX 11 15 17 16 12 17 15 18 14 19 13 20 16 21
REMARK H PARENT 3 13
ROOT
ATOM      1  C   UNL     1       2.553   8.560   3.609  1.00  0.00     0.018 A 
ATOM      2  C   UNL     1       3.138   9.257   4.623  1.00  0.00     0.033 A 
ATOM      3  C   UNL     1       4.574   8.748   2.282  1.00  0.00     0.065 A 
ATOM      4  N   UNL     1       5.280  10.414   5.298  1.00  0.00    -0.209 NA
ATOM      5  O   UNL     1       6.389  10.018   3.469  1.00  0.00    -0.436 OA
ATOM      6  C   UNL     1       3.261   8.295   2.428  1.00  0.00     0.063 A 
ATOM      7  C   UNL     1       6.426  10.589   4.688  1.00  0.00     0.227 A 
ATOM      8  C   UNL     1       4.454   9.716   4.489  1.00  0.00     0.110 A 
ATOM      9  C   UNL     1       5.170   9.459   3.306  1.00  0.00     0.156 A 
ENDROOT
BRANCH   6  10
ATOM     10  C   UNL     1       2.619   7.535   1.340  1.00  0.00     0.335 C 
ATOM     11  O   UNL     1       1.476   7.143   1.466  1.00  0.00    -0.246 OA
BRANCH  10  12
ATOM     12  O   UNL     1       3.301   7.275   0.207  1.00  0.00    -0.478 OA
ATOM     13  H   UNL     1       4.057   6.677   0.277  1.00  0.00     0.297 HD
ENDBRANCH  10  12
ENDBRANCH   6  10
BRANCH   7  14
ATOM     14  C   UNL     1       7.586  11.308   5.253  1.00  0.00     0.040 A 
ATOM     15  C   UNL     1       8.880  10.834   5.035  1.00  0.00     0.034 A 
ATOM     16  C   UNL     1       7.391  12.466   6.010  1.00  0.00     0.034 A 
ATOM     17  C   UNL     1       9.960  11.511   5.566  1.00  0.00     0.043 A 
ATOM     18  C   UNL     1       8.479  13.134   6.535  1.00  0.00     0.043 A 
ATOM     19  C   UNL     1       9.760  12.658   6.315  1.00  0.00     0.041 A 
ATOM     20  Cl  UNL     1      11.570  10.922   5.295  1.00  0.00    -0.084 Cl
ATOM     21  Cl  UNL     1       8.239  14.574   7.476  1.00  0.00    -0.084 Cl
ENDBRANCH   7  14
TORSDOF 3
ENDMDL
MODEL 9
REMARK VINA RESULT:    -2.392      5.474      6.729
REMARK INTER + INTRA:          -3.022
REMARK INTER:                  -2.738
REMARK INTRA:                  -0.285
REMARK UNBOUND:                -0.281
REMARK SMILES O=C(O)c1ccc2nc(-c3cc(Cl)cc(Cl)c3)oc2c1
REMARK SMILES IDX 5 1 6 2 20 3 8 4 18 5 4 6 9 7 7 8 19 9 2 10 1 11 3 12 10 14
REMARK SMILES IDX 11 15 17 16 12 17 15 18 14 19 13 20 16 21
REMARK H PARENT 3 13
ROOT
ATOM      1  C   UNL     1      11.111  12.362   6.336  1.00  0.00     0.018 A 
ATOM      2  C   UNL     1      10.545  11.321   5.663  1.00  0.00     0.033 A 
ATOM      3  C   UNL     1       8.929  13.371   6.657  1.00  0.00     0.065 A 
ATOM      4  N   UNL     1       8.331  10.407   4.859  1.00  0.00    -0.209 NA
ATOM      5  O   UNL     1       7.080  12.010   5.632  1.00  0.00    -0.436 OA
ATOM      6  C   UNL     1      10.313  13.397   6.843  1.00  0.00     0.063 A 
ATOM      7  C   UNL     1       7.101  10.844   4.960  1.00  0.00     0.227 A 
ATOM      8  C   UNL     1       9.159  11.282   5.469  1.00  0.00     0.110 A 
ATOM      9  C   UNL     1       8.352  12.319   5.970  1.00  0.00     0.156 A 
ENDROOT
BRANCH   6  10
ATOM     10  C   UNL     1      10.935  14.515   7.575  1.00  0.00     0.335 C 
ATOM     11  O   UNL     1      11.570  14.299   8.588  1.00  0.00    -0.246 OA
BRANCH  10  12
ATOM     12  O   UNL     1      10.800  15.777   7.121  1.00  0.00    -0.478 OA
ATOM     13  H   UNL     1      11.608  16.301   7.033  1.00  0.00     0.297 HD
ENDBRANCH  10  12
ENDBRANCH   6  10
BRANCH   7  14
ATOM     14  C   UNL     1       5.911  10.158   4.415  1.00  0.00     0.040 A 
ATOM     15  C   UNL     1       5.940   9.621   3.127  1.00  0.00     0.034 A 
ATOM     16  C   UNL     1       4.752  10.046   5.187  1.00  0.00     0.034 A 
ATOM     17  C   UNL     1       4.825   8.980   2.624  1.00  0.00     0.043 A 
ATOM     18  C   UNL     1       3.644   9.403   4.672  1.00  0.00     0.043 A 
ATOM     19  C   UNL     1       3.679   8.872   3.394  1.00  0.00     0.041 A 
ATOM     20  Cl  UNL     1       4.858   8.311   1.023  1.00  0.00    -0.084 Cl
ATOM     21  Cl  UNL     1       2.203   9.262   5.630  1.00  0.00    -0.084 Cl
ENDBRANCH   7  14
TORSDOF 3
ENDMDL
