MODEL 1
REMARK VINA RESULT:    -3.913      0.000      0.000
REMARK INTER + INTRA:          -6.606
REMARK INTER:                  -5.400
REMARK INTRA:                  -1.206
REMARK UNBOUND:                -1.206
REMARK SMILES Cc1n[nH]c(C)c1CCCOc1cc(C(=O)O)ccc1F
REMARK SMILES IDX 11 1 12 2 14 3 18 4 13 5 19 6 20 7 21 8 15 9 16 10 17 11
REMARK SMILES IDX 10 13 9 14 8 15 7 16 5 17 2 18 4 19 3 20 6 21 1 22
REMARK H PARENT 17 12 4 23
ROOT
ATOM      1  O   UNL     1       5.576   7.114   1.071  1.00  0.00    -0.490 OA
ENDROOT
BRANCH   1   2
ATOM      2  C   UNL     1       4.441   6.535   1.549  1.00  0.00     0.155 A 
ATOM      3  C   UNL     1       3.197   5.566   3.363  1.00  0.00     0.063 A 
ATOM      4  C   UNL     1       2.111   5.365   2.507  1.00  0.00     0.019 A 
ATOM      5  C   UNL     1       4.365   6.154   2.875  1.00  0.00     0.065 A 
ATOM      6  C   UNL     1       2.194   5.754   1.186  1.00  0.00     0.044 A 
ATOM      7  C   UNL     1       3.352   6.342   0.706  1.00  0.00     0.165 A 
ATOM      8  F   UNL     1       3.427   6.721  -0.589  1.00  0.00    -0.203 F 
BRANCH   3   9
ATOM      9  C   UNL     1       3.111   5.151   4.777  1.00  0.00     0.335 C 
ATOM     10  O   UNL     1       4.117   5.085   5.453  1.00  0.00    -0.246 OA
BRANCH   9  11
ATOM     11  O   UNL     1       1.914   4.852   5.320  1.00  0.00    -0.478 OA
ATOM     12  H   UNL     1       1.585   3.952   5.190  1.00  0.00     0.297 HD
ENDBRANCH   9  11
ENDBRANCH   3   9
ENDBRANCH   1   2
BRANCH   1  13
ATOM     13  C   UNL     1       5.457   8.439   0.547  1.00  0.00     0.230 C 
BRANCH  13  14
ATOM     14  C   UNL     1       6.127   9.426   1.504  1.00  0.00     0.046 C 
BRANCH  14  15
ATOM     15  C   UNL     1       5.123  10.508   1.907  1.00  0.00     0.043 C 
BRANCH  15  16
ATOM     16  C   UNL     1       4.578  10.202   3.278  1.00  0.00    -0.004 A 
ATOM     17  C   UNL     1       5.219  10.401   4.453  1.00  0.00     0.036 A 
ATOM     18  C   UNL     1       3.316   9.667   3.562  1.00  0.00     0.063 A 
ATOM     19  N   UNL     1       4.396  10.001   5.445  1.00  0.00    -0.282 N 
ATOM     20  N   UNL     1       3.209   9.540   4.860  1.00  0.00    -0.181 NA
ATOM     21  C   UNL     1       6.604  10.968   4.623  1.00  0.00     0.066 C 
ATOM     22  C   UNL     1       2.267   9.291   2.547  1.00  0.00     0.069 C 
ATOM     23  H   UNL     1       4.591  10.027   6.394  1.00  0.00     0.190 HD
ENDBRANCH  15  16
ENDBRANCH  14  15
ENDBRANCH  13  14
ENDBRANCH   1  13
TORSDOF 7
ENDMDL
MODEL 2
REMARK VINA RESULT:    -3.911      0.035      1.769
REMARK INTER + INTRA:          -6.603
REMARK INTER:                  -5.373
REMARK INTRA:                  -1.229
REMARK UNBOUND:                -1.206
REMARK SMILES Cc1n[nH]c(C)c1CCCOc1cc(C(=O)O)ccc1F
REMARK SMILES IDX 11 1 12 2 14 3 18 4 13 5 19 6 20 7 21 8 15 9 16 10 17 11
REMARK SMILES IDX 10 13 9 14 8 15 7 16 5 17 2 18 4 19 3 20 6 21 1 22
REMARK H PARENT 17 12 4 23
ROOT
ATOM      1  O   UNL     1       5.573   7.113   1.062  1.00  0.00    -0.490 OA
ENDROOT
BRANCH   1   2
ATOM      2  C   UNL     1       4.438   6.541   1.545  1.00  0.00     0.155 A 
ATOM      3  C   UNL     1       3.197   5.577   3.365  1.00  0.00     0.063 A 
ATOM      4  C   UNL     1       2.106   5.384   2.514  1.00  0.00     0.019 A 
ATOM      5  C   UNL     1       4.366   6.159   2.872  1.00  0.00     0.065 A 
ATOM      6  C   UNL     1       2.184   5.773   1.193  1.00  0.00     0.044 A 
ATOM      7  C   UNL     1       3.343   6.355   0.707  1.00  0.00     0.165 A 
ATOM      8  F   UNL     1       3.414   6.735  -0.587  1.00  0.00    -0.203 F 
BRANCH   3   9
ATOM      9  C   UNL     1       3.116   5.162   4.779  1.00  0.00     0.335 C 
ATOM     10  O   UNL     1       4.125   5.092   5.451  1.00  0.00    -0.246 OA
BRANCH   9  11
ATOM     11  O   UNL     1       1.921   4.865   5.326  1.00  0.00    -0.478 OA
ATOM     12  H   UNL     1       1.224   5.531   5.246  1.00  0.00     0.297 HD
ENDBRANCH   9  11
ENDBRANCH   3   9
ENDBRANCH   1   2
BRANCH   1  13
ATOM     13  C   UNL     1       5.461   8.443   0.548  1.00  0.00     0.230 C 
BRANCH  13  14
ATOM     14  C   UNL     1       6.129   9.421   1.516  1.00  0.00     0.046 C 
BRANCH  14  15
ATOM     15  C   UNL     1       5.129  10.509   1.912  1.00  0.00     0.043 C 
BRANCH  15  16
ATOM     16  C   UNL     1       4.581  10.213   3.284  1.00  0.00    -0.004 A 
ATOM     17  C   UNL     1       3.358   9.703   3.560  1.00  0.00     0.036 A 
ATOM     18  C   UNL     1       5.248  10.411   4.497  1.00  0.00     0.063 A 
ATOM     19  N   UNL     1       3.253   9.589   4.900  1.00  0.00    -0.282 N 
ATOM     20  N   UNL     1       4.450  10.044   5.467  1.00  0.00    -0.181 NA
ATOM     21  C   UNL     1       2.304   9.330   2.551  1.00  0.00     0.066 C 
ATOM     22  C   UNL     1       6.641  10.965   4.660  1.00  0.00     0.069 C 
ATOM     23  H   UNL     1       2.484   9.252   5.385  1.00  0.00     0.190 HD
ENDBRANCH  15  16
ENDBRANCH  14  15
ENDBRANCH  13  14
ENDBRANCH   1  13
TORSDOF 7
ENDMDL
MODEL 3
REMARK VINA RESULT:    -3.889      2.645      4.120
REMARK INTER + INTRA:          -6.573
REMARK INTER:                  -5.332
REMARK INTRA:                  -1.241
REMARK UNBOUND:                -1.206
REMARK SMILES Cc1n[nH]c(C)c1CCCOc1cc(C(=O)O)ccc1F
REMARK SMILES IDX 11 1 12 2 14 3 18 4 13 5 19 6 20 7 21 8 15 9 16 10 17 11
REMARK SMILES IDX 10 13 9 14 8 15 7 16 5 17 2 18 4 19 3 20 6 21 1 22
REMARK H PARENT 17 12 4 23
ROOT
ATOM      1  O   UNL     1       1.713   8.202   4.434  1.00  0.00    -0.490 OA
ENDROOT
BRANCH   1   2
ATOM      2  C   UNL     1       2.078   7.206   3.583  1.00  0.00     0.155 A 
ATOM      3  C   UNL     1       2.450   6.402   1.348  1.00  0.00     0.063 A 
ATOM      4  C   UNL     1       2.837   5.162   1.863  1.00  0.00     0.019 A 
ATOM      5  C   UNL     1       2.070   7.425   2.219  1.00  0.00     0.065 A 
ATOM      6  C   UNL     1       2.848   4.954   3.226  1.00  0.00     0.044 A 
ATOM      7  C   UNL     1       2.475   5.972   4.088  1.00  0.00     0.165 A 
ATOM      8  F   UNL     1       2.488   5.763   5.422  1.00  0.00    -0.203 F 
BRANCH   3   9
ATOM      9  C   UNL     1       2.438   6.628  -0.111  1.00  0.00     0.335 C 
ATOM     10  O   UNL     1       1.833   7.573  -0.574  1.00  0.00    -0.246 OA
BRANCH   9  11
ATOM     11  O   UNL     1       3.104   5.788  -0.927  1.00  0.00    -0.478 OA
ATOM     12  H   UNL     1       2.921   5.859  -1.875  1.00  0.00     0.297 HD
ENDBRANCH   9  11
ENDBRANCH   3   9
ENDBRANCH   1   2
BRANCH   1  13
ATOM     13  C   UNL     1       2.711   8.679   5.340  1.00  0.00     0.230 C 
BRANCH  13  14
ATOM     14  C   UNL     1       3.164  10.075   4.908  1.00  0.00     0.046 C 
BRANCH  14  15
ATOM     15  C   UNL     1       4.687  10.092   4.758  1.00  0.00     0.043 C 
BRANCH  15  16
ATOM     16  C   UNL     1       5.050  10.006   3.298  1.00  0.00    -0.004 A 
ATOM     17  C   UNL     1       5.005  11.022   2.405  1.00  0.00     0.036 A 
ATOM     18  C   UNL     1       5.498   8.864   2.627  1.00  0.00     0.063 A 
ATOM     19  N   UNL     1       5.405  10.538   1.210  1.00  0.00    -0.282 N 
ATOM     20  N   UNL     1       5.705   9.179   1.375  1.00  0.00    -0.181 NA
ATOM     21  C   UNL     1       4.585  12.440   2.693  1.00  0.00     0.066 C 
ATOM     22  C   UNL     1       5.698   7.501   3.239  1.00  0.00     0.069 C 
ATOM     23  H   UNL     1       5.472  11.041   0.384  1.00  0.00     0.190 HD
ENDBRANCH  15  16
ENDBRANCH  14  15
ENDBRANCH  13  14
ENDBRANCH   1  13
TORSDOF 7
ENDMDL
MODEL 4
REMARK VINA RESULT:    -3.880      2.647      4.154
REMARK INTER + INTRA:          -6.560
REMARK INTER:                  -5.319
REMARK INTRA:                  -1.241
REMARK UNBOUND:                -1.206
REMARK SMILES Cc1n[nH]c(C)c1CCCOc1cc(C(=O)O)ccc1F
REMARK SMILES IDX 11 1 12 2 14 3 18 4 13 5 19 6 20 7 21 8 15 9 16 10 17 11
REMARK SMILES IDX 10 13 9 14 8 15 7 16 5 17 2 18 4 19 3 20 6 21 1 22
REMARK H PARENT 17 12 4 23
ROOT
ATOM      1  O   UNL     1       1.697   8.200   4.426  1.00  0.00    -0.490 OA
ENDROOT
BRANCH   1   2
ATOM      2  C   UNL     1       2.069   7.206   3.576  1.00  0.00     0.155 A 
ATOM      3  C   UNL     1       2.451   6.403   1.342  1.00  0.00     0.063 A 
ATOM      4  C   UNL     1       2.844   5.165   1.858  1.00  0.00     0.019 A 
ATOM      5  C   UNL     1       2.062   7.425   2.211  1.00  0.00     0.065 A 
ATOM      6  C   UNL     1       2.853   4.959   3.222  1.00  0.00     0.044 A 
ATOM      7  C   UNL     1       2.472   5.975   4.082  1.00  0.00     0.165 A 
ATOM      8  F   UNL     1       2.483   5.766   5.417  1.00  0.00    -0.203 F 
BRANCH   3   9
ATOM      9  C   UNL     1       2.440   6.628  -0.117  1.00  0.00     0.335 C 
ATOM     10  O   UNL     1       1.839   7.574  -0.581  1.00  0.00    -0.246 OA
BRANCH   9  11
ATOM     11  O   UNL     1       3.104   5.785  -0.932  1.00  0.00    -0.478 OA
ATOM     12  H   UNL     1       2.577   5.122  -1.402  1.00  0.00     0.297 HD
ENDBRANCH   9  11
ENDBRANCH   3   9
ENDBRANCH   1   2
BRANCH   1  13
ATOM     13  C   UNL     1       2.685   8.671   5.346  1.00  0.00     0.230 C 
BRANCH  13  14
ATOM     14  C   UNL     1       3.153  10.064   4.921  1.00  0.00     0.046 C 
BRANCH  14  15
ATOM     15  C   UNL     1       4.677  10.070   4.783  1.00  0.00     0.043 C 
BRANCH  15  16
ATOM     16  C   UNL     1       5.050   9.993   3.326  1.00  0.00    -0.004 A 
ATOM     17  C   UNL     1       5.491   8.891   2.674  1.00  0.00     0.036 A 
ATOM     18  C   UNL     1       4.997  11.045   2.405  1.00  0.00     0.063 A 
ATOM     19  N   UNL     1       5.715   9.236   1.388  1.00  0.00    -0.282 N 
ATOM     20  N   UNL     1       5.402  10.595   1.246  1.00  0.00    -0.181 NA
ATOM     21  C   UNL     1       5.694   7.525   3.275  1.00  0.00     0.066 C 
ATOM     22  C   UNL     1       4.562  12.457   2.702  1.00  0.00     0.069 C 
ATOM     23  H   UNL     1       6.036   8.648   0.687  1.00  0.00     0.190 HD
ENDBRANCH  15  16
ENDBRANCH  14  15
ENDBRANCH  13  14
ENDBRANCH   1  13
TORSDOF 7
ENDMDL
MODEL 5
REMARK VINA RESULT:    -3.476      4.929      6.342
REMARK INTER + INTRA:          -6.002
REMARK INTER:                  -5.349
REMARK INTRA:                  -0.653
REMARK UNBOUND:                -1.206
REMARK SMILES Cc1n[nH]c(C)c1CCCOc1cc(C(=O)O)ccc1F
REMARK SMILES IDX 11 1 12 2 14 3 18 4 13 5 19 6 20 7 21 8 15 9 16 10 17 11
REMARK SMILES IDX 10 13 9 14 8 15 7 16 5 17 2 18 4 19 3 20 6 21 1 22
REMARK H PARENT 17 12 4 23
ROOT
ATOM      1  O   UNL     1       4.862  12.365   3.141  1.00  0.00    -0.490 OA
ENDROOT
BRANCH   1   2
ATOM      2  C   UNL     1       4.762  11.016   3.011  1.00  0.00     0.155 A 
ATOM      3  C   UNL     1       5.237   8.995   1.797  1.00  0.00     0.063 A 
ATOM      4  C   UNL     1       4.555   8.256   2.768  1.00  0.00     0.019 A 
ATOM      5  C   UNL     1       5.337  10.382   1.925  1.00  0.00     0.065 A 
ATOM      6  C   UNL     1       3.990   8.897   3.850  1.00  0.00     0.044 A 
ATOM      7  C   UNL     1       4.095  10.272   3.978  1.00  0.00     0.165 A 
ATOM      8  F   UNL     1       3.539  10.894   5.041  1.00  0.00    -0.203 F 
BRANCH   3   9
ATOM      9  C   UNL     1       5.843   8.312   0.637  1.00  0.00     0.335 C 
ATOM     10  O   UNL     1       5.909   7.100   0.612  1.00  0.00    -0.246 OA
BRANCH   9  11
ATOM     11  O   UNL     1       6.318   9.035  -0.396  1.00  0.00    -0.478 OA
ATOM     12  H   UNL     1       5.711   9.668  -0.805  1.00  0.00     0.297 HD
ENDBRANCH   9  11
ENDBRANCH   3   9
ENDBRANCH   1   2
BRANCH   1  13
ATOM     13  C   UNL     1       4.227  13.163   2.139  1.00  0.00     0.230 C 
BRANCH  13  14
ATOM     14  C   UNL     1       3.087  13.963   2.771  1.00  0.00     0.046 C 
BRANCH  14  15
ATOM     15  C   UNL     1       2.871  15.256   1.982  1.00  0.00     0.043 C 
BRANCH  15  16
ATOM     16  C   UNL     1       3.357  16.428   2.794  1.00  0.00    -0.004 A 
ATOM     17  C   UNL     1       2.638  17.110   3.716  1.00  0.00     0.036 A 
ATOM     18  C   UNL     1       4.632  17.000   2.733  1.00  0.00     0.063 A 
ATOM     19  N   UNL     1       3.428  18.083   4.216  1.00  0.00    -0.282 N 
ATOM     20  N   UNL     1       4.674  17.997   3.580  1.00  0.00    -0.181 NA
ATOM     21  C   UNL     1       1.212  16.833   4.113  1.00  0.00     0.066 C 
ATOM     22  C   UNL     1       5.759  16.553   1.838  1.00  0.00     0.069 C 
ATOM     23  H   UNL     1       3.178  18.729   4.894  1.00  0.00     0.190 HD
ENDBRANCH  15  16
ENDBRANCH  14  15
ENDBRANCH  13  14
ENDBRANCH   1  13
TORSDOF 7
ENDMDL
MODEL 6
REMARK VINA RESULT:    -3.411      5.339      7.980
REMARK INTER + INTRA:          -5.913
REMARK INTER:                  -5.325
REMARK INTRA:                  -0.588
REMARK UNBOUND:                -1.206
REMARK SMILES Cc1n[nH]c(C)c1CCCOc1cc(C(=O)O)ccc1F
REMARK SMILES IDX 11 1 12 2 14 3 18 4 13 5 19 6 20 7 21 8 15 9 16 10 17 11
REMARK SMILES IDX 10 13 9 14 8 15 7 16 5 17 2 18 4 19 3 20 6 21 1 22
REMARK H PARENT 17 12 4 23
ROOT
ATOM      1  O   UNL     1       4.637  12.874   1.842  1.00  0.00    -0.490 OA
ENDROOT
BRANCH   1   2
ATOM      2  C   UNL     1       4.330  14.175   2.093  1.00  0.00     0.155 A 
ATOM      3  C   UNL     1       5.016  16.457   2.414  1.00  0.00     0.063 A 
ATOM      4  C   UNL     1       3.681  16.829   2.596  1.00  0.00     0.019 A 
ATOM      5  C   UNL     1       5.335  15.122   2.161  1.00  0.00     0.065 A 
ATOM      6  C   UNL     1       2.684  15.878   2.520  1.00  0.00     0.044 A 
ATOM      7  C   UNL     1       3.003  14.555   2.265  1.00  0.00     0.165 A 
ATOM      8  F   UNL     1       2.022  13.629   2.192  1.00  0.00    -0.203 F 
BRANCH   3   9
ATOM      9  C   UNL     1       6.084  17.472   2.494  1.00  0.00     0.335 C 
ATOM     10  O   UNL     1       5.864  18.615   2.150  1.00  0.00    -0.246 OA
BRANCH   9  11
ATOM     11  O   UNL     1       7.304  17.131   2.955  1.00  0.00    -0.478 OA
ATOM     12  H   UNL     1       7.618  16.239   2.748  1.00  0.00     0.297 HD
ENDBRANCH   9  11
ENDBRANCH   3   9
ENDBRANCH   1   2
BRANCH   1  13
ATOM     13  C   UNL     1       4.890  12.038   2.974  1.00  0.00     0.230 C 
BRANCH  13  14
ATOM     14  C   UNL     1       3.983  10.808   2.911  1.00  0.00     0.046 C 
BRANCH  14  15
ATOM     15  C   UNL     1       4.768   9.572   3.353  1.00  0.00     0.043 C 
BRANCH  15  16
ATOM     16  C   UNL     1       4.048   8.329   2.899  1.00  0.00    -0.004 A 
ATOM     17  C   UNL     1       4.337   7.599   1.796  1.00  0.00     0.036 A 
ATOM     18  C   UNL     1       2.967   7.721   3.546  1.00  0.00     0.063 A 
ATOM     19  N   UNL     1       3.465   6.571   1.743  1.00  0.00    -0.282 N 
ATOM     20  N   UNL     1       2.612   6.671   2.850  1.00  0.00    -0.181 NA
ATOM     21  C   UNL     1       5.435   7.885   0.805  1.00  0.00     0.066 C 
ATOM     22  C   UNL     1       2.315   8.200   4.817  1.00  0.00     0.069 C 
ATOM     23  H   UNL     1       3.434   5.884   1.060  1.00  0.00     0.190 HD
ENDBRANCH  15  16
ENDBRANCH  14  15
ENDBRANCH  13  14
ENDBRANCH   1  13
TORSDOF 7
ENDMDL
MODEL 7
REMARK VINA RESULT:    -3.406      4.916      7.786
REMARK INTER + INTRA:          -5.905
REMARK INTER:                  -5.342
REMARK INTRA:                  -0.563
REMARK UNBOUND:                -1.206
REMARK SMILES Cc1n[nH]c(C)c1CCCOc1cc(C(=O)O)ccc1F
REMARK SMILES IDX 11 1 12 2 14 3 18 4 13 5 19 6 20 7 21 8 15 9 16 10 17 11
REMARK SMILES IDX 10 13 9 14 8 15 7 16 5 17 2 18 4 19 3 20 6 21 1 22
REMARK H PARENT 17 12 4 23
ROOT
ATOM      1  O   UNL     1       6.780  11.032   5.689  1.00  0.00    -0.490 OA
ENDROOT
BRANCH   1   2
ATOM      2  C   UNL     1       7.998  11.605   5.878  1.00  0.00     0.155 A 
ATOM      3  C   UNL     1       9.340  13.481   6.556  1.00  0.00     0.063 A 
ATOM      4  C   UNL     1      10.498  12.753   6.266  1.00  0.00     0.019 A 
ATOM      5  C   UNL     1       8.087  12.898   6.358  1.00  0.00     0.065 A 
ATOM      6  C   UNL     1      10.399  11.462   5.793  1.00  0.00     0.044 A 
ATOM      7  C   UNL     1       9.155  10.884   5.602  1.00  0.00     0.165 A 
ATOM      8  F   UNL     1       9.065   9.618   5.138  1.00  0.00    -0.203 F 
BRANCH   3   9
ATOM      9  C   UNL     1       9.442  14.863   7.063  1.00  0.00     0.335 C 
ATOM     10  O   UNL     1      10.411  15.203   7.711  1.00  0.00    -0.246 OA
BRANCH   9  11
ATOM     11  O   UNL     1       8.463  15.751   6.801  1.00  0.00    -0.478 OA
ATOM     12  H   UNL     1       8.181  15.834   5.879  1.00  0.00     0.297 HD
ENDBRANCH   9  11
ENDBRANCH   3   9
ENDBRANCH   1   2
BRANCH   1  13
ATOM     13  C   UNL     1       6.252  11.053   4.360  1.00  0.00     0.230 C 
BRANCH  13  14
ATOM     14  C   UNL     1       5.756   9.655   3.987  1.00  0.00     0.046 C 
BRANCH  14  15
ATOM     15  C   UNL     1       4.505   9.773   3.115  1.00  0.00     0.043 C 
BRANCH  15  16
ATOM     16  C   UNL     1       3.927   8.403   2.874  1.00  0.00    -0.004 A 
ATOM     17  C   UNL     1       2.962   7.805   3.610  1.00  0.00     0.036 A 
ATOM     18  C   UNL     1       4.289   7.526   1.846  1.00  0.00     0.063 A 
ATOM     19  N   UNL     1       2.727   6.590   3.072  1.00  0.00    -0.282 N 
ATOM     20  N   UNL     1       3.576   6.436   1.968  1.00  0.00    -0.181 NA
ATOM     21  C   UNL     1       2.274   8.390   4.815  1.00  0.00     0.066 C 
ATOM     22  C   UNL     1       5.332   7.786   0.788  1.00  0.00     0.069 C 
ATOM     23  H   UNL     1       2.085   5.938   3.392  1.00  0.00     0.190 HD
ENDBRANCH  15  16
ENDBRANCH  14  15
ENDBRANCH  13  14
ENDBRANCH   1  13
TORSDOF 7
ENDMDL
MODEL 8
REMARK VINA RESULT:    -3.321      2.738      5.430
REMARK INTER + INTRA:          -5.788
REMARK INTER:                  -4.139
REMARK INTRA:                  -1.649
REMARK UNBOUND:                -1.206
REMARK SMILES Cc1n[nH]c(C)c1CCCOc1cc(C(=O)O)ccc1F
REMARK SMILES IDX 11 1 12 2 14 3 18 4 13 5 19 6 20 7 21 8 15 9 16 10 17 11
REMARK SMILES IDX 10 13 9 14 8 15 7 16 5 17 2 18 4 19 3 20 6 21 1 22
REMARK H PARENT 17 12 4 23
ROOT
ATOM      1  O   UNL     1       5.624   8.397   1.381  1.00  0.00    -0.490 OA
ENDROOT
BRANCH   1   2
ATOM      2  C   UNL     1       5.277   9.384   2.250  1.00  0.00     0.155 A 
ATOM      3  C   UNL     1       4.515  11.627   2.665  1.00  0.00     0.063 A 
ATOM      4  C   UNL     1       4.562  11.385   4.040  1.00  0.00     0.019 A 
ATOM      5  C   UNL     1       4.876  10.617   1.770  1.00  0.00     0.065 A 
ATOM      6  C   UNL     1       4.958  10.150   4.509  1.00  0.00     0.044 A 
ATOM      7  C   UNL     1       5.311   9.148   3.620  1.00  0.00     0.165 A 
ATOM      8  F   UNL     1       5.697   7.940   4.085  1.00  0.00    -0.203 F 
BRANCH   3   9
ATOM      9  C   UNL     1       4.092  12.948   2.159  1.00  0.00     0.335 C 
ATOM     10  O   UNL     1       3.031  13.065   1.581  1.00  0.00    -0.246 OA
BRANCH   9  11
ATOM     11  O   UNL     1       4.880  14.024   2.346  1.00  0.00    -0.478 OA
ATOM     12  H   UNL     1       4.687  14.584   3.111  1.00  0.00     0.297 HD
ENDBRANCH   9  11
ENDBRANCH   3   9
ENDBRANCH   1   2
BRANCH   1  13
ATOM     13  C   UNL     1       4.567   7.580   0.873  1.00  0.00     0.230 C 
BRANCH  13  14
ATOM     14  C   UNL     1       4.423   6.332   1.746  1.00  0.00     0.046 C 
BRANCH  14  15
ATOM     15  C   UNL     1       2.940   6.063   2.011  1.00  0.00     0.043 C 
BRANCH  15  16
ATOM     16  C   UNL     1       2.523   6.757   3.282  1.00  0.00    -0.004 A 
ATOM     17  C   UNL     1       1.890   7.950   3.366  1.00  0.00     0.036 A 
ATOM     18  C   UNL     1       2.715   6.279   4.582  1.00  0.00     0.063 A 
ATOM     19  N   UNL     1       1.694   8.220   4.674  1.00  0.00    -0.282 N 
ATOM     20  N   UNL     1       2.225   7.158   5.418  1.00  0.00    -0.181 NA
ATOM     21  C   UNL     1       1.477   8.820   2.208  1.00  0.00     0.066 C 
ATOM     22  C   UNL     1       3.382   4.980   4.957  1.00  0.00     0.069 C 
ATOM     23  H   UNL     1       1.264   9.010   5.036  1.00  0.00     0.190 HD
ENDBRANCH  15  16
ENDBRANCH  14  15
ENDBRANCH  13  14
ENDBRANCH   1  13
TORSDOF 7
ENDMDL
MODEL 9
REMARK VINA RESULT:    -3.275      4.760      5.509
REMARK INTER + INTRA:          -5.725
REMARK INTER:                  -5.731
REMARK INTRA:                   0.006
REMARK UNBOUND:                -1.206
REMARK SMILES Cc1n[nH]c(C)c1CCCOc1cc(C(=O)O)ccc1F
REMARK SMILES IDX 11 1 12 2 14 3 18 4 13 5 19 6 20 7 21 8 15 9 16 10 17 11
REMARK SMILES IDX 10 13 9 14 8 15 7 16 5 17 2 18 4 19 3 20 6 21 1 22
REMARK H PARENT 17 12 4 23
ROOT
ATOM      1  O   UNL     1       4.978  11.601   2.900  1.00  0.00    -0.490 OA
ENDROOT
BRANCH   1   2
ATOM      2  C   UNL     1       4.693  10.272   2.856  1.00  0.00     0.155 A 
ATOM      3  C   UNL     1       3.498   8.364   3.699  1.00  0.00     0.063 A 
ATOM      4  C   UNL     1       4.118   7.557   2.742  1.00  0.00     0.019 A 
ATOM      5  C   UNL     1       3.791   9.728   3.751  1.00  0.00     0.065 A 
ATOM      6  C   UNL     1       5.012   8.110   1.849  1.00  0.00     0.044 A 
ATOM      7  C   UNL     1       5.298   9.464   1.900  1.00  0.00     0.165 A 
ATOM      8  F   UNL     1       6.175   9.999   1.022  1.00  0.00    -0.203 F 
BRANCH   3   9
ATOM      9  C   UNL     1       2.540   7.775   4.655  1.00  0.00     0.335 C 
ATOM     10  O   UNL     1       2.579   6.587   4.902  1.00  0.00    -0.246 OA
BRANCH   9  11
ATOM     11  O   UNL     1       1.625   8.558   5.260  1.00  0.00    -0.478 OA
ATOM     12  H   UNL     1       1.875   8.951   6.108  1.00  0.00     0.297 HD
ENDBRANCH   9  11
ENDBRANCH   3   9
ENDBRANCH   1   2
BRANCH   1  13
ATOM     13  C   UNL     1       4.079  12.480   2.219  1.00  0.00     0.230 C 
BRANCH  13  14
ATOM     14  C   UNL     1       4.446  13.930   2.538  1.00  0.00     0.046 C 
BRANCH  14  15
ATOM     15  C   UNL     1       3.279  14.846   2.160  1.00  0.00     0.043 C 
BRANCH  15  16
ATOM     16  C   UNL     1       3.570  16.249   2.625  1.00  0.00    -0.004 A 
ATOM     17  C   UNL     1       2.758  17.021   3.384  1.00  0.00     0.036 A 
ATOM     18  C   UNL     1       4.730  16.982   2.355  1.00  0.00     0.063 A 
ATOM     19  N   UNL     1       3.379  18.203   3.581  1.00  0.00    -0.282 N 
ATOM     20  N   UNL     1       4.614  18.155   2.921  1.00  0.00    -0.181 NA
ATOM     21  C   UNL     1       1.403  16.630   3.914  1.00  0.00     0.066 C 
ATOM     22  C   UNL     1       5.907  16.507   1.540  1.00  0.00     0.069 C 
ATOM     23  H   UNL     1       3.032  18.952   4.089  1.00  0.00     0.190 HD
ENDBRANCH  15  16
ENDBRANCH  14  15
ENDBRANCH  13  14
ENDBRANCH   1  13
TORSDOF 7
ENDMDL
