MODEL 1
REMARK VINA RESULT:    -5.087      0.000      0.000
REMARK INTER + INTRA:          -6.926
REMARK INTER:                  -7.020
REMARK INTRA:                   0.093
REMARK UNBOUND:                 0.093
REMARK SMILES Cc1n[nH]c(C)c1CCCOc1cc(C(=O)O)ccc1F
REMARK SMILES IDX 11 1 12 2 14 3 18 4 13 5 19 6 20 7 21 8 15 9 16 10 17 11
REMARK SMILES IDX 10 13 9 14 8 15 7 16 5 17 2 18 4 19 3 20 6 21 1 22
REMARK H PARENT 17 12 4 23
ROOT
ATOM      1  O   UNL     1       2.027   1.572   7.444  1.00  0.00    -0.490 OA
ENDROOT
BRANCH   1   2
ATOM      2  C   UNL     1       1.564   0.792   6.431  1.00  0.00     0.155 A 
ATOM      3  C   UNL     1       1.973  -0.675   4.570  1.00  0.00     0.063 A 
ATOM      4  C   UNL     1       0.596  -0.805   4.374  1.00  0.00     0.019 A 
ATOM      5  C   UNL     1       2.453   0.129   5.606  1.00  0.00     0.065 A 
ATOM      6  C   UNL     1      -0.284  -0.145   5.206  1.00  0.00     0.044 A 
ATOM      7  C   UNL     1       0.194   0.648   6.236  1.00  0.00     0.165 A 
ATOM      8  F   UNL     1      -0.673   1.292   7.047  1.00  0.00    -0.203 F 
BRANCH   3   9
ATOM      9  C   UNL     1       2.918  -1.381   3.682  1.00  0.00     0.335 C 
ATOM     10  O   UNL     1       3.034  -1.037   2.523  1.00  0.00    -0.246 OA
BRANCH   9  11
ATOM     11  O   UNL     1       3.656  -2.402   4.159  1.00  0.00    -0.478 OA
ATOM     12  H   UNL     1       3.686  -2.510   5.120  1.00  0.00     0.297 HD
ENDBRANCH   9  11
ENDBRANCH   3   9
ENDBRANCH   1   2
BRANCH   1  13
ATOM     13  C   UNL     1       2.189   0.949   8.720  1.00  0.00     0.230 C 
BRANCH  13  14
ATOM     14  C   UNL     1       3.343  -0.053   8.655  1.00  0.00     0.046 C 
BRANCH  14  15
ATOM     15  C   UNL     1       2.939  -1.345   9.370  1.00  0.00     0.043 C 
BRANCH  15  16
ATOM     16  C   UNL     1       3.530  -1.359  10.755  1.00  0.00    -0.004 A 
ATOM     17  C   UNL     1       2.846  -1.520  11.912  1.00  0.00     0.036 A 
ATOM     18  C   UNL     1       4.885  -1.215  11.074  1.00  0.00     0.063 A 
ATOM     19  N   UNL     1       3.735  -1.473  12.926  1.00  0.00    -0.282 N 
ATOM     20  N   UNL     1       5.008  -1.276  12.375  1.00  0.00    -0.181 NA
ATOM     21  C   UNL     1       1.358  -1.717  12.043  1.00  0.00     0.066 C 
ATOM     22  C   UNL     1       6.008  -1.012  10.089  1.00  0.00     0.069 C 
ATOM     23  H   UNL     1       3.529  -1.559  13.870  1.00  0.00     0.190 HD
ENDBRANCH  15  16
ENDBRANCH  14  15
ENDBRANCH  13  14
ENDBRANCH   1  13
TORSDOF 7
ENDMDL
MODEL 2
REMARK VINA RESULT:    -5.074      2.160      3.254
REMARK INTER + INTRA:          -6.909
REMARK INTER:                  -6.285
REMARK INTRA:                  -0.623
REMARK UNBOUND:                 0.093
REMARK SMILES Cc1n[nH]c(C)c1CCCOc1cc(C(=O)O)ccc1F
REMARK SMILES IDX 11 1 12 2 14 3 18 4 13 5 19 6 20 7 21 8 15 9 16 10 17 11
REMARK SMILES IDX 10 13 9 14 8 15 7 16 5 17 2 18 4 19 3 20 6 21 1 22
REMARK H PARENT 17 12 4 23
ROOT
ATOM      1  O   UNL     1       2.949  -2.834   6.224  1.00  0.00    -0.490 OA
ENDROOT
BRANCH   1   2
ATOM      2  C   UNL     1       2.248  -1.929   5.490  1.00  0.00     0.155 A 
ATOM      3  C   UNL     1       0.414  -0.388   5.275  1.00  0.00     0.063 A 
ATOM      4  C   UNL     1       0.834  -0.076   3.979  1.00  0.00     0.019 A 
ATOM      5  C   UNL     1       1.129  -1.321   6.029  1.00  0.00     0.065 A 
ATOM      6  C   UNL     1       1.954  -0.684   3.452  1.00  0.00     0.044 A 
ATOM      7  C   UNL     1       2.665  -1.604   4.204  1.00  0.00     0.165 A 
ATOM      8  F   UNL     1       3.762  -2.196   3.682  1.00  0.00    -0.203 F 
BRANCH   3   9
ATOM      9  C   UNL     1      -0.784   0.260   5.841  1.00  0.00     0.335 C 
ATOM     10  O   UNL     1      -1.842   0.208   5.248  1.00  0.00    -0.246 OA
BRANCH   9  11
ATOM     11  O   UNL     1      -0.705   0.906   7.022  1.00  0.00    -0.478 OA
ATOM     12  H   UNL     1      -0.150   1.697   7.054  1.00  0.00     0.297 HD
ENDBRANCH   9  11
ENDBRANCH   3   9
ENDBRANCH   1   2
BRANCH   1  13
ATOM     13  C   UNL     1       2.578  -2.984   7.596  1.00  0.00     0.230 C 
BRANCH  13  14
ATOM     14  C   UNL     1       3.754  -2.581   8.488  1.00  0.00     0.046 C 
BRANCH  14  15
ATOM     15  C   UNL     1       3.430  -1.262   9.194  1.00  0.00     0.043 C 
BRANCH  15  16
ATOM     16  C   UNL     1       3.980  -1.293  10.596  1.00  0.00    -0.004 A 
ATOM     17  C   UNL     1       3.261  -1.471  11.729  1.00  0.00     0.036 A 
ATOM     18  C   UNL     1       5.323  -1.150  10.957  1.00  0.00     0.063 A 
ATOM     19  N   UNL     1       4.119  -1.435  12.770  1.00  0.00    -0.282 N 
ATOM     20  N   UNL     1       5.407  -1.228  12.260  1.00  0.00    -0.181 NA
ATOM     21  C   UNL     1       1.771  -1.674  11.813  1.00  0.00     0.066 C 
ATOM     22  C   UNL     1       6.475  -0.932  10.009  1.00  0.00     0.069 C 
ATOM     23  H   UNL     1       3.885  -1.534  13.706  1.00  0.00     0.190 HD
ENDBRANCH  15  16
ENDBRANCH  14  15
ENDBRANCH  13  14
ENDBRANCH   1  13
TORSDOF 7
ENDMDL
MODEL 3
REMARK VINA RESULT:    -5.070      0.762      1.929
REMARK INTER + INTRA:          -6.903
REMARK INTER:                  -6.237
REMARK INTRA:                  -0.666
REMARK UNBOUND:                 0.093
REMARK SMILES Cc1n[nH]c(C)c1CCCOc1cc(C(=O)O)ccc1F
REMARK SMILES IDX 11 1 12 2 14 3 18 4 13 5 19 6 20 7 21 8 15 9 16 10 17 11
REMARK SMILES IDX 10 13 9 14 8 15 7 16 5 17 2 18 4 19 3 20 6 21 1 22
REMARK H PARENT 17 12 4 23
ROOT
ATOM      1  O   UNL     1       1.295   1.371   7.425  1.00  0.00    -0.490 OA
ENDROOT
BRANCH   1   2
ATOM      2  C   UNL     1       1.065   0.600   6.328  1.00  0.00     0.155 A 
ATOM      3  C   UNL     1       1.864  -0.895   4.623  1.00  0.00     0.063 A 
ATOM      4  C   UNL     1       0.573  -0.977   4.095  1.00  0.00     0.019 A 
ATOM      5  C   UNL     1       2.105  -0.100   5.745  1.00  0.00     0.065 A 
ATOM      6  C   UNL     1      -0.459  -0.279   4.686  1.00  0.00     0.044 A 
ATOM      7  C   UNL     1      -0.219   0.504   5.803  1.00  0.00     0.165 A 
ATOM      8  F   UNL     1      -1.234   1.185   6.378  1.00  0.00    -0.203 F 
BRANCH   3   9
ATOM      9  C   UNL     1       2.971  -1.641   3.992  1.00  0.00     0.335 C 
ATOM     10  O   UNL     1       4.107  -1.217   4.062  1.00  0.00    -0.246 OA
BRANCH   9  11
ATOM     11  O   UNL     1       2.722  -2.795   3.344  1.00  0.00    -0.478 OA
ATOM     12  H   UNL     1       2.658  -2.753   2.380  1.00  0.00     0.297 HD
ENDBRANCH   9  11
ENDBRANCH   3   9
ENDBRANCH   1   2
BRANCH   1  13
ATOM     13  C   UNL     1       2.607   1.318   7.991  1.00  0.00     0.230 C 
BRANCH  13  14
ATOM     14  C   UNL     1       2.530   0.725   9.399  1.00  0.00     0.046 C 
BRANCH  14  15
ATOM     15  C   UNL     1       2.989  -0.734   9.363  1.00  0.00     0.043 C 
BRANCH  15  16
ATOM     16  C   UNL     1       3.795  -1.038  10.599  1.00  0.00    -0.004 A 
ATOM     17  C   UNL     1       5.145  -1.016  10.695  1.00  0.00     0.036 A 
ATOM     18  C   UNL     1       3.281  -1.388  11.852  1.00  0.00     0.063 A 
ATOM     19  N   UNL     1       5.473  -1.346  11.962  1.00  0.00    -0.282 N 
ATOM     20  N   UNL     1       4.285  -1.579  12.668  1.00  0.00    -0.181 NA
ATOM     21  C   UNL     1       6.109  -0.682   9.587  1.00  0.00     0.066 C 
ATOM     22  C   UNL     1       1.821  -1.531  12.199  1.00  0.00     0.069 C 
ATOM     23  H   UNL     1       6.371  -1.411  12.321  1.00  0.00     0.190 HD
ENDBRANCH  15  16
ENDBRANCH  14  15
ENDBRANCH  13  14
ENDBRANCH   1  13
TORSDOF 7
ENDMDL
MODEL 4
REMARK VINA RESULT:    -5.059      2.219      3.745
REMARK INTER + INTRA:          -6.888
REMARK INTER:                  -7.104
REMARK INTRA:                   0.215
REMARK UNBOUND:                 0.093
REMARK SMILES Cc1n[nH]c(C)c1CCCOc1cc(C(=O)O)ccc1F
REMARK SMILES IDX 11 1 12 2 14 3 18 4 13 5 19 6 20 7 21 8 15 9 16 10 17 11
REMARK SMILES IDX 10 13 9 14 8 15 7 16 5 17 2 18 4 19 3 20 6 21 1 22
REMARK H PARENT 17 12 4 23
ROOT
ATOM      1  O   UNL     1       2.438  -3.094   6.768  1.00  0.00    -0.490 OA
ENDROOT
BRANCH   1   2
ATOM      2  C   UNL     1       1.938  -2.133   5.947  1.00  0.00     0.155 A 
ATOM      3  C   UNL     1       0.316  -0.418   5.486  1.00  0.00     0.063 A 
ATOM      4  C   UNL     1       0.936  -0.167   4.259  1.00  0.00     0.019 A 
ATOM      5  C   UNL     1       0.825  -1.408   6.330  1.00  0.00     0.065 A 
ATOM      6  C   UNL     1       2.049  -0.892   3.888  1.00  0.00     0.044 A 
ATOM      7  C   UNL     1       2.555  -1.869   4.729  1.00  0.00     0.165 A 
ATOM      8  F   UNL     1       3.646  -2.576   4.360  1.00  0.00    -0.203 F 
BRANCH   3   9
ATOM      9  C   UNL     1      -0.875   0.356   5.886  1.00  0.00     0.335 C 
ATOM     10  O   UNL     1      -1.908   0.249   5.258  1.00  0.00    -0.246 OA
BRANCH   9  11
ATOM     11  O   UNL     1      -0.817   1.177   6.953  1.00  0.00    -0.478 OA
ATOM     12  H   UNL     1      -1.531   1.823   7.050  1.00  0.00     0.297 HD
ENDBRANCH   9  11
ENDBRANCH   3   9
ENDBRANCH   1   2
BRANCH   1  13
ATOM     13  C   UNL     1       3.385  -2.676   7.754  1.00  0.00     0.230 C 
BRANCH  13  14
ATOM     14  C   UNL     1       2.711  -1.710   8.730  1.00  0.00     0.046 C 
BRANCH  14  15
ATOM     15  C   UNL     1       3.676  -0.572   9.069  1.00  0.00     0.043 C 
BRANCH  15  16
ATOM     16  C   UNL     1       4.434  -0.913  10.326  1.00  0.00    -0.004 A 
ATOM     17  C   UNL     1       5.780  -0.932  10.464  1.00  0.00     0.036 A 
ATOM     18  C   UNL     1       3.870  -1.260  11.559  1.00  0.00     0.063 A 
ATOM     19  N   UNL     1       6.058  -1.285  11.737  1.00  0.00    -0.282 N 
ATOM     20  N   UNL     1       4.843  -1.489  12.403  1.00  0.00    -0.181 NA
ATOM     21  C   UNL     1       6.787  -0.616   9.389  1.00  0.00     0.066 C 
ATOM     22  C   UNL     1       2.397  -1.363  11.859  1.00  0.00     0.069 C 
ATOM     23  H   UNL     1       6.943  -1.381  12.122  1.00  0.00     0.190 HD
ENDBRANCH  15  16
ENDBRANCH  14  15
ENDBRANCH  13  14
ENDBRANCH   1  13
TORSDOF 7
ENDMDL
MODEL 5
REMARK VINA RESULT:    -4.269      3.328      6.063
REMARK INTER + INTRA:          -5.798
REMARK INTER:                  -4.265
REMARK INTRA:                  -1.533
REMARK UNBOUND:                 0.093
REMARK SMILES Cc1n[nH]c(C)c1CCCOc1cc(C(=O)O)ccc1F
REMARK SMILES IDX 11 1 12 2 14 3 18 4 13 5 19 6 20 7 21 8 15 9 16 10 17 11
REMARK SMILES IDX 10 13 9 14 8 15 7 16 5 17 2 18 4 19 3 20 6 21 1 22
REMARK H PARENT 17 12 4 23
ROOT
ATOM      1  O   UNL     1       2.807  -3.049   7.616  1.00  0.00    -0.490 OA
ENDROOT
BRANCH   1   2
ATOM      2  C   UNL     1       3.205  -2.145   8.550  1.00  0.00     0.155 A 
ATOM      3  C   UNL     1       4.952  -1.073   9.807  1.00  0.00     0.063 A 
ATOM      4  C   UNL     1       3.997  -0.285  10.455  1.00  0.00     0.019 A 
ATOM      5  C   UNL     1       4.547  -2.006   8.850  1.00  0.00     0.065 A 
ATOM      6  C   UNL     1       2.661  -0.427  10.144  1.00  0.00     0.044 A 
ATOM      7  C   UNL     1       2.262  -1.350   9.192  1.00  0.00     0.165 A 
ATOM      8  F   UNL     1       0.951  -1.483   8.892  1.00  0.00    -0.203 F 
BRANCH   3   9
ATOM      9  C   UNL     1       6.383  -0.923  10.136  1.00  0.00     0.335 C 
ATOM     10  O   UNL     1       7.183  -0.657   9.263  1.00  0.00    -0.246 OA
BRANCH   9  11
ATOM     11  O   UNL     1       6.800  -1.076  11.408  1.00  0.00    -0.478 OA
ATOM     12  H   UNL     1       7.578  -0.569  11.679  1.00  0.00     0.297 HD
ENDBRANCH   9  11
ENDBRANCH   3   9
ENDBRANCH   1   2
BRANCH   1  13
ATOM     13  C   UNL     1       2.785  -2.609   6.255  1.00  0.00     0.230 C 
BRANCH  13  14
ATOM     14  C   UNL     1       1.372  -2.148   5.893  1.00  0.00     0.046 C 
BRANCH  14  15
ATOM     15  C   UNL     1       1.452  -0.861   5.069  1.00  0.00     0.043 C 
BRANCH  15  16
ATOM     16  C   UNL     1       1.457   0.329   5.993  1.00  0.00    -0.004 A 
ATOM     17  C   UNL     1       2.553   0.993   6.430  1.00  0.00     0.036 A 
ATOM     18  C   UNL     1       0.331   0.946   6.547  1.00  0.00     0.063 A 
ATOM     19  N   UNL     1       2.134   1.991   7.237  1.00  0.00    -0.282 N 
ATOM     20  N   UNL     1       0.736   1.938   7.298  1.00  0.00    -0.181 NA
ATOM     21  C   UNL     1       3.983   0.675   6.079  1.00  0.00     0.066 C 
ATOM     22  C   UNL     1      -1.102   0.532   6.327  1.00  0.00     0.069 C 
ATOM     23  H   UNL     1       2.702   2.631   7.694  1.00  0.00     0.190 HD
ENDBRANCH  15  16
ENDBRANCH  14  15
ENDBRANCH  13  14
ENDBRANCH   1  13
TORSDOF 7
ENDMDL
MODEL 6
REMARK VINA RESULT:    -4.224      3.926      6.926
REMARK INTER + INTRA:          -5.736
REMARK INTER:                  -5.202
REMARK INTRA:                  -0.533
REMARK UNBOUND:                 0.093
REMARK SMILES Cc1n[nH]c(C)c1CCCOc1cc(C(=O)O)ccc1F
REMARK SMILES IDX 11 1 12 2 14 3 18 4 13 5 19 6 20 7 21 8 15 9 16 10 17 11
REMARK SMILES IDX 10 13 9 14 8 15 7 16 5 17 2 18 4 19 3 20 6 21 1 22
REMARK H PARENT 17 12 4 23
ROOT
ATOM      1  O   UNL     1       1.648  -0.776   8.189  1.00  0.00    -0.490 OA
ENDROOT
BRANCH   1   2
ATOM      2  C   UNL     1       2.541  -0.929   9.204  1.00  0.00     0.155 A 
ATOM      3  C   UNL     1       3.016  -1.415  11.510  1.00  0.00     0.063 A 
ATOM      4  C   UNL     1       4.381  -1.246  11.260  1.00  0.00     0.019 A 
ATOM      5  C   UNL     1       2.096  -1.253  10.472  1.00  0.00     0.065 A 
ATOM      6  C   UNL     1       4.815  -0.928   9.991  1.00  0.00     0.044 A 
ATOM      7  C   UNL     1       3.901  -0.774   8.961  1.00  0.00     0.165 A 
ATOM      8  F   UNL     1       4.333  -0.462   7.719  1.00  0.00    -0.203 F 
BRANCH   3   9
ATOM      9  C   UNL     1       2.548  -1.755  12.868  1.00  0.00     0.335 C 
ATOM     10  O   UNL     1       1.436  -2.214  13.030  1.00  0.00    -0.246 OA
BRANCH   9  11
ATOM     11  O   UNL     1       3.358  -1.563  13.927  1.00  0.00    -0.478 OA
ATOM     12  H   UNL     1       3.082  -0.903  14.578  1.00  0.00     0.297 HD
ENDBRANCH   9  11
ENDBRANCH   3   9
ENDBRANCH   1   2
BRANCH   1  13
ATOM     13  C   UNL     1       1.603   0.504   7.553  1.00  0.00     0.230 C 
BRANCH  13  14
ATOM     14  C   UNL     1       0.823   0.393   6.241  1.00  0.00     0.046 C 
BRANCH  14  15
ATOM     15  C   UNL     1       0.676  -1.082   5.858  1.00  0.00     0.043 C 
BRANCH  15  16
ATOM     16  C   UNL     1       1.798  -1.475   4.932  1.00  0.00    -0.004 A 
ATOM     17  C   UNL     1       2.742  -2.414   5.178  1.00  0.00     0.036 A 
ATOM     18  C   UNL     1       2.045  -0.938   3.664  1.00  0.00     0.063 A 
ATOM     19  N   UNL     1       3.560  -2.465   4.106  1.00  0.00    -0.282 N 
ATOM     20  N   UNL     1       3.105  -1.526   3.171  1.00  0.00    -0.181 NA
ATOM     21  C   UNL     1       2.857  -3.252   6.425  1.00  0.00     0.066 C 
ATOM     22  C   UNL     1       1.237   0.140   2.988  1.00  0.00     0.069 C 
ATOM     23  H   UNL     1       4.328  -3.047   4.002  1.00  0.00     0.190 HD
ENDBRANCH  15  16
ENDBRANCH  14  15
ENDBRANCH  13  14
ENDBRANCH   1  13
TORSDOF 7
ENDMDL
MODEL 7
REMARK VINA RESULT:    -4.178      3.781      6.489
REMARK INTER + INTRA:          -5.673
REMARK INTER:                  -4.941
REMARK INTRA:                  -0.731
REMARK UNBOUND:                 0.093
REMARK SMILES Cc1n[nH]c(C)c1CCCOc1cc(C(=O)O)ccc1F
REMARK SMILES IDX 11 1 12 2 14 3 18 4 13 5 19 6 20 7 21 8 15 9 16 10 17 11
REMARK SMILES IDX 10 13 9 14 8 15 7 16 5 17 2 18 4 19 3 20 6 21 1 22
REMARK H PARENT 17 12 4 23
ROOT
ATOM      1  O   UNL     1       2.017  -0.847   8.518  1.00  0.00    -0.490 OA
ENDROOT
BRANCH   1   2
ATOM      2  C   UNL     1       2.923  -0.982   9.523  1.00  0.00     0.155 A 
ATOM      3  C   UNL     1       5.187  -0.861  10.323  1.00  0.00     0.063 A 
ATOM      4  C   UNL     1       4.755  -1.255  11.593  1.00  0.00     0.019 A 
ATOM      5  C   UNL     1       4.261  -0.726   9.287  1.00  0.00     0.065 A 
ATOM      6  C   UNL     1       3.418  -1.503  11.820  1.00  0.00     0.044 A 
ATOM      7  C   UNL     1       2.500  -1.363  10.792  1.00  0.00     0.165 A 
ATOM      8  F   UNL     1       1.191  -1.607  11.021  1.00  0.00    -0.203 F 
BRANCH   3   9
ATOM      9  C   UNL     1       6.618  -0.595  10.077  1.00  0.00     0.335 C 
ATOM     10  O   UNL     1       7.018  -0.424   8.944  1.00  0.00    -0.246 OA
BRANCH   9  11
ATOM     11  O   UNL     1       7.479  -0.535  11.112  1.00  0.00    -0.478 OA
ATOM     12  H   UNL     1       7.592  -1.339  11.637  1.00  0.00     0.297 HD
ENDBRANCH   9  11
ENDBRANCH   3   9
ENDBRANCH   1   2
BRANCH   1  13
ATOM     13  C   UNL     1       2.113   0.331   7.713  1.00  0.00     0.230 C 
BRANCH  13  14
ATOM     14  C   UNL     1       1.015   0.311   6.648  1.00  0.00     0.046 C 
BRANCH  14  15
ATOM     15  C   UNL     1       0.771  -1.130   6.194  1.00  0.00     0.043 C 
BRANCH  15  16
ATOM     16  C   UNL     1       1.807  -1.517   5.171  1.00  0.00    -0.004 A 
ATOM     17  C   UNL     1       2.775  -2.449   5.331  1.00  0.00     0.036 A 
ATOM     18  C   UNL     1       1.934  -0.982   3.885  1.00  0.00     0.063 A 
ATOM     19  N   UNL     1       3.493  -2.496   4.190  1.00  0.00    -0.282 N 
ATOM     20  N   UNL     1       2.948  -1.563   3.298  1.00  0.00    -0.181 NA
ATOM     21  C   UNL     1       3.009  -3.283   6.564  1.00  0.00     0.066 C 
ATOM     22  C   UNL     1       1.060   0.089   3.283  1.00  0.00     0.069 C 
ATOM     23  H   UNL     1       4.253  -3.074   4.017  1.00  0.00     0.190 HD
ENDBRANCH  15  16
ENDBRANCH  14  15
ENDBRANCH  13  14
ENDBRANCH   1  13
TORSDOF 7
ENDMDL
MODEL 8
REMARK VINA RESULT:    -4.173      3.861      6.944
REMARK INTER + INTRA:          -5.665
REMARK INTER:                  -4.965
REMARK INTRA:                  -0.700
REMARK UNBOUND:                 0.093
REMARK SMILES Cc1n[nH]c(C)c1CCCOc1cc(C(=O)O)ccc1F
REMARK SMILES IDX 11 1 12 2 14 3 18 4 13 5 19 6 20 7 21 8 15 9 16 10 17 11
REMARK SMILES IDX 10 13 9 14 8 15 7 16 5 17 2 18 4 19 3 20 6 21 1 22
REMARK H PARENT 17 12 4 23
ROOT
ATOM      1  O   UNL     1       3.493  -1.055   7.856  1.00  0.00    -0.490 OA
ENDROOT
BRANCH   1   2
ATOM      2  C   UNL     1       3.768  -1.147   9.184  1.00  0.00     0.155 A 
ATOM      3  C   UNL     1       3.054  -1.578  11.439  1.00  0.00     0.063 A 
ATOM      4  C   UNL     1       4.354  -1.340  11.893  1.00  0.00     0.019 A 
ATOM      5  C   UNL     1       2.766  -1.480  10.077  1.00  0.00     0.065 A 
ATOM      6  C   UNL     1       5.348  -1.015  10.995  1.00  0.00     0.044 A 
ATOM      7  C   UNL     1       5.062  -0.923   9.643  1.00  0.00     0.165 A 
ATOM      8  F   UNL     1       6.040  -0.604   8.768  1.00  0.00    -0.203 F 
BRANCH   3   9
ATOM      9  C   UNL     1       1.987  -1.927  12.398  1.00  0.00     0.335 C 
ATOM     10  O   UNL     1       0.824  -1.898  12.051  1.00  0.00    -0.246 OA
BRANCH   9  11
ATOM     11  O   UNL     1       2.305  -2.284  13.658  1.00  0.00    -0.478 OA
ATOM     12  H   UNL     1       1.664  -2.831  14.135  1.00  0.00     0.297 HD
ENDBRANCH   9  11
ENDBRANCH   3   9
ENDBRANCH   1   2
BRANCH   1  13
ATOM     13  C   UNL     1       2.715  -2.108   7.280  1.00  0.00     0.230 C 
BRANCH  13  14
ATOM     14  C   UNL     1       2.474  -1.811   5.799  1.00  0.00     0.046 C 
BRANCH  14  15
ATOM     15  C   UNL     1       2.561  -0.302   5.560  1.00  0.00     0.043 C 
BRANCH  15  16
ATOM     16  C   UNL     1       1.205   0.319   5.771  1.00  0.00    -0.004 A 
ATOM     17  C   UNL     1       0.109   0.119   5.003  1.00  0.00     0.036 A 
ATOM     18  C   UNL     1       0.854   1.200   6.799  1.00  0.00     0.063 A 
ATOM     19  N   UNL     1      -0.898   0.852   5.523  1.00  0.00    -0.282 N 
ATOM     20  N   UNL     1      -0.404   1.526   6.647  1.00  0.00    -0.181 NA
ATOM     21  C   UNL     1       0.027  -0.765   3.786  1.00  0.00     0.066 C 
ATOM     22  C   UNL     1       1.771   1.699   7.887  1.00  0.00     0.069 C 
ATOM     23  H   UNL     1      -1.803   0.905   5.178  1.00  0.00     0.190 HD
ENDBRANCH  15  16
ENDBRANCH  14  15
ENDBRANCH  13  14
ENDBRANCH   1  13
TORSDOF 7
ENDMDL
MODEL 9
REMARK VINA RESULT:    -4.072      3.829      6.963
REMARK INTER + INTRA:          -5.526
REMARK INTER:                  -4.733
REMARK INTRA:                  -0.793
REMARK UNBOUND:                 0.093
REMARK SMILES Cc1n[nH]c(C)c1CCCOc1cc(C(=O)O)ccc1F
REMARK SMILES IDX 11 1 12 2 14 3 18 4 13 5 19 6 20 7 21 8 15 9 16 10 17 11
REMARK SMILES IDX 10 13 9 14 8 15 7 16 5 17 2 18 4 19 3 20 6 21 1 22
REMARK H PARENT 17 12 4 23
ROOT
ATOM      1  O   UNL     1       3.587  -1.095   7.861  1.00  0.00    -0.490 OA
ENDROOT
BRANCH   1   2
ATOM      2  C   UNL     1       3.788  -1.172   9.203  1.00  0.00     0.155 A 
ATOM      3  C   UNL     1       2.948  -1.570  11.421  1.00  0.00     0.063 A 
ATOM      4  C   UNL     1       4.223  -1.335  11.942  1.00  0.00     0.019 A 
ATOM      5  C   UNL     1       2.736  -1.487  10.043  1.00  0.00     0.065 A 
ATOM      6  C   UNL     1       5.268  -1.028  11.096  1.00  0.00     0.044 A 
ATOM      7  C   UNL     1       5.056  -0.951   9.729  1.00  0.00     0.165 A 
ATOM      8  F   UNL     1       6.084  -0.649   8.905  1.00  0.00    -0.203 F 
BRANCH   3   9
ATOM      9  C   UNL     1       1.828  -1.900  12.324  1.00  0.00     0.335 C 
ATOM     10  O   UNL     1       2.038  -2.111  13.500  1.00  0.00    -0.246 OA
BRANCH   9  11
ATOM     11  O   UNL     1       0.570  -1.959  11.843  1.00  0.00    -0.478 OA
ATOM     12  H   UNL     1       0.268  -2.815  11.509  1.00  0.00     0.297 HD
ENDBRANCH   9  11
ENDBRANCH   3   9
ENDBRANCH   1   2
BRANCH   1  13
ATOM     13  C   UNL     1       2.638  -2.002   7.294  1.00  0.00     0.230 C 
BRANCH  13  14
ATOM     14  C   UNL     1       2.480  -1.707   5.801  1.00  0.00     0.046 C 
BRANCH  14  15
ATOM     15  C   UNL     1       2.464  -0.193   5.580  1.00  0.00     0.043 C 
BRANCH  15  16
ATOM     16  C   UNL     1       1.085   0.342   5.864  1.00  0.00    -0.004 A 
ATOM     17  C   UNL     1       0.739   1.143   6.899  1.00  0.00     0.036 A 
ATOM     18  C   UNL     1      -0.064   0.105   5.101  1.00  0.00     0.063 A 
ATOM     19  N   UNL     1      -0.583   1.398   6.798  1.00  0.00    -0.282 N 
ATOM     20  N   UNL     1      -1.065   0.731   5.664  1.00  0.00    -0.181 NA
ATOM     21  C   UNL     1       1.664   1.658   7.971  1.00  0.00     0.066 C 
ATOM     22  C   UNL     1      -0.138  -0.737   3.853  1.00  0.00     0.069 C 
ATOM     23  H   UNL     1      -1.106   1.944   7.404  1.00  0.00     0.190 HD
ENDBRANCH  15  16
ENDBRANCH  14  15
ENDBRANCH  13  14
ENDBRANCH   1  13
TORSDOF 7
ENDMDL
