MODEL 1
REMARK VINA RESULT:    -2.726      0.000      0.000
REMARK INTER + INTRA:          -3.422
REMARK INTER:                  -3.125
REMARK INTRA:                  -0.297
REMARK UNBOUND:                -0.297
REMARK SMILES O=C(O)c1ccc2nc(-c3cc(Cl)cc(Cl)c3)oc2c1
REMARK SMILES IDX 5 1 6 2 20 3 8 4 18 5 4 6 9 7 7 8 19 9 2 10 1 11 3 12 10 14
REMARK SMILES IDX 11 15 17 16 12 17 15 18 14 19 13 20 16 21
REMARK H PARENT 3 13
ROOT
ATOM      1  C   UNL     1       0.086  -0.511   4.712  1.00  0.00     0.018 A 
ATOM      2  C   UNL     1       0.040  -0.702   6.061  1.00  0.00     0.033 A 
ATOM      3  C   UNL     1       2.508  -0.421   4.784  1.00  0.00     0.065 A 
ATOM      4  N   UNL     1       1.494  -0.927   8.114  1.00  0.00    -0.209 NA
ATOM      5  O   UNL     1       3.413  -0.702   7.112  1.00  0.00    -0.436 OA
ATOM      6  C   UNL     1       1.317  -0.370   4.057  1.00  0.00     0.063 A 
ATOM      7  C   UNL     1       2.792  -0.896   8.291  1.00  0.00     0.227 A 
ATOM      8  C   UNL     1       1.227  -0.755   6.802  1.00  0.00     0.110 A 
ATOM      9  C   UNL     1       2.466  -0.610   6.153  1.00  0.00     0.156 A 
ENDROOT
BRANCH   6  10
ATOM     10  C   UNL     1       1.355  -0.170   2.597  1.00  0.00     0.335 C 
ATOM     11  O   UNL     1       0.356   0.192   2.008  1.00  0.00    -0.246 OA
BRANCH  10  12
ATOM     12  O   UNL     1       2.496  -0.389   1.915  1.00  0.00    -0.478 OA
ATOM     13  H   UNL     1       2.528  -1.175   1.353  1.00  0.00     0.297 HD
ENDBRANCH  10  12
ENDBRANCH   6  10
BRANCH   7  14
ATOM     14  C   UNL     1       3.473  -1.049   9.594  1.00  0.00     0.040 A 
ATOM     15  C   UNL     1       2.728  -1.269  10.753  1.00  0.00     0.034 A 
ATOM     16  C   UNL     1       4.865  -0.973   9.669  1.00  0.00     0.034 A 
ATOM     17  C   UNL     1       3.370  -1.412  11.967  1.00  0.00     0.043 A 
ATOM     18  C   UNL     1       5.496  -1.118  10.889  1.00  0.00     0.043 A 
ATOM     19  C   UNL     1       4.751  -1.336  12.035  1.00  0.00     0.041 A 
ATOM     20  Cl  UNL     1       2.445  -1.686  13.410  1.00  0.00    -0.084 Cl
ATOM     21  Cl  UNL     1       7.227  -1.025  10.985  1.00  0.00    -0.084 Cl
ENDBRANCH   7  14
TORSDOF 3
ENDMDL
MODEL 2
REMARK VINA RESULT:    -2.719      0.003      2.019
REMARK INTER + INTRA:          -3.414
REMARK INTER:                  -3.117
REMARK INTRA:                  -0.297
REMARK UNBOUND:                -0.297
REMARK SMILES O=C(O)c1ccc2nc(-c3cc(Cl)cc(Cl)c3)oc2c1
REMARK SMILES IDX 5 1 6 2 20 3 8 4 18 5 4 6 9 7 7 8 19 9 2 10 1 11 3 12 10 14
REMARK SMILES IDX 11 15 17 16 12 17 15 18 14 19 13 20 16 21
REMARK H PARENT 3 13
ROOT
ATOM      1  C   UNL     1       0.085  -0.510   4.713  1.00  0.00     0.018 A 
ATOM      2  C   UNL     1       0.041  -0.702   6.061  1.00  0.00     0.033 A 
ATOM      3  C   UNL     1       2.508  -0.420   4.782  1.00  0.00     0.065 A 
ATOM      4  N   UNL     1       1.497  -0.928   8.113  1.00  0.00    -0.209 NA
ATOM      5  O   UNL     1       3.414  -0.702   7.110  1.00  0.00    -0.436 OA
ATOM      6  C   UNL     1       1.316  -0.369   4.056  1.00  0.00     0.063 A 
ATOM      7  C   UNL     1       2.795  -0.896   8.289  1.00  0.00     0.227 A 
ATOM      8  C   UNL     1       1.228  -0.755   6.801  1.00  0.00     0.110 A 
ATOM      9  C   UNL     1       2.466  -0.609   6.151  1.00  0.00     0.156 A 
ENDROOT
BRANCH   6  10
ATOM     10  C   UNL     1       1.352  -0.168   2.596  1.00  0.00     0.335 C 
ATOM     11  O   UNL     1       0.352   0.193   2.008  1.00  0.00    -0.246 OA
BRANCH  10  12
ATOM     12  O   UNL     1       2.494  -0.386   1.914  1.00  0.00    -0.478 OA
ATOM     13  H   UNL     1       2.434  -0.391   0.949  1.00  0.00     0.297 HD
ENDBRANCH  10  12
ENDBRANCH   6  10
BRANCH   7  14
ATOM     14  C   UNL     1       3.477  -1.050   9.591  1.00  0.00     0.040 A 
ATOM     15  C   UNL     1       4.868  -0.976   9.666  1.00  0.00     0.034 A 
ATOM     16  C   UNL     1       2.731  -1.270  10.750  1.00  0.00     0.034 A 
ATOM     17  C   UNL     1       5.499  -1.119  10.886  1.00  0.00     0.043 A 
ATOM     18  C   UNL     1       3.373  -1.412  11.964  1.00  0.00     0.043 A 
ATOM     19  C   UNL     1       4.754  -1.338  12.032  1.00  0.00     0.041 A 
ATOM     20  Cl  UNL     1       7.230  -1.027  10.982  1.00  0.00    -0.084 Cl
ATOM     21  Cl  UNL     1       2.448  -1.686  13.408  1.00  0.00    -0.084 Cl
ENDBRANCH   7  14
TORSDOF 3
ENDMDL
MODEL 3
REMARK VINA RESULT:    -2.515      3.754      7.658
REMARK INTER + INTRA:          -3.179
REMARK INTER:                  -2.894
REMARK INTRA:                  -0.286
REMARK UNBOUND:                -0.297
REMARK SMILES O=C(O)c1ccc2nc(-c3cc(Cl)cc(Cl)c3)oc2c1
REMARK SMILES IDX 5 1 6 2 20 3 8 4 18 5 4 6 9 7 7 8 19 9 2 10 1 11 3 12 10 14
REMARK SMILES IDX 11 15 17 16 12 17 15 18 14 19 13 20 16 21
REMARK H PARENT 3 13
ROOT
ATOM      1  C   UNL     1       5.302  -1.382  11.969  1.00  0.00     0.018 A 
ATOM      2  C   UNL     1       4.059  -1.323  11.414  1.00  0.00     0.033 A 
ATOM      3  C   UNL     1       6.312  -0.906   9.816  1.00  0.00     0.065 A 
ATOM      4  N   UNL     1       2.843  -0.937   9.233  1.00  0.00    -0.209 NA
ATOM      5  O   UNL     1       4.604  -0.619   7.995  1.00  0.00    -0.436 OA
ATOM      6  C   UNL     1       6.443  -1.173  11.180  1.00  0.00     0.063 A 
ATOM      7  C   UNL     1       3.259  -0.678   8.018  1.00  0.00     0.227 A 
ATOM      8  C   UNL     1       3.914  -1.056  10.047  1.00  0.00     0.110 A 
ATOM      9  C   UNL     1       5.053  -0.850   9.248  1.00  0.00     0.156 A 
ENDROOT
BRANCH   6  10
ATOM     10  C   UNL     1       7.782  -1.234  11.793  1.00  0.00     0.335 C 
ATOM     11  O   UNL     1       8.238  -2.301  12.151  1.00  0.00    -0.246 OA
BRANCH  10  12
ATOM     12  O   UNL     1       8.500  -0.105  11.958  1.00  0.00    -0.478 OA
ATOM     13  H   UNL     1       9.157   0.100  11.279  1.00  0.00     0.297 HD
ENDBRANCH  10  12
ENDBRANCH   6  10
BRANCH   7  14
ATOM     14  C   UNL     1       2.380  -0.481   6.847  1.00  0.00     0.040 A 
ATOM     15  C   UNL     1       2.834  -0.805   5.567  1.00  0.00     0.034 A 
ATOM     16  C   UNL     1       1.093   0.033   7.015  1.00  0.00     0.034 A 
ATOM     17  C   UNL     1       2.007  -0.620   4.477  1.00  0.00     0.043 A 
ATOM     18  C   UNL     1       0.276   0.214   5.917  1.00  0.00     0.043 A 
ATOM     19  C   UNL     1       0.732  -0.110   4.651  1.00  0.00     0.041 A 
ATOM     20  Cl  UNL     1       2.569  -1.024   2.885  1.00  0.00    -0.084 Cl
ATOM     21  Cl  UNL     1      -1.326   0.852   6.125  1.00  0.00    -0.084 Cl
ENDBRANCH   7  14
TORSDOF 3
ENDMDL
MODEL 4
REMARK VINA RESULT:    -2.515      3.754      7.424
REMARK INTER + INTRA:          -3.179
REMARK INTER:                  -2.893
REMARK INTRA:                  -0.286
REMARK UNBOUND:                -0.297
REMARK SMILES O=C(O)c1ccc2nc(-c3cc(Cl)cc(Cl)c3)oc2c1
REMARK SMILES IDX 5 1 6 2 20 3 8 4 18 5 4 6 9 7 7 8 19 9 2 10 1 11 3 12 10 14
REMARK SMILES IDX 11 15 17 16 12 17 15 18 14 19 13 20 16 21
REMARK H PARENT 3 13
ROOT
ATOM      1  C   UNL     1       5.301  -1.383  11.967  1.00  0.00     0.018 A 
ATOM      2  C   UNL     1       4.058  -1.326  11.412  1.00  0.00     0.033 A 
ATOM      3  C   UNL     1       6.310  -0.902   9.815  1.00  0.00     0.065 A 
ATOM      4  N   UNL     1       2.842  -0.940   9.231  1.00  0.00    -0.209 NA
ATOM      5  O   UNL     1       4.601  -0.616   7.994  1.00  0.00    -0.436 OA
ATOM      6  C   UNL     1       6.441  -1.171  11.178  1.00  0.00     0.063 A 
ATOM      7  C   UNL     1       3.256  -0.678   8.017  1.00  0.00     0.227 A 
ATOM      8  C   UNL     1       3.913  -1.057  10.045  1.00  0.00     0.110 A 
ATOM      9  C   UNL     1       5.051  -0.848   9.247  1.00  0.00     0.156 A 
ENDROOT
BRANCH   6  10
ATOM     10  C   UNL     1       7.781  -1.230  11.791  1.00  0.00     0.335 C 
ATOM     11  O   UNL     1       8.234  -2.295  12.159  1.00  0.00    -0.246 OA
BRANCH  10  12
ATOM     12  O   UNL     1       8.502  -0.102  11.944  1.00  0.00    -0.478 OA
ATOM     13  H   UNL     1       8.046   0.736  11.789  1.00  0.00     0.297 HD
ENDBRANCH  10  12
ENDBRANCH   6  10
BRANCH   7  14
ATOM     14  C   UNL     1       2.377  -0.481   6.846  1.00  0.00     0.040 A 
ATOM     15  C   UNL     1       1.090   0.031   7.013  1.00  0.00     0.034 A 
ATOM     16  C   UNL     1       2.832  -0.807   5.566  1.00  0.00     0.034 A 
ATOM     17  C   UNL     1       0.274   0.214   5.915  1.00  0.00     0.043 A 
ATOM     18  C   UNL     1       2.007  -0.620   4.476  1.00  0.00     0.043 A 
ATOM     19  C   UNL     1       0.731  -0.112   4.649  1.00  0.00     0.041 A 
ATOM     20  Cl  UNL     1      -1.327   0.851   6.121  1.00  0.00    -0.084 Cl
ATOM     21  Cl  UNL     1       2.570  -1.024   2.884  1.00  0.00    -0.084 Cl
ENDBRANCH   7  14
TORSDOF 3
ENDMDL
MODEL 5
REMARK VINA RESULT:    -2.506      3.909      7.653
REMARK INTER + INTRA:          -3.169
REMARK INTER:                  -2.874
REMARK INTRA:                  -0.295
REMARK UNBOUND:                -0.297
REMARK SMILES O=C(O)c1ccc2nc(-c3cc(Cl)cc(Cl)c3)oc2c1
REMARK SMILES IDX 5 1 6 2 20 3 8 4 18 5 4 6 9 7 7 8 19 9 2 10 1 11 3 12 10 14
REMARK SMILES IDX 11 15 17 16 12 17 15 18 14 19 13 20 16 21
REMARK H PARENT 3 13
ROOT
ATOM      1  C   UNL     1       5.057  -1.220  11.885  1.00  0.00     0.018 A 
ATOM      2  C   UNL     1       5.177  -1.069  10.536  1.00  0.00     0.033 A 
ATOM      3  C   UNL     1       2.643  -1.336  11.681  1.00  0.00     0.065 A 
ATOM      4  N   UNL     1       3.838  -0.914   8.399  1.00  0.00    -0.209 NA
ATOM      5  O   UNL     1       1.868  -1.117   9.299  1.00  0.00    -0.436 OA
ATOM      6  C   UNL     1       3.792  -1.357  12.474  1.00  0.00     0.063 A 
ATOM      7  C   UNL     1       2.553  -0.958   8.151  1.00  0.00     0.227 A 
ATOM      8  C   UNL     1       4.033  -1.046   9.729  1.00  0.00     0.110 A 
ATOM      9  C   UNL     1       2.761  -1.178  10.312  1.00  0.00     0.156 A 
ENDROOT
BRANCH   6  10
ATOM     10  C   UNL     1       3.675  -1.526  13.933  1.00  0.00     0.335 C 
ATOM     11  O   UNL     1       2.678  -2.034  14.408  1.00  0.00    -0.246 OA
BRANCH  10  12
ATOM     12  O   UNL     1       4.673  -1.117  14.742  1.00  0.00    -0.478 OA
ATOM     13  H   UNL     1       5.129  -1.797  15.255  1.00  0.00     0.297 HD
ENDBRANCH  10  12
ENDBRANCH   6  10
BRANCH   7  14
ATOM     14  C   UNL     1       1.945  -0.847   6.809  1.00  0.00     0.040 A 
ATOM     15  C   UNL     1       0.624  -0.419   6.670  1.00  0.00     0.034 A 
ATOM     16  C   UNL     1       2.691  -1.172   5.674  1.00  0.00     0.034 A 
ATOM     17  C   UNL     1       0.063  -0.317   5.413  1.00  0.00     0.043 A 
ATOM     18  C   UNL     1       2.118  -1.066   4.422  1.00  0.00     0.043 A 
ATOM     19  C   UNL     1       0.807  -0.640   4.291  1.00  0.00     0.041 A 
ATOM     20  Cl  UNL     1      -1.580   0.217   5.238  1.00  0.00    -0.084 Cl
ATOM     21  Cl  UNL     1       3.043  -1.470   3.009  1.00  0.00    -0.084 Cl
ENDBRANCH   7  14
TORSDOF 3
ENDMDL
MODEL 6
REMARK VINA RESULT:    -2.505      3.908      7.889
REMARK INTER + INTRA:          -3.168
REMARK INTER:                  -2.873
REMARK INTRA:                  -0.295
REMARK UNBOUND:                -0.297
REMARK SMILES O=C(O)c1ccc2nc(-c3cc(Cl)cc(Cl)c3)oc2c1
REMARK SMILES IDX 5 1 6 2 20 3 8 4 18 5 4 6 9 7 7 8 19 9 2 10 1 11 3 12 10 14
REMARK SMILES IDX 11 15 17 16 12 17 15 18 14 19 13 20 16 21
REMARK H PARENT 3 13
ROOT
ATOM      1  C   UNL     1       5.057  -1.217  11.877  1.00  0.00     0.018 A 
ATOM      2  C   UNL     1       5.177  -1.064  10.528  1.00  0.00     0.033 A 
ATOM      3  C   UNL     1       2.643  -1.339  11.672  1.00  0.00     0.065 A 
ATOM      4  N   UNL     1       3.838  -0.910   8.391  1.00  0.00    -0.209 NA
ATOM      5  O   UNL     1       1.868  -1.119   9.290  1.00  0.00    -0.436 OA
ATOM      6  C   UNL     1       3.792  -1.358  12.465  1.00  0.00     0.063 A 
ATOM      7  C   UNL     1       2.553  -0.957   8.143  1.00  0.00     0.227 A 
ATOM      8  C   UNL     1       4.033  -1.043   9.721  1.00  0.00     0.110 A 
ATOM      9  C   UNL     1       2.761  -1.179  10.304  1.00  0.00     0.156 A 
ENDROOT
BRANCH   6  10
ATOM     10  C   UNL     1       3.674  -1.529  13.925  1.00  0.00     0.335 C 
ATOM     11  O   UNL     1       2.679  -2.039  14.398  1.00  0.00    -0.246 OA
BRANCH  10  12
ATOM     12  O   UNL     1       4.671  -1.119  14.734  1.00  0.00    -0.478 OA
ATOM     13  H   UNL     1       5.091  -0.275  14.520  1.00  0.00     0.297 HD
ENDBRANCH  10  12
ENDBRANCH   6  10
BRANCH   7  14
ATOM     14  C   UNL     1       1.945  -0.846   6.800  1.00  0.00     0.040 A 
ATOM     15  C   UNL     1       2.690  -1.168   5.665  1.00  0.00     0.034 A 
ATOM     16  C   UNL     1       0.623  -0.419   6.663  1.00  0.00     0.034 A 
ATOM     17  C   UNL     1       2.116  -1.064   4.413  1.00  0.00     0.043 A 
ATOM     18  C   UNL     1       0.060  -0.319   5.407  1.00  0.00     0.043 A 
ATOM     19  C   UNL     1       0.804  -0.639   4.284  1.00  0.00     0.041 A 
ATOM     20  Cl  UNL     1       3.040  -1.464   3.000  1.00  0.00    -0.084 Cl
ATOM     21  Cl  UNL     1      -1.584   0.212   5.234  1.00  0.00    -0.084 Cl
ENDBRANCH   7  14
TORSDOF 3
ENDMDL
MODEL 7
REMARK VINA RESULT:    -2.335      5.316      9.003
REMARK INTER + INTRA:          -2.974
REMARK INTER:                  -2.691
REMARK INTRA:                  -0.283
REMARK UNBOUND:                -0.297
REMARK SMILES O=C(O)c1ccc2nc(-c3cc(Cl)cc(Cl)c3)oc2c1
REMARK SMILES IDX 5 1 6 2 20 3 8 4 18 5 4 6 9 7 7 8 19 9 2 10 1 11 3 12 10 14
REMARK SMILES IDX 11 15 17 16 12 17 15 18 14 19 13 20 16 21
REMARK H PARENT 3 13
ROOT
ATOM      1  C   UNL     1       1.963  -3.202  16.805  1.00  0.00     0.018 A 
ATOM      2  C   UNL     1       2.701  -2.343  16.047  1.00  0.00     0.033 A 
ATOM      3  C   UNL     1       0.975  -4.154  14.806  1.00  0.00     0.065 A 
ATOM      4  N   UNL     1       3.177  -1.661  13.661  1.00  0.00    -0.209 NA
ATOM      5  O   UNL     1       1.826  -3.071  12.702  1.00  0.00    -0.436 OA
ATOM      6  C   UNL     1       1.094  -4.118  16.196  1.00  0.00     0.063 A 
ATOM      7  C   UNL     1       2.719  -2.083  12.509  1.00  0.00     0.227 A 
ATOM      8  C   UNL     1       2.591  -2.369  14.651  1.00  0.00     0.110 A 
ATOM      9  C   UNL     1       1.718  -3.281  14.033  1.00  0.00     0.156 A 
ENDROOT
BRANCH   6  10
ATOM     10  C   UNL     1       0.305  -5.047  17.026  1.00  0.00     0.335 C 
ATOM     11  O   UNL     1       0.731  -6.159  17.265  1.00  0.00    -0.246 OA
BRANCH  10  12
ATOM     12  O   UNL     1      -0.889  -4.662  17.519  1.00  0.00    -0.478 OA
ATOM     13  H   UNL     1      -1.140  -5.012  18.384  1.00  0.00     0.297 HD
ENDBRANCH  10  12
ENDBRANCH   6  10
BRANCH   7  14
ATOM     14  C   UNL     1       3.123  -1.551  11.191  1.00  0.00     0.040 A 
ATOM     15  C   UNL     1       2.175  -1.383  10.181  1.00  0.00     0.034 A 
ATOM     16  C   UNL     1       4.457  -1.214  10.951  1.00  0.00     0.034 A 
ATOM     17  C   UNL     1       2.559  -0.885   8.952  1.00  0.00     0.043 A 
ATOM     18  C   UNL     1       4.829  -0.716   9.718  1.00  0.00     0.043 A 
ATOM     19  C   UNL     1       3.883  -0.553   8.720  1.00  0.00     0.041 A 
ATOM     20  Cl  UNL     1       1.380  -0.675   7.695  1.00  0.00    -0.084 Cl
ATOM     21  Cl  UNL     1       6.487  -0.297   9.417  1.00  0.00    -0.084 Cl
ENDBRANCH   7  14
TORSDOF 3
ENDMDL
MODEL 8
REMARK VINA RESULT:    -2.332      5.292      9.139
REMARK INTER + INTRA:          -2.970
REMARK INTER:                  -2.688
REMARK INTRA:                  -0.283
REMARK UNBOUND:                -0.297
REMARK SMILES O=C(O)c1ccc2nc(-c3cc(Cl)cc(Cl)c3)oc2c1
REMARK SMILES IDX 5 1 6 2 20 3 8 4 18 5 4 6 9 7 7 8 19 9 2 10 1 11 3 12 10 14
REMARK SMILES IDX 11 15 17 16 12 17 15 18 14 19 13 20 16 21
REMARK H PARENT 3 13
ROOT
ATOM      1  C   UNL     1       1.981  -3.167  16.772  1.00  0.00     0.018 A 
ATOM      2  C   UNL     1       2.715  -2.308  16.010  1.00  0.00     0.033 A 
ATOM      3  C   UNL     1       1.001  -4.137  14.777  1.00  0.00     0.065 A 
ATOM      4  N   UNL     1       3.191  -1.638  13.622  1.00  0.00    -0.209 NA
ATOM      5  O   UNL     1       1.850  -3.062  12.669  1.00  0.00    -0.436 OA
ATOM      6  C   UNL     1       1.117  -4.091  16.168  1.00  0.00     0.063 A 
ATOM      7  C   UNL     1       2.737  -2.069  12.471  1.00  0.00     0.227 A 
ATOM      8  C   UNL     1       2.608  -2.343  14.615  1.00  0.00     0.110 A 
ATOM      9  C   UNL     1       1.741  -3.264  14.001  1.00  0.00     0.156 A 
ENDROOT
BRANCH   6  10
ATOM     10  C   UNL     1       0.333  -5.019  17.002  1.00  0.00     0.335 C 
ATOM     11  O   UNL     1       0.735  -6.149  17.197  1.00  0.00    -0.246 OA
BRANCH  10  12
ATOM     12  O   UNL     1      -0.832  -4.615  17.547  1.00  0.00    -0.478 OA
ATOM     13  H   UNL     1      -1.621  -4.675  16.992  1.00  0.00     0.297 HD
ENDBRANCH  10  12
ENDBRANCH   6  10
BRANCH   7  14
ATOM     14  C   UNL     1       3.141  -1.543  11.150  1.00  0.00     0.040 A 
ATOM     15  C   UNL     1       4.474  -1.211  10.905  1.00  0.00     0.034 A 
ATOM     16  C   UNL     1       2.189  -1.374  10.143  1.00  0.00     0.034 A 
ATOM     17  C   UNL     1       4.845  -0.721   9.669  1.00  0.00     0.043 A 
ATOM     18  C   UNL     1       2.572  -0.883   8.911  1.00  0.00     0.043 A 
ATOM     19  C   UNL     1       3.896  -0.556   8.674  1.00  0.00     0.041 A 
ATOM     20  Cl  UNL     1       6.503  -0.309   9.361  1.00  0.00    -0.084 Cl
ATOM     21  Cl  UNL     1       1.390  -0.673   7.657  1.00  0.00    -0.084 Cl
ENDBRANCH   7  14
TORSDOF 3
ENDMDL
MODEL 9
REMARK VINA RESULT:    -2.236      4.820      8.521
REMARK INTER + INTRA:          -2.860
REMARK INTER:                  -2.572
REMARK INTRA:                  -0.288
REMARK UNBOUND:                -0.297
REMARK SMILES O=C(O)c1ccc2nc(-c3cc(Cl)cc(Cl)c3)oc2c1
REMARK SMILES IDX 5 1 6 2 20 3 8 4 18 5 4 6 9 7 7 8 19 9 2 10 1 11 3 12 10 14
REMARK SMILES IDX 11 15 17 16 12 17 15 18 14 19 13 20 16 21
REMARK H PARENT 3 13
ROOT
ATOM      1  C   UNL     1       2.636  -2.173  15.586  1.00  0.00     0.018 A 
ATOM      2  C   UNL     1       3.101  -1.350  14.605  1.00  0.00     0.033 A 
ATOM      3  C   UNL     1       1.402  -3.468  13.948  1.00  0.00     0.065 A 
ATOM      4  N   UNL     1       3.016  -0.937  12.114  1.00  0.00    -0.209 NA
ATOM      5  O   UNL     1       1.688  -2.585  11.611  1.00  0.00    -0.436 OA
ATOM      6  C   UNL     1       1.784  -3.241  15.271  1.00  0.00     0.063 A 
ATOM      7  C   UNL     1       2.398  -1.546  11.133  1.00  0.00     0.227 A 
ATOM      8  C   UNL     1       2.726  -1.566  13.273  1.00  0.00     0.110 A 
ATOM      9  C   UNL     1       1.868  -2.632  12.950  1.00  0.00     0.156 A 
ENDROOT
BRANCH   6  10
ATOM     10  C   UNL     1       1.292  -4.129  16.341  1.00  0.00     0.335 C 
ATOM     11  O   UNL     1       0.972  -3.664  17.416  1.00  0.00    -0.246 OA
BRANCH  10  12
ATOM     12  O   UNL     1       1.197  -5.456  16.125  1.00  0.00    -0.478 OA
ATOM     13  H   UNL     1       1.951  -5.999  16.394  1.00  0.00     0.297 HD
ENDBRANCH  10  12
ENDBRANCH   6  10
BRANCH   7  14
ATOM     14  C   UNL     1       2.470  -1.151   9.711  1.00  0.00     0.040 A 
ATOM     15  C   UNL     1       2.334   0.190   9.348  1.00  0.00     0.034 A 
ATOM     16  C   UNL     1       2.674  -2.118   8.724  1.00  0.00     0.034 A 
ATOM     17  C   UNL     1       2.403   0.553   8.018  1.00  0.00     0.043 A 
ATOM     18  C   UNL     1       2.741  -1.742   7.398  1.00  0.00     0.043 A 
ATOM     19  C   UNL     1       2.605  -0.411   7.044  1.00  0.00     0.041 A 
ATOM     20  Cl  UNL     1       2.235   2.220   7.565  1.00  0.00    -0.084 Cl
ATOM     21  Cl  UNL     1       2.994  -2.943   6.169  1.00  0.00    -0.084 Cl
ENDBRANCH   7  14
TORSDOF 3
ENDMDL
