MODEL 1
REMARK VINA RESULT:    -5.428      0.000      0.000
REMARK INTER + INTRA:          -8.009
REMARK INTER:                  -7.491
REMARK INTRA:                  -0.518
REMARK UNBOUND:                -0.518
REMARK SMILES Cc1n[nH]c(C)c1CCCOc1cc(C(=O)O)ccc1F
REMARK SMILES IDX 11 1 12 2 14 3 18 4 13 5 19 6 20 7 21 8 15 9 16 10 17 11
REMARK SMILES IDX 10 13 9 14 8 15 7 16 5 17 2 18 4 19 3 20 6 21 1 22
REMARK H PARENT 17 12 4 23
ROOT
ATOM      1  O   UNL     1       3.246   3.898  -7.329  1.00  0.00    -0.490 OA
ENDROOT
BRANCH   1   2
ATOM      2  C   UNL     1       2.663   3.868  -6.101  1.00  0.00     0.155 A 
ATOM      3  C   UNL     1       2.802   4.150  -3.717  1.00  0.00     0.063 A 
ATOM      4  C   UNL     1       1.451   3.811  -3.602  1.00  0.00     0.019 A 
ATOM      5  C   UNL     1       3.405   4.177  -4.976  1.00  0.00     0.065 A 
ATOM      6  C   UNL     1       0.718   3.511  -4.731  1.00  0.00     0.044 A 
ATOM      7  C   UNL     1       1.317   3.543  -5.979  1.00  0.00     0.165 A 
ATOM      8  F   UNL     1       0.593   3.247  -7.081  1.00  0.00    -0.203 F 
BRANCH   3   9
ATOM      9  C   UNL     1       3.590   4.473  -2.511  1.00  0.00     0.335 C 
ATOM     10  O   UNL     1       4.798   4.354  -2.525  1.00  0.00    -0.246 OA
BRANCH   9  11
ATOM     11  O   UNL     1       2.968   4.905  -1.397  1.00  0.00    -0.478 OA
ATOM     12  H   UNL     1       3.386   4.693  -0.550  1.00  0.00     0.297 HD
ENDBRANCH   9  11
ENDBRANCH   3   9
ENDBRANCH   1   2
BRANCH   1  13
ATOM     13  C   UNL     1       2.793   4.905  -8.238  1.00  0.00     0.230 C 
BRANCH  13  14
ATOM     14  C   UNL     1       3.948   5.855  -8.561  1.00  0.00     0.046 C 
BRANCH  14  15
ATOM     15  C   UNL     1       3.802   7.135  -7.734  1.00  0.00     0.043 C 
BRANCH  15  16
ATOM     16  C   UNL     1       4.565   8.252  -8.397  1.00  0.00    -0.004 A 
ATOM     17  C   UNL     1       5.893   8.486  -8.284  1.00  0.00     0.036 A 
ATOM     18  C   UNL     1       4.027   9.227  -9.245  1.00  0.00     0.063 A 
ATOM     19  N   UNL     1       6.184   9.575  -9.027  1.00  0.00    -0.282 N 
ATOM     20  N   UNL     1       4.995  10.024  -9.617  1.00  0.00    -0.181 NA
ATOM     21  C   UNL     1       6.871   7.677  -7.473  1.00  0.00     0.066 C 
ATOM     22  C   UNL     1       2.580   9.346  -9.649  1.00  0.00     0.069 C 
ATOM     23  H   UNL     1       7.060   9.975  -9.133  1.00  0.00     0.190 HD
ENDBRANCH  15  16
ENDBRANCH  14  15
ENDBRANCH  13  14
ENDBRANCH   1  13
TORSDOF 7
ENDMDL
MODEL 2
REMARK VINA RESULT:    -5.368      2.167      3.778
REMARK INTER + INTRA:          -7.927
REMARK INTER:                  -7.300
REMARK INTRA:                  -0.627
REMARK UNBOUND:                -0.518
REMARK SMILES Cc1n[nH]c(C)c1CCCOc1cc(C(=O)O)ccc1F
REMARK SMILES IDX 11 1 12 2 14 3 18 4 13 5 19 6 20 7 21 8 15 9 16 10 17 11
REMARK SMILES IDX 10 13 9 14 8 15 7 16 5 17 2 18 4 19 3 20 6 21 1 22
REMARK H PARENT 17 12 4 23
ROOT
ATOM      1  O   UNL     1       3.919   6.080  -4.798  1.00  0.00    -0.490 OA
ENDROOT
BRANCH   1   2
ATOM      2  C   UNL     1       2.961   5.138  -4.587  1.00  0.00     0.155 A 
ATOM      3  C   UNL     1       1.068   3.875  -5.363  1.00  0.00     0.063 A 
ATOM      4  C   UNL     1       1.018   3.204  -4.138  1.00  0.00     0.019 A 
ATOM      5  C   UNL     1       2.047   4.846  -5.582  1.00  0.00     0.065 A 
ATOM      6  C   UNL     1       1.938   3.498  -3.153  1.00  0.00     0.044 A 
ATOM      7  C   UNL     1       2.911   4.458  -3.375  1.00  0.00     0.165 A 
ATOM      8  F   UNL     1       3.810   4.741  -2.406  1.00  0.00    -0.203 F 
BRANCH   3   9
ATOM      9  C   UNL     1       0.085   3.563  -6.419  1.00  0.00     0.335 C 
ATOM     10  O   UNL     1      -0.586   4.449  -6.906  1.00  0.00    -0.246 OA
BRANCH   9  11
ATOM     11  O   UNL     1      -0.063   2.293  -6.847  1.00  0.00    -0.478 OA
ATOM     12  H   UNL     1      -0.367   2.169  -7.757  1.00  0.00     0.297 HD
ENDBRANCH   9  11
ENDBRANCH   3   9
ENDBRANCH   1   2
BRANCH   1  13
ATOM     13  C   UNL     1       3.542   7.444  -4.598  1.00  0.00     0.230 C 
BRANCH  13  14
ATOM     14  C   UNL     1       4.229   8.321  -5.647  1.00  0.00     0.046 C 
BRANCH  14  15
ATOM     15  C   UNL     1       4.465   7.504  -6.919  1.00  0.00     0.043 C 
BRANCH  15  16
ATOM     16  C   UNL     1       5.101   8.379  -7.968  1.00  0.00    -0.004 A 
ATOM     17  C   UNL     1       4.446   9.099  -8.908  1.00  0.00     0.036 A 
ATOM     18  C   UNL     1       6.472   8.597  -8.138  1.00  0.00     0.063 A 
ATOM     19  N   UNL     1       5.370   9.744  -9.651  1.00  0.00    -0.282 N 
ATOM     20  N   UNL     1       6.635   9.409  -9.151  1.00  0.00    -0.181 NA
ATOM     21  C   UNL     1       2.952   9.169  -9.093  1.00  0.00     0.066 C 
ATOM     22  C   UNL     1       7.573   7.990  -7.306  1.00  0.00     0.069 C 
ATOM     23  H   UNL     1       5.191  10.333 -10.400  1.00  0.00     0.190 HD
ENDBRANCH  15  16
ENDBRANCH  14  15
ENDBRANCH  13  14
ENDBRANCH   1  13
TORSDOF 7
ENDMDL
MODEL 3
REMARK VINA RESULT:    -4.624     10.106     11.495
REMARK INTER + INTRA:          -6.899
REMARK INTER:                  -5.173
REMARK INTRA:                  -1.726
REMARK UNBOUND:                -0.518
REMARK SMILES Cc1n[nH]c(C)c1CCCOc1cc(C(=O)O)ccc1F
REMARK SMILES IDX 11 1 12 2 14 3 18 4 13 5 19 6 20 7 21 8 15 9 16 10 17 11
REMARK SMILES IDX 10 13 9 14 8 15 7 16 5 17 2 18 4 19 3 20 6 21 1 22
REMARK H PARENT 17 12 4 23
ROOT
ATOM      1  O   UNL     1       3.997  16.002 -13.372  1.00  0.00    -0.490 OA
ENDROOT
BRANCH   1   2
ATOM      2  C   UNL     1       2.955  15.458 -12.689  1.00  0.00     0.155 A 
ATOM      3  C   UNL     1       0.597  15.040 -12.463  1.00  0.00     0.063 A 
ATOM      4  C   UNL     1       0.840  14.330 -11.284  1.00  0.00     0.019 A 
ATOM      5  C   UNL     1       1.665  15.604 -13.164  1.00  0.00     0.065 A 
ATOM      6  C   UNL     1       2.131  14.184 -10.821  1.00  0.00     0.044 A 
ATOM      7  C   UNL     1       3.189  14.740 -11.521  1.00  0.00     0.165 A 
ATOM      8  F   UNL     1       4.451  14.594 -11.062  1.00  0.00    -0.203 F 
BRANCH   3   9
ATOM      9  C   UNL     1      -0.783  15.198 -12.961  1.00  0.00     0.335 C 
ATOM     10  O   UNL     1      -1.075  16.155 -13.648  1.00  0.00    -0.246 OA
BRANCH   9  11
ATOM     11  O   UNL     1      -1.717  14.275 -12.659  1.00  0.00    -0.478 OA
ATOM     12  H   UNL     1      -1.518  13.356 -12.888  1.00  0.00     0.297 HD
ENDBRANCH   9  11
ENDBRANCH   3   9
ENDBRANCH   1   2
BRANCH   1  13
ATOM     13  C   UNL     1       4.532  15.237 -14.456  1.00  0.00     0.230 C 
BRANCH  13  14
ATOM     14  C   UNL     1       5.954  14.793 -14.112  1.00  0.00     0.046 C 
BRANCH  14  15
ATOM     15  C   UNL     1       6.142  13.328 -14.511  1.00  0.00     0.043 C 
BRANCH  15  16
ATOM     16  C   UNL     1       5.862  12.443 -13.324  1.00  0.00    -0.004 A 
ATOM     17  C   UNL     1       4.756  11.686 -13.138  1.00  0.00     0.036 A 
ATOM     18  C   UNL     1       6.703  12.255 -12.221  1.00  0.00     0.063 A 
ATOM     19  N   UNL     1       4.889  11.046 -11.957  1.00  0.00    -0.282 N 
ATOM     20  N   UNL     1       6.118  11.423 -11.398  1.00  0.00    -0.181 NA
ATOM     21  C   UNL     1       3.586  11.576 -14.081  1.00  0.00     0.066 C 
ATOM     22  C   UNL     1       8.045  12.908 -12.012  1.00  0.00     0.069 C 
ATOM     23  H   UNL     1       4.248  10.434 -11.564  1.00  0.00     0.190 HD
ENDBRANCH  15  16
ENDBRANCH  14  15
ENDBRANCH  13  14
ENDBRANCH   1  13
TORSDOF 7
ENDMDL
MODEL 4
REMARK VINA RESULT:    -4.508      3.296      4.626
REMARK INTER + INTRA:          -6.739
REMARK INTER:                  -6.129
REMARK INTRA:                  -0.611
REMARK UNBOUND:                -0.518
REMARK SMILES Cc1n[nH]c(C)c1CCCOc1cc(C(=O)O)ccc1F
REMARK SMILES IDX 11 1 12 2 14 3 18 4 13 5 19 6 20 7 21 8 15 9 16 10 17 11
REMARK SMILES IDX 10 13 9 14 8 15 7 16 5 17 2 18 4 19 3 20 6 21 1 22
REMARK H PARENT 17 12 4 23
ROOT
ATOM      1  O   UNL     1       4.198   8.419  -8.571  1.00  0.00    -0.490 OA
ENDROOT
BRANCH   1   2
ATOM      2  C   UNL     1       3.877   7.439  -7.685  1.00  0.00     0.155 A 
ATOM      3  C   UNL     1       3.427   6.725  -5.433  1.00  0.00     0.063 A 
ATOM      4  C   UNL     1       3.211   5.423  -5.893  1.00  0.00     0.019 A 
ATOM      5  C   UNL     1       3.761   7.734  -6.339  1.00  0.00     0.065 A 
ATOM      6  C   UNL     1       3.323   5.140  -7.238  1.00  0.00     0.044 A 
ATOM      7  C   UNL     1       3.650   6.143  -8.135  1.00  0.00     0.165 A 
ATOM      8  F   UNL     1       3.758   5.859  -9.452  1.00  0.00    -0.203 F 
BRANCH   3   9
ATOM      9  C   UNL     1       3.307   7.032  -3.994  1.00  0.00     0.335 C 
ATOM     10  O   UNL     1       3.077   6.143  -3.201  1.00  0.00    -0.246 OA
BRANCH   9  11
ATOM     11  O   UNL     1       3.460   8.299  -3.561  1.00  0.00    -0.478 OA
ATOM     12  H   UNL     1       2.654   8.796  -3.363  1.00  0.00     0.297 HD
ENDBRANCH   9  11
ENDBRANCH   3   9
ENDBRANCH   1   2
BRANCH   1  13
ATOM     13  C   UNL     1       3.199   9.409  -8.833  1.00  0.00     0.230 C 
BRANCH  13  14
ATOM     14  C   UNL     1       3.098   9.643 -10.341  1.00  0.00     0.046 C 
BRANCH  14  15
ATOM     15  C   UNL     1       4.023  10.794 -10.742  1.00  0.00     0.043 C 
BRANCH  15  16
ATOM     16  C   UNL     1       3.272  11.759 -11.623  1.00  0.00    -0.004 A 
ATOM     17  C   UNL     1       3.351  11.831 -12.972  1.00  0.00     0.036 A 
ATOM     18  C   UNL     1       2.366  12.733 -11.193  1.00  0.00     0.063 A 
ATOM     19  N   UNL     1       2.529  12.821 -13.380  1.00  0.00    -0.282 N 
ATOM     20  N   UNL     1       1.925  13.375 -12.244  1.00  0.00    -0.181 NA
ATOM     21  C   UNL     1       4.204  10.963 -13.860  1.00  0.00     0.066 C 
ATOM     22  C   UNL     1       1.974  13.005  -9.763  1.00  0.00     0.069 C 
ATOM     23  H   UNL     1       2.383  13.100 -14.297  1.00  0.00     0.190 HD
ENDBRANCH  15  16
ENDBRANCH  14  15
ENDBRANCH  13  14
ENDBRANCH   1  13
TORSDOF 7
ENDMDL
MODEL 5
REMARK VINA RESULT:    -4.485      3.618      5.459
REMARK INTER + INTRA:          -6.708
REMARK INTER:                  -6.125
REMARK INTRA:                  -0.583
REMARK UNBOUND:                -0.518
REMARK SMILES Cc1n[nH]c(C)c1CCCOc1cc(C(=O)O)ccc1F
REMARK SMILES IDX 11 1 12 2 14 3 18 4 13 5 19 6 20 7 21 8 15 9 16 10 17 11
REMARK SMILES IDX 10 13 9 14 8 15 7 16 5 17 2 18 4 19 3 20 6 21 1 22
REMARK H PARENT 17 12 4 23
ROOT
ATOM      1  O   UNL     1       4.204   8.768  -8.528  1.00  0.00    -0.490 OA
ENDROOT
BRANCH   1   2
ATOM      2  C   UNL     1       3.942   7.698  -7.731  1.00  0.00     0.155 A 
ATOM      3  C   UNL     1       3.288   5.399  -7.472  1.00  0.00     0.063 A 
ATOM      4  C   UNL     1       3.422   5.521  -6.086  1.00  0.00     0.019 A 
ATOM      5  C   UNL     1       3.551   6.497  -8.293  1.00  0.00     0.065 A 
ATOM      6  C   UNL     1       3.817   6.722  -5.535  1.00  0.00     0.044 A 
ATOM      7  C   UNL     1       4.083   7.808  -6.352  1.00  0.00     0.165 A 
ATOM      8  F   UNL     1       4.470   8.982  -5.806  1.00  0.00    -0.203 F 
BRANCH   3   9
ATOM      9  C   UNL     1       2.865   4.115  -8.065  1.00  0.00     0.335 C 
ATOM     10  O   UNL     1       2.190   3.341  -7.419  1.00  0.00    -0.246 OA
BRANCH   9  11
ATOM     11  O   UNL     1       3.223   3.806  -9.327  1.00  0.00    -0.478 OA
ATOM     12  H   UNL     1       2.842   3.002  -9.707  1.00  0.00     0.297 HD
ENDBRANCH   9  11
ENDBRANCH   3   9
ENDBRANCH   1   2
BRANCH   1  13
ATOM     13  C   UNL     1       3.086   9.558  -8.941  1.00  0.00     0.230 C 
BRANCH  13  14
ATOM     14  C   UNL     1       3.125   9.741 -10.459  1.00  0.00     0.046 C 
BRANCH  14  15
ATOM     15  C   UNL     1       4.013  10.938 -10.807  1.00  0.00     0.043 C 
BRANCH  15  16
ATOM     16  C   UNL     1       3.254  11.885 -11.699  1.00  0.00    -0.004 A 
ATOM     17  C   UNL     1       2.379  12.834 -11.293  1.00  0.00     0.036 A 
ATOM     18  C   UNL     1       3.334  11.944 -13.095  1.00  0.00     0.063 A 
ATOM     19  N   UNL     1       1.917  13.466 -12.392  1.00  0.00    -0.282 N 
ATOM     20  N   UNL     1       2.528  12.886 -13.511  1.00  0.00    -0.181 NA
ATOM     21  C   UNL     1       1.991  13.132  -9.868  1.00  0.00     0.066 C 
ATOM     22  C   UNL     1       4.192  11.064 -13.968  1.00  0.00     0.069 C 
ATOM     23  H   UNL     1       1.275  14.193 -12.405  1.00  0.00     0.190 HD
ENDBRANCH  15  16
ENDBRANCH  14  15
ENDBRANCH  13  14
ENDBRANCH   1  13
TORSDOF 7
ENDMDL
MODEL 6
REMARK VINA RESULT:    -4.462      3.795      6.512
REMARK INTER + INTRA:          -6.675
REMARK INTER:                  -5.868
REMARK INTRA:                  -0.807
REMARK UNBOUND:                -0.518
REMARK SMILES Cc1n[nH]c(C)c1CCCOc1cc(C(=O)O)ccc1F
REMARK SMILES IDX 11 1 12 2 14 3 18 4 13 5 19 6 20 7 21 8 15 9 16 10 17 11
REMARK SMILES IDX 10 13 9 14 8 15 7 16 5 17 2 18 4 19 3 20 6 21 1 22
REMARK H PARENT 17 12 4 23
ROOT
ATOM      1  O   UNL     1       2.740   6.668  -7.203  1.00  0.00    -0.490 OA
ENDROOT
BRANCH   1   2
ATOM      2  C   UNL     1       3.721   7.459  -7.712  1.00  0.00     0.155 A 
ATOM      3  C   UNL     1       6.048   8.036  -7.905  1.00  0.00     0.063 A 
ATOM      4  C   UNL     1       5.713   9.081  -8.771  1.00  0.00     0.019 A 
ATOM      5  C   UNL     1       5.042   7.224  -7.376  1.00  0.00     0.065 A 
ATOM      6  C   UNL     1       4.393   9.303  -9.104  1.00  0.00     0.044 A 
ATOM      7  C   UNL     1       3.398   8.494  -8.582  1.00  0.00     0.165 A 
ATOM      8  F   UNL     1       2.107   8.717  -8.913  1.00  0.00    -0.203 F 
BRANCH   3   9
ATOM      9  C   UNL     1       7.459   7.795  -7.546  1.00  0.00     0.335 C 
ATOM     10  O   UNL     1       8.136   7.042  -8.216  1.00  0.00    -0.246 OA
BRANCH   9  11
ATOM     11  O   UNL     1       7.997   8.415  -6.478  1.00  0.00    -0.478 OA
ATOM     12  H   UNL     1       7.848   9.368  -6.402  1.00  0.00     0.297 HD
ENDBRANCH   9  11
ENDBRANCH   3   9
ENDBRANCH   1   2
BRANCH   1  13
ATOM     13  C   UNL     1       2.958   5.256  -7.243  1.00  0.00     0.230 C 
BRANCH  13  14
ATOM     14  C   UNL     1       1.851   4.546  -6.462  1.00  0.00     0.046 C 
BRANCH  14  15
ATOM     15  C   UNL     1       1.345   5.464  -5.347  1.00  0.00     0.043 C 
BRANCH  15  16
ATOM     16  C   UNL     1       2.118   5.194  -4.082  1.00  0.00    -0.004 A 
ATOM     17  C   UNL     1       2.076   4.055  -3.352  1.00  0.00     0.036 A 
ATOM     18  C   UNL     1       3.011   6.072  -3.459  1.00  0.00     0.063 A 
ATOM     19  N   UNL     1       2.908   4.210  -2.300  1.00  0.00    -0.282 N 
ATOM     20  N   UNL     1       3.479   5.487  -2.387  1.00  0.00    -0.181 NA
ATOM     21  C   UNL     1       1.250   2.833  -3.658  1.00  0.00     0.066 C 
ATOM     22  C   UNL     1       3.362   7.459  -3.934  1.00  0.00     0.069 C 
ATOM     23  H   UNL     1       3.079   3.555  -1.606  1.00  0.00     0.190 HD
ENDBRANCH  15  16
ENDBRANCH  14  15
ENDBRANCH  13  14
ENDBRANCH   1  13
TORSDOF 7
ENDMDL
MODEL 7
REMARK VINA RESULT:    -4.375      4.732      8.228
REMARK INTER + INTRA:          -6.556
REMARK INTER:                  -5.906
REMARK INTRA:                  -0.650
REMARK UNBOUND:                -0.518
REMARK SMILES Cc1n[nH]c(C)c1CCCOc1cc(C(=O)O)ccc1F
REMARK SMILES IDX 11 1 12 2 14 3 18 4 13 5 19 6 20 7 21 8 15 9 16 10 17 11
REMARK SMILES IDX 10 13 9 14 8 15 7 16 5 17 2 18 4 19 3 20 6 21 1 22
REMARK H PARENT 17 12 4 23
ROOT
ATOM      1  O   UNL     1       3.282   8.737  -9.109  1.00  0.00    -0.490 OA
ENDROOT
BRANCH   1   2
ATOM      2  C   UNL     1       3.211   9.881  -9.840  1.00  0.00     0.155 A 
ATOM      3  C   UNL     1       4.046  11.288 -11.602  1.00  0.00     0.063 A 
ATOM      4  C   UNL     1       3.042  12.220 -11.328  1.00  0.00     0.019 A 
ATOM      5  C   UNL     1       4.125  10.114 -10.850  1.00  0.00     0.065 A 
ATOM      6  C   UNL     1       2.131  11.976 -10.322  1.00  0.00     0.044 A 
ATOM      7  C   UNL     1       2.208  10.809  -9.581  1.00  0.00     0.165 A 
ATOM      8  F   UNL     1       1.312  10.576  -8.597  1.00  0.00    -0.203 F 
BRANCH   3   9
ATOM      9  C   UNL     1       5.023  11.545 -12.679  1.00  0.00     0.335 C 
ATOM     10  O   UNL     1       4.696  12.190 -13.654  1.00  0.00    -0.246 OA
BRANCH   9  11
ATOM     11  O   UNL     1       6.279  11.070 -12.575  1.00  0.00    -0.478 OA
ATOM     12  H   UNL     1       6.386  10.108 -12.570  1.00  0.00     0.297 HD
ENDBRANCH   9  11
ENDBRANCH   3   9
ENDBRANCH   1   2
BRANCH   1  13
ATOM     13  C   UNL     1       4.375   8.618  -8.195  1.00  0.00     0.230 C 
BRANCH  13  14
ATOM     14  C   UNL     1       4.352   7.231  -7.551  1.00  0.00     0.046 C 
BRANCH  14  15
ATOM     15  C   UNL     1       2.940   6.927  -7.044  1.00  0.00     0.043 C 
BRANCH  15  16
ATOM     16  C   UNL     1       2.992   5.782  -6.067  1.00  0.00    -0.004 A 
ATOM     17  C   UNL     1       2.968   4.465  -6.382  1.00  0.00     0.036 A 
ATOM     18  C   UNL     1       3.078   5.889  -4.675  1.00  0.00     0.063 A 
ATOM     19  N   UNL     1       3.031   3.766  -5.229  1.00  0.00    -0.282 N 
ATOM     20  N   UNL     1       3.095   4.682  -4.172  1.00  0.00    -0.181 NA
ATOM     21  C   UNL     1       2.887   3.886  -7.770  1.00  0.00     0.066 C 
ATOM     22  C   UNL     1       3.131   7.175  -3.890  1.00  0.00     0.069 C 
ATOM     23  H   UNL     1       3.031   2.800  -5.148  1.00  0.00     0.190 HD
ENDBRANCH  15  16
ENDBRANCH  14  15
ENDBRANCH  13  14
ENDBRANCH   1  13
TORSDOF 7
ENDMDL
MODEL 8
REMARK VINA RESULT:    -4.344      5.052      7.968
REMARK INTER + INTRA:          -6.512
REMARK INTER:                  -5.898
REMARK INTRA:                  -0.615
REMARK UNBOUND:                -0.518
REMARK SMILES Cc1n[nH]c(C)c1CCCOc1cc(C(=O)O)ccc1F
REMARK SMILES IDX 11 1 12 2 14 3 18 4 13 5 19 6 20 7 21 8 15 9 16 10 17 11
REMARK SMILES IDX 10 13 9 14 8 15 7 16 5 17 2 18 4 19 3 20 6 21 1 22
REMARK H PARENT 17 12 4 23
ROOT
ATOM      1  O   UNL     1       6.627   7.983  -7.274  1.00  0.00    -0.490 OA
ENDROOT
BRANCH   1   2
ATOM      2  C   UNL     1       7.760   8.386  -7.909  1.00  0.00     0.155 A 
ATOM      3  C   UNL     1       9.100  10.128  -8.885  1.00  0.00     0.063 A 
ATOM      4  C   UNL     1      10.086   9.189  -9.197  1.00  0.00     0.019 A 
ATOM      5  C   UNL     1       7.933   9.718  -8.237  1.00  0.00     0.065 A 
ATOM      6  C   UNL     1       9.908   7.864  -8.861  1.00  0.00     0.044 A 
ATOM      7  C   UNL     1       8.752   7.460  -8.214  1.00  0.00     0.165 A 
ATOM      8  F   UNL     1       8.583   6.160  -7.887  1.00  0.00    -0.203 F 
BRANCH   3   9
ATOM      9  C   UNL     1       9.288  11.548  -9.243  1.00  0.00     0.335 C 
ATOM     10  O   UNL     1      10.388  12.054  -9.163  1.00  0.00    -0.246 OA
BRANCH   9  11
ATOM     11  O   UNL     1       8.239  12.280  -9.666  1.00  0.00    -0.478 OA
ATOM     12  H   UNL     1       8.268  12.606 -10.576  1.00  0.00     0.297 HD
ENDBRANCH   9  11
ENDBRANCH   3   9
ENDBRANCH   1   2
BRANCH   1  13
ATOM     13  C   UNL     1       5.452   7.837  -8.075  1.00  0.00     0.230 C 
BRANCH  13  14
ATOM     14  C   UNL     1       4.244   7.597  -7.167  1.00  0.00     0.046 C 
BRANCH  14  15
ATOM     15  C   UNL     1       4.462   6.318  -6.356  1.00  0.00     0.043 C 
BRANCH  15  16
ATOM     16  C   UNL     1       3.132   5.785  -5.890  1.00  0.00    -0.004 A 
ATOM     17  C   UNL     1       2.454   6.189  -4.790  1.00  0.00     0.036 A 
ATOM     18  C   UNL     1       2.376   4.791  -6.520  1.00  0.00     0.063 A 
ATOM     19  N   UNL     1       1.313   5.470  -4.724  1.00  0.00    -0.282 N 
ATOM     20  N   UNL     1       1.290   4.596  -5.818  1.00  0.00    -0.181 NA
ATOM     21  C   UNL     1       2.893   7.250  -3.816  1.00  0.00     0.066 C 
ATOM     22  C   UNL     1       2.755   4.060  -7.783  1.00  0.00     0.069 C 
ATOM     23  H   UNL     1       0.631   5.545  -4.039  1.00  0.00     0.190 HD
ENDBRANCH  15  16
ENDBRANCH  14  15
ENDBRANCH  13  14
ENDBRANCH   1  13
TORSDOF 7
ENDMDL
MODEL 9
REMARK VINA RESULT:    -4.150      8.057     10.342
REMARK INTER + INTRA:          -6.245
REMARK INTER:                  -3.863
REMARK INTRA:                  -2.382
REMARK UNBOUND:                -0.518
REMARK SMILES Cc1n[nH]c(C)c1CCCOc1cc(C(=O)O)ccc1F
REMARK SMILES IDX 11 1 12 2 14 3 18 4 13 5 19 6 20 7 21 8 15 9 16 10 17 11
REMARK SMILES IDX 10 13 9 14 8 15 7 16 5 17 2 18 4 19 3 20 6 21 1 22
REMARK H PARENT 17 12 4 23
ROOT
ATOM      1  O   UNL     1       2.009  14.898 -13.535  1.00  0.00    -0.490 OA
ENDROOT
BRANCH   1   2
ATOM      2  C   UNL     1       2.086  14.200 -12.371  1.00  0.00     0.155 A 
ATOM      3  C   UNL     1       2.895  12.314 -11.117  1.00  0.00     0.063 A 
ATOM      4  C   UNL     1       2.239  12.794  -9.980  1.00  0.00     0.019 A 
ATOM      5  C   UNL     1       2.814  13.026 -12.316  1.00  0.00     0.065 A 
ATOM      6  C   UNL     1       1.521  13.970 -10.043  1.00  0.00     0.044 A 
ATOM      7  C   UNL     1       1.446  14.676 -11.232  1.00  0.00     0.165 A 
ATOM      8  F   UNL     1       0.740  15.827 -11.287  1.00  0.00    -0.203 F 
BRANCH   3   9
ATOM      9  C   UNL     1       3.665  11.057 -11.052  1.00  0.00     0.335 C 
ATOM     10  O   UNL     1       3.086   9.994 -10.954  1.00  0.00    -0.246 OA
BRANCH   9  11
ATOM     11  O   UNL     1       5.011  11.088 -11.109  1.00  0.00    -0.478 OA
ATOM     12  H   UNL     1       5.440  10.461 -11.708  1.00  0.00     0.297 HD
ENDBRANCH   9  11
ENDBRANCH   3   9
ENDBRANCH   1   2
BRANCH   1  13
ATOM     13  C   UNL     1       2.966  15.942 -13.730  1.00  0.00     0.230 C 
BRANCH  13  14
ATOM     14  C   UNL     1       4.082  15.445 -14.651  1.00  0.00     0.046 C 
BRANCH  14  15
ATOM     15  C   UNL     1       5.441  15.819 -14.055  1.00  0.00     0.043 C 
BRANCH  15  16
ATOM     16  C   UNL     1       5.929  14.699 -13.173  1.00  0.00    -0.004 A 
ATOM     17  C   UNL     1       6.420  13.510 -13.593  1.00  0.00     0.036 A 
ATOM     18  C   UNL     1       5.961  14.707 -11.774  1.00  0.00     0.063 A 
ATOM     19  N   UNL     1       6.744  12.789 -12.500  1.00  0.00    -0.282 N 
ATOM     20  N   UNL     1       6.443  13.561 -11.370  1.00  0.00    -0.181 NA
ATOM     21  C   UNL     1       6.576  13.071 -15.026  1.00  0.00     0.066 C 
ATOM     22  C   UNL     1       5.506  15.838 -10.886  1.00  0.00     0.069 C 
ATOM     23  H   UNL     1       7.119  11.895 -12.497  1.00  0.00     0.190 HD
ENDBRANCH  15  16
ENDBRANCH  14  15
ENDBRANCH  13  14
ENDBRANCH   1  13
TORSDOF 7
ENDMDL
