MODEL 1
REMARK VINA RESULT:    -4.205      0.000      0.000
REMARK INTER + INTRA:          -5.104
REMARK INTER:                  -4.820
REMARK INTRA:                  -0.284
REMARK UNBOUND:                -0.284
REMARK SMILES O=C(O)c1ccc2nc(-c3cc(Cl)cc(Cl)c3)oc2c1
REMARK SMILES IDX 5 1 6 2 20 3 8 4 18 5 4 6 9 7 7 8 19 9 2 10 1 11 3 12 10 14
REMARK SMILES IDX 11 15 17 16 12 17 15 18 14 19 13 20 16 21
REMARK H PARENT 3 13
ROOT
ATOM      1  C   UNL     1       2.756  13.279 -12.456  1.00  0.00     0.018 A 
ATOM      2  C   UNL     1       3.619  12.252 -12.216  1.00  0.00     0.033 A 
ATOM      3  C   UNL     1       1.548  12.773 -10.416  1.00  0.00     0.065 A 
ATOM      4  N   UNL     1       4.143  10.403 -10.577  1.00  0.00    -0.209 NA
ATOM      5  O   UNL     1       2.524  10.812  -9.182  1.00  0.00    -0.436 OA
ATOM      6  C   UNL     1       1.713  13.554 -11.561  1.00  0.00     0.063 A 
ATOM      7  C   UNL     1       3.580  10.023  -9.456  1.00  0.00     0.227 A 
ATOM      8  C   UNL     1       3.465  11.461 -11.071  1.00  0.00     0.110 A 
ATOM      9  C   UNL     1       2.419  11.727 -10.171  1.00  0.00     0.156 A 
ENDROOT
BRANCH   6  10
ATOM     10  C   UNL     1       0.790  14.671 -11.828  1.00  0.00     0.335 C 
ATOM     11  O   UNL     1       0.727  15.606 -11.054  1.00  0.00    -0.246 OA
BRANCH  10  12
ATOM     12  O   UNL     1       0.014  14.656 -12.930  1.00  0.00    -0.478 OA
ATOM     13  H   UNL     1       0.081  13.881 -13.504  1.00  0.00     0.297 HD
ENDBRANCH  10  12
ENDBRANCH   6  10
BRANCH   7  14
ATOM     14  C   UNL     1       4.038   8.895  -8.618  1.00  0.00     0.040 A 
ATOM     15  C   UNL     1       5.399   8.713  -8.371  1.00  0.00     0.034 A 
ATOM     16  C   UNL     1       3.109   8.008  -8.072  1.00  0.00     0.034 A 
ATOM     17  C   UNL     1       5.820   7.657  -7.586  1.00  0.00     0.043 A 
ATOM     18  C   UNL     1       3.542   6.956  -7.289  1.00  0.00     0.043 A 
ATOM     19  C   UNL     1       4.894   6.780  -7.047  1.00  0.00     0.041 A 
ATOM     20  Cl  UNL     1       7.512   7.428  -7.277  1.00  0.00    -0.084 Cl
ATOM     21  Cl  UNL     1       2.389   5.851  -6.607  1.00  0.00    -0.084 Cl
ENDBRANCH   7  14
TORSDOF 3
ENDMDL
MODEL 2
REMARK VINA RESULT:    -4.204      0.007      2.019
REMARK INTER + INTRA:          -5.103
REMARK INTER:                  -4.818
REMARK INTRA:                  -0.284
REMARK UNBOUND:                -0.284
REMARK SMILES O=C(O)c1ccc2nc(-c3cc(Cl)cc(Cl)c3)oc2c1
REMARK SMILES IDX 5 1 6 2 20 3 8 4 18 5 4 6 9 7 7 8 19 9 2 10 1 11 3 12 10 14
REMARK SMILES IDX 11 15 17 16 12 17 15 18 14 19 13 20 16 21
REMARK H PARENT 3 13
ROOT
ATOM      1  C   UNL     1       2.758  13.276 -12.457  1.00  0.00     0.018 A 
ATOM      2  C   UNL     1       3.619  12.248 -12.216  1.00  0.00     0.033 A 
ATOM      3  C   UNL     1       1.548  12.773 -10.417  1.00  0.00     0.065 A 
ATOM      4  N   UNL     1       4.139  10.398 -10.576  1.00  0.00    -0.209 NA
ATOM      5  O   UNL     1       2.520  10.810  -9.182  1.00  0.00    -0.436 OA
ATOM      6  C   UNL     1       1.715  13.553 -11.562  1.00  0.00     0.063 A 
ATOM      7  C   UNL     1       3.575  10.020  -9.456  1.00  0.00     0.227 A 
ATOM      8  C   UNL     1       3.463  11.457 -11.071  1.00  0.00     0.110 A 
ATOM      9  C   UNL     1       2.417  11.725 -10.171  1.00  0.00     0.156 A 
ENDROOT
BRANCH   6  10
ATOM     10  C   UNL     1       0.794  14.672 -11.831  1.00  0.00     0.335 C 
ATOM     11  O   UNL     1       0.727  15.603 -11.054  1.00  0.00    -0.246 OA
BRANCH  10  12
ATOM     12  O   UNL     1       0.024  14.661 -12.937  1.00  0.00    -0.478 OA
ATOM     13  H   UNL     1      -0.895  14.380 -12.830  1.00  0.00     0.297 HD
ENDBRANCH  10  12
ENDBRANCH   6  10
BRANCH   7  14
ATOM     14  C   UNL     1       4.030   8.891  -8.617  1.00  0.00     0.040 A 
ATOM     15  C   UNL     1       3.101   8.005  -8.070  1.00  0.00     0.034 A 
ATOM     16  C   UNL     1       5.392   8.709  -8.368  1.00  0.00     0.034 A 
ATOM     17  C   UNL     1       3.533   6.952  -7.289  1.00  0.00     0.043 A 
ATOM     18  C   UNL     1       5.811   7.652  -7.585  1.00  0.00     0.043 A 
ATOM     19  C   UNL     1       4.885   6.776  -7.045  1.00  0.00     0.041 A 
ATOM     20  Cl  UNL     1       2.380   5.848  -6.608  1.00  0.00    -0.084 Cl
ATOM     21  Cl  UNL     1       7.504   7.423  -7.274  1.00  0.00    -0.084 Cl
ENDBRANCH   7  14
TORSDOF 3
ENDMDL
MODEL 3
REMARK VINA RESULT:    -3.906      3.847      7.446
REMARK INTER + INTRA:          -4.761
REMARK INTER:                  -4.481
REMARK INTRA:                  -0.280
REMARK UNBOUND:                -0.284
REMARK SMILES O=C(O)c1ccc2nc(-c3cc(Cl)cc(Cl)c3)oc2c1
REMARK SMILES IDX 5 1 6 2 20 3 8 4 18 5 4 6 9 7 7 8 19 9 2 10 1 11 3 12 10 14
REMARK SMILES IDX 11 15 17 16 12 17 15 18 14 19 13 20 16 21
REMARK H PARENT 3 13
ROOT
ATOM      1  C   UNL     1       5.285   7.150  -7.069  1.00  0.00     0.018 A 
ATOM      2  C   UNL     1       5.698   8.179  -7.863  1.00  0.00     0.033 A 
ATOM      3  C   UNL     1       3.015   7.403  -7.883  1.00  0.00     0.065 A 
ATOM      4  N   UNL     1       4.884   9.871  -9.553  1.00  0.00    -0.209 NA
ATOM      5  O   UNL     1       2.795   9.263  -9.559  1.00  0.00    -0.436 OA
ATOM      6  C   UNL     1       3.942   6.748  -7.070  1.00  0.00     0.063 A 
ATOM      7  C   UNL     1       3.706  10.114 -10.070  1.00  0.00     0.227 A 
ATOM      8  C   UNL     1       4.778   8.844  -8.683  1.00  0.00     0.110 A 
ATOM      9  C   UNL     1       3.428   8.450  -8.685  1.00  0.00     0.156 A 
ENDROOT
BRANCH   6  10
ATOM     10  C   UNL     1       3.508   5.631  -6.213  1.00  0.00     0.335 C 
ATOM     11  O   UNL     1       3.538   5.746  -5.004  1.00  0.00    -0.246 OA
BRANCH  10  12
ATOM     12  O   UNL     1       3.080   4.480  -6.769  1.00  0.00    -0.478 OA
ATOM     13  H   UNL     1       3.498   3.663  -6.466  1.00  0.00     0.297 HD
ENDBRANCH  10  12
ENDBRANCH   6  10
BRANCH   7  14
ATOM     14  C   UNL     1       3.418  11.167 -11.066  1.00  0.00     0.040 A 
ATOM     15  C   UNL     1       4.020  11.125 -12.324  1.00  0.00     0.034 A 
ATOM     16  C   UNL     1       2.544  12.209 -10.750  1.00  0.00     0.034 A 
ATOM     17  C   UNL     1       3.746  12.112 -13.250  1.00  0.00     0.043 A 
ATOM     18  C   UNL     1       2.278  13.190 -11.685  1.00  0.00     0.043 A 
ATOM     19  C   UNL     1       2.878  13.143 -12.931  1.00  0.00     0.041 A 
ATOM     20  Cl  UNL     1       4.492  12.062 -14.817  1.00  0.00    -0.084 Cl
ATOM     21  Cl  UNL     1       1.191  14.487 -11.295  1.00  0.00    -0.084 Cl
ENDBRANCH   7  14
TORSDOF 3
ENDMDL
MODEL 4
REMARK VINA RESULT:    -3.897      3.848      7.589
REMARK INTER + INTRA:          -4.750
REMARK INTER:                  -4.470
REMARK INTRA:                  -0.280
REMARK UNBOUND:                -0.284
REMARK SMILES O=C(O)c1ccc2nc(-c3cc(Cl)cc(Cl)c3)oc2c1
REMARK SMILES IDX 5 1 6 2 20 3 8 4 18 5 4 6 9 7 7 8 19 9 2 10 1 11 3 12 10 14
REMARK SMILES IDX 11 15 17 16 12 17 15 18 14 19 13 20 16 21
REMARK H PARENT 3 13
ROOT
ATOM      1  C   UNL     1       5.291   7.152  -7.069  1.00  0.00     0.018 A 
ATOM      2  C   UNL     1       5.703   8.181  -7.862  1.00  0.00     0.033 A 
ATOM      3  C   UNL     1       3.020   7.402  -7.882  1.00  0.00     0.065 A 
ATOM      4  N   UNL     1       4.887   9.872  -9.553  1.00  0.00    -0.209 NA
ATOM      5  O   UNL     1       2.798   9.262  -9.559  1.00  0.00    -0.436 OA
ATOM      6  C   UNL     1       3.949   6.749  -7.070  1.00  0.00     0.063 A 
ATOM      7  C   UNL     1       3.707  10.114 -10.069  1.00  0.00     0.227 A 
ATOM      8  C   UNL     1       4.782   8.845  -8.682  1.00  0.00     0.110 A 
ATOM      9  C   UNL     1       3.433   8.450  -8.685  1.00  0.00     0.156 A 
ENDROOT
BRANCH   6  10
ATOM     10  C   UNL     1       3.517   5.630  -6.212  1.00  0.00     0.335 C 
ATOM     11  O   UNL     1       3.571   5.736  -5.003  1.00  0.00    -0.246 OA
BRANCH  10  12
ATOM     12  O   UNL     1       3.063   4.490  -6.768  1.00  0.00    -0.478 OA
ATOM     13  H   UNL     1       3.481   4.206  -7.592  1.00  0.00     0.297 HD
ENDBRANCH  10  12
ENDBRANCH   6  10
BRANCH   7  14
ATOM     14  C   UNL     1       3.419  11.167 -11.065  1.00  0.00     0.040 A 
ATOM     15  C   UNL     1       2.547  12.209 -10.750  1.00  0.00     0.034 A 
ATOM     16  C   UNL     1       4.017  11.121 -12.326  1.00  0.00     0.034 A 
ATOM     17  C   UNL     1       2.282  13.191 -11.684  1.00  0.00     0.043 A 
ATOM     18  C   UNL     1       3.744  12.108 -13.252  1.00  0.00     0.043 A 
ATOM     19  C   UNL     1       2.878  13.140 -12.933  1.00  0.00     0.041 A 
ATOM     20  Cl  UNL     1       1.199  14.490 -11.294  1.00  0.00    -0.084 Cl
ATOM     21  Cl  UNL     1       4.487  12.053 -14.821  1.00  0.00    -0.084 Cl
ENDBRANCH   7  14
TORSDOF 3
ENDMDL
MODEL 5
REMARK VINA RESULT:    -3.662      3.472      5.269
REMARK INTER + INTRA:          -4.481
REMARK INTER:                  -4.185
REMARK INTRA:                  -0.296
REMARK UNBOUND:                -0.284
REMARK SMILES O=C(O)c1ccc2nc(-c3cc(Cl)cc(Cl)c3)oc2c1
REMARK SMILES IDX 5 1 6 2 20 3 8 4 18 5 4 6 9 7 7 8 19 9 2 10 1 11 3 12 10 14
REMARK SMILES IDX 11 15 17 16 12 17 15 18 14 19 13 20 16 21
REMARK H PARENT 3 13
ROOT
ATOM      1  C   UNL     1       5.569   9.346  -9.143  1.00  0.00     0.018 A 
ATOM      2  C   UNL     1       5.746   8.438  -8.142  1.00  0.00     0.033 A 
ATOM      3  C   UNL     1       3.176   8.959  -9.104  1.00  0.00     0.065 A 
ATOM      4  N   UNL     1       4.504   6.841  -6.629  1.00  0.00    -0.209 NA
ATOM      5  O   UNL     1       2.506   7.249  -7.387  1.00  0.00    -0.436 OA
ATOM      6  C   UNL     1       4.285   9.620  -9.634  1.00  0.00     0.063 A 
ATOM      7  C   UNL     1       3.235   6.537  -6.507  1.00  0.00     0.227 A 
ATOM      8  C   UNL     1       4.641   7.768  -7.601  1.00  0.00     0.110 A 
ATOM      9  C   UNL     1       3.351   8.034  -8.092  1.00  0.00     0.156 A 
ENDROOT
BRANCH   6  10
ATOM     10  C   UNL     1       4.106  10.608 -10.713  1.00  0.00     0.335 C 
ATOM     11  O   UNL     1       2.989  10.886 -11.103  1.00  0.00    -0.246 OA
BRANCH  10  12
ATOM     12  O   UNL     1       5.180  11.203 -11.268  1.00  0.00    -0.478 OA
ATOM     13  H   UNL     1       6.045  10.982 -10.897  1.00  0.00     0.297 HD
ENDBRANCH  10  12
ENDBRANCH   6  10
BRANCH   7  14
ATOM     14  C   UNL     1       2.687   5.558  -5.546  1.00  0.00     0.040 A 
ATOM     15  C   UNL     1       3.354   5.303  -4.348  1.00  0.00     0.034 A 
ATOM     16  C   UNL     1       1.498   4.884  -5.834  1.00  0.00     0.034 A 
ATOM     17  C   UNL     1       2.836   4.387  -3.453  1.00  0.00     0.043 A 
ATOM     18  C   UNL     1       0.990   3.971  -4.932  1.00  0.00     0.043 A 
ATOM     19  C   UNL     1       1.657   3.722  -3.745  1.00  0.00     0.041 A 
ATOM     20  Cl  UNL     1       3.665   4.068  -1.962  1.00  0.00    -0.084 Cl
ATOM     21  Cl  UNL     1      -0.488   3.132  -5.288  1.00  0.00    -0.084 Cl
ENDBRANCH   7  14
TORSDOF 3
ENDMDL
MODEL 6
REMARK VINA RESULT:    -3.659      3.472      5.535
REMARK INTER + INTRA:          -4.478
REMARK INTER:                  -4.182
REMARK INTRA:                  -0.296
REMARK UNBOUND:                -0.284
REMARK SMILES O=C(O)c1ccc2nc(-c3cc(Cl)cc(Cl)c3)oc2c1
REMARK SMILES IDX 5 1 6 2 20 3 8 4 18 5 4 6 9 7 7 8 19 9 2 10 1 11 3 12 10 14
REMARK SMILES IDX 11 15 17 16 12 17 15 18 14 19 13 20 16 21
REMARK H PARENT 3 13
ROOT
ATOM      1  C   UNL     1       5.570   9.346  -9.144  1.00  0.00     0.018 A 
ATOM      2  C   UNL     1       5.747   8.438  -8.143  1.00  0.00     0.033 A 
ATOM      3  C   UNL     1       3.177   8.959  -9.106  1.00  0.00     0.065 A 
ATOM      4  N   UNL     1       4.504   6.841  -6.630  1.00  0.00    -0.209 NA
ATOM      5  O   UNL     1       2.506   7.248  -7.389  1.00  0.00    -0.436 OA
ATOM      6  C   UNL     1       4.287   9.619  -9.636  1.00  0.00     0.063 A 
ATOM      7  C   UNL     1       3.236   6.537  -6.509  1.00  0.00     0.227 A 
ATOM      8  C   UNL     1       4.642   7.768  -7.602  1.00  0.00     0.110 A 
ATOM      9  C   UNL     1       3.352   8.033  -8.093  1.00  0.00     0.156 A 
ENDROOT
BRANCH   6  10
ATOM     10  C   UNL     1       4.108  10.608 -10.715  1.00  0.00     0.335 C 
ATOM     11  O   UNL     1       2.991  10.884 -11.106  1.00  0.00    -0.246 OA
BRANCH  10  12
ATOM     12  O   UNL     1       5.182  11.205 -11.267  1.00  0.00    -0.478 OA
ATOM     13  H   UNL     1       5.580  11.935 -10.775  1.00  0.00     0.297 HD
ENDBRANCH  10  12
ENDBRANCH   6  10
BRANCH   7  14
ATOM     14  C   UNL     1       2.687   5.558  -5.548  1.00  0.00     0.040 A 
ATOM     15  C   UNL     1       1.500   4.884  -5.835  1.00  0.00     0.034 A 
ATOM     16  C   UNL     1       3.355   5.305  -4.348  1.00  0.00     0.034 A 
ATOM     17  C   UNL     1       0.993   3.969  -4.933  1.00  0.00     0.043 A 
ATOM     18  C   UNL     1       2.838   4.388  -3.454  1.00  0.00     0.043 A 
ATOM     19  C   UNL     1       1.660   3.722  -3.745  1.00  0.00     0.041 A 
ATOM     20  Cl  UNL     1      -0.484   3.128  -5.288  1.00  0.00    -0.084 Cl
ATOM     21  Cl  UNL     1       3.667   4.072  -1.962  1.00  0.00    -0.084 Cl
ENDBRANCH   7  14
TORSDOF 3
ENDMDL
MODEL 7
REMARK VINA RESULT:    -3.648      5.006      6.669
REMARK INTER + INTRA:          -4.465
REMARK INTER:                  -4.169
REMARK INTRA:                  -0.296
REMARK UNBOUND:                -0.284
REMARK SMILES O=C(O)c1ccc2nc(-c3cc(Cl)cc(Cl)c3)oc2c1
REMARK SMILES IDX 5 1 6 2 20 3 8 4 18 5 4 6 9 7 7 8 19 9 2 10 1 11 3 12 10 14
REMARK SMILES IDX 11 15 17 16 12 17 15 18 14 19 13 20 16 21
REMARK H PARENT 3 13
ROOT
ATOM      1  C   UNL     1       5.421   9.394  -9.103  1.00  0.00     0.018 A 
ATOM      2  C   UNL     1       4.227   8.809  -8.804  1.00  0.00     0.033 A 
ATOM      3  C   UNL     1       6.547   7.978  -7.489  1.00  0.00     0.065 A 
ATOM      4  N   UNL     1       3.157   7.050  -7.340  1.00  0.00    -0.209 NA
ATOM      5  O   UNL     1       4.968   6.411  -6.317  1.00  0.00    -0.436 OA
ATOM      6  C   UNL     1       6.595   8.986  -8.453  1.00  0.00     0.063 A 
ATOM      7  C   UNL     1       3.640   6.230  -6.440  1.00  0.00     0.227 A 
ATOM      8  C   UNL     1       4.166   7.797  -7.838  1.00  0.00     0.110 A 
ATOM      9  C   UNL     1       5.337   7.385  -7.178  1.00  0.00     0.156 A 
ENDROOT
BRANCH   6  10
ATOM     10  C   UNL     1       7.881   9.622  -8.790  1.00  0.00     0.335 C 
ATOM     11  O   UNL     1       8.919   9.157  -8.361  1.00  0.00    -0.246 OA
BRANCH  10  12
ATOM     12  O   UNL     1       7.907  10.719  -9.572  1.00  0.00    -0.478 OA
ATOM     13  H   UNL     1       7.768  11.571  -9.138  1.00  0.00     0.297 HD
ENDBRANCH  10  12
ENDBRANCH   6  10
BRANCH   7  14
ATOM     14  C   UNL     1       2.842   5.252  -5.671  1.00  0.00     0.040 A 
ATOM     15  C   UNL     1       1.639   4.770  -6.186  1.00  0.00     0.034 A 
ATOM     16  C   UNL     1       3.291   4.807  -4.426  1.00  0.00     0.034 A 
ATOM     17  C   UNL     1       0.899   3.855  -5.463  1.00  0.00     0.043 A 
ATOM     18  C   UNL     1       2.542   3.892  -3.713  1.00  0.00     0.043 A 
ATOM     19  C   UNL     1       1.349   3.418  -4.229  1.00  0.00     0.041 A 
ATOM     20  Cl  UNL     1      -0.599   3.253  -6.102  1.00  0.00    -0.084 Cl
ATOM     21  Cl  UNL     1       3.098   3.338  -2.164  1.00  0.00    -0.084 Cl
ENDBRANCH   7  14
TORSDOF 3
ENDMDL
MODEL 8
REMARK VINA RESULT:    -3.640      5.011      6.498
REMARK INTER + INTRA:          -4.456
REMARK INTER:                  -4.160
REMARK INTRA:                  -0.296
REMARK UNBOUND:                -0.284
REMARK SMILES O=C(O)c1ccc2nc(-c3cc(Cl)cc(Cl)c3)oc2c1
REMARK SMILES IDX 5 1 6 2 20 3 8 4 18 5 4 6 9 7 7 8 19 9 2 10 1 11 3 12 10 14
REMARK SMILES IDX 11 15 17 16 12 17 15 18 14 19 13 20 16 21
REMARK H PARENT 3 13
ROOT
ATOM      1  C   UNL     1       5.430   9.387  -9.113  1.00  0.00     0.018 A 
ATOM      2  C   UNL     1       4.234   8.804  -8.818  1.00  0.00     0.033 A 
ATOM      3  C   UNL     1       6.548   7.962  -7.500  1.00  0.00     0.065 A 
ATOM      4  N   UNL     1       3.155   7.043  -7.363  1.00  0.00    -0.209 NA
ATOM      5  O   UNL     1       4.962   6.396  -6.337  1.00  0.00    -0.436 OA
ATOM      6  C   UNL     1       6.601   8.973  -8.461  1.00  0.00     0.063 A 
ATOM      7  C   UNL     1       3.633   6.219  -6.463  1.00  0.00     0.227 A 
ATOM      8  C   UNL     1       4.167   7.789  -7.856  1.00  0.00     0.110 A 
ATOM      9  C   UNL     1       5.336   7.372  -7.194  1.00  0.00     0.156 A 
ENDROOT
BRANCH   6  10
ATOM     10  C   UNL     1       7.890   9.607  -8.792  1.00  0.00     0.335 C 
ATOM     11  O   UNL     1       8.925   9.137  -8.363  1.00  0.00    -0.246 OA
BRANCH  10  12
ATOM     12  O   UNL     1       7.921  10.707  -9.571  1.00  0.00    -0.478 OA
ATOM     13  H   UNL     1       8.055  10.571 -10.518  1.00  0.00     0.297 HD
ENDBRANCH  10  12
ENDBRANCH   6  10
BRANCH   7  14
ATOM     14  C   UNL     1       2.831   5.241  -5.700  1.00  0.00     0.040 A 
ATOM     15  C   UNL     1       3.273   4.791  -4.455  1.00  0.00     0.034 A 
ATOM     16  C   UNL     1       1.628   4.762  -6.222  1.00  0.00     0.034 A 
ATOM     17  C   UNL     1       2.518   3.878  -3.746  1.00  0.00     0.043 A 
ATOM     18  C   UNL     1       0.882   3.849  -5.504  1.00  0.00     0.043 A 
ATOM     19  C   UNL     1       1.326   3.407  -4.269  1.00  0.00     0.041 A 
ATOM     20  Cl  UNL     1       3.066   3.318  -2.197  1.00  0.00    -0.084 Cl
ATOM     21  Cl  UNL     1      -0.614   3.252  -6.151  1.00  0.00    -0.084 Cl
ENDBRANCH   7  14
TORSDOF 3
ENDMDL
MODEL 9
REMARK VINA RESULT:    -3.560      5.004      8.617
REMARK INTER + INTRA:          -4.365
REMARK INTER:                  -4.067
REMARK INTRA:                  -0.298
REMARK UNBOUND:                -0.284
REMARK SMILES O=C(O)c1ccc2nc(-c3cc(Cl)cc(Cl)c3)oc2c1
REMARK SMILES IDX 5 1 6 2 20 3 8 4 18 5 4 6 9 7 7 8 19 9 2 10 1 11 3 12 10 14
REMARK SMILES IDX 11 15 17 16 12 17 15 18 14 19 13 20 16 21
REMARK H PARENT 3 13
ROOT
ATOM      1  C   UNL     1       2.500   3.760  -3.473  1.00  0.00     0.018 A 
ATOM      2  C   UNL     1       3.588   4.490  -3.849  1.00  0.00     0.033 A 
ATOM      3  C   UNL     1       1.223   4.666  -5.324  1.00  0.00     0.065 A 
ATOM      4  N   UNL     1       4.404   6.149  -5.571  1.00  0.00    -0.209 NA
ATOM      5  O   UNL     1       2.556   6.284  -6.712  1.00  0.00    -0.436 OA
ATOM      6  C   UNL     1       1.307   3.836  -4.205  1.00  0.00     0.063 A 
ATOM      7  C   UNL     1       3.828   6.713  -6.603  1.00  0.00     0.227 A 
ATOM      8  C   UNL     1       3.517   5.326  -4.970  1.00  0.00     0.110 A 
ATOM      9  C   UNL     1       2.323   5.412  -5.706  1.00  0.00     0.156 A 
ENDROOT
BRANCH   6  10
ATOM     10  C   UNL     1       0.139   3.037  -3.792  1.00  0.00     0.335 C 
ATOM     11  O   UNL     1       0.221   2.290  -2.838  1.00  0.00    -0.246 OA
BRANCH  10  12
ATOM     12  O   UNL     1      -1.019   3.134  -4.475  1.00  0.00    -0.478 OA
ATOM     13  H   UNL     1      -1.233   2.413  -5.082  1.00  0.00     0.297 HD
ENDBRANCH  10  12
ENDBRANCH   6  10
BRANCH   7  14
ATOM     14  C   UNL     1       4.478   7.678  -7.513  1.00  0.00     0.040 A 
ATOM     15  C   UNL     1       5.865   7.829  -7.500  1.00  0.00     0.034 A 
ATOM     16  C   UNL     1       3.706   8.445  -8.389  1.00  0.00     0.034 A 
ATOM     17  C   UNL     1       6.467   8.732  -8.354  1.00  0.00     0.043 A 
ATOM     18  C   UNL     1       4.320   9.345  -9.237  1.00  0.00     0.043 A 
ATOM     19  C   UNL     1       5.696   9.489  -9.220  1.00  0.00     0.041 A 
ATOM     20  Cl  UNL     1       8.193   8.920  -8.340  1.00  0.00    -0.084 Cl
ATOM     21  Cl  UNL     1       3.362  10.299 -10.327  1.00  0.00    -0.084 Cl
ENDBRANCH   7  14
TORSDOF 3
ENDMDL
