MODEL 1
REMARK VINA RESULT:    -4.553      0.000      0.000
REMARK INTER + INTRA:          -6.744
REMARK INTER:                  -6.283
REMARK INTRA:                  -0.461
REMARK UNBOUND:                -0.461
REMARK SMILES Cc1n[nH]c(C)c1CCCOc1cc(C(=O)O)ccc1F
REMARK SMILES IDX 11 1 12 2 14 3 18 4 13 5 19 6 20 7 21 8 15 9 16 10 17 11
REMARK SMILES IDX 10 13 9 14 8 15 7 16 5 17 2 18 4 19 3 20 6 21 1 22
REMARK H PARENT 17 12 4 23
ROOT
ATOM      1  O   UNL     1       6.135   6.328  -2.685  1.00  0.00    -0.490 OA
ENDROOT
BRANCH   1   2
ATOM      2  C   UNL     1       4.880   5.919  -2.356  1.00  0.00     0.155 A 
ATOM      3  C   UNL     1       3.040   5.865  -0.809  1.00  0.00     0.063 A 
ATOM      4  C   UNL     1       2.311   5.084  -1.709  1.00  0.00     0.019 A 
ATOM      5  C   UNL     1       4.331   6.282  -1.140  1.00  0.00     0.065 A 
ATOM      6  C   UNL     1       2.864   4.733  -2.922  1.00  0.00     0.044 A 
ATOM      7  C   UNL     1       4.143   5.151  -3.251  1.00  0.00     0.165 A 
ATOM      8  F   UNL     1       4.680   4.804  -4.441  1.00  0.00    -0.203 F 
BRANCH   3   9
ATOM      9  C   UNL     1       2.451   6.243   0.490  1.00  0.00     0.335 C 
ATOM     10  O   UNL     1       3.165   6.632   1.392  1.00  0.00    -0.246 OA
BRANCH   9  11
ATOM     11  O   UNL     1       1.118   6.163   0.674  1.00  0.00    -0.478 OA
ATOM     12  H   UNL     1       0.615   5.650   0.026  1.00  0.00     0.297 HD
ENDBRANCH   9  11
ENDBRANCH   3   9
ENDBRANCH   1   2
BRANCH   1  13
ATOM     13  C   UNL     1       6.262   7.179  -3.826  1.00  0.00     0.230 C 
BRANCH  13  14
ATOM     14  C   UNL     1       6.703   8.573  -3.375  1.00  0.00     0.046 C 
BRANCH  14  15
ATOM     15  C   UNL     1       5.470   9.454  -3.162  1.00  0.00     0.043 C 
BRANCH  15  16
ATOM     16  C   UNL     1       5.875  10.904  -3.207  1.00  0.00    -0.004 A 
ATOM     17  C   UNL     1       5.785  11.723  -4.281  1.00  0.00     0.036 A 
ATOM     18  C   UNL     1       6.404  11.645  -2.145  1.00  0.00     0.063 A 
ATOM     19  N   UNL     1       6.247  12.936  -3.914  1.00  0.00    -0.282 N 
ATOM     20  N   UNL     1       6.634  12.861  -2.569  1.00  0.00    -0.181 NA
ATOM     21  C   UNL     1       5.263  11.346  -5.643  1.00  0.00     0.066 C 
ATOM     22  C   UNL     1       6.674  11.128  -0.755  1.00  0.00     0.069 C 
ATOM     23  H   UNL     1       6.302  13.721  -4.480  1.00  0.00     0.190 HD
ENDBRANCH  15  16
ENDBRANCH  14  15
ENDBRANCH  13  14
ENDBRANCH   1  13
TORSDOF 7
ENDMDL
MODEL 2
REMARK VINA RESULT:    -4.534      2.363      4.017
REMARK INTER + INTRA:          -6.718
REMARK INTER:                  -6.465
REMARK INTRA:                  -0.253
REMARK UNBOUND:                -0.461
REMARK SMILES Cc1n[nH]c(C)c1CCCOc1cc(C(=O)O)ccc1F
REMARK SMILES IDX 11 1 12 2 14 3 18 4 13 5 19 6 20 7 21 8 15 9 16 10 17 11
REMARK SMILES IDX 10 13 9 14 8 15 7 16 5 17 2 18 4 19 3 20 6 21 1 22
REMARK H PARENT 17 12 4 23
ROOT
ATOM      1  O   UNL     1       1.876   8.550  -1.999  1.00  0.00    -0.490 OA
ENDROOT
BRANCH   1   2
ATOM      2  C   UNL     1       2.331   7.270  -2.049  1.00  0.00     0.155 A 
ATOM      3  C   UNL     1       3.274   5.436  -3.287  1.00  0.00     0.063 A 
ATOM      4  C   UNL     1       3.266   4.655  -2.128  1.00  0.00     0.019 A 
ATOM      5  C   UNL     1       2.803   6.750  -3.240  1.00  0.00     0.065 A 
ATOM      6  C   UNL     1       2.800   5.184  -0.943  1.00  0.00     0.044 A 
ATOM      7  C   UNL     1       2.337   6.489  -0.898  1.00  0.00     0.165 A 
ATOM      8  F   UNL     1       1.881   7.002   0.266  1.00  0.00    -0.203 F 
BRANCH   3   9
ATOM      9  C   UNL     1       3.774   4.873  -4.556  1.00  0.00     0.335 C 
ATOM     10  O   UNL     1       3.511   5.419  -5.608  1.00  0.00    -0.246 OA
BRANCH   9  11
ATOM     11  O   UNL     1       4.528   3.756  -4.547  1.00  0.00    -0.478 OA
ATOM     12  H   UNL     1       5.210   3.681  -5.228  1.00  0.00     0.297 HD
ENDBRANCH   9  11
ENDBRANCH   3   9
ENDBRANCH   1   2
BRANCH   1  13
ATOM     13  C   UNL     1       2.416   9.391  -0.977  1.00  0.00     0.230 C 
BRANCH  13  14
ATOM     14  C   UNL     1       3.259  10.495  -1.618  1.00  0.00     0.046 C 
BRANCH  14  15
ATOM     15  C   UNL     1       4.654   9.952  -1.936  1.00  0.00     0.043 C 
BRANCH  15  16
ATOM     16  C   UNL     1       5.566  11.093  -2.304  1.00  0.00    -0.004 A 
ATOM     17  C   UNL     1       6.397  11.751  -1.463  1.00  0.00     0.036 A 
ATOM     18  C   UNL     1       5.708  11.656  -3.576  1.00  0.00     0.063 A 
ATOM     19  N   UNL     1       7.038  12.700  -2.176  1.00  0.00    -0.282 N 
ATOM     20  N   UNL     1       6.585  12.624  -3.500  1.00  0.00    -0.181 NA
ATOM     21  C   UNL     1       6.576  11.472   0.007  1.00  0.00     0.066 C 
ATOM     22  C   UNL     1       4.969  11.229  -4.819  1.00  0.00     0.069 C 
ATOM     23  H   UNL     1       7.695  13.326  -1.834  1.00  0.00     0.190 HD
ENDBRANCH  15  16
ENDBRANCH  14  15
ENDBRANCH  13  14
ENDBRANCH   1  13
TORSDOF 7
ENDMDL
MODEL 3
REMARK VINA RESULT:    -4.379      8.458     10.966
REMARK INTER + INTRA:          -6.505
REMARK INTER:                  -5.419
REMARK INTRA:                  -1.086
REMARK UNBOUND:                -0.461
REMARK SMILES Cc1n[nH]c(C)c1CCCOc1cc(C(=O)O)ccc1F
REMARK SMILES IDX 11 1 12 2 14 3 18 4 13 5 19 6 20 7 21 8 15 9 16 10 17 11
REMARK SMILES IDX 10 13 9 14 8 15 7 16 5 17 2 18 4 19 3 20 6 21 1 22
REMARK H PARENT 17 12 4 23
ROOT
ATOM      1  O   UNL     1       4.423  15.221  -6.611  1.00  0.00    -0.490 OA
ENDROOT
BRANCH   1   2
ATOM      2  C   UNL     1       3.918  16.068  -7.547  1.00  0.00     0.155 A 
ATOM      3  C   UNL     1       3.520  16.638  -9.848  1.00  0.00     0.063 A 
ATOM      4  C   UNL     1       2.871  17.807  -9.442  1.00  0.00     0.019 A 
ATOM      5  C   UNL     1       4.044  15.768  -8.890  1.00  0.00     0.065 A 
ATOM      6  C   UNL     1       2.745  18.095  -8.100  1.00  0.00     0.044 A 
ATOM      7  C   UNL     1       3.262  17.228  -7.151  1.00  0.00     0.165 A 
ATOM      8  F   UNL     1       3.135  17.516  -5.837  1.00  0.00    -0.203 F 
BRANCH   3   9
ATOM      9  C   UNL     1       3.655  16.327 -11.285  1.00  0.00     0.335 C 
ATOM     10  O   UNL     1       3.940  17.205 -12.073  1.00  0.00    -0.246 OA
BRANCH   9  11
ATOM     11  O   UNL     1       3.470  15.065 -11.721  1.00  0.00    -0.478 OA
ATOM     12  H   UNL     1       2.846  14.516 -11.225  1.00  0.00     0.297 HD
ENDBRANCH   9  11
ENDBRANCH   3   9
ENDBRANCH   1   2
BRANCH   1  13
ATOM     13  C   UNL     1       5.668  14.586  -6.914  1.00  0.00     0.230 C 
BRANCH  13  14
ATOM     14  C   UNL     1       6.406  14.265  -5.613  1.00  0.00     0.046 C 
BRANCH  14  15
ATOM     15  C   UNL     1       7.727  15.036  -5.572  1.00  0.00     0.043 C 
BRANCH  15  16
ATOM     16  C   UNL     1       7.562  16.272  -4.726  1.00  0.00    -0.004 A 
ATOM     17  C   UNL     1       7.649  16.331  -3.377  1.00  0.00     0.036 A 
ATOM     18  C   UNL     1       7.298  17.562  -5.197  1.00  0.00     0.063 A 
ATOM     19  N   UNL     1       7.441  17.612  -3.007  1.00  0.00    -0.282 N 
ATOM     20  N   UNL     1       7.218  18.365  -4.167  1.00  0.00    -0.181 NA
ATOM     21  C   UNL     1       7.929  15.174  -2.454  1.00  0.00     0.066 C 
ATOM     22  C   UNL     1       7.122  17.958  -6.641  1.00  0.00     0.069 C 
ATOM     23  H   UNL     1       7.444  17.951  -2.098  1.00  0.00     0.190 HD
ENDBRANCH  15  16
ENDBRANCH  14  15
ENDBRANCH  13  14
ENDBRANCH   1  13
TORSDOF 7
ENDMDL
MODEL 4
REMARK VINA RESULT:    -4.225      8.801     10.905
REMARK INTER + INTRA:          -6.292
REMARK INTER:                  -5.556
REMARK INTRA:                  -0.736
REMARK UNBOUND:                -0.461
REMARK SMILES Cc1n[nH]c(C)c1CCCOc1cc(C(=O)O)ccc1F
REMARK SMILES IDX 11 1 12 2 14 3 18 4 13 5 19 6 20 7 21 8 15 9 16 10 17 11
REMARK SMILES IDX 10 13 9 14 8 15 7 16 5 17 2 18 4 19 3 20 6 21 1 22
REMARK H PARENT 17 12 4 23
ROOT
ATOM      1  O   UNL     1       4.625  15.403  -6.612  1.00  0.00    -0.490 OA
ENDROOT
BRANCH   1   2
ATOM      2  C   UNL     1       3.993  16.136  -7.566  1.00  0.00     0.155 A 
ATOM      3  C   UNL     1       3.484  16.558  -9.878  1.00  0.00     0.063 A 
ATOM      4  C   UNL     1       2.685  17.641  -9.501  1.00  0.00     0.019 A 
ATOM      5  C   UNL     1       4.138  15.805  -8.901  1.00  0.00     0.065 A 
ATOM      6  C   UNL     1       2.542  17.959  -8.167  1.00  0.00     0.044 A 
ATOM      7  C   UNL     1       3.188  17.209  -7.199  1.00  0.00     0.165 A 
ATOM      8  F   UNL     1       3.043  17.526  -5.894  1.00  0.00    -0.203 F 
BRANCH   3   9
ATOM      9  C   UNL     1       3.639  16.214 -11.305  1.00  0.00     0.335 C 
ATOM     10  O   UNL     1       3.820  17.090 -12.125  1.00  0.00    -0.246 OA
BRANCH   9  11
ATOM     11  O   UNL     1       3.587  14.925 -11.697  1.00  0.00    -0.478 OA
ATOM     12  H   UNL     1       3.835  14.734 -12.612  1.00  0.00     0.297 HD
ENDBRANCH   9  11
ENDBRANCH   3   9
ENDBRANCH   1   2
BRANCH   1  13
ATOM     13  C   UNL     1       5.884  14.826  -6.964  1.00  0.00     0.230 C 
BRANCH  13  14
ATOM     14  C   UNL     1       6.782  14.766  -5.727  1.00  0.00     0.046 C 
BRANCH  14  15
ATOM     15  C   UNL     1       6.910  16.166  -5.122  1.00  0.00     0.043 C 
BRANCH  15  16
ATOM     16  C   UNL     1       8.300  16.350  -4.571  1.00  0.00    -0.004 A 
ATOM     17  C   UNL     1       9.360  16.860  -5.239  1.00  0.00     0.036 A 
ATOM     18  C   UNL     1       8.721  16.031  -3.275  1.00  0.00     0.063 A 
ATOM     19  N   UNL     1      10.417  16.857  -4.399  1.00  0.00    -0.282 N 
ATOM     20  N   UNL     1       9.991  16.328  -3.173  1.00  0.00    -0.181 NA
ATOM     21  C   UNL     1       9.362  17.343  -6.666  1.00  0.00     0.066 C 
ATOM     22  C   UNL     1       7.862  15.437  -2.188  1.00  0.00     0.069 C 
ATOM     23  H   UNL     1      11.312  17.165  -4.607  1.00  0.00     0.190 HD
ENDBRANCH  15  16
ENDBRANCH  14  15
ENDBRANCH  13  14
ENDBRANCH   1  13
TORSDOF 7
ENDMDL
MODEL 5
REMARK VINA RESULT:    -4.083      3.350      4.789
REMARK INTER + INTRA:          -6.096
REMARK INTER:                  -5.541
REMARK INTRA:                  -0.555
REMARK UNBOUND:                -0.461
REMARK SMILES Cc1n[nH]c(C)c1CCCOc1cc(C(=O)O)ccc1F
REMARK SMILES IDX 11 1 12 2 14 3 18 4 13 5 19 6 20 7 21 8 15 9 16 10 17 11
REMARK SMILES IDX 10 13 9 14 8 15 7 16 5 17 2 18 4 19 3 20 6 21 1 22
REMARK H PARENT 17 12 4 23
ROOT
ATOM      1  O   UNL     1       6.321  10.994  -2.222  1.00  0.00    -0.490 OA
ENDROOT
BRANCH   1   2
ATOM      2  C   UNL     1       5.582   9.860  -2.358  1.00  0.00     0.155 A 
ATOM      3  C   UNL     1       3.593   8.595  -1.884  1.00  0.00     0.063 A 
ATOM      4  C   UNL     1       4.086   7.539  -2.656  1.00  0.00     0.019 A 
ATOM      5  C   UNL     1       4.351   9.759  -1.739  1.00  0.00     0.065 A 
ATOM      6  C   UNL     1       5.313   7.652  -3.275  1.00  0.00     0.044 A 
ATOM      7  C   UNL     1       6.060   8.809  -3.133  1.00  0.00     0.165 A 
ATOM      8  F   UNL     1       7.262   8.913  -3.742  1.00  0.00    -0.203 F 
BRANCH   3   9
ATOM      9  C   UNL     1       2.280   8.478  -1.221  1.00  0.00     0.335 C 
ATOM     10  O   UNL     1       1.972   7.446  -0.661  1.00  0.00    -0.246 OA
BRANCH   9  11
ATOM     11  O   UNL     1       1.425   9.519  -1.232  1.00  0.00    -0.478 OA
ATOM     12  H   UNL     1       1.653  10.281  -0.680  1.00  0.00     0.297 HD
ENDBRANCH   9  11
ENDBRANCH   3   9
ENDBRANCH   1   2
BRANCH   1  13
ATOM     13  C   UNL     1       6.172  11.722  -1.001  1.00  0.00     0.230 C 
BRANCH  13  14
ATOM     14  C   UNL     1       7.554  12.047  -0.431  1.00  0.00     0.046 C 
BRANCH  14  15
ATOM     15  C   UNL     1       7.589  13.509   0.020  1.00  0.00     0.043 C 
BRANCH  15  16
ATOM     16  C   UNL     1       8.860  14.156  -0.466  1.00  0.00    -0.004 A 
ATOM     17  C   UNL     1      10.080  14.046   0.111  1.00  0.00     0.036 A 
ATOM     18  C   UNL     1       8.990  14.970  -1.595  1.00  0.00     0.063 A 
ATOM     19  N   UNL     1      10.949  14.770  -0.624  1.00  0.00    -0.282 N 
ATOM     20  N   UNL     1      10.240  15.345  -1.688  1.00  0.00    -0.181 NA
ATOM     21  C   UNL     1      10.408  13.256   1.351  1.00  0.00     0.066 C 
ATOM     22  C   UNL     1       7.879  15.359  -2.537  1.00  0.00     0.069 C 
ATOM     23  H   UNL     1      11.897  14.876  -0.448  1.00  0.00     0.190 HD
ENDBRANCH  15  16
ENDBRANCH  14  15
ENDBRANCH  13  14
ENDBRANCH   1  13
TORSDOF 7
ENDMDL
MODEL 6
REMARK VINA RESULT:    -4.075      5.048      7.975
REMARK INTER + INTRA:          -6.085
REMARK INTER:                  -5.494
REMARK INTRA:                  -0.590
REMARK UNBOUND:                -0.461
REMARK SMILES Cc1n[nH]c(C)c1CCCOc1cc(C(=O)O)ccc1F
REMARK SMILES IDX 11 1 12 2 14 3 18 4 13 5 19 6 20 7 21 8 15 9 16 10 17 11
REMARK SMILES IDX 10 13 9 14 8 15 7 16 5 17 2 18 4 19 3 20 6 21 1 22
REMARK H PARENT 17 12 4 23
ROOT
ATOM      1  O   UNL     1       6.176  11.543  -0.956  1.00  0.00    -0.490 OA
ENDROOT
BRANCH   1   2
ATOM      2  C   UNL     1       7.199  12.360  -0.590  1.00  0.00     0.155 A 
ATOM      3  C   UNL     1       8.287  14.503  -0.661  1.00  0.00     0.063 A 
ATOM      4  C   UNL     1       9.294  14.015   0.177  1.00  0.00     0.019 A 
ATOM      5  C   UNL     1       7.237  13.666  -1.042  1.00  0.00     0.065 A 
ATOM      6  C   UNL     1       9.245  12.713   0.627  1.00  0.00     0.044 A 
ATOM      7  C   UNL     1       8.199  11.886   0.251  1.00  0.00     0.165 A 
ATOM      8  F   UNL     1       8.157  10.611   0.696  1.00  0.00    -0.203 F 
BRANCH   3   9
ATOM      9  C   UNL     1       8.337  15.897  -1.144  1.00  0.00     0.335 C 
ATOM     10  O   UNL     1       9.395  16.491  -1.178  1.00  0.00    -0.246 OA
BRANCH   9  11
ATOM     11  O   UNL     1       7.208  16.507  -1.555  1.00  0.00    -0.478 OA
ATOM     12  H   UNL     1       6.374  16.178  -1.193  1.00  0.00     0.297 HD
ENDBRANCH   9  11
ENDBRANCH   3   9
ENDBRANCH   1   2
BRANCH   1  13
ATOM     13  C   UNL     1       6.155  11.098  -2.315  1.00  0.00     0.230 C 
BRANCH  13  14
ATOM     14  C   UNL     1       4.927  10.214  -2.542  1.00  0.00     0.046 C 
BRANCH  14  15
ATOM     15  C   UNL     1       5.029   8.965  -1.664  1.00  0.00     0.043 C 
BRANCH  15  16
ATOM     16  C   UNL     1       4.175   7.869  -2.247  1.00  0.00    -0.004 A 
ATOM     17  C   UNL     1       2.833   7.752  -2.121  1.00  0.00     0.036 A 
ATOM     18  C   UNL     1       4.629   6.796  -3.022  1.00  0.00     0.063 A 
ATOM     19  N   UNL     1       2.452   6.641  -2.785  1.00  0.00    -0.282 N 
ATOM     20  N   UNL     1       3.599   6.055  -3.339  1.00  0.00    -0.181 NA
ATOM     21  C   UNL     1       1.926   8.693  -1.372  1.00  0.00     0.066 C 
ATOM     22  C   UNL     1       6.061   6.532  -3.412  1.00  0.00     0.069 C 
ATOM     23  H   UNL     1       1.546   6.306  -2.865  1.00  0.00     0.190 HD
ENDBRANCH  15  16
ENDBRANCH  14  15
ENDBRANCH  13  14
ENDBRANCH   1  13
TORSDOF 7
ENDMDL
MODEL 7
REMARK VINA RESULT:    -4.071      3.315      4.987
REMARK INTER + INTRA:          -6.080
REMARK INTER:                  -5.497
REMARK INTRA:                  -0.583
REMARK UNBOUND:                -0.461
REMARK SMILES Cc1n[nH]c(C)c1CCCOc1cc(C(=O)O)ccc1F
REMARK SMILES IDX 11 1 12 2 14 3 18 4 13 5 19 6 20 7 21 8 15 9 16 10 17 11
REMARK SMILES IDX 10 13 9 14 8 15 7 16 5 17 2 18 4 19 3 20 6 21 1 22
REMARK H PARENT 17 12 4 23
ROOT
ATOM      1  O   UNL     1       5.441  11.373  -3.439  1.00  0.00    -0.490 OA
ENDROOT
BRANCH   1   2
ATOM      2  C   UNL     1       5.018  10.168  -2.974  1.00  0.00     0.155 A 
ATOM      3  C   UNL     1       5.208   7.772  -2.908  1.00  0.00     0.063 A 
ATOM      4  C   UNL     1       4.144   7.716  -2.003  1.00  0.00     0.019 A 
ATOM      5  C   UNL     1       5.642   9.008  -3.392  1.00  0.00     0.065 A 
ATOM      6  C   UNL     1       3.531   8.879  -1.587  1.00  0.00     0.044 A 
ATOM      7  C   UNL     1       3.967  10.104  -2.065  1.00  0.00     0.165 A 
ATOM      8  F   UNL     1       3.363  11.240  -1.653  1.00  0.00    -0.203 F 
BRANCH   3   9
ATOM      9  C   UNL     1       5.866   6.529  -3.355  1.00  0.00     0.335 C 
ATOM     10  O   UNL     1       5.220   5.508  -3.473  1.00  0.00    -0.246 OA
BRANCH   9  11
ATOM     11  O   UNL     1       7.183   6.529  -3.639  1.00  0.00    -0.478 OA
ATOM     12  H   UNL     1       7.436   6.345  -4.554  1.00  0.00     0.297 HD
ENDBRANCH   9  11
ENDBRANCH   3   9
ENDBRANCH   1   2
BRANCH   1  13
ATOM     13  C   UNL     1       5.943  11.412  -4.777  1.00  0.00     0.230 C 
BRANCH  13  14
ATOM     14  C   UNL     1       5.254  12.540  -5.547  1.00  0.00     0.046 C 
BRANCH  14  15
ATOM     15  C   UNL     1       6.304  13.359  -6.301  1.00  0.00     0.043 C 
BRANCH  15  16
ATOM     16  C   UNL     1       6.052  14.827  -6.079  1.00  0.00    -0.004 A 
ATOM     17  C   UNL     1       5.149  15.589  -6.740  1.00  0.00     0.036 A 
ATOM     18  C   UNL     1       6.705  15.644  -5.150  1.00  0.00     0.063 A 
ATOM     19  N   UNL     1       5.232  16.844  -6.251  1.00  0.00    -0.282 N 
ATOM     20  N   UNL     1       6.219  16.854  -5.256  1.00  0.00    -0.181 NA
ATOM     21  C   UNL     1       4.217  15.119  -7.827  1.00  0.00     0.066 C 
ATOM     22  C   UNL     1       7.789  15.208  -4.198  1.00  0.00     0.069 C 
ATOM     23  H   UNL     1       4.703  17.604  -6.537  1.00  0.00     0.190 HD
ENDBRANCH  15  16
ENDBRANCH  14  15
ENDBRANCH  13  14
ENDBRANCH   1  13
TORSDOF 7
ENDMDL
MODEL 8
REMARK VINA RESULT:    -4.068      4.839      8.187
REMARK INTER + INTRA:          -6.074
REMARK INTER:                  -5.465
REMARK INTRA:                  -0.610
REMARK UNBOUND:                -0.461
REMARK SMILES Cc1n[nH]c(C)c1CCCOc1cc(C(=O)O)ccc1F
REMARK SMILES IDX 11 1 12 2 14 3 18 4 13 5 19 6 20 7 21 8 15 9 16 10 17 11
REMARK SMILES IDX 10 13 9 14 8 15 7 16 5 17 2 18 4 19 3 20 6 21 1 22
REMARK H PARENT 17 12 4 23
ROOT
ATOM      1  O   UNL     1       5.764  11.264  -4.750  1.00  0.00    -0.490 OA
ENDROOT
BRANCH   1   2
ATOM      2  C   UNL     1       5.704  12.464  -5.385  1.00  0.00     0.155 A 
ATOM      3  C   UNL     1       6.669  14.606  -5.897  1.00  0.00     0.063 A 
ATOM      4  C   UNL     1       5.565  14.908  -6.699  1.00  0.00     0.019 A 
ATOM      5  C   UNL     1       6.732  13.376  -5.239  1.00  0.00     0.065 A 
ATOM      6  C   UNL     1       4.547  13.989  -6.844  1.00  0.00     0.044 A 
ATOM      7  C   UNL     1       4.614  12.768  -6.194  1.00  0.00     0.165 A 
ATOM      8  F   UNL     1       3.613  11.872  -6.340  1.00  0.00    -0.203 F 
BRANCH   3   9
ATOM      9  C   UNL     1       7.761  15.587  -5.741  1.00  0.00     0.335 C 
ATOM     10  O   UNL     1       7.540  16.771  -5.893  1.00  0.00    -0.246 OA
BRANCH   9  11
ATOM     11  O   UNL     1       9.001  15.168  -5.422  1.00  0.00    -0.478 OA
ATOM     12  H   UNL     1       9.152  14.899  -4.505  1.00  0.00     0.297 HD
ENDBRANCH   9  11
ENDBRANCH   3   9
ENDBRANCH   1   2
BRANCH   1  13
ATOM     13  C   UNL     1       5.467  11.254  -3.351  1.00  0.00     0.230 C 
BRANCH  13  14
ATOM     14  C   UNL     1       5.609   9.830  -2.810  1.00  0.00     0.046 C 
BRANCH  14  15
ATOM     15  C   UNL     1       4.471   8.963  -3.351  1.00  0.00     0.043 C 
BRANCH  15  16
ATOM     16  C   UNL     1       4.224   7.812  -2.411  1.00  0.00    -0.004 A 
ATOM     17  C   UNL     1       3.233   7.734  -1.491  1.00  0.00     0.036 A 
ATOM     18  C   UNL     1       4.974   6.634  -2.337  1.00  0.00     0.063 A 
ATOM     19  N   UNL     1       3.356   6.551  -0.854  1.00  0.00    -0.282 N 
ATOM     20  N   UNL     1       4.459   5.880  -1.400  1.00  0.00    -0.181 NA
ATOM     21  C   UNL     1       2.182   8.780  -1.228  1.00  0.00     0.066 C 
ATOM     22  C   UNL     1       6.175   6.296  -3.182  1.00  0.00     0.069 C 
ATOM     23  H   UNL     1       2.784   6.223  -0.144  1.00  0.00     0.190 HD
ENDBRANCH  15  16
ENDBRANCH  14  15
ENDBRANCH  13  14
ENDBRANCH   1  13
TORSDOF 7
ENDMDL
MODEL 9
REMARK VINA RESULT:    -4.031      3.401      5.224
REMARK INTER + INTRA:          -6.024
REMARK INTER:                  -5.478
REMARK INTRA:                  -0.546
REMARK UNBOUND:                -0.461
REMARK SMILES Cc1n[nH]c(C)c1CCCOc1cc(C(=O)O)ccc1F
REMARK SMILES IDX 11 1 12 2 14 3 18 4 13 5 19 6 20 7 21 8 15 9 16 10 17 11
REMARK SMILES IDX 10 13 9 14 8 15 7 16 5 17 2 18 4 19 3 20 6 21 1 22
REMARK H PARENT 17 12 4 23
ROOT
ATOM      1  O   UNL     1       5.330  11.063  -2.084  1.00  0.00    -0.490 OA
ENDROOT
BRANCH   1   2
ATOM      2  C   UNL     1       4.747   9.840  -2.195  1.00  0.00     0.155 A 
ATOM      3  C   UNL     1       4.852   7.529  -2.851  1.00  0.00     0.063 A 
ATOM      4  C   UNL     1       3.541   7.346  -2.404  1.00  0.00     0.019 A 
ATOM      5  C   UNL     1       5.453   8.785  -2.743  1.00  0.00     0.065 A 
ATOM      6  C   UNL     1       2.847   8.403  -1.853  1.00  0.00     0.044 A 
ATOM      7  C   UNL     1       3.447   9.647  -1.743  1.00  0.00     0.165 A 
ATOM      8  F   UNL     1       2.761  10.678  -1.202  1.00  0.00    -0.203 F 
BRANCH   3   9
ATOM      9  C   UNL     1       5.598   6.400  -3.440  1.00  0.00     0.335 C 
ATOM     10  O   UNL     1       4.998   5.463  -3.926  1.00  0.00    -0.246 OA
BRANCH   9  11
ATOM     11  O   UNL     1       6.946   6.412  -3.446  1.00  0.00    -0.478 OA
ATOM     12  H   UNL     1       7.377   7.065  -4.015  1.00  0.00     0.297 HD
ENDBRANCH   9  11
ENDBRANCH   3   9
ENDBRANCH   1   2
BRANCH   1  13
ATOM     13  C   UNL     1       6.137  11.294  -0.926  1.00  0.00     0.230 C 
BRANCH  13  14
ATOM     14  C   UNL     1       7.283  12.242  -1.285  1.00  0.00     0.046 C 
BRANCH  14  15
ATOM     15  C   UNL     1       7.360  13.365  -0.248  1.00  0.00     0.043 C 
BRANCH  15  16
ATOM     16  C   UNL     1       8.616  14.167  -0.467  1.00  0.00    -0.004 A 
ATOM     17  C   UNL     1       9.809  13.960   0.137  1.00  0.00     0.036 A 
ATOM     18  C   UNL     1       8.758  15.253  -1.337  1.00  0.00     0.063 A 
ATOM     19  N   UNL     1      10.673  14.887  -0.328  1.00  0.00    -0.282 N 
ATOM     20  N   UNL     1       9.987  15.690  -1.249  1.00  0.00    -0.181 NA
ATOM     21  C   UNL     1      10.118  12.887   1.149  1.00  0.00     0.066 C 
ATOM     22  C   UNL     1       7.676  15.830  -2.214  1.00  0.00     0.069 C 
ATOM     23  H   UNL     1      11.603  14.981  -0.070  1.00  0.00     0.190 HD
ENDBRANCH  15  16
ENDBRANCH  14  15
ENDBRANCH  13  14
ENDBRANCH   1  13
TORSDOF 7
ENDMDL
