MODEL 1
REMARK VINA RESULT:    -3.755      0.000      0.000
REMARK INTER + INTRA:          -4.584
REMARK INTER:                  -4.304
REMARK INTRA:                  -0.281
REMARK UNBOUND:                -0.281
REMARK SMILES O=C(O)c1ccc2nc(-c3cc(Cl)cc(Cl)c3)oc2c1
REMARK SMILES IDX 5 1 6 2 20 3 8 4 18 5 4 6 9 7 7 8 19 9 2 10 1 11 3 12 10 14
REMARK SMILES IDX 11 15 17 16 12 17 15 18 14 19 13 20 16 21
REMARK H PARENT 3 13
ROOT
ATOM      1  C   UNL     1       3.094  16.765  -8.614  1.00  0.00     0.018 A 
ATOM      2  C   UNL     1       3.428  16.843  -7.295  1.00  0.00     0.033 A 
ATOM      3  C   UNL     1       5.406  16.326  -9.198  1.00  0.00     0.065 A 
ATOM      4  N   UNL     1       5.380  16.686  -5.699  1.00  0.00    -0.209 NA
ATOM      5  O   UNL     1       6.916  16.289  -7.188  1.00  0.00    -0.436 OA
ATOM      6  C   UNL     1       4.075  16.504  -9.580  1.00  0.00     0.063 A 
ATOM      7  C   UNL     1       6.658  16.461  -5.878  1.00  0.00     0.227 A 
ATOM      8  C   UNL     1       4.759  16.666  -6.898  1.00  0.00     0.110 A 
ATOM      9  C   UNL     1       5.750  16.410  -7.862  1.00  0.00     0.156 A 
ENDROOT
BRANCH   6  10
ATOM     10  C   UNL     1       3.700  16.416 -11.003  1.00  0.00     0.335 C 
ATOM     11  O   UNL     1       3.644  17.423 -11.680  1.00  0.00    -0.246 OA
BRANCH  10  12
ATOM     12  O   UNL     1       3.419  15.218 -11.554  1.00  0.00    -0.478 OA
ATOM     13  H   UNL     1       3.387  15.175 -12.519  1.00  0.00     0.297 HD
ENDBRANCH  10  12
ENDBRANCH   6  10
BRANCH   7  14
ATOM     14  C   UNL     1       7.667  16.406  -4.800  1.00  0.00     0.040 A 
ATOM     15  C   UNL     1       8.862  17.117  -4.921  1.00  0.00     0.034 A 
ATOM     16  C   UNL     1       7.430  15.640  -3.657  1.00  0.00     0.034 A 
ATOM     17  C   UNL     1       9.801  17.061  -3.910  1.00  0.00     0.043 A 
ATOM     18  C   UNL     1       8.376  15.593  -2.653  1.00  0.00     0.043 A 
ATOM     19  C   UNL     1       9.559  16.301  -2.779  1.00  0.00     0.041 A 
ATOM     20  Cl  UNL     1      11.287  17.946  -4.058  1.00  0.00    -0.084 Cl
ATOM     21  Cl  UNL     1       8.082  14.642  -1.230  1.00  0.00    -0.084 Cl
ENDBRANCH   7  14
TORSDOF 3
ENDMDL
MODEL 2
REMARK VINA RESULT:    -3.753      0.006      2.019
REMARK INTER + INTRA:          -4.582
REMARK INTER:                  -4.302
REMARK INTRA:                  -0.281
REMARK UNBOUND:                -0.281
REMARK SMILES O=C(O)c1ccc2nc(-c3cc(Cl)cc(Cl)c3)oc2c1
REMARK SMILES IDX 5 1 6 2 20 3 8 4 18 5 4 6 9 7 7 8 19 9 2 10 1 11 3 12 10 14
REMARK SMILES IDX 11 15 17 16 12 17 15 18 14 19 13 20 16 21
REMARK H PARENT 3 13
ROOT
ATOM      1  C   UNL     1       3.089  16.760  -8.608  1.00  0.00     0.018 A 
ATOM      2  C   UNL     1       3.424  16.838  -7.290  1.00  0.00     0.033 A 
ATOM      3  C   UNL     1       5.401  16.323  -9.194  1.00  0.00     0.065 A 
ATOM      4  N   UNL     1       5.377  16.683  -5.695  1.00  0.00    -0.209 NA
ATOM      5  O   UNL     1       6.912  16.287  -7.185  1.00  0.00    -0.436 OA
ATOM      6  C   UNL     1       4.070  16.500  -9.576  1.00  0.00     0.063 A 
ATOM      7  C   UNL     1       6.655  16.459  -5.875  1.00  0.00     0.227 A 
ATOM      8  C   UNL     1       4.756  16.663  -6.894  1.00  0.00     0.110 A 
ATOM      9  C   UNL     1       5.746  16.407  -7.858  1.00  0.00     0.156 A 
ENDROOT
BRANCH   6  10
ATOM     10  C   UNL     1       3.695  16.412 -10.998  1.00  0.00     0.335 C 
ATOM     11  O   UNL     1       3.634  17.419 -11.674  1.00  0.00    -0.246 OA
BRANCH  10  12
ATOM     12  O   UNL     1       3.418  15.213 -11.550  1.00  0.00    -0.478 OA
ATOM     13  H   UNL     1       3.751  15.053 -12.443  1.00  0.00     0.297 HD
ENDBRANCH  10  12
ENDBRANCH   6  10
BRANCH   7  14
ATOM     14  C   UNL     1       7.665  16.404  -4.798  1.00  0.00     0.040 A 
ATOM     15  C   UNL     1       7.430  15.640  -3.654  1.00  0.00     0.034 A 
ATOM     16  C   UNL     1       8.859  17.118  -4.921  1.00  0.00     0.034 A 
ATOM     17  C   UNL     1       8.379  15.592  -2.652  1.00  0.00     0.043 A 
ATOM     18  C   UNL     1       9.800  17.062  -3.912  1.00  0.00     0.043 A 
ATOM     19  C   UNL     1       9.561  16.302  -2.780  1.00  0.00     0.041 A 
ATOM     20  Cl  UNL     1       8.088  14.642  -1.229  1.00  0.00    -0.084 Cl
ATOM     21  Cl  UNL     1      11.286  17.948  -4.063  1.00  0.00    -0.084 Cl
ENDBRANCH   7  14
TORSDOF 3
ENDMDL
MODEL 3
REMARK VINA RESULT:    -3.484      4.405      7.482
REMARK INTER + INTRA:          -4.274
REMARK INTER:                  -3.989
REMARK INTRA:                  -0.285
REMARK UNBOUND:                -0.281
REMARK SMILES O=C(O)c1ccc2nc(-c3cc(Cl)cc(Cl)c3)oc2c1
REMARK SMILES IDX 5 1 6 2 20 3 8 4 18 5 4 6 9 7 7 8 19 9 2 10 1 11 3 12 10 14
REMARK SMILES IDX 11 15 17 16 12 17 15 18 14 19 13 20 16 21
REMARK H PARENT 3 13
ROOT
ATOM      1  C   UNL     1       9.448  16.959  -3.558  1.00  0.00     0.018 A 
ATOM      2  C   UNL     1       9.913  17.479  -4.728  1.00  0.00     0.033 A 
ATOM      3  C   UNL     1       7.417  16.227  -4.662  1.00  0.00     0.065 A 
ATOM      4  N   UNL     1       9.327  17.797  -7.165  1.00  0.00    -0.209 NA
ATOM      5  O   UNL     1       7.382  16.824  -7.104  1.00  0.00    -0.436 OA
ATOM      6  C   UNL     1       8.198  16.325  -3.509  1.00  0.00     0.063 A 
ATOM      7  C   UNL     1       8.281  17.459  -7.878  1.00  0.00     0.227 A 
ATOM      8  C   UNL     1       9.140  17.387  -5.892  1.00  0.00     0.110 A 
ATOM      9  C   UNL     1       7.883  16.758  -5.851  1.00  0.00     0.156 A 
ENDROOT
BRANCH   6  10
ATOM     10  C   UNL     1       7.708  15.761  -2.239  1.00  0.00     0.335 C 
ATOM     11  O   UNL     1       7.826  14.572  -2.017  1.00  0.00    -0.246 OA
BRANCH  10  12
ATOM     12  O   UNL     1       7.129  16.562  -1.323  1.00  0.00    -0.478 OA
ATOM     13  H   UNL     1       6.202  16.796  -1.468  1.00  0.00     0.297 HD
ENDBRANCH  10  12
ENDBRANCH   6  10
BRANCH   7  14
ATOM     14  C   UNL     1       8.115  17.736  -9.320  1.00  0.00     0.040 A 
ATOM     15  C   UNL     1       9.234  17.845 -10.147  1.00  0.00     0.034 A 
ATOM     16  C   UNL     1       6.836  17.891  -9.860  1.00  0.00     0.034 A 
ATOM     17  C   UNL     1       9.071  18.103 -11.494  1.00  0.00     0.043 A 
ATOM     18  C   UNL     1       6.687  18.148 -11.208  1.00  0.00     0.043 A 
ATOM     19  C   UNL     1       7.801  18.255 -12.023  1.00  0.00     0.041 A 
ATOM     20  Cl  UNL     1      10.461  18.239 -12.524  1.00  0.00    -0.084 Cl
ATOM     21  Cl  UNL     1       5.098  18.341 -11.882  1.00  0.00    -0.084 Cl
ENDBRANCH   7  14
TORSDOF 3
ENDMDL
MODEL 4
REMARK VINA RESULT:    -3.461      4.452      7.694
REMARK INTER + INTRA:          -4.247
REMARK INTER:                  -3.962
REMARK INTRA:                  -0.285
REMARK UNBOUND:                -0.281
REMARK SMILES O=C(O)c1ccc2nc(-c3cc(Cl)cc(Cl)c3)oc2c1
REMARK SMILES IDX 5 1 6 2 20 3 8 4 18 5 4 6 9 7 7 8 19 9 2 10 1 11 3 12 10 14
REMARK SMILES IDX 11 15 17 16 12 17 15 18 14 19 13 20 16 21
REMARK H PARENT 3 13
ROOT
ATOM      1  C   UNL     1       9.554  17.130  -3.542  1.00  0.00     0.018 A 
ATOM      2  C   UNL     1      10.014  17.636  -4.721  1.00  0.00     0.033 A 
ATOM      3  C   UNL     1       7.523  16.375  -4.631  1.00  0.00     0.065 A 
ATOM      4  N   UNL     1       9.421  17.916  -7.161  1.00  0.00    -0.209 NA
ATOM      5  O   UNL     1       7.480  16.937  -7.081  1.00  0.00    -0.436 OA
ATOM      6  C   UNL     1       8.307  16.493  -3.482  1.00  0.00     0.063 A 
ATOM      7  C   UNL     1       8.375  17.564  -7.867  1.00  0.00     0.227 A 
ATOM      8  C   UNL     1       9.238  17.524  -5.882  1.00  0.00     0.110 A 
ATOM      9  C   UNL     1       7.984  16.891  -5.828  1.00  0.00     0.156 A 
ENDROOT
BRANCH   6  10
ATOM     10  C   UNL     1       7.822  15.944  -2.202  1.00  0.00     0.335 C 
ATOM     11  O   UNL     1       8.123  14.814  -1.873  1.00  0.00    -0.246 OA
BRANCH  10  12
ATOM     12  O   UNL     1       7.044  16.696  -1.398  1.00  0.00    -0.478 OA
ATOM     13  H   UNL     1       7.239  16.672  -0.452  1.00  0.00     0.297 HD
ENDBRANCH  10  12
ENDBRANCH   6  10
BRANCH   7  14
ATOM     14  C   UNL     1       8.204  17.820  -9.312  1.00  0.00     0.040 A 
ATOM     15  C   UNL     1       6.925  17.955  -9.853  1.00  0.00     0.034 A 
ATOM     16  C   UNL     1       9.322  17.926 -10.142  1.00  0.00     0.034 A 
ATOM     17  C   UNL     1       6.772  18.195 -11.205  1.00  0.00     0.043 A 
ATOM     18  C   UNL     1       9.156  18.166 -11.491  1.00  0.00     0.043 A 
ATOM     19  C   UNL     1       7.885  18.300 -12.022  1.00  0.00     0.041 A 
ATOM     20  Cl  UNL     1       5.182  18.365 -11.880  1.00  0.00    -0.084 Cl
ATOM     21  Cl  UNL     1      10.545  18.299 -12.524  1.00  0.00    -0.084 Cl
ENDBRANCH   7  14
TORSDOF 3
ENDMDL
MODEL 5
REMARK VINA RESULT:    -3.325      2.740      4.104
REMARK INTER + INTRA:          -4.091
REMARK INTER:                  -3.803
REMARK INTRA:                  -0.289
REMARK UNBOUND:                -0.281
REMARK SMILES O=C(O)c1ccc2nc(-c3cc(Cl)cc(Cl)c3)oc2c1
REMARK SMILES IDX 5 1 6 2 20 3 8 4 18 5 4 6 9 7 7 8 19 9 2 10 1 11 3 12 10 14
REMARK SMILES IDX 11 15 17 16 12 17 15 18 14 19 13 20 16 21
REMARK H PARENT 3 13
ROOT
ATOM      1  C   UNL     1       6.172  17.274  -6.232  1.00  0.00     0.018 A 
ATOM      2  C   UNL     1       6.719  17.774  -5.088  1.00  0.00     0.033 A 
ATOM      3  C   UNL     1       6.789  15.024  -5.571  1.00  0.00     0.065 A 
ATOM      4  N   UNL     1       7.924  17.105  -2.971  1.00  0.00    -0.209 NA
ATOM      5  O   UNL     1       7.979  14.964  -3.357  1.00  0.00    -0.436 OA
ATOM      6  C   UNL     1       6.198  15.896  -6.487  1.00  0.00     0.063 A 
ATOM      7  C   UNL     1       8.314  15.947  -2.500  1.00  0.00     0.227 A 
ATOM      8  C   UNL     1       7.315  16.911  -4.161  1.00  0.00     0.110 A 
ATOM      9  C   UNL     1       7.350  15.528  -4.412  1.00  0.00     0.156 A 
ENDROOT
BRANCH   6  10
ATOM     10  C   UNL     1       5.597  15.365  -7.724  1.00  0.00     0.335 C 
ATOM     11  O   UNL     1       4.680  14.572  -7.662  1.00  0.00    -0.246 OA
BRANCH  10  12
ATOM     12  O   UNL     1       6.067  15.760  -8.924  1.00  0.00    -0.478 OA
ATOM     13  H   UNL     1       6.467  16.638  -8.973  1.00  0.00     0.297 HD
ENDBRANCH  10  12
ENDBRANCH   6  10
BRANCH   7  14
ATOM     14  C   UNL     1       9.020  15.749  -1.217  1.00  0.00     0.040 A 
ATOM     15  C   UNL     1       9.618  16.832  -0.571  1.00  0.00     0.034 A 
ATOM     16  C   UNL     1       9.091  14.477  -0.645  1.00  0.00     0.034 A 
ATOM     17  C   UNL     1      10.275  16.641   0.628  1.00  0.00     0.043 A 
ATOM     18  C   UNL     1       9.751  14.299   0.554  1.00  0.00     0.043 A 
ATOM     19  C   UNL     1      10.342  15.377   1.189  1.00  0.00     0.041 A 
ATOM     20  Cl  UNL     1      11.019  17.987   1.433  1.00  0.00    -0.084 Cl
ATOM     21  Cl  UNL     1       9.841  12.717   1.266  1.00  0.00    -0.084 Cl
ENDBRANCH   7  14
TORSDOF 3
ENDMDL
MODEL 6
REMARK VINA RESULT:    -3.317      2.744      4.455
REMARK INTER + INTRA:          -4.082
REMARK INTER:                  -3.793
REMARK INTRA:                  -0.289
REMARK UNBOUND:                -0.281
REMARK SMILES O=C(O)c1ccc2nc(-c3cc(Cl)cc(Cl)c3)oc2c1
REMARK SMILES IDX 5 1 6 2 20 3 8 4 18 5 4 6 9 7 7 8 19 9 2 10 1 11 3 12 10 14
REMARK SMILES IDX 11 15 17 16 12 17 15 18 14 19 13 20 16 21
REMARK H PARENT 3 13
ROOT
ATOM      1  C   UNL     1       6.195  17.267  -6.231  1.00  0.00     0.018 A 
ATOM      2  C   UNL     1       6.747  17.765  -5.089  1.00  0.00     0.033 A 
ATOM      3  C   UNL     1       6.785  15.012  -5.561  1.00  0.00     0.065 A 
ATOM      4  N   UNL     1       7.943  17.089  -2.968  1.00  0.00    -0.209 NA
ATOM      5  O   UNL     1       7.972  14.947  -3.346  1.00  0.00    -0.436 OA
ATOM      6  C   UNL     1       6.205  15.888  -6.481  1.00  0.00     0.063 A 
ATOM      7  C   UNL     1       8.319  15.929  -2.492  1.00  0.00     0.227 A 
ATOM      8  C   UNL     1       7.333  16.899  -4.158  1.00  0.00     0.110 A 
ATOM      9  C   UNL     1       7.351  15.514  -4.403  1.00  0.00     0.156 A 
ENDROOT
BRANCH   6  10
ATOM     10  C   UNL     1       5.599  15.360  -7.717  1.00  0.00     0.335 C 
ATOM     11  O   UNL     1       4.684  14.563  -7.652  1.00  0.00    -0.246 OA
BRANCH  10  12
ATOM     12  O   UNL     1       6.060  15.760  -8.918  1.00  0.00    -0.478 OA
ATOM     13  H   UNL     1       5.404  15.929  -9.607  1.00  0.00     0.297 HD
ENDBRANCH  10  12
ENDBRANCH   6  10
BRANCH   7  14
ATOM     14  C   UNL     1       9.021  15.727  -1.208  1.00  0.00     0.040 A 
ATOM     15  C   UNL     1       9.080  14.458  -0.632  1.00  0.00     0.034 A 
ATOM     16  C   UNL     1       9.628  16.808  -0.565  1.00  0.00     0.034 A 
ATOM     17  C   UNL     1       9.739  14.276   0.568  1.00  0.00     0.043 A 
ATOM     18  C   UNL     1      10.284  16.614   0.635  1.00  0.00     0.043 A 
ATOM     19  C   UNL     1      10.338  15.352   1.201  1.00  0.00     0.041 A 
ATOM     20  Cl  UNL     1       9.814  12.697   1.285  1.00  0.00    -0.084 Cl
ATOM     21  Cl  UNL     1      11.039  17.956   1.436  1.00  0.00    -0.084 Cl
ENDBRANCH   7  14
TORSDOF 3
ENDMDL
MODEL 7
REMARK VINA RESULT:    -3.311      1.075      1.135
REMARK INTER + INTRA:          -4.076
REMARK INTER:                  -3.786
REMARK INTRA:                  -0.290
REMARK UNBOUND:                -0.281
REMARK SMILES O=C(O)c1ccc2nc(-c3cc(Cl)cc(Cl)c3)oc2c1
REMARK SMILES IDX 5 1 6 2 20 3 8 4 18 5 4 6 9 7 7 8 19 9 2 10 1 11 3 12 10 14
REMARK SMILES IDX 11 15 17 16 12 17 15 18 14 19 13 20 16 21
REMARK H PARENT 3 13
ROOT
ATOM      1  C   UNL     1       3.899  15.359  -8.274  1.00  0.00     0.018 A 
ATOM      2  C   UNL     1       4.314  14.935  -7.048  1.00  0.00     0.033 A 
ATOM      3  C   UNL     1       5.778  16.885  -8.410  1.00  0.00     0.065 A 
ATOM      4  N   UNL     1       6.113  15.265  -5.305  1.00  0.00    -0.209 NA
ATOM      5  O   UNL     1       7.245  16.787  -6.371  1.00  0.00    -0.436 OA
ATOM      6  C   UNL     1       4.624  16.335  -8.971  1.00  0.00     0.063 A 
ATOM      7  C   UNL     1       7.165  16.044  -5.251  1.00  0.00     0.227 A 
ATOM      8  C   UNL     1       5.470  15.478  -6.473  1.00  0.00     0.110 A 
ATOM      9  C   UNL     1       6.201  16.461  -7.163  1.00  0.00     0.156 A 
ENDROOT
BRANCH   6  10
ATOM     10  C   UNL     1       4.169  16.782 -10.300  1.00  0.00     0.335 C 
ATOM     11  O   UNL     1       3.849  17.941 -10.475  1.00  0.00    -0.246 OA
BRANCH  10  12
ATOM     12  O   UNL     1       4.105  15.904 -11.321  1.00  0.00    -0.478 OA
ATOM     13  H   UNL     1       4.819  15.935 -11.972  1.00  0.00     0.297 HD
ENDBRANCH  10  12
ENDBRANCH   6  10
BRANCH   7  14
ATOM     14  C   UNL     1       8.121  16.099  -4.126  1.00  0.00     0.040 A 
ATOM     15  C   UNL     1       9.291  16.851  -4.236  1.00  0.00     0.034 A 
ATOM     16  C   UNL     1       7.857  15.397  -2.947  1.00  0.00     0.034 A 
ATOM     17  C   UNL     1      10.180  16.899  -3.180  1.00  0.00     0.043 A 
ATOM     18  C   UNL     1       8.754  15.453  -1.899  1.00  0.00     0.043 A 
ATOM     19  C   UNL     1       9.913  16.201  -2.015  1.00  0.00     0.041 A 
ATOM     20  Cl  UNL     1      11.636  17.835  -3.315  1.00  0.00    -0.084 Cl
ATOM     21  Cl  UNL     1       8.427  14.582  -0.433  1.00  0.00    -0.084 Cl
ENDBRANCH   7  14
TORSDOF 3
ENDMDL
MODEL 8
REMARK VINA RESULT:    -3.303      4.233      8.213
REMARK INTER + INTRA:          -4.067
REMARK INTER:                  -3.779
REMARK INTRA:                  -0.288
REMARK UNBOUND:                -0.281
REMARK SMILES O=C(O)c1ccc2nc(-c3cc(Cl)cc(Cl)c3)oc2c1
REMARK SMILES IDX 5 1 6 2 20 3 8 4 18 5 4 6 9 7 7 8 19 9 2 10 1 11 3 12 10 14
REMARK SMILES IDX 11 15 17 16 12 17 15 18 14 19 13 20 16 21
REMARK H PARENT 3 13
ROOT
ATOM      1  C   UNL     1      10.770  15.833  -0.813  1.00  0.00     0.018 A 
ATOM      2  C   UNL     1      10.687  16.278  -2.098  1.00  0.00     0.033 A 
ATOM      3  C   UNL     1       8.561  14.849  -0.986  1.00  0.00     0.065 A 
ATOM      4  N   UNL     1       9.173  16.324  -4.120  1.00  0.00    -0.209 NA
ATOM      5  O   UNL     1       7.520  15.214  -3.245  1.00  0.00    -0.436 OA
ATOM      6  C   UNL     1       9.712  15.113  -0.242  1.00  0.00     0.063 A 
ATOM      7  C   UNL     1       7.976  15.843  -4.345  1.00  0.00     0.227 A 
ATOM      8  C   UNL     1       9.538  16.021  -2.856  1.00  0.00     0.110 A 
ATOM      9  C   UNL     1       8.471  15.303  -2.289  1.00  0.00     0.156 A 
ENDROOT
BRANCH   6  10
ATOM     10  C   UNL     1       9.815  14.631   1.147  1.00  0.00     0.335 C 
ATOM     11  O   UNL     1       9.838  15.426   2.066  1.00  0.00    -0.246 OA
BRANCH  10  12
ATOM     12  O   UNL     1       9.886  13.309   1.399  1.00  0.00    -0.478 OA
ATOM     13  H   UNL     1       9.578  13.010   2.265  1.00  0.00     0.297 HD
ENDBRANCH  10  12
ENDBRANCH   6  10
BRANCH   7  14
ATOM     14  C   UNL     1       7.236  15.973  -5.617  1.00  0.00     0.040 A 
ATOM     15  C   UNL     1       7.612  16.937  -6.552  1.00  0.00     0.034 A 
ATOM     16  C   UNL     1       6.155  15.130  -5.887  1.00  0.00     0.034 A 
ATOM     17  C   UNL     1       6.917  17.053  -7.740  1.00  0.00     0.043 A 
ATOM     18  C   UNL     1       5.468  15.255  -7.078  1.00  0.00     0.043 A 
ATOM     19  C   UNL     1       5.847  16.214  -8.002  1.00  0.00     0.041 A 
ATOM     20  Cl  UNL     1       7.384  18.251  -8.905  1.00  0.00    -0.084 Cl
ATOM     21  Cl  UNL     1       4.124  14.209  -7.417  1.00  0.00    -0.084 Cl
ENDBRANCH   7  14
TORSDOF 3
ENDMDL
MODEL 9
REMARK VINA RESULT:    -3.303      4.238      8.455
REMARK INTER + INTRA:          -4.066
REMARK INTER:                  -3.778
REMARK INTRA:                  -0.288
REMARK UNBOUND:                -0.281
REMARK SMILES O=C(O)c1ccc2nc(-c3cc(Cl)cc(Cl)c3)oc2c1
REMARK SMILES IDX 5 1 6 2 20 3 8 4 18 5 4 6 9 7 7 8 19 9 2 10 1 11 3 12 10 14
REMARK SMILES IDX 11 15 17 16 12 17 15 18 14 19 13 20 16 21
REMARK H PARENT 3 13
ROOT
ATOM      1  C   UNL     1      10.776  15.861  -0.805  1.00  0.00     0.018 A 
ATOM      2  C   UNL     1      10.684  16.306  -2.090  1.00  0.00     0.033 A 
ATOM      3  C   UNL     1       8.581  14.843  -0.977  1.00  0.00     0.065 A 
ATOM      4  N   UNL     1       9.167  16.331  -4.110  1.00  0.00    -0.209 NA
ATOM      5  O   UNL     1       7.532  15.195  -3.234  1.00  0.00    -0.436 OA
ATOM      6  C   UNL     1       9.729  15.124  -0.234  1.00  0.00     0.063 A 
ATOM      7  C   UNL     1       7.977  15.832  -4.334  1.00  0.00     0.227 A 
ATOM      8  C   UNL     1       9.539  16.032  -2.847  1.00  0.00     0.110 A 
ATOM      9  C   UNL     1       8.483  15.297  -2.279  1.00  0.00     0.156 A 
ENDROOT
BRANCH   6  10
ATOM     10  C   UNL     1       9.842  14.643   1.155  1.00  0.00     0.335 C 
ATOM     11  O   UNL     1       9.865  15.438   2.073  1.00  0.00    -0.246 OA
BRANCH  10  12
ATOM     12  O   UNL     1       9.921  13.321   1.406  1.00  0.00    -0.478 OA
ATOM     13  H   UNL     1      10.226  13.058   2.285  1.00  0.00     0.297 HD
ENDBRANCH  10  12
ENDBRANCH   6  10
BRANCH   7  14
ATOM     14  C   UNL     1       7.233  15.951  -5.605  1.00  0.00     0.040 A 
ATOM     15  C   UNL     1       6.163  15.097  -5.874  1.00  0.00     0.034 A 
ATOM     16  C   UNL     1       7.600  16.919  -6.542  1.00  0.00     0.034 A 
ATOM     17  C   UNL     1       5.471  15.215  -7.063  1.00  0.00     0.043 A 
ATOM     18  C   UNL     1       6.901  17.026  -7.728  1.00  0.00     0.043 A 
ATOM     19  C   UNL     1       5.840  16.176  -7.989  1.00  0.00     0.041 A 
ATOM     20  Cl  UNL     1       4.139  14.155  -7.399  1.00  0.00    -0.084 Cl
ATOM     21  Cl  UNL     1       7.355  18.229  -8.895  1.00  0.00    -0.084 Cl
ENDBRANCH   7  14
TORSDOF 3
ENDMDL
