MODEL 1
REMARK VINA RESULT:    -4.550      0.000      0.000
REMARK INTER + INTRA:          -5.501
REMARK INTER:                  -5.215
REMARK INTRA:                  -0.286
REMARK UNBOUND:                -0.286
REMARK SMILES O=C(O)c1ccc2nc(-c3cc(Cl)cc(Cl)c3)oc2c1
REMARK SMILES IDX 5 1 6 2 20 3 8 4 18 5 4 6 9 7 7 8 19 9 2 10 1 11 3 12 10 14
REMARK SMILES IDX 11 15 17 16 12 17 15 18 14 19 13 20 16 21
REMARK H PARENT 3 13
ROOT
ATOM      1  C   UNL     1       2.130  -5.022  -2.378  1.00  0.00     0.018 A 
ATOM      2  C   UNL     1       3.214  -5.685  -2.870  1.00  0.00     0.033 A 
ATOM      3  C   UNL     1       2.456  -6.052  -0.207  1.00  0.00     0.065 A 
ATOM      4  N   UNL     1       5.032  -7.321  -2.239  1.00  0.00    -0.209 NA
ATOM      5  O   UNL     1       4.432  -7.606  -0.167  1.00  0.00    -0.436 OA
ATOM      6  C   UNL     1       1.738  -5.195  -1.043  1.00  0.00     0.063 A 
ATOM      7  C   UNL     1       5.317  -7.945  -1.123  1.00  0.00     0.227 A 
ATOM      8  C   UNL     1       3.943  -6.548  -2.043  1.00  0.00     0.110 A 
ATOM      9  C   UNL     1       3.554  -6.730  -0.704  1.00  0.00     0.156 A 
ENDROOT
BRANCH   6  10
ATOM     10  C   UNL     1       0.567  -4.468  -0.520  1.00  0.00     0.335 C 
ATOM     11  O   UNL     1      -0.184  -3.897  -1.285  1.00  0.00    -0.246 OA
BRANCH  10  12
ATOM     12  O   UNL     1       0.331  -4.435   0.807  1.00  0.00    -0.478 OA
ATOM     13  H   UNL     1      -0.583  -4.292   1.087  1.00  0.00     0.297 HD
ENDBRANCH  10  12
ENDBRANCH   6  10
BRANCH   7  14
ATOM     14  C   UNL     1       6.444  -8.884  -0.941  1.00  0.00     0.040 A 
ATOM     15  C   UNL     1       6.251 -10.254  -1.123  1.00  0.00     0.034 A 
ATOM     16  C   UNL     1       7.706  -8.403  -0.586  1.00  0.00     0.034 A 
ATOM     17  C   UNL     1       7.308 -11.126  -0.953  1.00  0.00     0.043 A 
ATOM     18  C   UNL     1       8.755  -9.285  -0.419  1.00  0.00     0.043 A 
ATOM     19  C   UNL     1       8.557 -10.643  -0.601  1.00  0.00     0.041 A 
ATOM     20  Cl  UNL     1       7.071 -12.830  -1.179  1.00  0.00    -0.084 Cl
ATOM     21  Cl  UNL     1      10.325  -8.689   0.022  1.00  0.00    -0.084 Cl
ENDBRANCH   7  14
TORSDOF 3
ENDMDL
MODEL 2
REMARK VINA RESULT:    -4.508      0.133      2.023
REMARK INTER + INTRA:          -5.454
REMARK INTER:                  -5.167
REMARK INTRA:                  -0.286
REMARK UNBOUND:                -0.286
REMARK SMILES O=C(O)c1ccc2nc(-c3cc(Cl)cc(Cl)c3)oc2c1
REMARK SMILES IDX 5 1 6 2 20 3 8 4 18 5 4 6 9 7 7 8 19 9 2 10 1 11 3 12 10 14
REMARK SMILES IDX 11 15 17 16 12 17 15 18 14 19 13 20 16 21
REMARK H PARENT 3 13
ROOT
ATOM      1  C   UNL     1       2.138  -4.887  -2.342  1.00  0.00     0.018 A 
ATOM      2  C   UNL     1       3.240  -5.527  -2.826  1.00  0.00     0.033 A 
ATOM      3  C   UNL     1       2.343  -6.075  -0.238  1.00  0.00     0.065 A 
ATOM      4  N   UNL     1       5.007  -7.229  -2.224  1.00  0.00    -0.209 NA
ATOM      5  O   UNL     1       4.300  -7.654  -0.211  1.00  0.00    -0.436 OA
ATOM      6  C   UNL     1       1.678  -5.150  -1.044  1.00  0.00     0.063 A 
ATOM      7  C   UNL     1       5.229  -7.936  -1.143  1.00  0.00     0.227 A 
ATOM      8  C   UNL     1       3.917  -6.457  -2.027  1.00  0.00     0.110 A 
ATOM      9  C   UNL     1       3.458  -6.730  -0.726  1.00  0.00     0.156 A 
ENDROOT
BRANCH   6  10
ATOM     10  C   UNL     1       0.489  -4.447  -0.530  1.00  0.00     0.335 C 
ATOM     11  O   UNL     1      -0.243  -3.852  -1.295  1.00  0.00    -0.246 OA
BRANCH  10  12
ATOM     12  O   UNL     1       0.213  -4.465   0.790  1.00  0.00    -0.478 OA
ATOM     13  H   UNL     1      -0.343  -5.185   1.113  1.00  0.00     0.297 HD
ENDBRANCH  10  12
ENDBRANCH   6  10
BRANCH   7  14
ATOM     14  C   UNL     1       6.336  -8.900  -0.974  1.00  0.00     0.040 A 
ATOM     15  C   UNL     1       7.615  -8.449  -0.645  1.00  0.00     0.034 A 
ATOM     16  C   UNL     1       6.106 -10.267  -1.143  1.00  0.00     0.034 A 
ATOM     17  C   UNL     1       8.644  -9.355  -0.487  1.00  0.00     0.043 A 
ATOM     18  C   UNL     1       7.143 -11.163  -0.983  1.00  0.00     0.043 A 
ATOM     19  C   UNL     1       8.410 -10.709  -0.656  1.00  0.00     0.041 A 
ATOM     20  Cl  UNL     1      10.236  -8.796  -0.077  1.00  0.00    -0.084 Cl
ATOM     21  Cl  UNL     1       6.860 -12.863  -1.193  1.00  0.00    -0.084 Cl
ENDBRANCH   7  14
TORSDOF 3
ENDMDL
MODEL 3
REMARK VINA RESULT:    -4.454      4.008      7.175
REMARK INTER + INTRA:          -5.392
REMARK INTER:                  -5.096
REMARK INTRA:                  -0.296
REMARK UNBOUND:                -0.286
REMARK SMILES O=C(O)c1ccc2nc(-c3cc(Cl)cc(Cl)c3)oc2c1
REMARK SMILES IDX 5 1 6 2 20 3 8 4 18 5 4 6 9 7 7 8 19 9 2 10 1 11 3 12 10 14
REMARK SMILES IDX 11 15 17 16 12 17 15 18 14 19 13 20 16 21
REMARK H PARENT 3 13
ROOT
ATOM      1  C   UNL     1       6.554 -11.176  -1.056  1.00  0.00     0.018 A 
ATOM      2  C   UNL     1       6.762  -9.830  -1.116  1.00  0.00     0.033 A 
ATOM      3  C   UNL     1       4.175 -10.847  -1.390  1.00  0.00     0.065 A 
ATOM      4  N   UNL     1       5.575  -7.620  -1.414  1.00  0.00    -0.209 NA
ATOM      5  O   UNL     1       3.563  -8.420  -1.621  1.00  0.00    -0.436 OA
ATOM      6  C   UNL     1       5.261 -11.701  -1.194  1.00  0.00     0.063 A 
ATOM      7  C   UNL     1       4.317  -7.305  -1.597  1.00  0.00     0.227 A 
ATOM      8  C   UNL     1       5.681  -8.963  -1.313  1.00  0.00     0.110 A 
ATOM      9  C   UNL     1       4.381  -9.481  -1.447  1.00  0.00     0.156 A 
ENDROOT
BRANCH   6  10
ATOM     10  C   UNL     1       5.050 -13.159  -1.133  1.00  0.00     0.335 C 
ATOM     11  O   UNL     1       3.921 -13.607  -1.082  1.00  0.00    -0.246 OA
BRANCH  10  12
ATOM     12  O   UNL     1       6.107 -13.994  -1.132  1.00  0.00    -0.478 OA
ATOM     13  H   UNL     1       6.427 -14.298  -1.992  1.00  0.00     0.297 HD
ENDBRANCH  10  12
ENDBRANCH   6  10
BRANCH   7  14
ATOM     14  C   UNL     1       3.803  -5.929  -1.753  1.00  0.00     0.040 A 
ATOM     15  C   UNL     1       2.498  -5.619  -1.366  1.00  0.00     0.034 A 
ATOM     16  C   UNL     1       4.621  -4.932  -2.289  1.00  0.00     0.034 A 
ATOM     17  C   UNL     1       2.024  -4.331  -1.514  1.00  0.00     0.043 A 
ATOM     18  C   UNL     1       4.135  -3.647  -2.432  1.00  0.00     0.043 A 
ATOM     19  C   UNL     1       2.840  -3.347  -2.046  1.00  0.00     0.041 A 
ATOM     20  Cl  UNL     1       0.402  -3.944  -1.032  1.00  0.00    -0.084 Cl
ATOM     21  Cl  UNL     1       5.151  -2.406  -3.098  1.00  0.00    -0.084 Cl
ENDBRANCH   7  14
TORSDOF 3
ENDMDL
MODEL 4
REMARK VINA RESULT:    -4.451      3.963      7.470
REMARK INTER + INTRA:          -5.388
REMARK INTER:                  -5.093
REMARK INTRA:                  -0.295
REMARK UNBOUND:                -0.286
REMARK SMILES O=C(O)c1ccc2nc(-c3cc(Cl)cc(Cl)c3)oc2c1
REMARK SMILES IDX 5 1 6 2 20 3 8 4 18 5 4 6 9 7 7 8 19 9 2 10 1 11 3 12 10 14
REMARK SMILES IDX 11 15 17 16 12 17 15 18 14 19 13 20 16 21
REMARK H PARENT 3 13
ROOT
ATOM      1  C   UNL     1       6.302 -11.317  -1.168  1.00  0.00     0.018 A 
ATOM      2  C   UNL     1       5.108 -10.665  -1.252  1.00  0.00     0.033 A 
ATOM      3  C   UNL     1       7.476  -9.199  -1.036  1.00  0.00     0.065 A 
ATOM      4  N   UNL     1       4.069  -8.363  -1.297  1.00  0.00    -0.209 NA
ATOM      5  O   UNL     1       5.918  -7.229  -1.134  1.00  0.00    -0.436 OA
ATOM      6  C   UNL     1       7.499 -10.595  -1.057  1.00  0.00     0.063 A 
ATOM      7  C   UNL     1       4.577  -7.158  -1.238  1.00  0.00     0.227 A 
ATOM      8  C   UNL     1       5.071  -9.266  -1.232  1.00  0.00     0.110 A 
ATOM      9  C   UNL     1       6.267  -8.534  -1.126  1.00  0.00     0.156 A 
ENDROOT
BRANCH   6  10
ATOM     10  C   UNL     1       8.783 -11.311  -0.960  1.00  0.00     0.335 C 
ATOM     11  O   UNL     1       9.827 -10.709  -1.115  1.00  0.00    -0.246 OA
BRANCH  10  12
ATOM     12  O   UNL     1       8.801 -12.633  -0.701  1.00  0.00    -0.478 OA
ATOM     13  H   UNL     1       9.579 -13.128  -0.992  1.00  0.00     0.297 HD
ENDBRANCH  10  12
ENDBRANCH   6  10
BRANCH   7  14
ATOM     14  C   UNL     1       3.795  -5.905  -1.280  1.00  0.00     0.040 A 
ATOM     15  C   UNL     1       2.477  -5.886  -0.821  1.00  0.00     0.034 A 
ATOM     16  C   UNL     1       4.371  -4.736  -1.780  1.00  0.00     0.034 A 
ATOM     17  C   UNL     1       1.751  -4.712  -0.862  1.00  0.00     0.043 A 
ATOM     18  C   UNL     1       3.635  -3.568  -1.815  1.00  0.00     0.043 A 
ATOM     19  C   UNL     1       2.328  -3.556  -1.359  1.00  0.00     0.041 A 
ATOM     20  Cl  UNL     1       0.112  -4.686  -0.292  1.00  0.00    -0.084 Cl
ATOM     21  Cl  UNL     1       4.350  -2.112  -2.436  1.00  0.00    -0.084 Cl
ENDBRANCH   7  14
TORSDOF 3
ENDMDL
MODEL 5
REMARK VINA RESULT:    -4.445      3.963      7.672
REMARK INTER + INTRA:          -5.381
REMARK INTER:                  -5.086
REMARK INTRA:                  -0.295
REMARK UNBOUND:                -0.286
REMARK SMILES O=C(O)c1ccc2nc(-c3cc(Cl)cc(Cl)c3)oc2c1
REMARK SMILES IDX 5 1 6 2 20 3 8 4 18 5 4 6 9 7 7 8 19 9 2 10 1 11 3 12 10 14
REMARK SMILES IDX 11 15 17 16 12 17 15 18 14 19 13 20 16 21
REMARK H PARENT 3 13
ROOT
ATOM      1  C   UNL     1       6.304 -11.319  -1.168  1.00  0.00     0.018 A 
ATOM      2  C   UNL     1       5.111 -10.667  -1.253  1.00  0.00     0.033 A 
ATOM      3  C   UNL     1       7.479  -9.201  -1.037  1.00  0.00     0.065 A 
ATOM      4  N   UNL     1       4.072  -8.364  -1.298  1.00  0.00    -0.209 NA
ATOM      5  O   UNL     1       5.922  -7.230  -1.135  1.00  0.00    -0.436 OA
ATOM      6  C   UNL     1       7.501 -10.597  -1.057  1.00  0.00     0.063 A 
ATOM      7  C   UNL     1       4.581  -7.159  -1.239  1.00  0.00     0.227 A 
ATOM      8  C   UNL     1       5.074  -9.267  -1.233  1.00  0.00     0.110 A 
ATOM      9  C   UNL     1       6.270  -8.536  -1.127  1.00  0.00     0.156 A 
ENDROOT
BRANCH   6  10
ATOM     10  C   UNL     1       8.786 -11.314  -0.961  1.00  0.00     0.335 C 
ATOM     11  O   UNL     1       9.830 -10.712  -1.118  1.00  0.00    -0.246 OA
BRANCH  10  12
ATOM     12  O   UNL     1       8.803 -12.636  -0.699  1.00  0.00    -0.478 OA
ATOM     13  H   UNL     1       8.107 -12.978  -0.123  1.00  0.00     0.297 HD
ENDBRANCH  10  12
ENDBRANCH   6  10
BRANCH   7  14
ATOM     14  C   UNL     1       3.799  -5.906  -1.282  1.00  0.00     0.040 A 
ATOM     15  C   UNL     1       4.373  -4.738  -1.785  1.00  0.00     0.034 A 
ATOM     16  C   UNL     1       2.482  -5.887  -0.817  1.00  0.00     0.034 A 
ATOM     17  C   UNL     1       3.636  -3.571  -1.823  1.00  0.00     0.043 A 
ATOM     18  C   UNL     1       1.756  -4.713  -0.861  1.00  0.00     0.043 A 
ATOM     19  C   UNL     1       2.331  -3.558  -1.361  1.00  0.00     0.041 A 
ATOM     20  Cl  UNL     1       4.348  -2.116  -2.449  1.00  0.00    -0.084 Cl
ATOM     21  Cl  UNL     1       0.118  -4.687  -0.284  1.00  0.00    -0.084 Cl
ENDBRANCH   7  14
TORSDOF 3
ENDMDL
MODEL 6
REMARK VINA RESULT:    -4.437      4.007      7.360
REMARK INTER + INTRA:          -5.372
REMARK INTER:                  -5.076
REMARK INTRA:                  -0.296
REMARK UNBOUND:                -0.286
REMARK SMILES O=C(O)c1ccc2nc(-c3cc(Cl)cc(Cl)c3)oc2c1
REMARK SMILES IDX 5 1 6 2 20 3 8 4 18 5 4 6 9 7 7 8 19 9 2 10 1 11 3 12 10 14
REMARK SMILES IDX 11 15 17 16 12 17 15 18 14 19 13 20 16 21
REMARK H PARENT 3 13
ROOT
ATOM      1  C   UNL     1       6.557 -11.185  -1.060  1.00  0.00     0.018 A 
ATOM      2  C   UNL     1       6.767  -9.840  -1.120  1.00  0.00     0.033 A 
ATOM      3  C   UNL     1       4.179 -10.853  -1.395  1.00  0.00     0.065 A 
ATOM      4  N   UNL     1       5.584  -7.628  -1.417  1.00  0.00    -0.209 NA
ATOM      5  O   UNL     1       3.570  -8.425  -1.625  1.00  0.00    -0.436 OA
ATOM      6  C   UNL     1       5.264 -11.709  -1.198  1.00  0.00     0.063 A 
ATOM      7  C   UNL     1       4.326  -7.311  -1.601  1.00  0.00     0.227 A 
ATOM      8  C   UNL     1       5.687  -8.971  -1.317  1.00  0.00     0.110 A 
ATOM      9  C   UNL     1       4.387  -9.487  -1.451  1.00  0.00     0.156 A 
ENDROOT
BRANCH   6  10
ATOM     10  C   UNL     1       5.050 -13.166  -1.138  1.00  0.00     0.335 C 
ATOM     11  O   UNL     1       3.921 -13.612  -1.088  1.00  0.00    -0.246 OA
BRANCH  10  12
ATOM     12  O   UNL     1       6.106 -14.003  -1.136  1.00  0.00    -0.478 OA
ATOM     13  H   UNL     1       5.916 -14.950  -1.169  1.00  0.00     0.297 HD
ENDBRANCH  10  12
ENDBRANCH   6  10
BRANCH   7  14
ATOM     14  C   UNL     1       3.814  -5.934  -1.756  1.00  0.00     0.040 A 
ATOM     15  C   UNL     1       4.629  -4.939  -2.297  1.00  0.00     0.034 A 
ATOM     16  C   UNL     1       2.511  -5.623  -1.362  1.00  0.00     0.034 A 
ATOM     17  C   UNL     1       4.144  -3.655  -2.440  1.00  0.00     0.043 A 
ATOM     18  C   UNL     1       2.037  -4.335  -1.511  1.00  0.00     0.043 A 
ATOM     19  C   UNL     1       2.851  -3.352  -2.048  1.00  0.00     0.041 A 
ATOM     20  Cl  UNL     1       5.157  -2.416  -3.113  1.00  0.00    -0.084 Cl
ATOM     21  Cl  UNL     1       0.417  -3.946  -1.022  1.00  0.00    -0.084 Cl
ENDBRANCH   7  14
TORSDOF 3
ENDMDL
MODEL 7
REMARK VINA RESULT:    -4.417      2.022      3.037
REMARK INTER + INTRA:          -5.349
REMARK INTER:                  -5.051
REMARK INTRA:                  -0.298
REMARK UNBOUND:                -0.286
REMARK SMILES O=C(O)c1ccc2nc(-c3cc(Cl)cc(Cl)c3)oc2c1
REMARK SMILES IDX 5 1 6 2 20 3 8 4 18 5 4 6 9 7 7 8 19 9 2 10 1 11 3 12 10 14
REMARK SMILES IDX 11 15 17 16 12 17 15 18 14 19 13 20 16 21
REMARK H PARENT 3 13
ROOT
ATOM      1  C   UNL     1       1.792  -4.270  -1.660  1.00  0.00     0.018 A 
ATOM      2  C   UNL     1       1.816  -5.629  -1.569  1.00  0.00     0.033 A 
ATOM      3  C   UNL     1       4.216  -4.201  -1.610  1.00  0.00     0.065 A 
ATOM      4  N   UNL     1       3.375  -7.610  -1.399  1.00  0.00    -0.209 NA
ATOM      5  O   UNL     1       5.240  -6.490  -1.427  1.00  0.00    -0.436 OA
ATOM      6  C   UNL     1       2.989  -3.539  -1.684  1.00  0.00     0.063 A 
ATOM      7  C   UNL     1       4.680  -7.712  -1.360  1.00  0.00     0.227 A 
ATOM      8  C   UNL     1       3.040  -6.305  -1.494  1.00  0.00     0.110 A 
ATOM      9  C   UNL     1       4.244  -5.580  -1.513  1.00  0.00     0.156 A 
ENDROOT
BRANCH   6  10
ATOM     10  C   UNL     1       2.951  -2.069  -1.789  1.00  0.00     0.335 C 
ATOM     11  O   UNL     1       1.892  -1.481  -1.700  1.00  0.00    -0.246 OA
BRANCH  10  12
ATOM     12  O   UNL     1       4.091  -1.378  -1.984  1.00  0.00    -0.478 OA
ATOM     13  H   UNL     1       4.604  -1.590  -2.775  1.00  0.00     0.297 HD
ENDBRANCH  10  12
ENDBRANCH   6  10
BRANCH   7  14
ATOM     14  C   UNL     1       5.427  -8.983  -1.258  1.00  0.00     0.040 A 
ATOM     15  C   UNL     1       6.811  -8.970  -1.078  1.00  0.00     0.034 A 
ATOM     16  C   UNL     1       4.751 -10.202  -1.340  1.00  0.00     0.034 A 
ATOM     17  C   UNL     1       7.503 -10.161  -0.982  1.00  0.00     0.043 A 
ATOM     18  C   UNL     1       5.454 -11.386  -1.242  1.00  0.00     0.043 A 
ATOM     19  C   UNL     1       6.827 -11.366  -1.065  1.00  0.00     0.041 A 
ATOM     20  Cl  UNL     1       9.225 -10.147  -0.759  1.00  0.00    -0.084 Cl
ATOM     21  Cl  UNL     1       4.615 -12.903  -1.345  1.00  0.00    -0.084 Cl
ENDBRANCH   7  14
TORSDOF 3
ENDMDL
MODEL 8
REMARK VINA RESULT:    -4.375      2.024      2.356
REMARK INTER + INTRA:          -5.301
REMARK INTER:                  -5.003
REMARK INTRA:                  -0.298
REMARK UNBOUND:                -0.286
REMARK SMILES O=C(O)c1ccc2nc(-c3cc(Cl)cc(Cl)c3)oc2c1
REMARK SMILES IDX 5 1 6 2 20 3 8 4 18 5 4 6 9 7 7 8 19 9 2 10 1 11 3 12 10 14
REMARK SMILES IDX 11 15 17 16 12 17 15 18 14 19 13 20 16 21
REMARK H PARENT 3 13
ROOT
ATOM      1  C   UNL     1       1.684  -4.201  -1.454  1.00  0.00     0.018 A 
ATOM      2  C   UNL     1       1.716  -5.556  -1.317  1.00  0.00     0.033 A 
ATOM      3  C   UNL     1       4.101  -4.139  -1.640  1.00  0.00     0.065 A 
ATOM      4  N   UNL     1       3.284  -7.535  -1.227  1.00  0.00    -0.209 NA
ATOM      5  O   UNL     1       5.138  -6.423  -1.474  1.00  0.00    -0.436 OA
ATOM      6  C   UNL     1       2.873  -3.476  -1.619  1.00  0.00     0.063 A 
ATOM      7  C   UNL     1       4.587  -7.641  -1.310  1.00  0.00     0.227 A 
ATOM      8  C   UNL     1       2.942  -6.234  -1.336  1.00  0.00     0.110 A 
ATOM      9  C   UNL     1       4.139  -5.513  -1.496  1.00  0.00     0.156 A 
ENDROOT
BRANCH   6  10
ATOM     10  C   UNL     1       2.825  -2.011  -1.773  1.00  0.00     0.335 C 
ATOM     11  O   UNL     1       1.755  -1.436  -1.782  1.00  0.00    -0.246 OA
BRANCH  10  12
ATOM     12  O   UNL     1       3.969  -1.309  -1.903  1.00  0.00    -0.478 OA
ATOM     13  H   UNL     1       4.290  -1.157  -2.802  1.00  0.00     0.297 HD
ENDBRANCH  10  12
ENDBRANCH   6  10
BRANCH   7  14
ATOM     14  C   UNL     1       5.341  -8.910  -1.234  1.00  0.00     0.040 A 
ATOM     15  C   UNL     1       4.671 -10.130  -1.334  1.00  0.00     0.034 A 
ATOM     16  C   UNL     1       6.726  -8.892  -1.061  1.00  0.00     0.034 A 
ATOM     17  C   UNL     1       5.381 -11.312  -1.263  1.00  0.00     0.043 A 
ATOM     18  C   UNL     1       7.425 -10.080  -0.992  1.00  0.00     0.043 A 
ATOM     19  C   UNL     1       6.755 -11.288  -1.091  1.00  0.00     0.041 A 
ATOM     20  Cl  UNL     1       4.550 -12.831  -1.387  1.00  0.00    -0.084 Cl
ATOM     21  Cl  UNL     1       9.148 -10.061  -0.778  1.00  0.00    -0.084 Cl
ENDBRANCH   7  14
TORSDOF 3
ENDMDL
MODEL 9
REMARK VINA RESULT:    -4.329      1.796      2.118
REMARK INTER + INTRA:          -5.248
REMARK INTER:                  -4.951
REMARK INTRA:                  -0.298
REMARK UNBOUND:                -0.286
REMARK SMILES O=C(O)c1ccc2nc(-c3cc(Cl)cc(Cl)c3)oc2c1
REMARK SMILES IDX 5 1 6 2 20 3 8 4 18 5 4 6 9 7 7 8 19 9 2 10 1 11 3 12 10 14
REMARK SMILES IDX 11 15 17 16 12 17 15 18 14 19 13 20 16 21
REMARK H PARENT 3 13
ROOT
ATOM      1  C   UNL     1       3.790  -3.226  -1.894  1.00  0.00     0.018 A 
ATOM      2  C   UNL     1       4.843  -4.091  -1.869  1.00  0.00     0.033 A 
ATOM      3  C   UNL     1       2.241  -5.062  -1.565  1.00  0.00     0.065 A 
ATOM      4  N   UNL     1       5.435  -6.535  -1.627  1.00  0.00    -0.209 NA
ATOM      5  O   UNL     1       3.406  -7.284  -1.396  1.00  0.00    -0.436 OA
ATOM      6  C   UNL     1       2.479  -3.698  -1.741  1.00  0.00     0.063 A 
ATOM      7  C   UNL     1       4.710  -7.612  -1.450  1.00  0.00     0.227 A 
ATOM      8  C   UNL     1       4.618  -5.462  -1.693  1.00  0.00     0.110 A 
ATOM      9  C   UNL     1       3.306  -5.944  -1.544  1.00  0.00     0.156 A 
ENDROOT
BRANCH   6  10
ATOM     10  C   UNL     1       1.349  -2.752  -1.764  1.00  0.00     0.335 C 
ATOM     11  O   UNL     1       1.559  -1.557  -1.829  1.00  0.00    -0.246 OA
BRANCH  10  12
ATOM     12  O   UNL     1       0.083  -3.211  -1.712  1.00  0.00    -0.478 OA
ATOM     13  H   UNL     1      -0.417  -3.213  -2.538  1.00  0.00     0.297 HD
ENDBRANCH  10  12
ENDBRANCH   6  10
BRANCH   7  14
ATOM     14  C   UNL     1       5.246  -8.983  -1.329  1.00  0.00     0.040 A 
ATOM     15  C   UNL     1       4.387 -10.081  -1.399  1.00  0.00     0.034 A 
ATOM     16  C   UNL     1       6.615  -9.186  -1.142  1.00  0.00     0.034 A 
ATOM     17  C   UNL     1       4.895 -11.360  -1.287  1.00  0.00     0.043 A 
ATOM     18  C   UNL     1       7.111 -10.470  -1.031  1.00  0.00     0.043 A 
ATOM     19  C   UNL     1       6.253 -11.555  -1.102  1.00  0.00     0.041 A 
ATOM     20  Cl  UNL     1       3.828 -12.727  -1.375  1.00  0.00    -0.084 Cl
ATOM     21  Cl  UNL     1       8.813 -10.725  -0.799  1.00  0.00    -0.084 Cl
ENDBRANCH   7  14
TORSDOF 3
ENDMDL
