MODEL 1
REMARK VINA RESULT:    -5.755      0.000      0.000
REMARK INTER + INTRA:          -8.465
REMARK INTER:                  -7.942
REMARK INTRA:                  -0.523
REMARK UNBOUND:                -0.523
REMARK SMILES Cc1n[nH]c(C)c1CCCOc1cc(C(=O)O)ccc1F
REMARK SMILES IDX 11 1 12 2 14 3 18 4 13 5 19 6 20 7 21 8 15 9 16 10 17 11
REMARK SMILES IDX 10 13 9 14 8 15 7 16 5 17 2 18 4 19 3 20 6 21 1 22
REMARK H PARENT 17 12 4 23
ROOT
ATOM      1  O   UNL     1       3.796  -5.987   0.706  1.00  0.00    -0.490 OA
ENDROOT
BRANCH   1   2
ATOM      2  C   UNL     1       3.429  -5.087  -0.244  1.00  0.00     0.155 A 
ATOM      3  C   UNL     1       4.002  -3.616  -2.058  1.00  0.00     0.063 A 
ATOM      4  C   UNL     1       2.658  -3.257  -2.187  1.00  0.00     0.019 A 
ATOM      5  C   UNL     1       4.383  -4.537  -1.080  1.00  0.00     0.065 A 
ATOM      6  C   UNL     1       1.713  -3.815  -1.352  1.00  0.00     0.044 A 
ATOM      7  C   UNL     1       2.092  -4.732  -0.386  1.00  0.00     0.165 A 
ATOM      8  F   UNL     1       1.161  -5.276   0.428  1.00  0.00    -0.203 F 
BRANCH   3   9
ATOM      9  C   UNL     1       5.017  -3.020  -2.950  1.00  0.00     0.335 C 
ATOM     10  O   UNL     1       6.179  -2.972  -2.601  1.00  0.00    -0.246 OA
BRANCH   9  11
ATOM     11  O   UNL     1       4.654  -2.536  -4.154  1.00  0.00    -0.478 OA
ATOM     12  H   UNL     1       5.358  -2.402  -4.804  1.00  0.00     0.297 HD
ENDBRANCH   9  11
ENDBRANCH   3   9
ENDBRANCH   1   2
BRANCH   1  13
ATOM     13  C   UNL     1       3.312  -7.324   0.554  1.00  0.00     0.230 C 
BRANCH  13  14
ATOM     14  C   UNL     1       4.498  -8.288   0.475  1.00  0.00     0.046 C 
BRANCH  14  15
ATOM     15  C   UNL     1       4.813  -8.590  -0.991  1.00  0.00     0.043 C 
BRANCH  15  16
ATOM     16  C   UNL     1       5.545  -9.903  -1.089  1.00  0.00    -0.004 A 
ATOM     17  C   UNL     1       6.883 -10.079  -0.986  1.00  0.00     0.036 A 
ATOM     18  C   UNL     1       4.961 -11.158  -1.295  1.00  0.00     0.063 A 
ATOM     19  N   UNL     1       7.137 -11.397  -1.129  1.00  0.00    -0.282 N 
ATOM     20  N   UNL     1       5.915 -12.053  -1.326  1.00  0.00    -0.181 NA
ATOM     21  C   UNL     1       7.905  -8.997  -0.754  1.00  0.00     0.066 C 
ATOM     22  C   UNL     1       3.488 -11.430  -1.464  1.00  0.00     0.069 C 
ATOM     23  H   UNL     1       8.011 -11.816  -1.101  1.00  0.00     0.190 HD
ENDBRANCH  15  16
ENDBRANCH  14  15
ENDBRANCH  13  14
ENDBRANCH   1  13
TORSDOF 7
ENDMDL
MODEL 2
REMARK VINA RESULT:    -5.747      2.144      3.751
REMARK INTER + INTRA:          -8.453
REMARK INTER:                  -7.804
REMARK INTRA:                  -0.649
REMARK UNBOUND:                -0.523
REMARK SMILES Cc1n[nH]c(C)c1CCCOc1cc(C(=O)O)ccc1F
REMARK SMILES IDX 11 1 12 2 14 3 18 4 13 5 19 6 20 7 21 8 15 9 16 10 17 11
REMARK SMILES IDX 10 13 9 14 8 15 7 16 5 17 2 18 4 19 3 20 6 21 1 22
REMARK H PARENT 17 12 4 23
ROOT
ATOM      1  O   UNL     1       5.040  -5.812  -2.318  1.00  0.00    -0.490 OA
ENDROOT
BRANCH   1   2
ATOM      2  C   UNL     1       4.039  -4.938  -2.034  1.00  0.00     0.155 A 
ATOM      3  C   UNL     1       1.897  -4.465  -1.050  1.00  0.00     0.063 A 
ATOM      4  C   UNL     1       2.009  -3.132  -1.455  1.00  0.00     0.019 A 
ATOM      5  C   UNL     1       2.921  -5.367  -1.345  1.00  0.00     0.065 A 
ATOM      6  C   UNL     1       3.131  -2.711  -2.137  1.00  0.00     0.044 A 
ATOM      7  C   UNL     1       4.148  -3.607  -2.424  1.00  0.00     0.165 A 
ATOM      8  F   UNL     1       5.245  -3.189  -3.092  1.00  0.00    -0.203 F 
BRANCH   3   9
ATOM      9  C   UNL     1       0.697  -4.918  -0.320  1.00  0.00     0.335 C 
ATOM     10  O   UNL     1       0.063  -5.871  -0.725  1.00  0.00    -0.246 OA
BRANCH   9  11
ATOM     11  O   UNL     1       0.309  -4.278   0.801  1.00  0.00    -0.478 OA
ATOM     12  H   UNL     1       0.724  -4.554   1.630  1.00  0.00     0.297 HD
ENDBRANCH   9  11
ENDBRANCH   3   9
ENDBRANCH   1   2
BRANCH   1  13
ATOM     13  C   UNL     1       4.815  -6.730  -3.391  1.00  0.00     0.230 C 
BRANCH  13  14
ATOM     14  C   UNL     1       5.514  -8.055  -3.083  1.00  0.00     0.046 C 
BRANCH  14  15
ATOM     15  C   UNL     1       5.290  -8.421  -1.614  1.00  0.00     0.043 C 
BRANCH  15  16
ATOM     16  C   UNL     1       5.887  -9.777  -1.337  1.00  0.00    -0.004 A 
ATOM     17  C   UNL     1       5.227 -10.958  -1.364  1.00  0.00     0.036 A 
ATOM     18  C   UNL     1       7.222 -10.037  -1.012  1.00  0.00     0.063 A 
ATOM     19  N   UNL     1       6.112 -11.931  -1.061  1.00  0.00    -0.282 N 
ATOM     20  N   UNL     1       7.357 -11.327  -0.839  1.00  0.00    -0.181 NA
ATOM     21  C   UNL     1       3.766 -11.152  -1.678  1.00  0.00     0.066 C 
ATOM     22  C   UNL     1       8.315  -9.008  -0.872  1.00  0.00     0.069 C 
ATOM     23  H   UNL     1       5.920 -12.880  -1.005  1.00  0.00     0.190 HD
ENDBRANCH  15  16
ENDBRANCH  14  15
ENDBRANCH  13  14
ENDBRANCH   1  13
TORSDOF 7
ENDMDL
MODEL 3
REMARK VINA RESULT:    -5.692      0.313      1.789
REMARK INTER + INTRA:          -8.378
REMARK INTER:                  -7.730
REMARK INTRA:                  -0.648
REMARK UNBOUND:                -0.523
REMARK SMILES Cc1n[nH]c(C)c1CCCOc1cc(C(=O)O)ccc1F
REMARK SMILES IDX 11 1 12 2 14 3 18 4 13 5 19 6 20 7 21 8 15 9 16 10 17 11
REMARK SMILES IDX 10 13 9 14 8 15 7 16 5 17 2 18 4 19 3 20 6 21 1 22
REMARK H PARENT 17 12 4 23
ROOT
ATOM      1  O   UNL     1       3.769  -6.197   0.557  1.00  0.00    -0.490 OA
ENDROOT
BRANCH   1   2
ATOM      2  C   UNL     1       3.408  -5.225  -0.322  1.00  0.00     0.155 A 
ATOM      3  C   UNL     1       3.982  -3.659  -2.054  1.00  0.00     0.063 A 
ATOM      4  C   UNL     1       2.647  -3.248  -2.119  1.00  0.00     0.019 A 
ATOM      5  C   UNL     1       4.357  -4.653  -1.149  1.00  0.00     0.065 A 
ATOM      6  C   UNL     1       1.707  -3.828  -1.295  1.00  0.00     0.044 A 
ATOM      7  C   UNL     1       2.081  -4.818  -0.401  1.00  0.00     0.165 A 
ATOM      8  F   UNL     1       1.154  -5.383   0.404  1.00  0.00    -0.203 F 
BRANCH   3   9
ATOM      9  C   UNL     1       4.991  -3.040  -2.936  1.00  0.00     0.335 C 
ATOM     10  O   UNL     1       6.152  -2.988  -2.586  1.00  0.00    -0.246 OA
BRANCH   9  11
ATOM     11  O   UNL     1       4.624  -2.539  -4.131  1.00  0.00    -0.478 OA
ATOM     12  H   UNL     1       4.093  -1.730  -4.125  1.00  0.00     0.297 HD
ENDBRANCH   9  11
ENDBRANCH   3   9
ENDBRANCH   1   2
BRANCH   1  13
ATOM     13  C   UNL     1       3.453  -7.545   0.200  1.00  0.00     0.230 C 
BRANCH  13  14
ATOM     14  C   UNL     1       4.731  -8.385   0.199  1.00  0.00     0.046 C 
BRANCH  14  15
ATOM     15  C   UNL     1       5.038  -8.846  -1.228  1.00  0.00     0.043 C 
BRANCH  15  16
ATOM     16  C   UNL     1       5.589 -10.248  -1.196  1.00  0.00    -0.004 A 
ATOM     17  C   UNL     1       4.872 -11.388  -1.327  1.00  0.00     0.036 A 
ATOM     18  C   UNL     1       6.933 -10.600  -1.032  1.00  0.00     0.063 A 
ATOM     19  N   UNL     1       5.731 -12.426  -1.243  1.00  0.00    -0.282 N 
ATOM     20  N   UNL     1       7.018 -11.906  -1.053  1.00  0.00    -0.181 NA
ATOM     21  C   UNL     1       3.383 -11.483  -1.532  1.00  0.00     0.066 C 
ATOM     22  C   UNL     1       8.082  -9.642  -0.850  1.00  0.00     0.069 C 
ATOM     23  H   UNL     1       5.499 -13.365  -1.302  1.00  0.00     0.190 HD
ENDBRANCH  15  16
ENDBRANCH  14  15
ENDBRANCH  13  14
ENDBRANCH   1  13
TORSDOF 7
ENDMDL
MODEL 4
REMARK VINA RESULT:    -5.688      2.161      3.317
REMARK INTER + INTRA:          -8.373
REMARK INTER:                  -7.700
REMARK INTRA:                  -0.672
REMARK UNBOUND:                -0.523
REMARK SMILES Cc1n[nH]c(C)c1CCCOc1cc(C(=O)O)ccc1F
REMARK SMILES IDX 11 1 12 2 14 3 18 4 13 5 19 6 20 7 21 8 15 9 16 10 17 11
REMARK SMILES IDX 10 13 9 14 8 15 7 16 5 17 2 18 4 19 3 20 6 21 1 22
REMARK H PARENT 17 12 4 23
ROOT
ATOM      1  O   UNL     1       5.068  -5.989  -2.186  1.00  0.00    -0.490 OA
ENDROOT
BRANCH   1   2
ATOM      2  C   UNL     1       4.081  -5.086  -1.941  1.00  0.00     0.155 A 
ATOM      3  C   UNL     1       1.931  -4.545  -1.010  1.00  0.00     0.063 A 
ATOM      4  C   UNL     1       2.082  -3.224  -1.440  1.00  0.00     0.019 A 
ATOM      5  C   UNL     1       2.940  -5.476  -1.265  1.00  0.00     0.065 A 
ATOM      6  C   UNL     1       3.227  -2.843  -2.108  1.00  0.00     0.044 A 
ATOM      7  C   UNL     1       4.228  -3.767  -2.355  1.00  0.00     0.165 A 
ATOM      8  F   UNL     1       5.348  -3.387  -3.010  1.00  0.00    -0.203 F 
BRANCH   3   9
ATOM      9  C   UNL     1       0.707  -4.956  -0.295  1.00  0.00     0.335 C 
ATOM     10  O   UNL     1       0.049  -5.890  -0.705  1.00  0.00    -0.246 OA
BRANCH   9  11
ATOM     11  O   UNL     1       0.325  -4.299   0.817  1.00  0.00    -0.478 OA
ATOM     12  H   UNL     1      -0.042  -3.411   0.699  1.00  0.00     0.297 HD
ENDBRANCH   9  11
ENDBRANCH   3   9
ENDBRANCH   1   2
BRANCH   1  13
ATOM     13  C   UNL     1       4.893  -6.850  -3.314  1.00  0.00     0.230 C 
BRANCH  13  14
ATOM     14  C   UNL     1       5.599  -8.182  -3.052  1.00  0.00     0.046 C 
BRANCH  14  15
ATOM     15  C   UNL     1       5.539  -8.506  -1.558  1.00  0.00     0.043 C 
BRANCH  15  16
ATOM     16  C   UNL     1       6.253  -9.806  -1.295  1.00  0.00    -0.004 A 
ATOM     17  C   UNL     1       7.572  -9.950  -1.029  1.00  0.00     0.036 A 
ATOM     18  C   UNL     1       5.669 -11.077  -1.278  1.00  0.00     0.063 A 
ATOM     19  N   UNL     1       7.815 -11.267  -0.856  1.00  0.00    -0.282 N 
ATOM     20  N   UNL     1       6.606 -11.954  -1.021  1.00  0.00    -0.181 NA
ATOM     21  C   UNL     1       8.587  -8.841  -0.942  1.00  0.00     0.066 C 
ATOM     22  C   UNL     1       4.214 -11.385  -1.524  1.00  0.00     0.069 C 
ATOM     23  H   UNL     1       8.676 -11.666  -0.654  1.00  0.00     0.190 HD
ENDBRANCH  15  16
ENDBRANCH  14  15
ENDBRANCH  13  14
ENDBRANCH   1  13
TORSDOF 7
ENDMDL
MODEL 5
REMARK VINA RESULT:    -4.791      3.830      6.604
REMARK INTER + INTRA:          -7.134
REMARK INTER:                  -6.311
REMARK INTRA:                  -0.823
REMARK UNBOUND:                -0.523
REMARK SMILES Cc1n[nH]c(C)c1CCCOc1cc(C(=O)O)ccc1F
REMARK SMILES IDX 11 1 12 2 14 3 18 4 13 5 19 6 20 7 21 8 15 9 16 10 17 11
REMARK SMILES IDX 10 13 9 14 8 15 7 16 5 17 2 18 4 19 3 20 6 21 1 22
REMARK H PARENT 17 12 4 23
ROOT
ATOM      1  O   UNL     1       3.689  -7.899  -1.326  1.00  0.00    -0.490 OA
ENDROOT
BRANCH   1   2
ATOM      2  C   UNL     1       4.653  -8.856  -1.263  1.00  0.00     0.155 A 
ATOM      3  C   UNL     1       6.957  -9.483  -0.980  1.00  0.00     0.063 A 
ATOM      4  C   UNL     1       6.605 -10.828  -1.127  1.00  0.00     0.019 A 
ATOM      5  C   UNL     1       5.971  -8.497  -1.049  1.00  0.00     0.065 A 
ATOM      6  C   UNL     1       5.287 -11.177  -1.333  1.00  0.00     0.044 A 
ATOM      7  C   UNL     1       4.310 -10.197  -1.397  1.00  0.00     0.165 A 
ATOM      8  F   UNL     1       3.020 -10.546  -1.600  1.00  0.00    -0.203 F 
BRANCH   3   9
ATOM      9  C   UNL     1       8.367  -9.106  -0.758  1.00  0.00     0.335 C 
ATOM     10  O   UNL     1       8.647  -7.976  -0.415  1.00  0.00    -0.246 OA
BRANCH   9  11
ATOM     11  O   UNL     1       9.343 -10.020  -0.930  1.00  0.00    -0.478 OA
ATOM     12  H   UNL     1       9.865  -9.957  -1.742  1.00  0.00     0.297 HD
ENDBRANCH   9  11
ENDBRANCH   3   9
ENDBRANCH   1   2
BRANCH   1  13
ATOM     13  C   UNL     1       3.766  -6.837  -0.372  1.00  0.00     0.230 C 
BRANCH  13  14
ATOM     14  C   UNL     1       2.633  -5.841  -0.626  1.00  0.00     0.046 C 
BRANCH  14  15
ATOM     15  C   UNL     1       2.426  -5.679  -2.133  1.00  0.00     0.043 C 
BRANCH  15  16
ATOM     16  C   UNL     1       3.374  -4.634  -2.662  1.00  0.00    -0.004 A 
ATOM     17  C   UNL     1       3.321  -3.307  -2.404  1.00  0.00     0.036 A 
ATOM     18  C   UNL     1       4.469  -4.866  -3.501  1.00  0.00     0.063 A 
ATOM     19  N   UNL     1       4.343  -2.719  -3.062  1.00  0.00    -0.282 N 
ATOM     20  N   UNL     1       5.046  -3.718  -3.747  1.00  0.00    -0.181 NA
ATOM     21  C   UNL     1       2.305  -2.611  -1.537  1.00  0.00     0.066 C 
ATOM     22  C   UNL     1       4.902  -6.206  -4.039  1.00  0.00     0.069 C 
ATOM     23  H   UNL     1       4.552  -1.772  -3.061  1.00  0.00     0.190 HD
ENDBRANCH  15  16
ENDBRANCH  14  15
ENDBRANCH  13  14
ENDBRANCH   1  13
TORSDOF 7
ENDMDL
MODEL 6
REMARK VINA RESULT:    -4.768      3.804      6.570
REMARK INTER + INTRA:          -7.103
REMARK INTER:                  -6.262
REMARK INTRA:                  -0.841
REMARK UNBOUND:                -0.523
REMARK SMILES Cc1n[nH]c(C)c1CCCOc1cc(C(=O)O)ccc1F
REMARK SMILES IDX 11 1 12 2 14 3 18 4 13 5 19 6 20 7 21 8 15 9 16 10 17 11
REMARK SMILES IDX 10 13 9 14 8 15 7 16 5 17 2 18 4 19 3 20 6 21 1 22
REMARK H PARENT 17 12 4 23
ROOT
ATOM      1  O   UNL     1       3.506  -8.004  -1.311  1.00  0.00    -0.490 OA
ENDROOT
BRANCH   1   2
ATOM      2  C   UNL     1       4.494  -8.937  -1.254  1.00  0.00     0.155 A 
ATOM      3  C   UNL     1       6.810  -9.509  -0.949  1.00  0.00     0.063 A 
ATOM      4  C   UNL     1       6.496 -10.859  -1.131  1.00  0.00     0.019 A 
ATOM      5  C   UNL     1       5.798  -8.548  -1.012  1.00  0.00     0.065 A 
ATOM      6  C   UNL     1       5.191 -11.237  -1.366  1.00  0.00     0.044 A 
ATOM      7  C   UNL     1       4.189 -10.283  -1.423  1.00  0.00     0.165 A 
ATOM      8  F   UNL     1       2.913 -10.661  -1.654  1.00  0.00    -0.203 F 
BRANCH   3   9
ATOM      9  C   UNL     1       8.205  -9.100  -0.697  1.00  0.00     0.335 C 
ATOM     10  O   UNL     1       8.617  -9.016   0.442  1.00  0.00    -0.246 OA
BRANCH   9  11
ATOM     11  O   UNL     1       9.024  -8.826  -1.731  1.00  0.00    -0.478 OA
ATOM     12  H   UNL     1       9.734  -8.188  -1.573  1.00  0.00     0.297 HD
ENDBRANCH   9  11
ENDBRANCH   3   9
ENDBRANCH   1   2
BRANCH   1  13
ATOM     13  C   UNL     1       3.632  -6.872  -0.447  1.00  0.00     0.230 C 
BRANCH  13  14
ATOM     14  C   UNL     1       2.502  -5.883  -0.736  1.00  0.00     0.046 C 
BRANCH  14  15
ATOM     15  C   UNL     1       2.387  -5.666  -2.246  1.00  0.00     0.043 C 
BRANCH  15  16
ATOM     16  C   UNL     1       3.396  -4.636  -2.684  1.00  0.00    -0.004 A 
ATOM     17  C   UNL     1       4.490  -4.867  -3.447  1.00  0.00     0.036 A 
ATOM     18  C   UNL     1       3.363  -3.271  -2.380  1.00  0.00     0.063 A 
ATOM     19  N   UNL     1       5.131  -3.690  -3.613  1.00  0.00    -0.282 N 
ATOM     20  N   UNL     1       4.406  -2.704  -2.931  1.00  0.00    -0.181 NA
ATOM     21  C   UNL     1       4.916  -6.198  -4.009  1.00  0.00     0.066 C 
ATOM     22  C   UNL     1       2.315  -2.575  -1.551  1.00  0.00     0.069 C 
ATOM     23  H   UNL     1       5.948  -3.552  -4.116  1.00  0.00     0.190 HD
ENDBRANCH  15  16
ENDBRANCH  14  15
ENDBRANCH  13  14
ENDBRANCH   1  13
TORSDOF 7
ENDMDL
MODEL 7
REMARK VINA RESULT:    -4.645      3.962      7.064
REMARK INTER + INTRA:          -6.932
REMARK INTER:                  -6.124
REMARK INTRA:                  -0.808
REMARK UNBOUND:                -0.523
REMARK SMILES Cc1n[nH]c(C)c1CCCOc1cc(C(=O)O)ccc1F
REMARK SMILES IDX 11 1 12 2 14 3 18 4 13 5 19 6 20 7 21 8 15 9 16 10 17 11
REMARK SMILES IDX 10 13 9 14 8 15 7 16 5 17 2 18 4 19 3 20 6 21 1 22
REMARK H PARENT 17 12 4 23
ROOT
ATOM      1  O   UNL     1       5.380  -6.973  -1.607  1.00  0.00    -0.490 OA
ENDROOT
BRANCH   1   2
ATOM      2  C   UNL     1       5.550  -8.314  -1.458  1.00  0.00     0.155 A 
ATOM      3  C   UNL     1       4.668 -10.550  -1.523  1.00  0.00     0.063 A 
ATOM      4  C   UNL     1       5.921 -11.050  -1.159  1.00  0.00     0.019 A 
ATOM      5  C   UNL     1       4.488  -9.173  -1.671  1.00  0.00     0.065 A 
ATOM      6  C   UNL     1       6.976 -10.186  -0.955  1.00  0.00     0.044 A 
ATOM      7  C   UNL     1       6.796  -8.821  -1.108  1.00  0.00     0.165 A 
ATOM      8  F   UNL     1       7.834  -7.979  -0.906  1.00  0.00    -0.203 F 
BRANCH   3   9
ATOM      9  C   UNL     1       3.537 -11.472  -1.742  1.00  0.00     0.335 C 
ATOM     10  O   UNL     1       2.794 -11.752  -0.824  1.00  0.00    -0.246 OA
BRANCH   9  11
ATOM     11  O   UNL     1       3.326 -11.999  -2.965  1.00  0.00    -0.478 OA
ATOM     12  H   UNL     1       2.677 -11.555  -3.528  1.00  0.00     0.297 HD
ENDBRANCH   9  11
ENDBRANCH   3   9
ENDBRANCH   1   2
BRANCH   1  13
ATOM     13  C   UNL     1       4.921  -6.515  -2.881  1.00  0.00     0.230 C 
BRANCH  13  14
ATOM     14  C   UNL     1       4.206  -5.173  -2.713  1.00  0.00     0.046 C 
BRANCH  14  15
ATOM     15  C   UNL     1       4.272  -4.741  -1.246  1.00  0.00     0.043 C 
BRANCH  15  16
ATOM     16  C   UNL     1       2.882  -4.713  -0.667  1.00  0.00    -0.004 A 
ATOM     17  C   UNL     1       1.892  -3.856  -1.011  1.00  0.00     0.036 A 
ATOM     18  C   UNL     1       2.382  -5.573   0.317  1.00  0.00     0.063 A 
ATOM     19  N   UNL     1       0.808  -4.159  -0.266  1.00  0.00    -0.282 N 
ATOM     20  N   UNL     1       1.142  -5.237   0.563  1.00  0.00    -0.181 NA
ATOM     21  C   UNL     1       1.985  -2.761  -2.041  1.00  0.00     0.066 C 
ATOM     22  C   UNL     1       3.146  -6.687   0.988  1.00  0.00     0.069 C 
ATOM     23  H   UNL     1      -0.050  -3.709  -0.298  1.00  0.00     0.190 HD
ENDBRANCH  15  16
ENDBRANCH  14  15
ENDBRANCH  13  14
ENDBRANCH   1  13
TORSDOF 7
ENDMDL
MODEL 8
REMARK VINA RESULT:    -4.512      3.175      4.514
REMARK INTER + INTRA:          -6.749
REMARK INTER:                  -6.186
REMARK INTRA:                  -0.564
REMARK UNBOUND:                -0.523
REMARK SMILES Cc1n[nH]c(C)c1CCCOc1cc(C(=O)O)ccc1F
REMARK SMILES IDX 11 1 12 2 14 3 18 4 13 5 19 6 20 7 21 8 15 9 16 10 17 11
REMARK SMILES IDX 10 13 9 14 8 15 7 16 5 17 2 18 4 19 3 20 6 21 1 22
REMARK H PARENT 17 12 4 23
ROOT
ATOM      1  O   UNL     1       4.994  -9.885  -1.021  1.00  0.00    -0.490 OA
ENDROOT
BRANCH   1   2
ATOM      2  C   UNL     1       4.674  -8.566  -1.097  1.00  0.00     0.155 A 
ATOM      3  C   UNL     1       4.512  -6.526  -2.360  1.00  0.00     0.063 A 
ATOM      4  C   UNL     1       4.005  -5.873  -1.233  1.00  0.00     0.019 A 
ATOM      5  C   UNL     1       4.847  -7.880  -2.285  1.00  0.00     0.065 A 
ATOM      6  C   UNL     1       3.831  -6.568  -0.054  1.00  0.00     0.044 A 
ATOM      7  C   UNL     1       4.159  -7.912   0.016  1.00  0.00     0.165 A 
ATOM      8  F   UNL     1       3.986  -8.586   1.174  1.00  0.00    -0.203 F 
BRANCH   3   9
ATOM      9  C   UNL     1       4.699  -5.786  -3.623  1.00  0.00     0.335 C 
ATOM     10  O   UNL     1       4.561  -4.580  -3.647  1.00  0.00    -0.246 OA
BRANCH   9  11
ATOM     11  O   UNL     1       5.029  -6.449  -4.749  1.00  0.00    -0.478 OA
ATOM     12  H   UNL     1       5.083  -5.930  -5.564  1.00  0.00     0.297 HD
ENDBRANCH   9  11
ENDBRANCH   3   9
ENDBRANCH   1   2
BRANCH   1  13
ATOM     13  C   UNL     1       4.248 -10.782  -1.847  1.00  0.00     0.230 C 
BRANCH  13  14
ATOM     14  C   UNL     1       3.856 -12.017  -1.034  1.00  0.00     0.046 C 
BRANCH  14  15
ATOM     15  C   UNL     1       4.817 -13.164  -1.352  1.00  0.00     0.043 C 
BRANCH  15  16
ATOM     16  C   UNL     1       4.035 -14.438  -1.541  1.00  0.00    -0.004 A 
ATOM     17  C   UNL     1       3.345 -14.792  -2.650  1.00  0.00     0.036 A 
ATOM     18  C   UNL     1       3.900 -15.467  -0.603  1.00  0.00     0.063 A 
ATOM     19  N   UNL     1       2.787 -15.999  -2.419  1.00  0.00    -0.282 N 
ATOM     20  N   UNL     1       3.147 -16.400  -1.125  1.00  0.00    -0.181 NA
ATOM     21  C   UNL     1       3.222 -13.984  -3.915  1.00  0.00     0.066 C 
ATOM     22  C   UNL     1       4.507 -15.491   0.777  1.00  0.00     0.069 C 
ATOM     23  H   UNL     1       2.234 -16.500  -3.039  1.00  0.00     0.190 HD
ENDBRANCH  15  16
ENDBRANCH  14  15
ENDBRANCH  13  14
ENDBRANCH   1  13
TORSDOF 7
ENDMDL
MODEL 9
REMARK VINA RESULT:    -4.440      4.924      7.948
REMARK INTER + INTRA:          -6.650
REMARK INTER:                  -5.972
REMARK INTRA:                  -0.678
REMARK UNBOUND:                -0.523
REMARK SMILES Cc1n[nH]c(C)c1CCCOc1cc(C(=O)O)ccc1F
REMARK SMILES IDX 11 1 12 2 14 3 18 4 13 5 19 6 20 7 21 8 15 9 16 10 17 11
REMARK SMILES IDX 10 13 9 14 8 15 7 16 5 17 2 18 4 19 3 20 6 21 1 22
REMARK H PARENT 17 12 4 23
ROOT
ATOM      1  O   UNL     1       7.273  -9.101  -1.325  1.00  0.00    -0.490 OA
ENDROOT
BRANCH   1   2
ATOM      2  C   UNL     1       8.342  -9.795  -0.852  1.00  0.00     0.155 A 
ATOM      3  C   UNL     1       9.705 -11.777  -0.837  1.00  0.00     0.063 A 
ATOM      4  C   UNL     1      10.538 -11.192   0.121  1.00  0.00     0.019 A 
ATOM      5  C   UNL     1       8.603 -11.069  -1.321  1.00  0.00     0.065 A 
ATOM      6  C   UNL     1      10.274  -9.919   0.579  1.00  0.00     0.044 A 
ATOM      7  C   UNL     1       9.183  -9.217   0.093  1.00  0.00     0.165 A 
ATOM      8  F   UNL     1       8.930  -7.969   0.546  1.00  0.00    -0.203 F 
BRANCH   3   9
ATOM      9  C   UNL     1       9.985 -13.140  -1.329  1.00  0.00     0.335 C 
ATOM     10  O   UNL     1      10.900 -13.781  -0.856  1.00  0.00    -0.246 OA
BRANCH   9  11
ATOM     11  O   UNL     1       9.220 -13.675  -2.301  1.00  0.00    -0.478 OA
ATOM     12  H   UNL     1       8.263 -13.551  -2.225  1.00  0.00     0.297 HD
ENDBRANCH   9  11
ENDBRANCH   3   9
ENDBRANCH   1   2
BRANCH   1  13
ATOM     13  C   UNL     1       5.987  -9.467  -0.819  1.00  0.00     0.230 C 
BRANCH  13  14
ATOM     14  C   UNL     1       4.915  -8.594  -1.473  1.00  0.00     0.046 C 
BRANCH  14  15
ATOM     15  C   UNL     1       5.268  -7.118  -1.274  1.00  0.00     0.043 C 
BRANCH  15  16
ATOM     16  C   UNL     1       4.054  -6.269  -1.548  1.00  0.00    -0.004 A 
ATOM     17  C   UNL     1       3.689  -5.765  -2.749  1.00  0.00     0.036 A 
ATOM     18  C   UNL     1       3.101  -5.868  -0.605  1.00  0.00     0.063 A 
ATOM     19  N   UNL     1       2.549  -5.064  -2.572  1.00  0.00    -0.282 N 
ATOM     20  N   UNL     1       2.202  -5.140  -1.217  1.00  0.00    -0.181 NA
ATOM     21  C   UNL     1       4.423  -5.952  -4.051  1.00  0.00     0.066 C 
ATOM     22  C   UNL     1       3.114  -6.206   0.864  1.00  0.00     0.069 C 
ATOM     23  H   UNL     1       2.058  -4.590  -3.261  1.00  0.00     0.190 HD
ENDBRANCH  15  16
ENDBRANCH  14  15
ENDBRANCH  13  14
ENDBRANCH   1  13
TORSDOF 7
ENDMDL
