MODEL 1
REMARK VINA RESULT:    -5.416      0.000      0.000
REMARK INTER + INTRA:          -8.024
REMARK INTER:                  -7.474
REMARK INTRA:                  -0.550
REMARK UNBOUND:                -0.550
REMARK SMILES Cc1n[nH]c(C)c1CCCOc1cc(C(=O)O)ccc1F
REMARK SMILES IDX 11 1 12 2 14 3 18 4 13 5 19 6 20 7 21 8 15 9 16 10 17 11
REMARK SMILES IDX 10 13 9 14 8 15 7 16 5 17 2 18 4 19 3 20 6 21 1 22
REMARK H PARENT 17 12 4 23
ROOT
ATOM      1  O   UNL     1      -5.378  -1.468  -2.841  1.00  0.00    -0.490 OA
ENDROOT
BRANCH   1   2
ATOM      2  C   UNL     1      -4.823  -1.143  -1.643  1.00  0.00     0.155 A 
ATOM      3  C   UNL     1      -4.916   0.037   0.450  1.00  0.00     0.063 A 
ATOM      4  C   UNL     1      -3.675  -0.500   0.804  1.00  0.00     0.019 A 
ATOM      5  C   UNL     1      -5.487  -0.290  -0.781  1.00  0.00     0.065 A 
ATOM      6  C   UNL     1      -3.023  -1.354  -0.060  1.00  0.00     0.044 A 
ATOM      7  C   UNL     1      -3.593  -1.681  -1.279  1.00  0.00     0.165 A 
ATOM      8  F   UNL     1      -2.949  -2.519  -2.120  1.00  0.00    -0.203 F 
BRANCH   3   9
ATOM      9  C   UNL     1      -5.618   0.951   1.372  1.00  0.00     0.335 C 
ATOM     10  O   UNL     1      -6.478   1.697   0.951  1.00  0.00    -0.246 OA
BRANCH   9  11
ATOM     11  O   UNL     1      -5.308   0.953   2.684  1.00  0.00    -0.478 OA
ATOM     12  H   UNL     1      -5.990   1.263   3.296  1.00  0.00     0.297 HD
ENDBRANCH   9  11
ENDBRANCH   3   9
ENDBRANCH   1   2
BRANCH   1  13
ATOM     13  C   UNL     1      -5.796  -2.824  -3.015  1.00  0.00     0.230 C 
BRANCH  13  14
ATOM     14  C   UNL     1      -7.319  -2.874  -3.154  1.00  0.00     0.046 C 
BRANCH  14  15
ATOM     15  C   UNL     1      -7.942  -3.246  -1.807  1.00  0.00     0.043 C 
BRANCH  15  16
ATOM     16  C   UNL     1      -9.289  -3.882  -2.035  1.00  0.00    -0.004 A 
ATOM     17  C   UNL     1     -10.462  -3.226  -2.194  1.00  0.00     0.036 A 
ATOM     18  C   UNL     1      -9.548  -5.253  -2.124  1.00  0.00     0.063 A 
ATOM     19  N   UNL     1     -11.429  -4.150  -2.372  1.00  0.00    -0.282 N 
ATOM     20  N   UNL     1     -10.831  -5.416  -2.320  1.00  0.00    -0.181 NA
ATOM     21  C   UNL     1     -10.653  -1.732  -2.177  1.00  0.00     0.066 C 
ATOM     22  C   UNL     1      -8.526  -6.355  -2.004  1.00  0.00     0.069 C 
ATOM     23  H   UNL     1     -12.372  -3.970  -2.511  1.00  0.00     0.190 HD
ENDBRANCH  15  16
ENDBRANCH  14  15
ENDBRANCH  13  14
ENDBRANCH   1  13
TORSDOF 7
ENDMDL
MODEL 2
REMARK VINA RESULT:    -5.387      2.302      3.931
REMARK INTER + INTRA:          -7.984
REMARK INTER:                  -7.534
REMARK INTRA:                  -0.450
REMARK UNBOUND:                -0.550
REMARK SMILES Cc1n[nH]c(C)c1CCCOc1cc(C(=O)O)ccc1F
REMARK SMILES IDX 11 1 12 2 14 3 18 4 13 5 19 6 20 7 21 8 15 9 16 10 17 11
REMARK SMILES IDX 10 13 9 14 8 15 7 16 5 17 2 18 4 19 3 20 6 21 1 22
REMARK H PARENT 17 12 4 23
ROOT
ATOM      1  O   UNL     1      -6.629  -2.171   1.712  1.00  0.00    -0.490 OA
ENDROOT
BRANCH   1   2
ATOM      2  C   UNL     1      -5.575  -1.601   1.070  1.00  0.00     0.155 A 
ATOM      3  C   UNL     1      -3.666  -1.786  -0.380  1.00  0.00     0.063 A 
ATOM      4  C   UNL     1      -3.432  -0.415  -0.241  1.00  0.00     0.019 A 
ATOM      5  C   UNL     1      -4.745  -2.376   0.282  1.00  0.00     0.065 A 
ATOM      6  C   UNL     1      -4.269   0.350   0.543  1.00  0.00     0.044 A 
ATOM      7  C   UNL     1      -5.342  -0.236   1.194  1.00  0.00     0.165 A 
ATOM      8  F   UNL     1      -6.158   0.520   1.961  1.00  0.00    -0.203 F 
BRANCH   3   9
ATOM      9  C   UNL     1      -2.772  -2.608  -1.219  1.00  0.00     0.335 C 
ATOM     10  O   UNL     1      -2.785  -3.818  -1.116  1.00  0.00    -0.246 OA
BRANCH   9  11
ATOM     11  O   UNL     1      -1.945  -2.016  -2.103  1.00  0.00    -0.478 OA
ATOM     12  H   UNL     1      -2.024  -2.289  -3.028  1.00  0.00     0.297 HD
ENDBRANCH   9  11
ENDBRANCH   3   9
ENDBRANCH   1   2
BRANCH   1  13
ATOM     13  C   UNL     1      -7.936  -1.762   1.302  1.00  0.00     0.230 C 
BRANCH  13  14
ATOM     14  C   UNL     1      -8.612  -2.904   0.541  1.00  0.00     0.046 C 
BRANCH  14  15
ATOM     15  C   UNL     1      -8.521  -2.640  -0.963  1.00  0.00     0.043 C 
BRANCH  15  16
ATOM     16  C   UNL     1      -9.655  -3.339  -1.667  1.00  0.00    -0.004 A 
ATOM     17  C   UNL     1      -9.722  -4.660  -1.951  1.00  0.00     0.036 A 
ATOM     18  C   UNL     1     -10.827  -2.738  -2.137  1.00  0.00     0.063 A 
ATOM     19  N   UNL     1     -10.893  -4.886  -2.584  1.00  0.00    -0.282 N 
ATOM     20  N   UNL     1     -11.567  -3.663  -2.692  1.00  0.00    -0.181 NA
ATOM     21  C   UNL     1      -8.678  -5.694  -1.620  1.00  0.00     0.066 C 
ATOM     22  C   UNL     1     -11.174  -1.274  -2.031  1.00  0.00     0.069 C 
ATOM     23  H   UNL     1     -11.211  -5.743  -2.907  1.00  0.00     0.190 HD
ENDBRANCH  15  16
ENDBRANCH  14  15
ENDBRANCH  13  14
ENDBRANCH   1  13
TORSDOF 7
ENDMDL
MODEL 3
REMARK VINA RESULT:    -5.301      2.298      3.498
REMARK INTER + INTRA:          -7.865
REMARK INTER:                  -7.304
REMARK INTRA:                  -0.561
REMARK UNBOUND:                -0.550
REMARK SMILES Cc1n[nH]c(C)c1CCCOc1cc(C(=O)O)ccc1F
REMARK SMILES IDX 11 1 12 2 14 3 18 4 13 5 19 6 20 7 21 8 15 9 16 10 17 11
REMARK SMILES IDX 10 13 9 14 8 15 7 16 5 17 2 18 4 19 3 20 6 21 1 22
REMARK H PARENT 17 12 4 23
ROOT
ATOM      1  O   UNL     1      -6.667  -2.173   1.624  1.00  0.00    -0.490 OA
ENDROOT
BRANCH   1   2
ATOM      2  C   UNL     1      -5.580  -1.613   1.029  1.00  0.00     0.155 A 
ATOM      3  C   UNL     1      -3.643  -1.804  -0.384  1.00  0.00     0.063 A 
ATOM      4  C   UNL     1      -3.372  -0.447  -0.187  1.00  0.00     0.019 A 
ATOM      5  C   UNL     1      -4.755  -2.384   0.231  1.00  0.00     0.065 A 
ATOM      6  C   UNL     1      -4.204   0.315   0.606  1.00  0.00     0.044 A 
ATOM      7  C   UNL     1      -5.309  -0.261   1.210  1.00  0.00     0.165 A 
ATOM      8  F   UNL     1      -6.120   0.491   1.985  1.00  0.00    -0.203 F 
BRANCH   3   9
ATOM      9  C   UNL     1      -2.755  -2.622  -1.232  1.00  0.00     0.335 C 
ATOM     10  O   UNL     1      -2.766  -3.832  -1.134  1.00  0.00    -0.246 OA
BRANCH   9  11
ATOM     11  O   UNL     1      -1.936  -2.026  -2.121  1.00  0.00    -0.478 OA
ATOM     12  H   UNL     1      -1.572  -2.581  -2.824  1.00  0.00     0.297 HD
ENDBRANCH   9  11
ENDBRANCH   3   9
ENDBRANCH   1   2
BRANCH   1  13
ATOM     13  C   UNL     1      -7.951  -1.749   1.161  1.00  0.00     0.230 C 
BRANCH  13  14
ATOM     14  C   UNL     1      -8.653  -2.918   0.467  1.00  0.00     0.046 C 
BRANCH  14  15
ATOM     15  C   UNL     1      -8.555  -2.743  -1.050  1.00  0.00     0.043 C 
BRANCH  15  16
ATOM     16  C   UNL     1      -9.757  -3.369  -1.707  1.00  0.00    -0.004 A 
ATOM     17  C   UNL     1     -10.874  -2.719  -2.109  1.00  0.00     0.036 A 
ATOM     18  C   UNL     1      -9.914  -4.725  -2.016  1.00  0.00     0.063 A 
ATOM     19  N   UNL     1     -11.711  -3.632  -2.647  1.00  0.00    -0.282 N 
ATOM     20  N   UNL     1     -11.087  -4.884  -2.573  1.00  0.00    -0.181 NA
ATOM     21  C   UNL     1     -11.136  -1.241  -1.980  1.00  0.00     0.066 C 
ATOM     22  C   UNL     1      -8.910  -5.816  -1.743  1.00  0.00     0.069 C 
ATOM     23  H   UNL     1     -12.588  -3.452  -3.018  1.00  0.00     0.190 HD
ENDBRANCH  15  16
ENDBRANCH  14  15
ENDBRANCH  13  14
ENDBRANCH   1  13
TORSDOF 7
ENDMDL
MODEL 4
REMARK VINA RESULT:    -4.397      3.600      5.616
REMARK INTER + INTRA:          -6.618
REMARK INTER:                  -5.966
REMARK INTRA:                  -0.652
REMARK UNBOUND:                -0.550
REMARK SMILES Cc1n[nH]c(C)c1CCCOc1cc(C(=O)O)ccc1F
REMARK SMILES IDX 11 1 12 2 14 3 18 4 13 5 19 6 20 7 21 8 15 9 16 10 17 11
REMARK SMILES IDX 10 13 9 14 8 15 7 16 5 17 2 18 4 19 3 20 6 21 1 22
REMARK H PARENT 17 12 4 23
ROOT
ATOM      1  O   UNL     1      -9.555  -4.832  -1.946  1.00  0.00    -0.490 OA
ENDROOT
BRANCH   1   2
ATOM      2  C   UNL     1      -8.598  -3.889  -1.736  1.00  0.00     0.155 A 
ATOM      3  C   UNL     1      -6.689  -2.644  -2.505  1.00  0.00     0.063 A 
ATOM      4  C   UNL     1      -6.658  -1.951  -1.292  1.00  0.00     0.019 A 
ATOM      5  C   UNL     1      -7.668  -3.617  -2.722  1.00  0.00     0.065 A 
ATOM      6  C   UNL     1      -7.594  -2.225  -0.317  1.00  0.00     0.044 A 
ATOM      7  C   UNL     1      -8.566  -3.187  -0.536  1.00  0.00     0.165 A 
ATOM      8  F   UNL     1      -9.481  -3.450   0.423  1.00  0.00    -0.203 F 
BRANCH   3   9
ATOM      9  C   UNL     1      -5.689  -2.353  -3.550  1.00  0.00     0.335 C 
ATOM     10  O   UNL     1      -4.878  -1.465  -3.385  1.00  0.00    -0.246 OA
BRANCH   9  11
ATOM     11  O   UNL     1      -5.672  -3.079  -4.686  1.00  0.00    -0.478 OA
ATOM     12  H   UNL     1      -5.504  -2.601  -5.510  1.00  0.00     0.297 HD
ENDBRANCH   9  11
ENDBRANCH   3   9
ENDBRANCH   1   2
BRANCH   1  13
ATOM     13  C   UNL     1      -9.107  -6.169  -2.185  1.00  0.00     0.230 C 
BRANCH  13  14
ATOM     14  C   UNL     1      -9.381  -7.026  -0.948  1.00  0.00     0.046 C 
BRANCH  14  15
ATOM     15  C   UNL     1      -9.333  -8.506  -1.332  1.00  0.00     0.043 C 
BRANCH  15  16
ATOM     16  C   UNL     1     -10.732  -9.065  -1.362  1.00  0.00    -0.004 A 
ATOM     17  C   UNL     1     -11.434  -9.509  -0.294  1.00  0.00     0.036 A 
ATOM     18  C   UNL     1     -11.537  -9.209  -2.496  1.00  0.00     0.063 A 
ATOM     19  N   UNL     1     -12.638  -9.927  -0.738  1.00  0.00    -0.282 N 
ATOM     20  N   UNL     1     -12.677  -9.732  -2.125  1.00  0.00    -0.181 NA
ATOM     21  C   UNL     1     -10.958  -9.533   1.135  1.00  0.00     0.066 C 
ATOM     22  C   UNL     1     -11.152  -8.838  -3.906  1.00  0.00     0.069 C 
ATOM     23  H   UNL     1     -13.351 -10.297  -0.194  1.00  0.00     0.190 HD
ENDBRANCH  15  16
ENDBRANCH  14  15
ENDBRANCH  13  14
ENDBRANCH   1  13
TORSDOF 7
ENDMDL
MODEL 5
REMARK VINA RESULT:    -4.386      4.793      8.225
REMARK INTER + INTRA:          -6.603
REMARK INTER:                  -5.969
REMARK INTRA:                  -0.633
REMARK UNBOUND:                -0.550
REMARK SMILES Cc1n[nH]c(C)c1CCCOc1cc(C(=O)O)ccc1F
REMARK SMILES IDX 11 1 12 2 14 3 18 4 13 5 19 6 20 7 21 8 15 9 16 10 17 11
REMARK SMILES IDX 10 13 9 14 8 15 7 16 5 17 2 18 4 19 3 20 6 21 1 22
REMARK H PARENT 17 12 4 23
ROOT
ATOM      1  O   UNL     1      -8.707  -5.542  -2.003  1.00  0.00    -0.490 OA
ENDROOT
BRANCH   1   2
ATOM      2  C   UNL     1      -9.466  -6.667  -2.094  1.00  0.00     0.155 A 
ATOM      3  C   UNL     1     -11.132  -7.975  -3.230  1.00  0.00     0.063 A 
ATOM      4  C   UNL     1     -10.999  -8.977  -2.265  1.00  0.00     0.019 A 
ATOM      5  C   UNL     1     -10.358  -6.817  -3.138  1.00  0.00     0.065 A 
ATOM      6  C   UNL     1     -10.101  -8.822  -1.230  1.00  0.00     0.044 A 
ATOM      7  C   UNL     1      -9.331  -7.674  -1.143  1.00  0.00     0.165 A 
ATOM      8  F   UNL     1      -8.454  -7.527  -0.127  1.00  0.00    -0.203 F 
BRANCH   3   9
ATOM      9  C   UNL     1     -12.092  -8.139  -4.340  1.00  0.00     0.335 C 
ATOM     10  O   UNL     1     -12.267  -9.233  -4.836  1.00  0.00    -0.246 OA
BRANCH   9  11
ATOM     11  O   UNL     1     -12.779  -7.074  -4.798  1.00  0.00    -0.478 OA
ATOM     12  H   UNL     1     -12.995  -7.063  -5.741  1.00  0.00     0.297 HD
ENDBRANCH   9  11
ENDBRANCH   3   9
ENDBRANCH   1   2
BRANCH   1  13
ATOM     13  C   UNL     1      -9.389  -4.323  -1.702  1.00  0.00     0.230 C 
BRANCH  13  14
ATOM     14  C   UNL     1      -8.418  -3.149  -1.842  1.00  0.00     0.046 C 
BRANCH  14  15
ATOM     15  C   UNL     1      -7.134  -3.452  -1.068  1.00  0.00     0.043 C 
BRANCH  15  16
ATOM     16  C   UNL     1      -6.408  -2.166  -0.773  1.00  0.00    -0.004 A 
ATOM     17  C   UNL     1      -6.459  -1.470   0.387  1.00  0.00     0.036 A 
ATOM     18  C   UNL     1      -5.557  -1.482  -1.647  1.00  0.00     0.063 A 
ATOM     19  N   UNL     1      -5.673  -0.382   0.249  1.00  0.00    -0.282 N 
ATOM     20  N   UNL     1      -5.121  -0.409  -1.039  1.00  0.00    -0.181 NA
ATOM     21  C   UNL     1      -7.250  -1.845   1.613  1.00  0.00     0.066 C 
ATOM     22  C   UNL     1      -5.211  -1.902  -3.053  1.00  0.00     0.069 C 
ATOM     23  H   UNL     1      -5.518   0.300   0.921  1.00  0.00     0.190 HD
ENDBRANCH  15  16
ENDBRANCH  14  15
ENDBRANCH  13  14
ENDBRANCH   1  13
TORSDOF 7
ENDMDL
MODEL 6
REMARK VINA RESULT:    -4.376      4.797      8.250
REMARK INTER + INTRA:          -6.589
REMARK INTER:                  -5.952
REMARK INTRA:                  -0.637
REMARK UNBOUND:                -0.550
REMARK SMILES Cc1n[nH]c(C)c1CCCOc1cc(C(=O)O)ccc1F
REMARK SMILES IDX 11 1 12 2 14 3 18 4 13 5 19 6 20 7 21 8 15 9 16 10 17 11
REMARK SMILES IDX 10 13 9 14 8 15 7 16 5 17 2 18 4 19 3 20 6 21 1 22
REMARK H PARENT 17 12 4 23
ROOT
ATOM      1  O   UNL     1      -8.696  -5.528  -2.078  1.00  0.00    -0.490 OA
ENDROOT
BRANCH   1   2
ATOM      2  C   UNL     1      -9.452  -6.658  -2.119  1.00  0.00     0.155 A 
ATOM      3  C   UNL     1     -11.152  -7.995  -3.170  1.00  0.00     0.063 A 
ATOM      4  C   UNL     1     -10.980  -8.977  -2.190  1.00  0.00     0.019 A 
ATOM      5  C   UNL     1     -10.381  -6.832  -3.129  1.00  0.00     0.065 A 
ATOM      6  C   UNL     1     -10.047  -8.797  -1.191  1.00  0.00     0.044 A 
ATOM      7  C   UNL     1      -9.280  -7.644  -1.155  1.00  0.00     0.165 A 
ATOM      8  F   UNL     1      -8.367  -7.474  -0.173  1.00  0.00    -0.203 F 
BRANCH   3   9
ATOM      9  C   UNL     1     -12.149  -8.185  -4.242  1.00  0.00     0.335 C 
ATOM     10  O   UNL     1     -12.466  -9.305  -4.585  1.00  0.00    -0.246 OA
BRANCH   9  11
ATOM     11  O   UNL     1     -12.713  -7.114  -4.834  1.00  0.00    -0.478 OA
ATOM     12  H   UNL     1     -13.639  -6.931  -4.621  1.00  0.00     0.297 HD
ENDBRANCH   9  11
ENDBRANCH   3   9
ENDBRANCH   1   2
BRANCH   1  13
ATOM     13  C   UNL     1      -9.345  -4.329  -1.648  1.00  0.00     0.230 C 
BRANCH  13  14
ATOM     14  C   UNL     1      -8.391  -3.145  -1.818  1.00  0.00     0.046 C 
BRANCH  14  15
ATOM     15  C   UNL     1      -7.079  -3.438  -1.086  1.00  0.00     0.043 C 
BRANCH  15  16
ATOM     16  C   UNL     1      -6.375  -2.142  -0.779  1.00  0.00    -0.004 A 
ATOM     17  C   UNL     1      -5.561  -1.460  -1.618  1.00  0.00     0.036 A 
ATOM     18  C   UNL     1      -6.451  -1.428   0.421  1.00  0.00     0.063 A 
ATOM     19  N   UNL     1      -5.132  -0.357  -0.969  1.00  0.00    -0.282 N 
ATOM     20  N   UNL     1      -5.701  -0.362   0.311  1.00  0.00    -0.181 NA
ATOM     21  C   UNL     1      -5.198  -1.860  -3.024  1.00  0.00     0.066 C 
ATOM     22  C   UNL     1      -7.250  -1.825   1.637  1.00  0.00     0.069 C 
ATOM     23  H   UNL     1      -4.535   0.319  -1.325  1.00  0.00     0.190 HD
ENDBRANCH  15  16
ENDBRANCH  14  15
ENDBRANCH  13  14
ENDBRANCH   1  13
TORSDOF 7
ENDMDL
MODEL 7
REMARK VINA RESULT:    -4.347      3.777      6.502
REMARK INTER + INTRA:          -6.548
REMARK INTER:                  -5.714
REMARK INTRA:                  -0.834
REMARK UNBOUND:                -0.550
REMARK SMILES Cc1n[nH]c(C)c1CCCOc1cc(C(=O)O)ccc1F
REMARK SMILES IDX 11 1 12 2 14 3 18 4 13 5 19 6 20 7 21 8 15 9 16 10 17 11
REMARK SMILES IDX 10 13 9 14 8 15 7 16 5 17 2 18 4 19 3 20 6 21 1 22
REMARK H PARENT 17 12 4 23
ROOT
ATOM      1  O   UNL     1      -6.779  -3.528  -1.268  1.00  0.00    -0.490 OA
ENDROOT
BRANCH   1   2
ATOM      2  C   UNL     1      -8.088  -3.693  -1.595  1.00  0.00     0.155 A 
ATOM      3  C   UNL     1     -10.241  -2.763  -2.125  1.00  0.00     0.063 A 
ATOM      4  C   UNL     1     -10.758  -4.053  -2.273  1.00  0.00     0.019 A 
ATOM      5  C   UNL     1      -8.898  -2.589  -1.784  1.00  0.00     0.065 A 
ATOM      6  C   UNL     1      -9.941  -5.148  -2.088  1.00  0.00     0.044 A 
ATOM      7  C   UNL     1      -8.608  -4.973  -1.754  1.00  0.00     0.165 A 
ATOM      8  F   UNL     1      -7.812  -6.050  -1.575  1.00  0.00    -0.203 F 
BRANCH   3   9
ATOM      9  C   UNL     1     -11.113  -1.588  -2.323  1.00  0.00     0.335 C 
ATOM     10  O   UNL     1     -11.688  -1.092  -1.376  1.00  0.00    -0.246 OA
BRANCH   9  11
ATOM     11  O   UNL     1     -11.265  -1.063  -3.555  1.00  0.00    -0.478 OA
ATOM     12  H   UNL     1     -11.693  -0.197  -3.613  1.00  0.00     0.297 HD
ENDBRANCH   9  11
ENDBRANCH   3   9
ENDBRANCH   1   2
BRANCH   1  13
ATOM     13  C   UNL     1      -6.089  -2.438  -1.884  1.00  0.00     0.230 C 
BRANCH  13  14
ATOM     14  C   UNL     1      -4.684  -2.323  -1.290  1.00  0.00     0.046 C 
BRANCH  14  15
ATOM     15  C   UNL     1      -4.758  -2.479   0.230  1.00  0.00     0.043 C 
BRANCH  15  16
ATOM     16  C   UNL     1      -5.114  -1.154   0.854  1.00  0.00    -0.004 A 
ATOM     17  C   UNL     1      -6.277  -0.855   1.479  1.00  0.00     0.036 A 
ATOM     18  C   UNL     1      -4.299  -0.018   0.896  1.00  0.00     0.063 A 
ATOM     19  N   UNL     1      -6.203   0.426   1.895  1.00  0.00    -0.282 N 
ATOM     20  N   UNL     1      -4.953   0.932   1.514  1.00  0.00    -0.181 NA
ATOM     21  C   UNL     1      -7.445  -1.786   1.675  1.00  0.00     0.066 C 
ATOM     22  C   UNL     1      -2.911   0.095   0.318  1.00  0.00     0.069 C 
ATOM     23  H   UNL     1      -6.893   0.912   2.373  1.00  0.00     0.190 HD
ENDBRANCH  15  16
ENDBRANCH  14  15
ENDBRANCH  13  14
ENDBRANCH   1  13
TORSDOF 7
ENDMDL
MODEL 8
REMARK VINA RESULT:    -4.290      2.895      4.150
REMARK INTER + INTRA:          -6.469
REMARK INTER:                  -6.101
REMARK INTRA:                  -0.368
REMARK UNBOUND:                -0.550
REMARK SMILES Cc1n[nH]c(C)c1CCCOc1cc(C(=O)O)ccc1F
REMARK SMILES IDX 11 1 12 2 14 3 18 4 13 5 19 6 20 7 21 8 15 9 16 10 17 11
REMARK SMILES IDX 10 13 9 14 8 15 7 16 5 17 2 18 4 19 3 20 6 21 1 22
REMARK H PARENT 17 12 4 23
ROOT
ATOM      1  O   UNL     1      -8.175  -4.009  -2.477  1.00  0.00    -0.490 OA
ENDROOT
BRANCH   1   2
ATOM      2  C   UNL     1      -7.327  -3.094  -1.937  1.00  0.00     0.155 A 
ATOM      3  C   UNL     1      -6.594  -1.778  -0.063  1.00  0.00     0.063 A 
ATOM      4  C   UNL     1      -5.577  -1.231  -0.849  1.00  0.00     0.019 A 
ATOM      5  C   UNL     1      -7.471  -2.714  -0.616  1.00  0.00     0.065 A 
ATOM      6  C   UNL     1      -5.438  -1.621  -2.165  1.00  0.00     0.044 A 
ATOM      7  C   UNL     1      -6.305  -2.553  -2.709  1.00  0.00     0.165 A 
ATOM      8  F   UNL     1      -6.164  -2.931  -3.999  1.00  0.00    -0.203 F 
BRANCH   3   9
ATOM      9  C   UNL     1      -6.746  -1.363   1.346  1.00  0.00     0.335 C 
ATOM     10  O   UNL     1      -6.213  -0.346   1.740  1.00  0.00    -0.246 OA
BRANCH   9  11
ATOM     11  O   UNL     1      -7.481  -2.111   2.192  1.00  0.00    -0.478 OA
ATOM     12  H   UNL     1      -8.401  -1.844   2.328  1.00  0.00     0.297 HD
ENDBRANCH   9  11
ENDBRANCH   3   9
ENDBRANCH   1   2
BRANCH   1  13
ATOM     13  C   UNL     1      -8.717  -4.993  -1.593  1.00  0.00     0.230 C 
BRANCH  13  14
ATOM     14  C   UNL     1      -8.872  -6.319  -2.340  1.00  0.00     0.046 C 
BRANCH  14  15
ATOM     15  C   UNL     1     -10.357  -6.669  -2.455  1.00  0.00     0.043 C 
BRANCH  15  16
ATOM     16  C   UNL     1     -10.523  -8.167  -2.446  1.00  0.00    -0.004 A 
ATOM     17  C   UNL     1     -10.328  -8.983  -1.385  1.00  0.00     0.036 A 
ATOM     18  C   UNL     1     -10.913  -8.958  -3.532  1.00  0.00     0.063 A 
ATOM     19  N   UNL     1     -10.578 -10.247  -1.786  1.00  0.00    -0.282 N 
ATOM     20  N   UNL     1     -10.940 -10.206  -3.139  1.00  0.00    -0.181 NA
ATOM     21  C   UNL     1      -9.906  -8.558  -0.003  1.00  0.00     0.066 C 
ATOM     22  C   UNL     1     -11.234  -8.461  -4.918  1.00  0.00     0.069 C 
ATOM     23  H   UNL     1     -10.518 -11.043  -1.236  1.00  0.00     0.190 HD
ENDBRANCH  15  16
ENDBRANCH  14  15
ENDBRANCH  13  14
ENDBRANCH   1  13
TORSDOF 7
ENDMDL
MODEL 9
REMARK VINA RESULT:    -4.257      3.936      7.044
REMARK INTER + INTRA:          -6.424
REMARK INTER:                  -5.568
REMARK INTRA:                  -0.855
REMARK UNBOUND:                -0.550
REMARK SMILES Cc1n[nH]c(C)c1CCCOc1cc(C(=O)O)ccc1F
REMARK SMILES IDX 11 1 12 2 14 3 18 4 13 5 19 6 20 7 21 8 15 9 16 10 17 11
REMARK SMILES IDX 10 13 9 14 8 15 7 16 5 17 2 18 4 19 3 20 6 21 1 22
REMARK H PARENT 17 12 4 23
ROOT
ATOM      1  O   UNL     1      -7.911  -1.660  -0.893  1.00  0.00    -0.490 OA
ENDROOT
BRANCH   1   2
ATOM      2  C   UNL     1      -8.743  -2.633  -1.350  1.00  0.00     0.155 A 
ATOM      3  C   UNL     1      -9.211  -4.954  -1.768  1.00  0.00     0.063 A 
ATOM      4  C   UNL     1     -10.463  -4.606  -2.281  1.00  0.00     0.019 A 
ATOM      5  C   UNL     1      -8.351  -3.957  -1.302  1.00  0.00     0.065 A 
ATOM      6  C   UNL     1     -10.848  -3.282  -2.320  1.00  0.00     0.044 A 
ATOM      7  C   UNL     1      -9.996  -2.296  -1.853  1.00  0.00     0.165 A 
ATOM      8  F   UNL     1     -10.379  -1.001  -1.894  1.00  0.00    -0.203 F 
BRANCH   3   9
ATOM      9  C   UNL     1      -8.796  -6.370  -1.724  1.00  0.00     0.335 C 
ATOM     10  O   UNL     1      -7.710  -6.671  -1.273  1.00  0.00    -0.246 OA
BRANCH   9  11
ATOM     11  O   UNL     1      -9.626  -7.329  -2.179  1.00  0.00    -0.478 OA
ATOM     12  H   UNL     1      -9.368  -7.784  -2.993  1.00  0.00     0.297 HD
ENDBRANCH   9  11
ENDBRANCH   3   9
ENDBRANCH   1   2
BRANCH   1  13
ATOM     13  C   UNL     1      -7.190  -1.936   0.310  1.00  0.00     0.230 C 
BRANCH  13  14
ATOM     14  C   UNL     1      -6.192  -0.808   0.577  1.00  0.00     0.046 C 
BRANCH  14  15
ATOM     15  C   UNL     1      -5.602  -0.325  -0.750  1.00  0.00     0.043 C 
BRANCH  15  16
ATOM     16  C   UNL     1      -4.402  -1.165  -1.102  1.00  0.00    -0.004 A 
ATOM     17  C   UNL     1      -4.311  -2.030  -2.139  1.00  0.00     0.036 A 
ATOM     18  C   UNL     1      -3.181  -1.184  -0.418  1.00  0.00     0.063 A 
ATOM     19  N   UNL     1      -3.080  -2.582  -2.108  1.00  0.00    -0.282 N 
ATOM     20  N   UNL     1      -2.391  -2.038  -1.016  1.00  0.00    -0.181 NA
ATOM     21  C   UNL     1      -5.391  -2.324  -3.147  1.00  0.00     0.066 C 
ATOM     22  C   UNL     1      -2.840  -0.371   0.804  1.00  0.00     0.069 C 
ATOM     23  H   UNL     1      -2.733  -3.239  -2.731  1.00  0.00     0.190 HD
ENDBRANCH  15  16
ENDBRANCH  14  15
ENDBRANCH  13  14
ENDBRANCH   1  13
TORSDOF 7
ENDMDL
