MODEL 1
REMARK VINA RESULT:    -4.443      0.000      0.000
REMARK INTER + INTRA:          -5.387
REMARK INTER:                  -5.092
REMARK INTRA:                  -0.295
REMARK UNBOUND:                -0.295
REMARK SMILES O=C(O)c1ccc2nc(-c3cc(Cl)cc(Cl)c3)oc2c1
REMARK SMILES IDX 5 1 6 2 20 3 8 4 18 5 4 6 9 7 7 8 19 9 2 10 1 11 3 12 10 14
REMARK SMILES IDX 11 15 17 16 12 17 15 18 14 19 13 20 16 21
REMARK H PARENT 3 13
ROOT
ATOM      1  C   UNL     1       6.638 -11.895  -1.096  1.00  0.00     0.018 A 
ATOM      2  C   UNL     1       5.500 -11.199  -1.373  1.00  0.00     0.033 A 
ATOM      3  C   UNL     1       7.672  -9.893  -0.201  1.00  0.00     0.065 A 
ATOM      4  N   UNL     1       4.456  -8.903  -1.225  1.00  0.00    -0.209 NA
ATOM      5  O   UNL     1       6.154  -7.892  -0.316  1.00  0.00    -0.436 OA
ATOM      6  C   UNL     1       7.736 -11.254  -0.506  1.00  0.00     0.063 A 
ATOM      7  C   UNL     1       4.896  -7.755  -0.774  1.00  0.00     0.227 A 
ATOM      8  C   UNL     1       5.422  -9.834  -1.072  1.00  0.00     0.110 A 
ATOM      9  C   UNL     1       6.521  -9.182  -0.485  1.00  0.00     0.156 A 
ENDROOT
BRANCH   6  10
ATOM     10  C   UNL     1       8.960 -12.018  -0.206  1.00  0.00     0.335 C 
ATOM     11  O   UNL     1       9.984 -11.434   0.089  1.00  0.00    -0.246 OA
BRANCH  10  12
ATOM     12  O   UNL     1       8.945 -13.365  -0.260  1.00  0.00    -0.478 OA
ATOM     13  H   UNL     1       9.351 -13.778  -1.033  1.00  0.00     0.297 HD
ENDBRANCH  10  12
ENDBRANCH   6  10
BRANCH   7  14
ATOM     14  C   UNL     1       4.124  -6.495  -0.770  1.00  0.00     0.040 A 
ATOM     15  C   UNL     1       4.781  -5.270  -0.897  1.00  0.00     0.034 A 
ATOM     16  C   UNL     1       2.734  -6.525  -0.640  1.00  0.00     0.034 A 
ATOM     17  C   UNL     1       4.054  -4.096  -0.894  1.00  0.00     0.043 A 
ATOM     18  C   UNL     1       2.019  -5.344  -0.638  1.00  0.00     0.043 A 
ATOM     19  C   UNL     1       2.676  -4.133  -0.763  1.00  0.00     0.041 A 
ATOM     20  Cl  UNL     1       4.869  -2.572  -1.051  1.00  0.00    -0.084 Cl
ATOM     21  Cl  UNL     1       0.290  -5.380  -0.476  1.00  0.00    -0.084 Cl
ENDBRANCH   7  14
TORSDOF 3
ENDMDL
MODEL 2
REMARK VINA RESULT:    -4.442      0.007      2.019
REMARK INTER + INTRA:          -5.386
REMARK INTER:                  -5.091
REMARK INTRA:                  -0.295
REMARK UNBOUND:                -0.295
REMARK SMILES O=C(O)c1ccc2nc(-c3cc(Cl)cc(Cl)c3)oc2c1
REMARK SMILES IDX 5 1 6 2 20 3 8 4 18 5 4 6 9 7 7 8 19 9 2 10 1 11 3 12 10 14
REMARK SMILES IDX 11 15 17 16 12 17 15 18 14 19 13 20 16 21
REMARK H PARENT 3 13
ROOT
ATOM      1  C   UNL     1       6.644 -11.900  -1.096  1.00  0.00     0.018 A 
ATOM      2  C   UNL     1       5.505 -11.205  -1.374  1.00  0.00     0.033 A 
ATOM      3  C   UNL     1       7.675  -9.897  -0.198  1.00  0.00     0.065 A 
ATOM      4  N   UNL     1       4.459  -8.910  -1.225  1.00  0.00    -0.209 NA
ATOM      5  O   UNL     1       6.155  -7.898  -0.314  1.00  0.00    -0.436 OA
ATOM      6  C   UNL     1       7.740 -11.258  -0.504  1.00  0.00     0.063 A 
ATOM      7  C   UNL     1       4.897  -7.761  -0.774  1.00  0.00     0.227 A 
ATOM      8  C   UNL     1       5.426  -9.840  -1.072  1.00  0.00     0.110 A 
ATOM      9  C   UNL     1       6.523  -9.187  -0.483  1.00  0.00     0.156 A 
ENDROOT
BRANCH   6  10
ATOM     10  C   UNL     1       8.965 -12.021  -0.202  1.00  0.00     0.335 C 
ATOM     11  O   UNL     1       9.987 -11.436   0.094  1.00  0.00    -0.246 OA
BRANCH  10  12
ATOM     12  O   UNL     1       8.950 -13.368  -0.257  1.00  0.00    -0.478 OA
ATOM     13  H   UNL     1       8.217 -13.780  -0.731  1.00  0.00     0.297 HD
ENDBRANCH  10  12
ENDBRANCH   6  10
BRANCH   7  14
ATOM     14  C   UNL     1       4.125  -6.502  -0.770  1.00  0.00     0.040 A 
ATOM     15  C   UNL     1       2.736  -6.531  -0.639  1.00  0.00     0.034 A 
ATOM     16  C   UNL     1       4.782  -5.277  -0.900  1.00  0.00     0.034 A 
ATOM     17  C   UNL     1       2.020  -5.351  -0.635  1.00  0.00     0.043 A 
ATOM     18  C   UNL     1       4.055  -4.103  -0.895  1.00  0.00     0.043 A 
ATOM     19  C   UNL     1       2.678  -4.139  -0.764  1.00  0.00     0.041 A 
ATOM     20  Cl  UNL     1       0.292  -5.385  -0.471  1.00  0.00    -0.084 Cl
ATOM     21  Cl  UNL     1       4.871  -2.578  -1.056  1.00  0.00    -0.084 Cl
ENDBRANCH   7  14
TORSDOF 3
ENDMDL
MODEL 3
REMARK VINA RESULT:    -4.413      1.629      3.063
REMARK INTER + INTRA:          -5.353
REMARK INTER:                  -5.058
REMARK INTRA:                  -0.295
REMARK UNBOUND:                -0.295
REMARK SMILES O=C(O)c1ccc2nc(-c3cc(Cl)cc(Cl)c3)oc2c1
REMARK SMILES IDX 5 1 6 2 20 3 8 4 18 5 4 6 9 7 7 8 19 9 2 10 1 11 3 12 10 14
REMARK SMILES IDX 11 15 17 16 12 17 15 18 14 19 13 20 16 21
REMARK H PARENT 3 13
ROOT
ATOM      1  C   UNL     1       6.910 -11.751  -0.844  1.00  0.00     0.018 A 
ATOM      2  C   UNL     1       7.045 -10.424  -0.563  1.00  0.00     0.033 A 
ATOM      3  C   UNL     1       4.680 -11.365  -1.713  1.00  0.00     0.065 A 
ATOM      4  N   UNL     1       5.842  -8.206  -0.689  1.00  0.00    -0.209 NA
ATOM      5  O   UNL     1       4.001  -8.947  -1.580  1.00  0.00    -0.436 OA
ATOM      6  C   UNL     1       5.730 -12.237  -1.423  1.00  0.00     0.063 A 
ATOM      7  C   UNL     1       4.656  -7.863  -1.125  1.00  0.00     0.227 A 
ATOM      8  C   UNL     1       6.000  -9.538  -0.849  1.00  0.00     0.110 A 
ATOM      9  C   UNL     1       4.811 -10.019  -1.425  1.00  0.00     0.156 A 
ENDROOT
BRANCH   6  10
ATOM     10  C   UNL     1       5.598 -13.674  -1.728  1.00  0.00     0.335 C 
ATOM     11  O   UNL     1       4.517 -14.131  -2.042  1.00  0.00    -0.246 OA
BRANCH  10  12
ATOM     12  O   UNL     1       6.675 -14.480  -1.656  1.00  0.00    -0.478 OA
ATOM     13  H   UNL     1       7.114 -14.701  -2.488  1.00  0.00     0.297 HD
ENDBRANCH  10  12
ENDBRANCH   6  10
BRANCH   7  14
ATOM     14  C   UNL     1       4.116  -6.487  -1.117  1.00  0.00     0.040 A 
ATOM     15  C   UNL     1       2.743  -6.274  -0.992  1.00  0.00     0.034 A 
ATOM     16  C   UNL     1       4.979  -5.396  -1.236  1.00  0.00     0.034 A 
ATOM     17  C   UNL     1       2.245  -4.986  -0.984  1.00  0.00     0.043 A 
ATOM     18  C   UNL     1       4.469  -4.113  -1.226  1.00  0.00     0.043 A 
ATOM     19  C   UNL     1       3.105  -3.908  -1.102  1.00  0.00     0.041 A 
ATOM     20  Cl  UNL     1       0.537  -4.718  -0.827  1.00  0.00    -0.084 Cl
ATOM     21  Cl  UNL     1       5.540  -2.754  -1.374  1.00  0.00    -0.084 Cl
ENDBRANCH   7  14
TORSDOF 3
ENDMDL
MODEL 4
REMARK VINA RESULT:    -4.410      1.625      2.313
REMARK INTER + INTRA:          -5.349
REMARK INTER:                  -5.054
REMARK INTRA:                  -0.295
REMARK UNBOUND:                -0.295
REMARK SMILES O=C(O)c1ccc2nc(-c3cc(Cl)cc(Cl)c3)oc2c1
REMARK SMILES IDX 5 1 6 2 20 3 8 4 18 5 4 6 9 7 7 8 19 9 2 10 1 11 3 12 10 14
REMARK SMILES IDX 11 15 17 16 12 17 15 18 14 19 13 20 16 21
REMARK H PARENT 3 13
ROOT
ATOM      1  C   UNL     1       6.913 -11.743  -0.842  1.00  0.00     0.018 A 
ATOM      2  C   UNL     1       7.046 -10.416  -0.561  1.00  0.00     0.033 A 
ATOM      3  C   UNL     1       4.682 -11.359  -1.712  1.00  0.00     0.065 A 
ATOM      4  N   UNL     1       5.841  -8.199  -0.687  1.00  0.00    -0.209 NA
ATOM      5  O   UNL     1       4.001  -8.942  -1.579  1.00  0.00    -0.436 OA
ATOM      6  C   UNL     1       5.733 -12.230  -1.422  1.00  0.00     0.063 A 
ATOM      7  C   UNL     1       4.655  -7.857  -1.123  1.00  0.00     0.227 A 
ATOM      8  C   UNL     1       6.000  -9.531  -0.847  1.00  0.00     0.110 A 
ATOM      9  C   UNL     1       4.812 -10.013  -1.424  1.00  0.00     0.156 A 
ENDROOT
BRANCH   6  10
ATOM     10  C   UNL     1       5.603 -13.667  -1.727  1.00  0.00     0.335 C 
ATOM     11  O   UNL     1       4.517 -14.131  -2.011  1.00  0.00    -0.246 OA
BRANCH  10  12
ATOM     12  O   UNL     1       6.688 -14.465  -1.691  1.00  0.00    -0.478 OA
ATOM     13  H   UNL     1       7.523 -14.059  -1.422  1.00  0.00     0.297 HD
ENDBRANCH  10  12
ENDBRANCH   6  10
BRANCH   7  14
ATOM     14  C   UNL     1       4.114  -6.482  -1.115  1.00  0.00     0.040 A 
ATOM     15  C   UNL     1       4.973  -5.390  -1.239  1.00  0.00     0.034 A 
ATOM     16  C   UNL     1       2.740  -6.271  -0.981  1.00  0.00     0.034 A 
ATOM     17  C   UNL     1       4.461  -4.107  -1.232  1.00  0.00     0.043 A 
ATOM     18  C   UNL     1       2.240  -4.984  -0.975  1.00  0.00     0.043 A 
ATOM     19  C   UNL     1       3.098  -3.905  -1.099  1.00  0.00     0.041 A 
ATOM     20  Cl  UNL     1       5.528  -2.747  -1.387  1.00  0.00    -0.084 Cl
ATOM     21  Cl  UNL     1       0.532  -4.719  -0.809  1.00  0.00    -0.084 Cl
ENDBRANCH   7  14
TORSDOF 3
ENDMDL
MODEL 5
REMARK VINA RESULT:    -4.385      3.752      7.650
REMARK INTER + INTRA:          -5.320
REMARK INTER:                  -5.023
REMARK INTRA:                  -0.298
REMARK UNBOUND:                -0.295
REMARK SMILES O=C(O)c1ccc2nc(-c3cc(Cl)cc(Cl)c3)oc2c1
REMARK SMILES IDX 5 1 6 2 20 3 8 4 18 5 4 6 9 7 7 8 19 9 2 10 1 11 3 12 10 14
REMARK SMILES IDX 11 15 17 16 12 17 15 18 14 19 13 20 16 21
REMARK H PARENT 3 13
ROOT
ATOM      1  C   UNL     1       2.211  -4.705  -1.329  1.00  0.00     0.018 A 
ATOM      2  C   UNL     1       2.236  -6.049  -1.553  1.00  0.00     0.033 A 
ATOM      3  C   UNL     1       4.501  -4.770  -0.535  1.00  0.00     0.065 A 
ATOM      4  N   UNL     1       3.713  -8.092  -1.383  1.00  0.00    -0.209 NA
ATOM      5  O   UNL     1       5.471  -7.089  -0.585  1.00  0.00    -0.436 OA
ATOM      6  C   UNL     1       3.341  -4.049  -0.821  1.00  0.00     0.063 A 
ATOM      7  C   UNL     1       4.946  -8.265  -0.976  1.00  0.00     0.227 A 
ATOM      8  C   UNL     1       3.394  -6.785  -1.270  1.00  0.00     0.110 A 
ATOM      9  C   UNL     1       4.529  -6.135  -0.755  1.00  0.00     0.156 A 
ENDROOT
BRANCH   6  10
ATOM     10  C   UNL     1       3.304  -2.593  -0.589  1.00  0.00     0.335 C 
ATOM     11  O   UNL     1       2.244  -2.000  -0.621  1.00  0.00    -0.246 OA
BRANCH  10  12
ATOM     12  O   UNL     1       4.445  -1.920  -0.343  1.00  0.00    -0.478 OA
ATOM     13  H   UNL     1       4.566  -1.573   0.550  1.00  0.00     0.297 HD
ENDBRANCH  10  12
ENDBRANCH   6  10
BRANCH   7  14
ATOM     14  C   UNL     1       5.654  -9.562  -0.948  1.00  0.00     0.040 A 
ATOM     15  C   UNL     1       5.050 -10.702  -1.478  1.00  0.00     0.034 A 
ATOM     16  C   UNL     1       6.932  -9.650  -0.392  1.00  0.00     0.034 A 
ATOM     17  C   UNL     1       5.718 -11.911  -1.450  1.00  0.00     0.043 A 
ATOM     18  C   UNL     1       7.590 -10.864  -0.370  1.00  0.00     0.043 A 
ATOM     19  C   UNL     1       6.984 -11.991  -0.897  1.00  0.00     0.041 A 
ATOM     20  Cl  UNL     1       4.968 -13.331  -2.109  1.00  0.00    -0.084 Cl
ATOM     21  Cl  UNL     1       9.178 -10.976   0.322  1.00  0.00    -0.084 Cl
ENDBRANCH   7  14
TORSDOF 3
ENDMDL
MODEL 6
REMARK VINA RESULT:    -4.382      3.752      7.423
REMARK INTER + INTRA:          -5.317
REMARK INTER:                  -5.020
REMARK INTRA:                  -0.297
REMARK UNBOUND:                -0.295
REMARK SMILES O=C(O)c1ccc2nc(-c3cc(Cl)cc(Cl)c3)oc2c1
REMARK SMILES IDX 5 1 6 2 20 3 8 4 18 5 4 6 9 7 7 8 19 9 2 10 1 11 3 12 10 14
REMARK SMILES IDX 11 15 17 16 12 17 15 18 14 19 13 20 16 21
REMARK H PARENT 3 13
ROOT
ATOM      1  C   UNL     1       2.210  -4.713  -1.319  1.00  0.00     0.018 A 
ATOM      2  C   UNL     1       2.237  -6.057  -1.541  1.00  0.00     0.033 A 
ATOM      3  C   UNL     1       4.502  -4.772  -0.531  1.00  0.00     0.065 A 
ATOM      4  N   UNL     1       3.718  -8.097  -1.373  1.00  0.00    -0.209 NA
ATOM      5  O   UNL     1       5.477  -7.089  -0.582  1.00  0.00    -0.436 OA
ATOM      6  C   UNL     1       3.340  -4.054  -0.814  1.00  0.00     0.063 A 
ATOM      7  C   UNL     1       4.953  -8.267  -0.970  1.00  0.00     0.227 A 
ATOM      8  C   UNL     1       3.397  -6.790  -1.261  1.00  0.00     0.110 A 
ATOM      9  C   UNL     1       4.533  -6.137  -0.750  1.00  0.00     0.156 A 
ENDROOT
BRANCH   6  10
ATOM     10  C   UNL     1       3.300  -2.598  -0.584  1.00  0.00     0.335 C 
ATOM     11  O   UNL     1       2.240  -2.006  -0.621  1.00  0.00    -0.246 OA
BRANCH  10  12
ATOM     12  O   UNL     1       4.440  -1.924  -0.334  1.00  0.00    -0.478 OA
ATOM     13  H   UNL     1       5.229  -2.201  -0.818  1.00  0.00     0.297 HD
ENDBRANCH  10  12
ENDBRANCH   6  10
BRANCH   7  14
ATOM     14  C   UNL     1       5.664  -9.562  -0.943  1.00  0.00     0.040 A 
ATOM     15  C   UNL     1       6.944  -9.648  -0.394  1.00  0.00     0.034 A 
ATOM     16  C   UNL     1       5.058 -10.705  -1.469  1.00  0.00     0.034 A 
ATOM     17  C   UNL     1       7.603 -10.861  -0.372  1.00  0.00     0.043 A 
ATOM     18  C   UNL     1       5.727 -11.912  -1.441  1.00  0.00     0.043 A 
ATOM     19  C   UNL     1       6.996 -11.991  -0.894  1.00  0.00     0.041 A 
ATOM     20  Cl  UNL     1       9.195 -10.970   0.312  1.00  0.00    -0.084 Cl
ATOM     21  Cl  UNL     1       4.975 -13.335  -2.094  1.00  0.00    -0.084 Cl
ENDBRANCH   7  14
TORSDOF 3
ENDMDL
MODEL 7
REMARK VINA RESULT:    -4.172      5.083      6.656
REMARK INTER + INTRA:          -5.077
REMARK INTER:                  -4.793
REMARK INTRA:                  -0.284
REMARK UNBOUND:                -0.295
REMARK SMILES O=C(O)c1ccc2nc(-c3cc(Cl)cc(Cl)c3)oc2c1
REMARK SMILES IDX 5 1 6 2 20 3 8 4 18 5 4 6 9 7 7 8 19 9 2 10 1 11 3 12 10 14
REMARK SMILES IDX 11 15 17 16 12 17 15 18 14 19 13 20 16 21
REMARK H PARENT 3 13
ROOT
ATOM      1  C   UNL     1       4.531 -16.387  -4.078  1.00  0.00     0.018 A 
ATOM      2  C   UNL     1       5.045 -15.747  -2.990  1.00  0.00     0.033 A 
ATOM      3  C   UNL     1       3.869 -14.264  -5.045  1.00  0.00     0.065 A 
ATOM      4  N   UNL     1       5.391 -13.459  -1.977  1.00  0.00    -0.209 NA
ATOM      5  O   UNL     1       4.470 -12.311  -3.579  1.00  0.00    -0.436 OA
ATOM      6  C   UNL     1       3.940 -15.657  -5.118  1.00  0.00     0.063 A 
ATOM      7  C   UNL     1       5.086 -12.252  -2.384  1.00  0.00     0.227 A 
ATOM      8  C   UNL     1       4.981 -14.351  -2.904  1.00  0.00     0.110 A 
ATOM      9  C   UNL     1       4.385 -13.611  -3.940  1.00  0.00     0.156 A 
ENDROOT
BRANCH   6  10
ATOM     10  C   UNL     1       3.393 -16.360  -6.292  1.00  0.00     0.335 C 
ATOM     11  O   UNL     1       4.068 -16.482  -7.295  1.00  0.00    -0.246 OA
BRANCH  10  12
ATOM     12  O   UNL     1       2.145 -16.866  -6.254  1.00  0.00    -0.478 OA
ATOM     13  H   UNL     1       2.062 -17.823  -6.146  1.00  0.00     0.297 HD
ENDBRANCH  10  12
ENDBRANCH   6  10
BRANCH   7  14
ATOM     14  C   UNL     1       5.374 -11.008  -1.639  1.00  0.00     0.040 A 
ATOM     15  C   UNL     1       4.500  -9.924  -1.719  1.00  0.00     0.034 A 
ATOM     16  C   UNL     1       6.525 -10.914  -0.853  1.00  0.00     0.034 A 
ATOM     17  C   UNL     1       4.775  -8.765  -1.020  1.00  0.00     0.043 A 
ATOM     18  C   UNL     1       6.789  -9.750  -0.159  1.00  0.00     0.043 A 
ATOM     19  C   UNL     1       5.917  -8.678  -0.243  1.00  0.00     0.041 A 
ATOM     20  Cl  UNL     1       3.688  -7.416  -1.118  1.00  0.00    -0.084 Cl
ATOM     21  Cl  UNL     1       8.218  -9.631   0.819  1.00  0.00    -0.084 Cl
ENDBRANCH   7  14
TORSDOF 3
ENDMDL
MODEL 8
REMARK VINA RESULT:    -4.162      5.086      6.517
REMARK INTER + INTRA:          -5.065
REMARK INTER:                  -4.781
REMARK INTRA:                  -0.284
REMARK UNBOUND:                -0.295
REMARK SMILES O=C(O)c1ccc2nc(-c3cc(Cl)cc(Cl)c3)oc2c1
REMARK SMILES IDX 5 1 6 2 20 3 8 4 18 5 4 6 9 7 7 8 19 9 2 10 1 11 3 12 10 14
REMARK SMILES IDX 11 15 17 16 12 17 15 18 14 19 13 20 16 21
REMARK H PARENT 3 13
ROOT
ATOM      1  C   UNL     1       4.527 -16.390  -4.081  1.00  0.00     0.018 A 
ATOM      2  C   UNL     1       5.042 -15.751  -2.993  1.00  0.00     0.033 A 
ATOM      3  C   UNL     1       3.865 -14.267  -5.046  1.00  0.00     0.065 A 
ATOM      4  N   UNL     1       5.389 -13.463  -1.978  1.00  0.00    -0.209 NA
ATOM      5  O   UNL     1       4.466 -12.315  -3.579  1.00  0.00    -0.436 OA
ATOM      6  C   UNL     1       3.935 -15.659  -5.120  1.00  0.00     0.063 A 
ATOM      7  C   UNL     1       5.083 -12.256  -2.384  1.00  0.00     0.227 A 
ATOM      8  C   UNL     1       4.978 -14.355  -2.905  1.00  0.00     0.110 A 
ATOM      9  C   UNL     1       4.381 -13.614  -3.941  1.00  0.00     0.156 A 
ENDROOT
BRANCH   6  10
ATOM     10  C   UNL     1       3.388 -16.361  -6.294  1.00  0.00     0.335 C 
ATOM     11  O   UNL     1       4.059 -16.477  -7.300  1.00  0.00    -0.246 OA
BRANCH  10  12
ATOM     12  O   UNL     1       2.142 -16.874  -6.253  1.00  0.00    -0.478 OA
ATOM     13  H   UNL     1       1.760 -17.168  -7.091  1.00  0.00     0.297 HD
ENDBRANCH  10  12
ENDBRANCH   6  10
BRANCH   7  14
ATOM     14  C   UNL     1       5.373 -11.013  -1.639  1.00  0.00     0.040 A 
ATOM     15  C   UNL     1       6.521 -10.919  -0.851  1.00  0.00     0.034 A 
ATOM     16  C   UNL     1       4.497  -9.929  -1.719  1.00  0.00     0.034 A 
ATOM     17  C   UNL     1       6.786  -9.755  -0.158  1.00  0.00     0.043 A 
ATOM     18  C   UNL     1       4.773  -8.770  -1.021  1.00  0.00     0.043 A 
ATOM     19  C   UNL     1       5.914  -8.683  -0.242  1.00  0.00     0.041 A 
ATOM     20  Cl  UNL     1       8.214  -9.635   0.822  1.00  0.00    -0.084 Cl
ATOM     21  Cl  UNL     1       3.686  -7.420  -1.120  1.00  0.00    -0.084 Cl
ENDBRANCH   7  14
TORSDOF 3
ENDMDL
MODEL 9
REMARK VINA RESULT:    -3.868      3.986      7.471
REMARK INTER + INTRA:          -4.728
REMARK INTER:                  -4.441
REMARK INTRA:                  -0.287
REMARK UNBOUND:                -0.295
REMARK SMILES O=C(O)c1ccc2nc(-c3cc(Cl)cc(Cl)c3)oc2c1
REMARK SMILES IDX 5 1 6 2 20 3 8 4 18 5 4 6 9 7 7 8 19 9 2 10 1 11 3 12 10 14
REMARK SMILES IDX 11 15 17 16 12 17 15 18 14 19 13 20 16 21
REMARK H PARENT 3 13
ROOT
ATOM      1  C   UNL     1       2.686  -5.501  -2.124  1.00  0.00     0.018 A 
ATOM      2  C   UNL     1       3.864  -6.109  -2.438  1.00  0.00     0.033 A 
ATOM      3  C   UNL     1       2.533  -6.799  -0.081  1.00  0.00     0.065 A 
ATOM      4  N   UNL     1       5.522  -7.833  -1.623  1.00  0.00    -0.209 NA
ATOM      5  O   UNL     1       4.476  -8.368   0.209  1.00  0.00    -0.436 OA
ATOM      6  C   UNL     1       2.007  -5.835  -0.944  1.00  0.00     0.063 A 
ATOM      7  C   UNL     1       5.559  -8.595  -0.558  1.00  0.00     0.227 A 
ATOM      8  C   UNL     1       4.403  -7.077  -1.582  1.00  0.00     0.110 A 
ATOM      9  C   UNL     1       3.726  -7.422  -0.399  1.00  0.00     0.156 A 
ENDROOT
BRANCH   6  10
ATOM     10  C   UNL     1       0.736  -5.167  -0.611  1.00  0.00     0.335 C 
ATOM     11  O   UNL     1       0.259  -4.354  -1.378  1.00  0.00    -0.246 OA
BRANCH  10  12
ATOM     12  O   UNL     1       0.104  -5.456   0.543  1.00  0.00    -0.478 OA
ATOM     13  H   UNL     1       0.623  -5.394   1.356  1.00  0.00     0.297 HD
ENDBRANCH  10  12
ENDBRANCH   6  10
BRANCH   7  14
ATOM     14  C   UNL     1       6.632  -9.562  -0.246  1.00  0.00     0.040 A 
ATOM     15  C   UNL     1       7.657  -9.212   0.633  1.00  0.00     0.034 A 
ATOM     16  C   UNL     1       6.624 -10.830  -0.832  1.00  0.00     0.034 A 
ATOM     17  C   UNL     1       8.657 -10.120   0.921  1.00  0.00     0.043 A 
ATOM     18  C   UNL     1       7.629 -11.729  -0.536  1.00  0.00     0.043 A 
ATOM     19  C   UNL     1       8.643 -11.376   0.338  1.00  0.00     0.041 A 
ATOM     20  Cl  UNL     1       9.933  -9.687   2.015  1.00  0.00    -0.084 Cl
ATOM     21  Cl  UNL     1       7.621 -13.306  -1.262  1.00  0.00    -0.084 Cl
ENDBRANCH   7  14
TORSDOF 3
ENDMDL
