MODEL 1
REMARK VINA RESULT:    -5.480      0.000      0.000
REMARK INTER + INTRA:          -8.229
REMARK INTER:                  -7.563
REMARK INTRA:                  -0.666
REMARK UNBOUND:                -0.666
REMARK SMILES Cc1n[nH]c(C)c1CCCOc1cc(C(=O)O)ccc1F
REMARK SMILES IDX 11 1 12 2 14 3 18 4 13 5 19 6 20 7 21 8 15 9 16 10 17 11
REMARK SMILES IDX 10 13 9 14 8 15 7 16 5 17 2 18 4 19 3 20 6 21 1 22
REMARK H PARENT 17 12 4 23
ROOT
ATOM      1  O   UNL     1       3.341  -7.102   1.038  1.00  0.00    -0.490 OA
ENDROOT
BRANCH   1   2
ATOM      2  C   UNL     1       3.226  -5.991   0.262  1.00  0.00     0.155 A 
ATOM      3  C   UNL     1       4.235  -4.153  -0.916  1.00  0.00     0.063 A 
ATOM      4  C   UNL     1       2.970  -3.731  -1.333  1.00  0.00     0.019 A 
ATOM      5  C   UNL     1       4.357  -5.290  -0.114  1.00  0.00     0.065 A 
ATOM      6  C   UNL     1       1.849  -4.440  -0.958  1.00  0.00     0.044 A 
ATOM      7  C   UNL     1       1.972  -5.571  -0.167  1.00  0.00     0.165 A 
ATOM      8  F   UNL     1       0.869  -6.261   0.196  1.00  0.00    -0.203 F 
BRANCH   3   9
ATOM      9  C   UNL     1       5.438  -3.397  -1.315  1.00  0.00     0.335 C 
ATOM     10  O   UNL     1       6.447  -3.460  -0.643  1.00  0.00    -0.246 OA
BRANCH   9  11
ATOM     11  O   UNL     1       5.418  -2.641  -2.431  1.00  0.00    -0.478 OA
ATOM     12  H   UNL     1       6.090  -2.829  -3.101  1.00  0.00     0.297 HD
ENDBRANCH   9  11
ENDBRANCH   3   9
ENDBRANCH   1   2
BRANCH   1  13
ATOM     13  C   UNL     1       3.241  -8.367   0.379  1.00  0.00     0.230 C 
BRANCH  13  14
ATOM     14  C   UNL     1       4.563  -9.122   0.525  1.00  0.00     0.046 C 
BRANCH  14  15
ATOM     15  C   UNL     1       5.259  -9.199  -0.836  1.00  0.00     0.043 C 
BRANCH  15  16
ATOM     16  C   UNL     1       5.966 -10.523  -0.966  1.00  0.00    -0.004 A 
ATOM     17  C   UNL     1       7.219 -10.802  -0.537  1.00  0.00     0.036 A 
ATOM     18  C   UNL     1       5.441 -11.683  -1.545  1.00  0.00     0.063 A 
ATOM     19  N   UNL     1       7.480 -12.091  -0.840  1.00  0.00    -0.282 N 
ATOM     20  N   UNL     1       6.350 -12.622  -1.476  1.00  0.00    -0.181 NA
ATOM     21  C   UNL     1       8.154  -9.845   0.155  1.00  0.00     0.066 C 
ATOM     22  C   UNL     1       4.069 -11.825  -2.154  1.00  0.00     0.069 C 
ATOM     23  H   UNL     1       8.304 -12.566  -0.652  1.00  0.00     0.190 HD
ENDBRANCH  15  16
ENDBRANCH  14  15
ENDBRANCH  13  14
ENDBRANCH   1  13
TORSDOF 7
ENDMDL
MODEL 2
REMARK VINA RESULT:    -5.460      2.194      3.782
REMARK INTER + INTRA:          -8.202
REMARK INTER:                  -7.509
REMARK INTRA:                  -0.693
REMARK UNBOUND:                -0.666
REMARK SMILES Cc1n[nH]c(C)c1CCCOc1cc(C(=O)O)ccc1F
REMARK SMILES IDX 11 1 12 2 14 3 18 4 13 5 19 6 20 7 21 8 15 9 16 10 17 11
REMARK SMILES IDX 10 13 9 14 8 15 7 16 5 17 2 18 4 19 3 20 6 21 1 22
REMARK H PARENT 17 12 4 23
ROOT
ATOM      1  O   UNL     1       5.094  -6.204  -2.860  1.00  0.00    -0.490 OA
ENDROOT
BRANCH   1   2
ATOM      2  C   UNL     1       4.262  -5.435  -2.108  1.00  0.00     0.155 A 
ATOM      3  C   UNL     1       2.176  -5.129  -0.953  1.00  0.00     0.063 A 
ATOM      4  C   UNL     1       2.583  -3.851  -0.563  1.00  0.00     0.019 A 
ATOM      5  C   UNL     1       3.025  -5.921  -1.729  1.00  0.00     0.065 A 
ATOM      6  C   UNL     1       3.822  -3.377  -0.941  1.00  0.00     0.044 A 
ATOM      7  C   UNL     1       4.664  -4.165  -1.707  1.00  0.00     0.165 A 
ATOM      8  F   UNL     1       5.877  -3.695  -2.074  1.00  0.00    -0.203 F 
BRANCH   3   9
ATOM      9  C   UNL     1       0.851  -5.640  -0.550  1.00  0.00     0.335 C 
ATOM     10  O   UNL     1       0.300  -6.492  -1.216  1.00  0.00    -0.246 OA
BRANCH   9  11
ATOM     11  O   UNL     1       0.255  -5.163   0.561  1.00  0.00    -0.478 OA
ATOM     12  H   UNL     1       0.499  -5.576   1.402  1.00  0.00     0.297 HD
ENDBRANCH   9  11
ENDBRANCH   3   9
ENDBRANCH   1   2
BRANCH   1  13
ATOM     13  C   UNL     1       6.127  -6.911  -2.168  1.00  0.00     0.230 C 
BRANCH  13  14
ATOM     14  C   UNL     1       5.990  -8.409  -2.442  1.00  0.00     0.046 C 
BRANCH  14  15
ATOM     15  C   UNL     1       5.431  -9.107  -1.200  1.00  0.00     0.043 C 
BRANCH  15  16
ATOM     16  C   UNL     1       5.985 -10.505  -1.116  1.00  0.00    -0.004 A 
ATOM     17  C   UNL     1       5.392 -11.627  -1.587  1.00  0.00     0.036 A 
ATOM     18  C   UNL     1       7.207 -10.874  -0.543  1.00  0.00     0.063 A 
ATOM     19  N   UNL     1       6.206 -12.668  -1.316  1.00  0.00    -0.282 N 
ATOM     20  N   UNL     1       7.337 -12.170  -0.656  1.00  0.00    -0.181 NA
ATOM     21  C   UNL     1       4.061 -11.699  -2.289  1.00  0.00     0.066 C 
ATOM     22  C   UNL     1       8.197  -9.939   0.104  1.00  0.00     0.069 C 
ATOM     23  H   UNL     1       6.037 -13.597  -1.537  1.00  0.00     0.190 HD
ENDBRANCH  15  16
ENDBRANCH  14  15
ENDBRANCH  13  14
ENDBRANCH   1  13
TORSDOF 7
ENDMDL
MODEL 3
REMARK VINA RESULT:    -5.443      0.226      1.777
REMARK INTER + INTRA:          -8.177
REMARK INTER:                  -7.510
REMARK INTRA:                  -0.667
REMARK UNBOUND:                -0.666
REMARK SMILES Cc1n[nH]c(C)c1CCCOc1cc(C(=O)O)ccc1F
REMARK SMILES IDX 11 1 12 2 14 3 18 4 13 5 19 6 20 7 21 8 15 9 16 10 17 11
REMARK SMILES IDX 10 13 9 14 8 15 7 16 5 17 2 18 4 19 3 20 6 21 1 22
REMARK H PARENT 17 12 4 23
ROOT
ATOM      1  O   UNL     1       3.341  -7.166   0.905  1.00  0.00    -0.490 OA
ENDROOT
BRANCH   1   2
ATOM      2  C   UNL     1       3.223  -6.015   0.191  1.00  0.00     0.155 A 
ATOM      3  C   UNL     1       4.230  -4.135  -0.921  1.00  0.00     0.063 A 
ATOM      4  C   UNL     1       2.960  -3.670  -1.276  1.00  0.00     0.019 A 
ATOM      5  C   UNL     1       4.355  -5.314  -0.183  1.00  0.00     0.065 A 
ATOM      6  C   UNL     1       1.838  -4.379  -0.903  1.00  0.00     0.044 A 
ATOM      7  C   UNL     1       1.964  -5.551  -0.176  1.00  0.00     0.165 A 
ATOM      8  F   UNL     1       0.861  -6.241   0.186  1.00  0.00    -0.203 F 
BRANCH   3   9
ATOM      9  C   UNL     1       5.433  -3.379  -1.318  1.00  0.00     0.335 C 
ATOM     10  O   UNL     1       6.455  -3.478  -0.670  1.00  0.00    -0.246 OA
BRANCH   9  11
ATOM     11  O   UNL     1       5.400  -2.584  -2.406  1.00  0.00    -0.478 OA
ATOM     12  H   UNL     1       6.160  -2.002  -2.548  1.00  0.00     0.297 HD
ENDBRANCH   9  11
ENDBRANCH   3   9
ENDBRANCH   1   2
BRANCH   1  13
ATOM     13  C   UNL     1       3.408  -8.386   0.162  1.00  0.00     0.230 C 
BRANCH  13  14
ATOM     14  C   UNL     1       4.796  -9.007   0.327  1.00  0.00     0.046 C 
BRANCH  14  15
ATOM     15  C   UNL     1       5.410  -9.259  -1.052  1.00  0.00     0.043 C 
BRANCH  15  16
ATOM     16  C   UNL     1       5.924 -10.673  -1.123  1.00  0.00    -0.004 A 
ATOM     17  C   UNL     1       5.275 -11.729  -1.667  1.00  0.00     0.036 A 
ATOM     18  C   UNL     1       7.158 -11.125  -0.645  1.00  0.00     0.063 A 
ATOM     19  N   UNL     1       6.068 -12.813  -1.531  1.00  0.00    -0.282 N 
ATOM     20  N   UNL     1       7.243 -12.409  -0.883  1.00  0.00    -0.181 NA
ATOM     21  C   UNL     1       3.912 -11.701  -2.308  1.00  0.00     0.066 C 
ATOM     22  C   UNL     1       8.205 -10.282   0.037  1.00  0.00     0.069 C 
ATOM     23  H   UNL     1       5.861 -13.712  -1.829  1.00  0.00     0.190 HD
ENDBRANCH  15  16
ENDBRANCH  14  15
ENDBRANCH  13  14
ENDBRANCH   1  13
TORSDOF 7
ENDMDL
MODEL 4
REMARK VINA RESULT:    -4.559      3.965      7.119
REMARK INTER + INTRA:          -6.957
REMARK INTER:                  -6.127
REMARK INTRA:                  -0.830
REMARK UNBOUND:                -0.666
REMARK SMILES Cc1n[nH]c(C)c1CCCOc1cc(C(=O)O)ccc1F
REMARK SMILES IDX 11 1 12 2 14 3 18 4 13 5 19 6 20 7 21 8 15 9 16 10 17 11
REMARK SMILES IDX 10 13 9 14 8 15 7 16 5 17 2 18 4 19 3 20 6 21 1 22
REMARK H PARENT 17 12 4 23
ROOT
ATOM      1  O   UNL     1       5.701  -7.550  -0.737  1.00  0.00    -0.490 OA
ENDROOT
BRANCH   1   2
ATOM      2  C   UNL     1       5.879  -8.890  -0.879  1.00  0.00     0.155 A 
ATOM      3  C   UNL     1       5.149 -11.014  -1.740  1.00  0.00     0.063 A 
ATOM      4  C   UNL     1       6.267 -11.626  -1.166  1.00  0.00     0.019 A 
ATOM      5  C   UNL     1       4.960  -9.638  -1.592  1.00  0.00     0.065 A 
ATOM      6  C   UNL     1       7.181 -10.871  -0.462  1.00  0.00     0.044 A 
ATOM      7  C   UNL     1       6.994  -9.506  -0.321  1.00  0.00     0.165 A 
ATOM      8  F   UNL     1       7.894  -8.772   0.370  1.00  0.00    -0.203 F 
BRANCH   3   9
ATOM      9  C   UNL     1       4.169 -11.818  -2.494  1.00  0.00     0.335 C 
ATOM     10  O   UNL     1       3.115 -11.325  -2.840  1.00  0.00    -0.246 OA
BRANCH   9  11
ATOM     11  O   UNL     1       4.446 -13.100  -2.805  1.00  0.00    -0.478 OA
ATOM     12  H   UNL     1       3.837 -13.774  -2.474  1.00  0.00     0.297 HD
ENDBRANCH   9  11
ENDBRANCH   3   9
ENDBRANCH   1   2
BRANCH   1  13
ATOM     13  C   UNL     1       5.207  -6.837  -1.873  1.00  0.00     0.230 C 
BRANCH  13  14
ATOM     14  C   UNL     1       4.999  -5.368  -1.502  1.00  0.00     0.046 C 
BRANCH  14  15
ATOM     15  C   UNL     1       4.490  -5.273  -0.062  1.00  0.00     0.043 C 
BRANCH  15  16
ATOM     16  C   UNL     1       2.988  -5.385  -0.051  1.00  0.00    -0.004 A 
ATOM     17  C   UNL     1       2.118  -4.477  -0.550  1.00  0.00     0.036 A 
ATOM     18  C   UNL     1       2.246  -6.450   0.471  1.00  0.00     0.063 A 
ATOM     19  N   UNL     1       0.869  -4.947  -0.344  1.00  0.00    -0.282 N 
ATOM     20  N   UNL     1       0.976  -6.185   0.302  1.00  0.00    -0.181 NA
ATOM     21  C   UNL     1       2.478  -3.174  -1.215  1.00  0.00     0.066 C 
ATOM     22  C   UNL     1       2.811  -7.684   1.127  1.00  0.00     0.069 C 
ATOM     23  H   UNL     1       0.044  -4.505  -0.599  1.00  0.00     0.190 HD
ENDBRANCH  15  16
ENDBRANCH  14  15
ENDBRANCH  13  14
ENDBRANCH   1  13
TORSDOF 7
ENDMDL
MODEL 5
REMARK VINA RESULT:    -4.504      3.838      6.621
REMARK INTER + INTRA:          -6.882
REMARK INTER:                  -6.042
REMARK INTRA:                  -0.840
REMARK UNBOUND:                -0.666
REMARK SMILES Cc1n[nH]c(C)c1CCCOc1cc(C(=O)O)ccc1F
REMARK SMILES IDX 11 1 12 2 14 3 18 4 13 5 19 6 20 7 21 8 15 9 16 10 17 11
REMARK SMILES IDX 10 13 9 14 8 15 7 16 5 17 2 18 4 19 3 20 6 21 1 22
REMARK H PARENT 17 12 4 23
ROOT
ATOM      1  O   UNL     1       3.913  -8.392  -1.293  1.00  0.00    -0.490 OA
ENDROOT
BRANCH   1   2
ATOM      2  C   UNL     1       4.862  -9.355  -1.152  1.00  0.00     0.155 A 
ATOM      3  C   UNL     1       7.008 -10.067  -0.334  1.00  0.00     0.063 A 
ATOM      4  C   UNL     1       6.784 -11.340  -0.866  1.00  0.00     0.019 A 
ATOM      5  C   UNL     1       6.038  -9.074  -0.481  1.00  0.00     0.065 A 
ATOM      6  C   UNL     1       5.606 -11.612  -1.529  1.00  0.00     0.044 A 
ATOM      7  C   UNL     1       4.643 -10.627  -1.669  1.00  0.00     0.165 A 
ATOM      8  F   UNL     1       3.490 -10.900  -2.319  1.00  0.00    -0.203 F 
BRANCH   3   9
ATOM      9  C   UNL     1       8.268  -9.773   0.376  1.00  0.00     0.335 C 
ATOM     10  O   UNL     1       9.230  -9.361  -0.240  1.00  0.00    -0.246 OA
BRANCH   9  11
ATOM     11  O   UNL     1       8.348  -9.955   1.708  1.00  0.00    -0.478 OA
ATOM     12  H   UNL     1       7.769  -9.412   2.262  1.00  0.00     0.297 HD
ENDBRANCH   9  11
ENDBRANCH   3   9
ENDBRANCH   1   2
BRANCH   1  13
ATOM     13  C   UNL     1       3.638  -7.579  -0.149  1.00  0.00     0.230 C 
BRANCH  13  14
ATOM     14  C   UNL     1       2.624  -6.498  -0.524  1.00  0.00     0.046 C 
BRANCH  14  15
ATOM     15  C   UNL     1       2.928  -5.979  -1.931  1.00  0.00     0.043 C 
BRANCH  15  16
ATOM     16  C   UNL     1       3.956  -4.880  -1.850  1.00  0.00    -0.004 A 
ATOM     17  C   UNL     1       5.225  -4.940  -2.316  1.00  0.00     0.036 A 
ATOM     18  C   UNL     1       3.765  -3.614  -1.286  1.00  0.00     0.063 A 
ATOM     19  N   UNL     1       5.818  -3.757  -2.050  1.00  0.00    -0.282 N 
ATOM     20  N   UNL     1       4.882  -2.943  -1.400  1.00  0.00    -0.181 NA
ATOM     21  C   UNL     1       5.861  -6.117  -3.008  1.00  0.00     0.066 C 
ATOM     22  C   UNL     1       2.494  -3.113  -0.647  1.00  0.00     0.069 C 
ATOM     23  H   UNL     1       6.730  -3.515  -2.270  1.00  0.00     0.190 HD
ENDBRANCH  15  16
ENDBRANCH  14  15
ENDBRANCH  13  14
ENDBRANCH   1  13
TORSDOF 7
ENDMDL
MODEL 6
REMARK VINA RESULT:    -4.352      4.831      7.888
REMARK INTER + INTRA:          -6.672
REMARK INTER:                  -5.975
REMARK INTRA:                  -0.698
REMARK UNBOUND:                -0.666
REMARK SMILES Cc1n[nH]c(C)c1CCCOc1cc(C(=O)O)ccc1F
REMARK SMILES IDX 11 1 12 2 14 3 18 4 13 5 19 6 20 7 21 8 15 9 16 10 17 11
REMARK SMILES IDX 10 13 9 14 8 15 7 16 5 17 2 18 4 19 3 20 6 21 1 22
REMARK H PARENT 17 12 4 23
ROOT
ATOM      1  O   UNL     1       7.304  -9.577  -0.417  1.00  0.00    -0.490 OA
ENDROOT
BRANCH   1   2
ATOM      2  C   UNL     1       8.244 -10.378   0.152  1.00  0.00     0.155 A 
ATOM      3  C   UNL     1       9.622 -12.348   0.091  1.00  0.00     0.063 A 
ATOM      4  C   UNL     1      10.173 -11.996   1.325  1.00  0.00     0.019 A 
ATOM      5  C   UNL     1       8.652 -11.530  -0.494  1.00  0.00     0.065 A 
ATOM      6  C   UNL     1       9.764 -10.841   1.959  1.00  0.00     0.044 A 
ATOM      7  C   UNL     1       8.806 -10.029   1.375  1.00  0.00     0.165 A 
ATOM      8  F   UNL     1       8.410  -8.900   2.001  1.00  0.00    -0.203 F 
BRANCH   3   9
ATOM      9  C   UNL     1      10.058 -13.583  -0.591  1.00  0.00     0.335 C 
ATOM     10  O   UNL     1      10.945 -14.259  -0.113  1.00  0.00    -0.246 OA
BRANCH   9  11
ATOM     11  O   UNL     1       9.465 -13.963  -1.740  1.00  0.00    -0.478 OA
ATOM     12  H   UNL     1       9.187 -13.260  -2.344  1.00  0.00     0.297 HD
ENDBRANCH   9  11
ENDBRANCH   3   9
ENDBRANCH   1   2
BRANCH   1  13
ATOM     13  C   UNL     1       6.081 -10.197  -0.820  1.00  0.00     0.230 C 
BRANCH  13  14
ATOM     14  C   UNL     1       5.097  -9.125  -1.292  1.00  0.00     0.046 C 
BRANCH  14  15
ATOM     15  C   UNL     1       5.432  -7.793  -0.618  1.00  0.00     0.043 C 
BRANCH  15  16
ATOM     16  C   UNL     1       4.366  -6.781  -0.946  1.00  0.00    -0.004 A 
ATOM     17  C   UNL     1       4.355  -5.953  -2.017  1.00  0.00     0.036 A 
ATOM     18  C   UNL     1       3.208  -6.535  -0.201  1.00  0.00     0.063 A 
ATOM     19  N   UNL     1       3.234  -5.206  -1.948  1.00  0.00    -0.282 N 
ATOM     20  N   UNL     1       2.532  -5.586  -0.797  1.00  0.00    -0.181 NA
ATOM     21  C   UNL     1       5.407  -5.881  -3.093  1.00  0.00     0.066 C 
ATOM     22  C   UNL     1       2.812  -7.233   1.075  1.00  0.00     0.069 C 
ATOM     23  H   UNL     1       2.962  -4.525  -2.583  1.00  0.00     0.190 HD
ENDBRANCH  15  16
ENDBRANCH  14  15
ENDBRANCH  13  14
ENDBRANCH   1  13
TORSDOF 7
ENDMDL
MODEL 7
REMARK VINA RESULT:    -4.351      4.664      8.113
REMARK INTER + INTRA:          -6.670
REMARK INTER:                  -5.960
REMARK INTRA:                  -0.710
REMARK UNBOUND:                -0.666
REMARK SMILES Cc1n[nH]c(C)c1CCCOc1cc(C(=O)O)ccc1F
REMARK SMILES IDX 11 1 12 2 14 3 18 4 13 5 19 6 20 7 21 8 15 9 16 10 17 11
REMARK SMILES IDX 10 13 9 14 8 15 7 16 5 17 2 18 4 19 3 20 6 21 1 22
REMARK H PARENT 17 12 4 23
ROOT
ATOM      1  O   UNL     1       4.657 -10.971  -1.329  1.00  0.00    -0.490 OA
ENDROOT
BRANCH   1   2
ATOM      2  C   UNL     1       4.712 -12.167  -1.973  1.00  0.00     0.155 A 
ATOM      3  C   UNL     1       5.457 -14.451  -2.074  1.00  0.00     0.063 A 
ATOM      4  C   UNL     1       4.803 -14.606  -3.299  1.00  0.00     0.019 A 
ATOM      5  C   UNL     1       5.407 -13.222  -1.412  1.00  0.00     0.065 A 
ATOM      6  C   UNL     1       4.108 -13.549  -3.848  1.00  0.00     0.044 A 
ATOM      7  C   UNL     1       4.056 -12.333  -3.188  1.00  0.00     0.165 A 
ATOM      8  F   UNL     1       3.372 -11.302  -3.730  1.00  0.00    -0.203 F 
BRANCH   3   9
ATOM      9  C   UNL     1       6.202 -15.580  -1.484  1.00  0.00     0.335 C 
ATOM     10  O   UNL     1       6.482 -16.545  -2.164  1.00  0.00    -0.246 OA
BRANCH   9  11
ATOM     11  O   UNL     1       6.577 -15.537  -0.190  1.00  0.00    -0.478 OA
ATOM     12  H   UNL     1       6.075 -16.083   0.431  1.00  0.00     0.297 HD
ENDBRANCH   9  11
ENDBRANCH   3   9
ENDBRANCH   1   2
BRANCH   1  13
ATOM     13  C   UNL     1       5.851 -10.184  -1.320  1.00  0.00     0.230 C 
BRANCH  13  14
ATOM     14  C   UNL     1       5.557  -8.820  -0.692  1.00  0.00     0.046 C 
BRANCH  14  15
ATOM     15  C   UNL     1       4.285  -8.237  -1.311  1.00  0.00     0.043 C 
BRANCH  15  16
ATOM     16  C   UNL     1       4.169  -6.781  -0.945  1.00  0.00    -0.004 A 
ATOM     17  C   UNL     1       3.546  -6.281   0.147  1.00  0.00     0.036 A 
ATOM     18  C   UNL     1       4.692  -5.705  -1.671  1.00  0.00     0.063 A 
ATOM     19  N   UNL     1       3.665  -4.937   0.110  1.00  0.00    -0.282 N 
ATOM     20  N   UNL     1       4.385  -4.600  -1.043  1.00  0.00    -0.181 NA
ATOM     21  C   UNL     1       2.845  -7.081   1.214  1.00  0.00     0.066 C 
ATOM     22  C   UNL     1       5.467  -5.803  -2.961  1.00  0.00     0.069 C 
ATOM     23  H   UNL     1       3.313  -4.315   0.765  1.00  0.00     0.190 HD
ENDBRANCH  15  16
ENDBRANCH  14  15
ENDBRANCH  13  14
ENDBRANCH   1  13
TORSDOF 7
ENDMDL
MODEL 8
REMARK VINA RESULT:    -4.210      3.873      6.772
REMARK INTER + INTRA:          -6.477
REMARK INTER:                  -5.624
REMARK INTRA:                  -0.853
REMARK UNBOUND:                -0.666
REMARK SMILES Cc1n[nH]c(C)c1CCCOc1cc(C(=O)O)ccc1F
REMARK SMILES IDX 11 1 12 2 14 3 18 4 13 5 19 6 20 7 21 8 15 9 16 10 17 11
REMARK SMILES IDX 10 13 9 14 8 15 7 16 5 17 2 18 4 19 3 20 6 21 1 22
REMARK H PARENT 17 12 4 23
ROOT
ATOM      1  O   UNL     1       4.783  -7.945  -1.680  1.00  0.00    -0.490 OA
ENDROOT
BRANCH   1   2
ATOM      2  C   UNL     1       5.447  -9.089  -1.364  1.00  0.00     0.155 A 
ATOM      3  C   UNL     1       7.307 -10.203  -0.324  1.00  0.00     0.063 A 
ATOM      4  C   UNL     1       6.784 -11.437  -0.719  1.00  0.00     0.019 A 
ATOM      5  C   UNL     1       6.630  -9.026  -0.652  1.00  0.00     0.065 A 
ATOM      6  C   UNL     1       5.600 -11.490  -1.425  1.00  0.00     0.044 A 
ATOM      7  C   UNL     1       4.928 -10.321  -1.744  1.00  0.00     0.165 A 
ATOM      8  F   UNL     1       3.768 -10.380  -2.435  1.00  0.00    -0.203 F 
BRANCH   3   9
ATOM      9  C   UNL     1       8.574 -10.143   0.431  1.00  0.00     0.335 C 
ATOM     10  O   UNL     1       9.418 -11.000   0.270  1.00  0.00    -0.246 OA
BRANCH   9  11
ATOM     11  O   UNL     1       8.795  -9.133   1.295  1.00  0.00    -0.478 OA
ATOM     12  H   UNL     1       8.208  -8.367   1.235  1.00  0.00     0.297 HD
ENDBRANCH   9  11
ENDBRANCH   3   9
ENDBRANCH   1   2
BRANCH   1  13
ATOM     13  C   UNL     1       5.577  -6.808  -2.028  1.00  0.00     0.230 C 
BRANCH  13  14
ATOM     14  C   UNL     1       4.745  -5.536  -1.862  1.00  0.00     0.046 C 
BRANCH  14  15
ATOM     15  C   UNL     1       4.408  -5.336  -0.383  1.00  0.00     0.043 C 
BRANCH  15  16
ATOM     16  C   UNL     1       2.915  -5.412  -0.193  1.00  0.00    -0.004 A 
ATOM     17  C   UNL     1       2.012  -4.490  -0.603  1.00  0.00     0.036 A 
ATOM     18  C   UNL     1       2.216  -6.449   0.434  1.00  0.00     0.063 A 
ATOM     19  N   UNL     1       0.787  -4.927  -0.243  1.00  0.00    -0.282 N 
ATOM     20  N   UNL     1       0.942  -6.156   0.410  1.00  0.00    -0.181 NA
ATOM     21  C   UNL     1       2.320  -3.208  -1.331  1.00  0.00     0.066 C 
ATOM     22  C   UNL     1       2.828  -7.686   1.042  1.00  0.00     0.069 C 
ATOM     23  H   UNL     1      -0.052  -4.469  -0.407  1.00  0.00     0.190 HD
ENDBRANCH  15  16
ENDBRANCH  14  15
ENDBRANCH  13  14
ENDBRANCH   1  13
TORSDOF 7
ENDMDL
MODEL 9
REMARK VINA RESULT:    -4.148      2.764      3.967
REMARK INTER + INTRA:          -6.391
REMARK INTER:                  -5.720
REMARK INTRA:                  -0.670
REMARK UNBOUND:                -0.666
REMARK SMILES Cc1n[nH]c(C)c1CCCOc1cc(C(=O)O)ccc1F
REMARK SMILES IDX 11 1 12 2 14 3 18 4 13 5 19 6 20 7 21 8 15 9 16 10 17 11
REMARK SMILES IDX 10 13 9 14 8 15 7 16 5 17 2 18 4 19 3 20 6 21 1 22
REMARK H PARENT 17 12 4 23
ROOT
ATOM      1  O   UNL     1       4.836  -8.027  -1.884  1.00  0.00    -0.490 OA
ENDROOT
BRANCH   1   2
ATOM      2  C   UNL     1       4.162  -6.866  -1.672  1.00  0.00     0.155 A 
ATOM      3  C   UNL     1       2.200  -5.699  -0.916  1.00  0.00     0.063 A 
ATOM      4  C   UNL     1       2.805  -4.481  -1.239  1.00  0.00     0.019 A 
ATOM      5  C   UNL     1       2.888  -6.894  -1.137  1.00  0.00     0.065 A 
ATOM      6  C   UNL     1       4.079  -4.463  -1.767  1.00  0.00     0.044 A 
ATOM      7  C   UNL     1       4.761  -5.649  -1.980  1.00  0.00     0.165 A 
ATOM      8  F   UNL     1       6.008  -5.624  -2.498  1.00  0.00    -0.203 F 
BRANCH   3   9
ATOM      9  C   UNL     1       0.837  -5.722  -0.351  1.00  0.00     0.335 C 
ATOM     10  O   UNL     1       0.570  -5.042   0.619  1.00  0.00    -0.246 OA
BRANCH   9  11
ATOM     11  O   UNL     1      -0.113  -6.494  -0.914  1.00  0.00    -0.478 OA
ATOM     12  H   UNL     1      -0.184  -6.468  -1.879  1.00  0.00     0.297 HD
ENDBRANCH   9  11
ENDBRANCH   3   9
ENDBRANCH   1   2
BRANCH   1  13
ATOM     13  C   UNL     1       4.863  -8.967  -0.807  1.00  0.00     0.230 C 
BRANCH  13  14
ATOM     14  C   UNL     1       5.471 -10.283  -1.295  1.00  0.00     0.046 C 
BRANCH  14  15
ATOM     15  C   UNL     1       4.521 -11.437  -0.967  1.00  0.00     0.043 C 
BRANCH  15  16
ATOM     16  C   UNL     1       4.459 -12.386  -2.136  1.00  0.00    -0.004 A 
ATOM     17  C   UNL     1       3.693 -12.237  -3.242  1.00  0.00     0.036 A 
ATOM     18  C   UNL     1       5.187 -13.572  -2.273  1.00  0.00     0.063 A 
ATOM     19  N   UNL     1       3.923 -13.296  -4.047  1.00  0.00    -0.282 N 
ATOM     20  N   UNL     1       4.862 -14.122  -3.415  1.00  0.00    -0.181 NA
ATOM     21  C   UNL     1       2.752 -11.095  -3.523  1.00  0.00     0.066 C 
ATOM     22  C   UNL     1       6.168 -14.128  -1.272  1.00  0.00     0.069 C 
ATOM     23  H   UNL     1       3.512 -13.456  -4.910  1.00  0.00     0.190 HD
ENDBRANCH  15  16
ENDBRANCH  14  15
ENDBRANCH  13  14
ENDBRANCH   1  13
TORSDOF 7
ENDMDL
