MODEL 1
REMARK VINA RESULT:    -4.669      0.000      0.000
REMARK INTER + INTRA:          -5.647
REMARK INTER:                  -5.352
REMARK INTRA:                  -0.296
REMARK UNBOUND:                -0.296
REMARK SMILES O=C(O)c1ccc2nc(-c3cc(Cl)cc(Cl)c3)oc2c1
REMARK SMILES IDX 5 1 6 2 20 3 8 4 18 5 4 6 9 7 7 8 19 9 2 10 1 11 3 12 10 14
REMARK SMILES IDX 11 15 17 16 12 17 15 18 14 19 13 20 16 21
REMARK H PARENT 3 13
ROOT
ATOM      1  C   UNL     1       5.453   1.509 -13.829  1.00  0.00     0.018 A 
ATOM      2  C   UNL     1       4.942   2.066 -12.695  1.00  0.00     0.033 A 
ATOM      3  C   UNL     1       5.448  -0.680 -12.786  1.00  0.00     0.065 A 
ATOM      4  N   UNL     1       4.182   1.519 -10.349  1.00  0.00    -0.209 NA
ATOM      5  O   UNL     1       4.583  -0.618 -10.426  1.00  0.00    -0.436 OA
ATOM      6  C   UNL     1       5.710   0.132 -13.891  1.00  0.00     0.063 A 
ATOM      7  C   UNL     1       4.130   0.400  -9.670  1.00  0.00     0.227 A 
ATOM      8  C   UNL     1       4.675   1.263 -11.579  1.00  0.00     0.110 A 
ATOM      9  C   UNL     1       4.935  -0.118 -11.631  1.00  0.00     0.156 A 
ENDROOT
BRANCH   6  10
ATOM     10  C   UNL     1       6.256  -0.460 -15.125  1.00  0.00     0.335 C 
ATOM     11  O   UNL     1       6.627  -1.617 -15.131  1.00  0.00    -0.246 OA
BRANCH  10  12
ATOM     12  O   UNL     1       6.346   0.282 -16.247  1.00  0.00    -0.478 OA
ATOM     13  H   UNL     1       5.647   0.932 -16.400  1.00  0.00     0.297 HD
ENDBRANCH  10  12
ENDBRANCH   6  10
BRANCH   7  14
ATOM     14  C   UNL     1       3.645   0.274  -8.280  1.00  0.00     0.040 A 
ATOM     15  C   UNL     1       2.704   1.176  -7.781  1.00  0.00     0.034 A 
ATOM     16  C   UNL     1       4.127  -0.748  -7.460  1.00  0.00     0.034 A 
ATOM     17  C   UNL     1       2.254   1.052  -6.481  1.00  0.00     0.043 A 
ATOM     18  C   UNL     1       3.670  -0.861  -6.162  1.00  0.00     0.043 A 
ATOM     19  C   UNL     1       2.737   0.037  -5.673  1.00  0.00     0.041 A 
ATOM     20  Cl  UNL     1       1.084   2.172  -5.859  1.00  0.00    -0.084 Cl
ATOM     21  Cl  UNL     1       4.269  -2.131  -5.140  1.00  0.00    -0.084 Cl
ENDBRANCH   7  14
TORSDOF 3
ENDMDL
MODEL 2
REMARK VINA RESULT:    -4.668      0.022      2.020
REMARK INTER + INTRA:          -5.645
REMARK INTER:                  -5.350
REMARK INTRA:                  -0.296
REMARK UNBOUND:                -0.296
REMARK SMILES O=C(O)c1ccc2nc(-c3cc(Cl)cc(Cl)c3)oc2c1
REMARK SMILES IDX 5 1 6 2 20 3 8 4 18 5 4 6 9 7 7 8 19 9 2 10 1 11 3 12 10 14
REMARK SMILES IDX 11 15 17 16 12 17 15 18 14 19 13 20 16 21
REMARK H PARENT 3 13
ROOT
ATOM      1  C   UNL     1       5.454   1.497 -13.815  1.00  0.00     0.018 A 
ATOM      2  C   UNL     1       4.943   2.052 -12.680  1.00  0.00     0.033 A 
ATOM      3  C   UNL     1       5.453  -0.693 -12.773  1.00  0.00     0.065 A 
ATOM      4  N   UNL     1       4.184   1.502 -10.334  1.00  0.00    -0.209 NA
ATOM      5  O   UNL     1       4.588  -0.634 -10.413  1.00  0.00    -0.436 OA
ATOM      6  C   UNL     1       5.713   0.121 -13.877  1.00  0.00     0.063 A 
ATOM      7  C   UNL     1       4.133   0.383  -9.656  1.00  0.00     0.227 A 
ATOM      8  C   UNL     1       4.677   1.248 -11.565  1.00  0.00     0.110 A 
ATOM      9  C   UNL     1       4.939  -0.132 -11.618  1.00  0.00     0.156 A 
ENDROOT
BRANCH   6  10
ATOM     10  C   UNL     1       6.260  -0.469 -15.112  1.00  0.00     0.335 C 
ATOM     11  O   UNL     1       6.623  -1.629 -15.122  1.00  0.00    -0.246 OA
BRANCH  10  12
ATOM     12  O   UNL     1       6.359   0.277 -16.230  1.00  0.00    -0.478 OA
ATOM     13  H   UNL     1       7.213   0.695 -16.405  1.00  0.00     0.297 HD
ENDBRANCH  10  12
ENDBRANCH   6  10
BRANCH   7  14
ATOM     14  C   UNL     1       3.649   0.255  -8.266  1.00  0.00     0.040 A 
ATOM     15  C   UNL     1       4.126  -0.770  -7.448  1.00  0.00     0.034 A 
ATOM     16  C   UNL     1       2.710   1.160  -7.766  1.00  0.00     0.034 A 
ATOM     17  C   UNL     1       3.670  -0.883  -6.150  1.00  0.00     0.043 A 
ATOM     18  C   UNL     1       2.261   1.036  -6.466  1.00  0.00     0.043 A 
ATOM     19  C   UNL     1       2.739   0.018  -5.660  1.00  0.00     0.041 A 
ATOM     20  Cl  UNL     1       4.264  -2.156  -5.130  1.00  0.00    -0.084 Cl
ATOM     21  Cl  UNL     1       1.094   2.160  -5.842  1.00  0.00    -0.084 Cl
ENDBRANCH   7  14
TORSDOF 3
ENDMDL
MODEL 3
REMARK VINA RESULT:    -4.661      1.696      3.108
REMARK INTER + INTRA:          -5.638
REMARK INTER:                  -5.342
REMARK INTRA:                  -0.296
REMARK UNBOUND:                -0.296
REMARK SMILES O=C(O)c1ccc2nc(-c3cc(Cl)cc(Cl)c3)oc2c1
REMARK SMILES IDX 5 1 6 2 20 3 8 4 18 5 4 6 9 7 7 8 19 9 2 10 1 11 3 12 10 14
REMARK SMILES IDX 11 15 17 16 12 17 15 18 14 19 13 20 16 21
REMARK H PARENT 3 13
ROOT
ATOM      1  C   UNL     1       5.426   1.229 -13.877  1.00  0.00     0.018 A 
ATOM      2  C   UNL     1       5.327   0.290 -12.895  1.00  0.00     0.033 A 
ATOM      3  C   UNL     1       4.674   2.949 -12.342  1.00  0.00     0.065 A 
ATOM      4  N   UNL     1       4.704  -0.027 -10.467  1.00  0.00    -0.209 NA
ATOM      5  O   UNL     1       4.192   2.045 -10.046  1.00  0.00    -0.436 OA
ATOM      6  C   UNL     1       5.104   2.568 -13.614  1.00  0.00     0.063 A 
ATOM      7  C   UNL     1       4.286   0.800  -9.542  1.00  0.00     0.227 A 
ATOM      8  C   UNL     1       4.897   0.659 -11.614  1.00  0.00     0.110 A 
ATOM      9  C   UNL     1       4.567   1.998 -11.344  1.00  0.00     0.156 A 
ENDROOT
BRANCH   6  10
ATOM     10  C   UNL     1       5.221   3.576 -14.683  1.00  0.00     0.335 C 
ATOM     11  O   UNL     1       4.764   4.690 -14.520  1.00  0.00    -0.246 OA
BRANCH  10  12
ATOM     12  O   UNL     1       5.833   3.263 -15.842  1.00  0.00    -0.478 OA
ATOM     13  H   UNL     1       6.617   3.775 -16.078  1.00  0.00     0.297 HD
ENDBRANCH  10  12
ENDBRANCH   6  10
BRANCH   7  14
ATOM     14  C   UNL     1       3.966   0.422  -8.150  1.00  0.00     0.040 A 
ATOM     15  C   UNL     1       4.582  -0.684  -7.564  1.00  0.00     0.034 A 
ATOM     16  C   UNL     1       3.043   1.171  -7.416  1.00  0.00     0.034 A 
ATOM     17  C   UNL     1       4.279  -1.031  -6.262  1.00  0.00     0.043 A 
ATOM     18  C   UNL     1       2.748   0.814  -6.115  1.00  0.00     0.043 A 
ATOM     19  C   UNL     1       3.363  -0.285  -5.539  1.00  0.00     0.041 A 
ATOM     20  Cl  UNL     1       5.046  -2.406  -5.531  1.00  0.00    -0.084 Cl
ATOM     21  Cl  UNL     1       1.602   1.743  -5.200  1.00  0.00    -0.084 Cl
ENDBRANCH   7  14
TORSDOF 3
ENDMDL
MODEL 4
REMARK VINA RESULT:    -4.654      1.698      2.382
REMARK INTER + INTRA:          -5.630
REMARK INTER:                  -5.334
REMARK INTRA:                  -0.296
REMARK UNBOUND:                -0.296
REMARK SMILES O=C(O)c1ccc2nc(-c3cc(Cl)cc(Cl)c3)oc2c1
REMARK SMILES IDX 5 1 6 2 20 3 8 4 18 5 4 6 9 7 7 8 19 9 2 10 1 11 3 12 10 14
REMARK SMILES IDX 11 15 17 16 12 17 15 18 14 19 13 20 16 21
REMARK H PARENT 3 13
ROOT
ATOM      1  C   UNL     1       5.428   1.234 -13.881  1.00  0.00     0.018 A 
ATOM      2  C   UNL     1       5.330   0.295 -12.898  1.00  0.00     0.033 A 
ATOM      3  C   UNL     1       4.672   2.953 -12.347  1.00  0.00     0.065 A 
ATOM      4  N   UNL     1       4.705  -0.022 -10.471  1.00  0.00    -0.209 NA
ATOM      5  O   UNL     1       4.190   2.050 -10.051  1.00  0.00    -0.436 OA
ATOM      6  C   UNL     1       5.103   2.572 -13.619  1.00  0.00     0.063 A 
ATOM      7  C   UNL     1       4.286   0.806  -9.546  1.00  0.00     0.227 A 
ATOM      8  C   UNL     1       4.898   0.664 -11.618  1.00  0.00     0.110 A 
ATOM      9  C   UNL     1       4.566   2.003 -11.348  1.00  0.00     0.156 A 
ENDROOT
BRANCH   6  10
ATOM     10  C   UNL     1       5.219   3.580 -14.689  1.00  0.00     0.335 C 
ATOM     11  O   UNL     1       4.749   4.689 -14.532  1.00  0.00    -0.246 OA
BRANCH  10  12
ATOM     12  O   UNL     1       5.845   3.271 -15.841  1.00  0.00    -0.478 OA
ATOM     13  H   UNL     1       6.809   3.207 -15.814  1.00  0.00     0.297 HD
ENDBRANCH  10  12
ENDBRANCH   6  10
BRANCH   7  14
ATOM     14  C   UNL     1       3.965   0.428  -8.154  1.00  0.00     0.040 A 
ATOM     15  C   UNL     1       3.045   1.177  -7.418  1.00  0.00     0.034 A 
ATOM     16  C   UNL     1       4.583  -0.679  -7.568  1.00  0.00     0.034 A 
ATOM     17  C   UNL     1       2.749   0.818  -6.118  1.00  0.00     0.043 A 
ATOM     18  C   UNL     1       4.278  -1.028  -6.268  1.00  0.00     0.043 A 
ATOM     19  C   UNL     1       3.365  -0.281  -5.544  1.00  0.00     0.041 A 
ATOM     20  Cl  UNL     1       1.605   1.747  -5.202  1.00  0.00    -0.084 Cl
ATOM     21  Cl  UNL     1       5.045  -2.405  -5.538  1.00  0.00    -0.084 Cl
ENDBRANCH   7  14
TORSDOF 3
ENDMDL
MODEL 5
REMARK VINA RESULT:    -4.383      3.936      7.595
REMARK INTER + INTRA:          -5.319
REMARK INTER:                  -5.021
REMARK INTRA:                  -0.298
REMARK UNBOUND:                -0.296
REMARK SMILES O=C(O)c1ccc2nc(-c3cc(Cl)cc(Cl)c3)oc2c1
REMARK SMILES IDX 5 1 6 2 20 3 8 4 18 5 4 6 9 7 7 8 19 9 2 10 1 11 3 12 10 14
REMARK SMILES IDX 11 15 17 16 12 17 15 18 14 19 13 20 16 21
REMARK H PARENT 3 13
ROOT
ATOM      1  C   UNL     1       3.457  -1.097  -6.076  1.00  0.00     0.018 A 
ATOM      2  C   UNL     1       3.970  -1.445  -7.289  1.00  0.00     0.033 A 
ATOM      3  C   UNL     1       3.117   1.177  -6.845  1.00  0.00     0.065 A 
ATOM      4  N   UNL     1       4.521  -0.533  -9.580  1.00  0.00    -0.209 NA
ATOM      5  O   UNL     1       3.859   1.509  -9.224  1.00  0.00    -0.436 OA
ATOM      6  C   UNL     1       3.023   0.215  -5.838  1.00  0.00     0.063 A 
ATOM      7  C   UNL     1       4.393   0.655 -10.117  1.00  0.00     0.227 A 
ATOM      8  C   UNL     1       4.069  -0.490  -8.308  1.00  0.00     0.110 A 
ATOM      9  C   UNL     1       3.641   0.829  -8.076  1.00  0.00     0.156 A 
ENDROOT
BRANCH   6  10
ATOM     10  C   UNL     1       2.465   0.578  -4.523  1.00  0.00     0.335 C 
ATOM     11  O   UNL     1       2.536  -0.204  -3.596  1.00  0.00    -0.246 OA
BRANCH  10  12
ATOM     12  O   UNL     1       1.875   1.777  -4.349  1.00  0.00    -0.478 OA
ATOM     13  H   UNL     1       2.198   2.508  -4.892  1.00  0.00     0.297 HD
ENDBRANCH  10  12
ENDBRANCH   6  10
BRANCH   7  14
ATOM     14  C   UNL     1       4.779   1.005 -11.500  1.00  0.00     0.040 A 
ATOM     15  C   UNL     1       4.733   2.333 -11.926  1.00  0.00     0.034 A 
ATOM     16  C   UNL     1       5.191   0.007 -12.386  1.00  0.00     0.034 A 
ATOM     17  C   UNL     1       5.096   2.653 -13.219  1.00  0.00     0.043 A 
ATOM     18  C   UNL     1       5.552   0.340 -13.676  1.00  0.00     0.043 A 
ATOM     19  C   UNL     1       5.504   1.660 -14.093  1.00  0.00     0.041 A 
ATOM     20  Cl  UNL     1       5.040   4.305 -13.751  1.00  0.00    -0.084 Cl
ATOM     21  Cl  UNL     1       6.064  -0.899 -14.779  1.00  0.00    -0.084 Cl
ENDBRANCH   7  14
TORSDOF 3
ENDMDL
MODEL 6
REMARK VINA RESULT:    -4.378      3.930      7.817
REMARK INTER + INTRA:          -5.313
REMARK INTER:                  -5.015
REMARK INTRA:                  -0.298
REMARK UNBOUND:                -0.296
REMARK SMILES O=C(O)c1ccc2nc(-c3cc(Cl)cc(Cl)c3)oc2c1
REMARK SMILES IDX 5 1 6 2 20 3 8 4 18 5 4 6 9 7 7 8 19 9 2 10 1 11 3 12 10 14
REMARK SMILES IDX 11 15 17 16 12 17 15 18 14 19 13 20 16 21
REMARK H PARENT 3 13
ROOT
ATOM      1  C   UNL     1       3.459  -1.135  -6.090  1.00  0.00     0.018 A 
ATOM      2  C   UNL     1       3.970  -1.485  -7.304  1.00  0.00     0.033 A 
ATOM      3  C   UNL     1       3.121   1.139  -6.861  1.00  0.00     0.065 A 
ATOM      4  N   UNL     1       4.520  -0.575  -9.596  1.00  0.00    -0.209 NA
ATOM      5  O   UNL     1       3.861   1.468  -9.241  1.00  0.00    -0.436 OA
ATOM      6  C   UNL     1       3.027   0.178  -5.853  1.00  0.00     0.063 A 
ATOM      7  C   UNL     1       4.393   0.612 -10.134  1.00  0.00     0.227 A 
ATOM      8  C   UNL     1       4.069  -0.530  -8.324  1.00  0.00     0.110 A 
ATOM      9  C   UNL     1       3.643   0.790  -8.093  1.00  0.00     0.156 A 
ENDROOT
BRANCH   6  10
ATOM     10  C   UNL     1       2.471   0.543  -4.538  1.00  0.00     0.335 C 
ATOM     11  O   UNL     1       2.540  -0.239  -3.611  1.00  0.00    -0.246 OA
BRANCH  10  12
ATOM     12  O   UNL     1       1.885   1.744  -4.364  1.00  0.00    -0.478 OA
ATOM     13  H   UNL     1       2.448   2.468  -4.059  1.00  0.00     0.297 HD
ENDBRANCH  10  12
ENDBRANCH   6  10
BRANCH   7  14
ATOM     14  C   UNL     1       4.778   0.961 -11.518  1.00  0.00     0.040 A 
ATOM     15  C   UNL     1       5.196  -0.035 -12.401  1.00  0.00     0.034 A 
ATOM     16  C   UNL     1       4.726   2.289 -11.946  1.00  0.00     0.034 A 
ATOM     17  C   UNL     1       5.554   0.296 -13.693  1.00  0.00     0.043 A 
ATOM     18  C   UNL     1       5.086   2.608 -13.240  1.00  0.00     0.043 A 
ATOM     19  C   UNL     1       5.500   1.615 -14.111  1.00  0.00     0.041 A 
ATOM     20  Cl  UNL     1       6.073  -0.941 -14.793  1.00  0.00    -0.084 Cl
ATOM     21  Cl  UNL     1       5.022   4.259 -13.774  1.00  0.00    -0.084 Cl
ENDBRANCH   7  14
TORSDOF 3
ENDMDL
MODEL 7
REMARK VINA RESULT:    -4.368      3.744      7.631
REMARK INTER + INTRA:          -5.302
REMARK INTER:                  -5.004
REMARK INTRA:                  -0.298
REMARK UNBOUND:                -0.296
REMARK SMILES O=C(O)c1ccc2nc(-c3cc(Cl)cc(Cl)c3)oc2c1
REMARK SMILES IDX 5 1 6 2 20 3 8 4 18 5 4 6 9 7 7 8 19 9 2 10 1 11 3 12 10 14
REMARK SMILES IDX 11 15 17 16 12 17 15 18 14 19 13 20 16 21
REMARK H PARENT 3 13
ROOT
ATOM      1  C   UNL     1       2.874   0.897  -5.945  1.00  0.00     0.018 A 
ATOM      2  C   UNL     1       3.015   1.681  -7.051  1.00  0.00     0.033 A 
ATOM      3  C   UNL     1       3.836  -0.988  -7.130  1.00  0.00     0.065 A 
ATOM      4  N   UNL     1       3.826   1.661  -9.444  1.00  0.00    -0.209 NA
ATOM      5  O   UNL     1       4.459  -0.419  -9.498  1.00  0.00    -0.436 OA
ATOM      6  C   UNL     1       3.284  -0.444  -5.969  1.00  0.00     0.063 A 
ATOM      7  C   UNL     1       4.355   0.728 -10.195  1.00  0.00     0.227 A 
ATOM      8  C   UNL     1       3.567   1.147  -8.222  1.00  0.00     0.110 A 
ATOM      9  C   UNL     1       3.976  -0.198  -8.255  1.00  0.00     0.156 A 
ENDROOT
BRANCH   6  10
ATOM     10  C   UNL     1       3.133  -1.280  -4.764  1.00  0.00     0.335 C 
ATOM     11  O   UNL     1       3.647  -2.379  -4.720  1.00  0.00    -0.246 OA
BRANCH  10  12
ATOM     12  O   UNL     1       2.422  -0.826  -3.713  1.00  0.00    -0.478 OA
ATOM     13  H   UNL     1       1.722  -0.186  -3.899  1.00  0.00     0.297 HD
ENDBRANCH  10  12
ENDBRANCH   6  10
BRANCH   7  14
ATOM     14  C   UNL     1       4.775   0.908 -11.600  1.00  0.00     0.040 A 
ATOM     15  C   UNL     1       5.185  -0.191 -12.356  1.00  0.00     0.034 A 
ATOM     16  C   UNL     1       4.763   2.180 -12.177  1.00  0.00     0.034 A 
ATOM     17  C   UNL     1       5.575  -0.016 -13.669  1.00  0.00     0.043 A 
ATOM     18  C   UNL     1       5.155   2.342 -13.491  1.00  0.00     0.043 A 
ATOM     19  C   UNL     1       5.561   1.247 -14.235  1.00  0.00     0.041 A 
ATOM     20  Cl  UNL     1       6.086  -1.382 -14.611  1.00  0.00    -0.084 Cl
ATOM     21  Cl  UNL     1       5.141   3.922 -14.210  1.00  0.00    -0.084 Cl
ENDBRANCH   7  14
TORSDOF 3
ENDMDL
MODEL 8
REMARK VINA RESULT:    -4.241      3.665      5.713
REMARK INTER + INTRA:          -5.156
REMARK INTER:                  -4.870
REMARK INTRA:                  -0.286
REMARK UNBOUND:                -0.296
REMARK SMILES O=C(O)c1ccc2nc(-c3cc(Cl)cc(Cl)c3)oc2c1
REMARK SMILES IDX 5 1 6 2 20 3 8 4 18 5 4 6 9 7 7 8 19 9 2 10 1 11 3 12 10 14
REMARK SMILES IDX 11 15 17 16 12 17 15 18 14 19 13 20 16 21
REMARK H PARENT 3 13
ROOT
ATOM      1  C   UNL     1       6.242  -2.897 -17.942  1.00  0.00     0.018 A 
ATOM      2  C   UNL     1       6.478  -1.717 -17.301  1.00  0.00     0.033 A 
ATOM      3  C   UNL     1       4.921  -3.680 -16.065  1.00  0.00     0.065 A 
ATOM      4  N   UNL     1       6.001  -0.455 -15.165  1.00  0.00    -0.209 NA
ATOM      5  O   UNL     1       4.794  -1.991 -14.207  1.00  0.00    -0.436 OA
ATOM      6  C   UNL     1       5.461  -3.890 -17.336  1.00  0.00     0.063 A 
ATOM      7  C   UNL     1       5.318  -0.757 -14.089  1.00  0.00     0.227 A 
ATOM      8  C   UNL     1       5.943  -1.494 -16.027  1.00  0.00     0.110 A 
ATOM      9  C   UNL     1       5.163  -2.487 -15.409  1.00  0.00     0.156 A 
ENDROOT
BRANCH   6  10
ATOM     10  C   UNL     1       5.207  -5.159 -18.041  1.00  0.00     0.335 C 
ATOM     11  O   UNL     1       4.516  -5.171 -19.040  1.00  0.00    -0.246 OA
BRANCH  10  12
ATOM     12  O   UNL     1       5.741  -6.307 -17.578  1.00  0.00    -0.478 OA
ATOM     13  H   UNL     1       5.153  -7.071 -17.515  1.00  0.00     0.297 HD
ENDBRANCH  10  12
ENDBRANCH   6  10
BRANCH   7  14
ATOM     14  C   UNL     1       5.148   0.128 -12.918  1.00  0.00     0.040 A 
ATOM     15  C   UNL     1       4.934  -0.418 -11.652  1.00  0.00     0.034 A 
ATOM     16  C   UNL     1       5.201   1.515 -13.075  1.00  0.00     0.034 A 
ATOM     17  C   UNL     1       4.778   0.415 -10.561  1.00  0.00     0.043 A 
ATOM     18  C   UNL     1       5.043   2.337 -11.977  1.00  0.00     0.043 A 
ATOM     19  C   UNL     1       4.831   1.789 -10.723  1.00  0.00     0.041 A 
ATOM     20  Cl  UNL     1       4.512  -0.262  -8.985  1.00  0.00    -0.084 Cl
ATOM     21  Cl  UNL     1       5.107   4.061 -12.169  1.00  0.00    -0.084 Cl
ENDBRANCH   7  14
TORSDOF 3
ENDMDL
MODEL 9
REMARK VINA RESULT:    -4.238      3.642      5.436
REMARK INTER + INTRA:          -5.153
REMARK INTER:                  -4.869
REMARK INTRA:                  -0.284
REMARK UNBOUND:                -0.296
REMARK SMILES O=C(O)c1ccc2nc(-c3cc(Cl)cc(Cl)c3)oc2c1
REMARK SMILES IDX 5 1 6 2 20 3 8 4 18 5 4 6 9 7 7 8 19 9 2 10 1 11 3 12 10 14
REMARK SMILES IDX 11 15 17 16 12 17 15 18 14 19 13 20 16 21
REMARK H PARENT 3 13
ROOT
ATOM      1  C   UNL     1       6.248  -2.892 -17.891  1.00  0.00     0.018 A 
ATOM      2  C   UNL     1       6.497  -1.718 -17.245  1.00  0.00     0.033 A 
ATOM      3  C   UNL     1       4.884  -3.652 -16.037  1.00  0.00     0.065 A 
ATOM      4  N   UNL     1       6.012  -0.450 -15.115  1.00  0.00    -0.209 NA
ATOM      5  O   UNL     1       4.760  -1.963 -14.178  1.00  0.00    -0.436 OA
ATOM      6  C   UNL     1       5.439  -3.871 -17.299  1.00  0.00     0.063 A 
ATOM      7  C   UNL     1       5.306  -0.739 -14.050  1.00  0.00     0.227 A 
ATOM      8  C   UNL     1       5.947  -1.486 -15.979  1.00  0.00     0.110 A 
ATOM      9  C   UNL     1       5.138  -2.465 -15.375  1.00  0.00     0.156 A 
ENDROOT
BRANCH   6  10
ATOM     10  C   UNL     1       5.172  -5.134 -18.010  1.00  0.00     0.335 C 
ATOM     11  O   UNL     1       4.311  -5.179 -18.866  1.00  0.00    -0.246 OA
BRANCH  10  12
ATOM     12  O   UNL     1       5.883  -6.240 -17.711  1.00  0.00    -0.478 OA
ATOM     13  H   UNL     1       6.092  -6.838 -18.441  1.00  0.00     0.297 HD
ENDBRANCH  10  12
ENDBRANCH   6  10
BRANCH   7  14
ATOM     14  C   UNL     1       5.135   0.147 -12.880  1.00  0.00     0.040 A 
ATOM     15  C   UNL     1       5.165   1.533 -13.041  1.00  0.00     0.034 A 
ATOM     16  C   UNL     1       4.944  -0.399 -11.609  1.00  0.00     0.034 A 
ATOM     17  C   UNL     1       5.003   2.356 -11.944  1.00  0.00     0.043 A 
ATOM     18  C   UNL     1       4.784   0.434 -10.520  1.00  0.00     0.043 A 
ATOM     19  C   UNL     1       4.814   1.808 -10.686  1.00  0.00     0.041 A 
ATOM     20  Cl  UNL     1       5.039   4.080 -12.141  1.00  0.00    -0.084 Cl
ATOM     21  Cl  UNL     1       4.546  -0.243  -8.939  1.00  0.00    -0.084 Cl
ENDBRANCH   7  14
TORSDOF 3
ENDMDL
