MODEL 1
REMARK VINA RESULT:    -5.870      0.000      0.000
REMARK INTER + INTRA:          -8.717
REMARK INTER:                  -8.100
REMARK INTRA:                  -0.617
REMARK UNBOUND:                -0.617
REMARK SMILES Cc1n[nH]c(C)c1CCCOc1cc(C(=O)O)ccc1F
REMARK SMILES IDX 11 1 12 2 14 3 18 4 13 5 19 6 20 7 21 8 15 9 16 10 17 11
REMARK SMILES IDX 10 13 9 14 8 15 7 16 5 17 2 18 4 19 3 20 6 21 1 22
REMARK H PARENT 17 12 4 23
ROOT
ATOM      1  O   UNL     1       3.279   1.331  -9.016  1.00  0.00    -0.490 OA
ENDROOT
BRANCH   1   2
ATOM      2  C   UNL     1       3.286   0.742  -7.791  1.00  0.00     0.155 A 
ATOM      3  C   UNL     1       4.179  -0.883  -6.260  1.00  0.00     0.063 A 
ATOM      4  C   UNL     1       3.290  -0.440  -5.277  1.00  0.00     0.019 A 
ATOM      5  C   UNL     1       4.172  -0.284  -7.522  1.00  0.00     0.065 A 
ATOM      6  C   UNL     1       2.414   0.588  -5.553  1.00  0.00     0.044 A 
ATOM      7  C   UNL     1       2.412   1.184  -6.803  1.00  0.00     0.165 A 
ATOM      8  F   UNL     1       1.551   2.191  -7.067  1.00  0.00    -0.203 F 
BRANCH   3   9
ATOM      9  C   UNL     1       5.119  -1.983  -5.968  1.00  0.00     0.335 C 
ATOM     10  O   UNL     1       5.143  -2.966  -6.680  1.00  0.00    -0.246 OA
BRANCH   9  11
ATOM     11  O   UNL     1       5.954  -1.894  -4.915  1.00  0.00    -0.478 OA
ATOM     12  H   UNL     1       6.392  -2.708  -4.630  1.00  0.00     0.297 HD
ENDBRANCH   9  11
ENDBRANCH   3   9
ENDBRANCH   1   2
BRANCH   1  13
ATOM     13  C   UNL     1       2.334   0.837  -9.968  1.00  0.00     0.230 C 
BRANCH  13  14
ATOM     14  C   UNL     1       2.913   0.972 -11.378  1.00  0.00     0.046 C 
BRANCH  14  15
ATOM     15  C   UNL     1       4.441   0.971 -11.304  1.00  0.00     0.043 C 
BRANCH  15  16
ATOM     16  C   UNL     1       5.012   1.005 -12.698  1.00  0.00    -0.004 A 
ATOM     17  C   UNL     1       5.426  -0.065 -13.415  1.00  0.00     0.036 A 
ATOM     18  C   UNL     1       5.203   2.148 -13.482  1.00  0.00     0.063 A 
ATOM     19  N   UNL     1       5.869   0.385 -14.608  1.00  0.00    -0.282 N 
ATOM     20  N   UNL     1       5.722   1.778 -14.624  1.00  0.00    -0.181 NA
ATOM     21  C   UNL     1       5.397  -1.502 -12.963  1.00  0.00     0.066 C 
ATOM     22  C   UNL     1       4.877   3.563 -13.075  1.00  0.00     0.069 C 
ATOM     23  H   UNL     1       6.226  -0.159 -15.327  1.00  0.00     0.190 HD
ENDBRANCH  15  16
ENDBRANCH  14  15
ENDBRANCH  13  14
ENDBRANCH   1  13
TORSDOF 7
ENDMDL
MODEL 2
REMARK VINA RESULT:    -5.823      2.112      3.719
REMARK INTER + INTRA:          -8.652
REMARK INTER:                  -8.094
REMARK INTRA:                  -0.559
REMARK UNBOUND:                -0.617
REMARK SMILES Cc1n[nH]c(C)c1CCCOc1cc(C(=O)O)ccc1F
REMARK SMILES IDX 11 1 12 2 14 3 18 4 13 5 19 6 20 7 21 8 15 9 16 10 17 11
REMARK SMILES IDX 10 13 9 14 8 15 7 16 5 17 2 18 4 19 3 20 6 21 1 22
REMARK H PARENT 17 12 4 23
ROOT
ATOM      1  O   UNL     1       5.968   0.796  -7.696  1.00  0.00    -0.490 OA
ENDROOT
BRANCH   1   2
ATOM      2  C   UNL     1       4.842   0.494  -6.996  1.00  0.00     0.155 A 
ATOM      3  C   UNL     1       2.597   1.030  -6.320  1.00  0.00     0.063 A 
ATOM      4  C   UNL     1       2.547  -0.146  -5.567  1.00  0.00     0.019 A 
ATOM      5  C   UNL     1       3.754   1.346  -7.036  1.00  0.00     0.065 A 
ATOM      6  C   UNL     1       3.635  -0.993  -5.539  1.00  0.00     0.044 A 
ATOM      7  C   UNL     1       4.779  -0.680  -6.253  1.00  0.00     0.165 A 
ATOM      8  F   UNL     1       5.842  -1.514  -6.221  1.00  0.00    -0.203 F 
BRANCH   3   9
ATOM      9  C   UNL     1       1.434   1.939  -6.353  1.00  0.00     0.335 C 
ATOM     10  O   UNL     1       1.584   3.107  -6.647  1.00  0.00    -0.246 OA
BRANCH   9  11
ATOM     11  O   UNL     1       0.205   1.469  -6.063  1.00  0.00    -0.478 OA
ATOM     12  H   UNL     1      -0.331   1.990  -5.448  1.00  0.00     0.297 HD
ENDBRANCH   9  11
ENDBRANCH   3   9
ENDBRANCH   1   2
BRANCH   1  13
ATOM     13  C   UNL     1       6.275  -0.033  -8.820  1.00  0.00     0.230 C 
BRANCH  13  14
ATOM     14  C   UNL     1       6.276   0.815 -10.093  1.00  0.00     0.046 C 
BRANCH  14  15
ATOM     15  C   UNL     1       4.961   0.606 -10.847  1.00  0.00     0.043 C 
BRANCH  15  16
ATOM     16  C   UNL     1       5.178   0.860 -12.316  1.00  0.00    -0.004 A 
ATOM     17  C   UNL     1       5.148   2.066 -12.928  1.00  0.00     0.036 A 
ATOM     18  C   UNL     1       5.452  -0.109 -13.287  1.00  0.00     0.063 A 
ATOM     19  N   UNL     1       5.388   1.867 -14.242  1.00  0.00    -0.282 N 
ATOM     20  N   UNL     1       5.571   0.492 -14.443  1.00  0.00    -0.181 NA
ATOM     21  C   UNL     1       4.893   3.393 -12.264  1.00  0.00     0.066 C 
ATOM     22  C   UNL     1       5.576  -1.592 -13.046  1.00  0.00     0.069 C 
ATOM     23  H   UNL     1       5.426   2.553 -14.925  1.00  0.00     0.190 HD
ENDBRANCH  15  16
ENDBRANCH  14  15
ENDBRANCH  13  14
ENDBRANCH   1  13
TORSDOF 7
ENDMDL
MODEL 3
REMARK VINA RESULT:    -5.785      2.071      3.224
REMARK INTER + INTRA:          -8.600
REMARK INTER:                  -7.970
REMARK INTRA:                  -0.630
REMARK UNBOUND:                -0.617
REMARK SMILES Cc1n[nH]c(C)c1CCCOc1cc(C(=O)O)ccc1F
REMARK SMILES IDX 11 1 12 2 14 3 18 4 13 5 19 6 20 7 21 8 15 9 16 10 17 11
REMARK SMILES IDX 10 13 9 14 8 15 7 16 5 17 2 18 4 19 3 20 6 21 1 22
REMARK H PARENT 17 12 4 23
ROOT
ATOM      1  O   UNL     1       5.916   0.707  -7.823  1.00  0.00    -0.490 OA
ENDROOT
BRANCH   1   2
ATOM      2  C   UNL     1       4.815   0.431  -7.073  1.00  0.00     0.155 A 
ATOM      3  C   UNL     1       2.598   0.993  -6.334  1.00  0.00     0.063 A 
ATOM      4  C   UNL     1       2.574  -0.157  -5.542  1.00  0.00     0.019 A 
ATOM      5  C   UNL     1       3.728   1.283  -7.102  1.00  0.00     0.065 A 
ATOM      6  C   UNL     1       3.661  -1.005  -5.525  1.00  0.00     0.044 A 
ATOM      7  C   UNL     1       4.779  -0.718  -6.291  1.00  0.00     0.165 A 
ATOM      8  F   UNL     1       5.841  -1.553  -6.269  1.00  0.00    -0.203 F 
BRANCH   3   9
ATOM      9  C   UNL     1       1.435   1.902  -6.356  1.00  0.00     0.335 C 
ATOM     10  O   UNL     1       1.581   3.068  -6.662  1.00  0.00    -0.246 OA
BRANCH   9  11
ATOM     11  O   UNL     1       0.210   1.437  -6.041  1.00  0.00    -0.478 OA
ATOM     12  H   UNL     1      -0.188   0.800  -6.651  1.00  0.00     0.297 HD
ENDBRANCH   9  11
ENDBRANCH   3   9
ENDBRANCH   1   2
BRANCH   1  13
ATOM     13  C   UNL     1       6.060  -0.011  -9.052  1.00  0.00     0.230 C 
BRANCH  13  14
ATOM     14  C   UNL     1       5.970   0.966 -10.225  1.00  0.00     0.046 C 
BRANCH  14  15
ATOM     15  C   UNL     1       4.772   0.600 -11.103  1.00  0.00     0.043 C 
BRANCH  15  16
ATOM     16  C   UNL     1       5.163   0.698 -12.555  1.00  0.00    -0.004 A 
ATOM     17  C   UNL     1       5.500  -0.337 -13.360  1.00  0.00     0.036 A 
ATOM     18  C   UNL     1       5.236   1.872 -13.311  1.00  0.00     0.063 A 
ATOM     19  N   UNL     1       5.783   0.166 -14.580  1.00  0.00    -0.282 N 
ATOM     20  N   UNL     1       5.614   1.556 -14.523  1.00  0.00    -0.181 NA
ATOM     21  C   UNL     1       5.551  -1.790 -12.965  1.00  0.00     0.066 C 
ATOM     22  C   UNL     1       4.942   3.264 -12.812  1.00  0.00     0.069 C 
ATOM     23  H   UNL     1       6.055  -0.344 -15.358  1.00  0.00     0.190 HD
ENDBRANCH  15  16
ENDBRANCH  14  15
ENDBRANCH  13  14
ENDBRANCH   1  13
TORSDOF 7
ENDMDL
MODEL 4
REMARK VINA RESULT:    -4.774      4.201      7.733
REMARK INTER + INTRA:          -7.205
REMARK INTER:                  -6.731
REMARK INTRA:                  -0.473
REMARK UNBOUND:                -0.617
REMARK SMILES Cc1n[nH]c(C)c1CCCOc1cc(C(=O)O)ccc1F
REMARK SMILES IDX 11 1 12 2 14 3 18 4 13 5 19 6 20 7 21 8 15 9 16 10 17 11
REMARK SMILES IDX 10 13 9 14 8 15 7 16 5 17 2 18 4 19 3 20 6 21 1 22
REMARK H PARENT 17 12 4 23
ROOT
ATOM      1  O   UNL     1       4.678  -0.362 -10.357  1.00  0.00    -0.490 OA
ENDROOT
BRANCH   1   2
ATOM      2  C   UNL     1       4.967   0.082 -11.609  1.00  0.00     0.155 A 
ATOM      3  C   UNL     1       5.208   1.886 -13.181  1.00  0.00     0.063 A 
ATOM      4  C   UNL     1       5.570   0.969 -14.171  1.00  0.00     0.019 A 
ATOM      5  C   UNL     1       4.905   1.433 -11.895  1.00  0.00     0.065 A 
ATOM      6  C   UNL     1       5.634  -0.376 -13.875  1.00  0.00     0.044 A 
ATOM      7  C   UNL     1       5.339  -0.822 -12.598  1.00  0.00     0.165 A 
ATOM      8  F   UNL     1       5.403  -2.142 -12.315  1.00  0.00    -0.203 F 
BRANCH   3   9
ATOM      9  C   UNL     1       5.139   3.326 -13.494  1.00  0.00     0.335 C 
ATOM     10  O   UNL     1       5.587   3.742 -14.542  1.00  0.00    -0.246 OA
BRANCH   9  11
ATOM     11  O   UNL     1       4.572   4.179 -12.618  1.00  0.00    -0.478 OA
ATOM     12  H   UNL     1       5.117   4.472 -11.874  1.00  0.00     0.297 HD
ENDBRANCH   9  11
ENDBRANCH   3   9
ENDBRANCH   1   2
BRANCH   1  13
ATOM     13  C   UNL     1       5.133   0.439  -9.264  1.00  0.00     0.230 C 
BRANCH  13  14
ATOM     14  C   UNL     1       3.937   1.130  -8.606  1.00  0.00     0.046 C 
BRANCH  14  15
ATOM     15  C   UNL     1       2.941   0.074  -8.121  1.00  0.00     0.043 C 
BRANCH  15  16
ATOM     16  C   UNL     1       2.892   0.084  -6.615  1.00  0.00    -0.004 A 
ATOM     17  C   UNL     1       2.121   0.891  -5.849  1.00  0.00     0.036 A 
ATOM     18  C   UNL     1       3.629  -0.743  -5.761  1.00  0.00     0.063 A 
ATOM     19  N   UNL     1       2.368   0.590  -4.557  1.00  0.00    -0.282 N 
ATOM     20  N   UNL     1       3.321  -0.437  -4.528  1.00  0.00    -0.181 NA
ATOM     21  C   UNL     1       1.161   1.938  -6.349  1.00  0.00     0.066 C 
ATOM     22  C   UNL     1       4.618  -1.798  -6.189  1.00  0.00     0.069 C 
ATOM     23  H   UNL     1       1.958   1.010  -3.785  1.00  0.00     0.190 HD
ENDBRANCH  15  16
ENDBRANCH  14  15
ENDBRANCH  13  14
ENDBRANCH   1  13
TORSDOF 7
ENDMDL
MODEL 5
REMARK VINA RESULT:    -4.743      3.677      6.633
REMARK INTER + INTRA:          -7.162
REMARK INTER:                  -6.309
REMARK INTRA:                  -0.853
REMARK UNBOUND:                -0.617
REMARK SMILES Cc1n[nH]c(C)c1CCCOc1cc(C(=O)O)ccc1F
REMARK SMILES IDX 11 1 12 2 14 3 18 4 13 5 19 6 20 7 21 8 15 9 16 10 17 11
REMARK SMILES IDX 10 13 9 14 8 15 7 16 5 17 2 18 4 19 3 20 6 21 1 22
REMARK H PARENT 17 12 4 23
ROOT
ATOM      1  O   UNL     1       3.856   1.681  -9.724  1.00  0.00    -0.490 OA
ENDROOT
BRANCH   1   2
ATOM      2  C   UNL     1       4.359   1.472 -10.970  1.00  0.00     0.155 A 
ATOM      3  C   UNL     1       5.093  -0.026 -12.701  1.00  0.00     0.063 A 
ATOM      4  C   UNL     1       5.377   1.068 -13.523  1.00  0.00     0.019 A 
ATOM      5  C   UNL     1       4.581   0.184 -11.419  1.00  0.00     0.065 A 
ATOM      6  C   UNL     1       5.146   2.349 -13.068  1.00  0.00     0.044 A 
ATOM      7  C   UNL     1       4.634   2.555 -11.798  1.00  0.00     0.165 A 
ATOM      8  F   UNL     1       4.410   3.813 -11.359  1.00  0.00    -0.203 F 
BRANCH   3   9
ATOM      9  C   UNL     1       5.338  -1.399 -13.184  1.00  0.00     0.335 C 
ATOM     10  O   UNL     1       6.354  -1.983 -12.867  1.00  0.00    -0.246 OA
BRANCH   9  11
ATOM     11  O   UNL     1       4.431  -2.007 -13.974  1.00  0.00    -0.478 OA
ATOM     12  H   UNL     1       4.729  -2.782 -14.470  1.00  0.00     0.297 HD
ENDBRANCH   9  11
ENDBRANCH   3   9
ENDBRANCH   1   2
BRANCH   1  13
ATOM     13  C   UNL     1       2.802   0.815  -9.296  1.00  0.00     0.230 C 
BRANCH  13  14
ATOM     14  C   UNL     1       2.498   1.073  -7.820  1.00  0.00     0.046 C 
BRANCH  14  15
ATOM     15  C   UNL     1       3.797   1.405  -7.082  1.00  0.00     0.043 C 
BRANCH  15  16
ATOM     16  C   UNL     1       4.426   0.134  -6.575  1.00  0.00    -0.004 A 
ATOM     17  C   UNL     1       5.593  -0.402  -7.002  1.00  0.00     0.036 A 
ATOM     18  C   UNL     1       3.912  -0.697  -5.574  1.00  0.00     0.063 A 
ATOM     19  N   UNL     1       5.805  -1.536  -6.301  1.00  0.00    -0.282 N 
ATOM     20  N   UNL     1       4.734  -1.702  -5.414  1.00  0.00    -0.181 NA
ATOM     21  C   UNL     1       6.493   0.165  -8.068  1.00  0.00     0.066 C 
ATOM     22  C   UNL     1       2.625  -0.479  -4.819  1.00  0.00     0.069 C 
ATOM     23  H   UNL     1       6.565  -2.131  -6.396  1.00  0.00     0.190 HD
ENDBRANCH  15  16
ENDBRANCH  14  15
ENDBRANCH  13  14
ENDBRANCH   1  13
TORSDOF 7
ENDMDL
MODEL 6
REMARK VINA RESULT:    -4.733      3.688      6.616
REMARK INTER + INTRA:          -7.149
REMARK INTER:                  -6.292
REMARK INTRA:                  -0.857
REMARK UNBOUND:                -0.617
REMARK SMILES Cc1n[nH]c(C)c1CCCOc1cc(C(=O)O)ccc1F
REMARK SMILES IDX 11 1 12 2 14 3 18 4 13 5 19 6 20 7 21 8 15 9 16 10 17 11
REMARK SMILES IDX 10 13 9 14 8 15 7 16 5 17 2 18 4 19 3 20 6 21 1 22
REMARK H PARENT 17 12 4 23
ROOT
ATOM      1  O   UNL     1       3.768   1.593  -9.816  1.00  0.00    -0.490 OA
ENDROOT
BRANCH   1   2
ATOM      2  C   UNL     1       4.309   1.397 -11.048  1.00  0.00     0.155 A 
ATOM      3  C   UNL     1       5.078  -0.085 -12.778  1.00  0.00     0.063 A 
ATOM      4  C   UNL     1       5.405   1.018 -13.572  1.00  0.00     0.019 A 
ATOM      5  C   UNL     1       4.527   0.113 -11.511  1.00  0.00     0.065 A 
ATOM      6  C   UNL     1       5.178   2.295 -13.104  1.00  0.00     0.044 A 
ATOM      7  C   UNL     1       4.627   2.488 -11.849  1.00  0.00     0.165 A 
ATOM      8  F   UNL     1       4.407   3.743 -11.396  1.00  0.00    -0.203 F 
BRANCH   3   9
ATOM      9  C   UNL     1       5.320  -1.453 -13.276  1.00  0.00     0.335 C 
ATOM     10  O   UNL     1       5.282  -2.394 -12.510  1.00  0.00    -0.246 OA
BRANCH   9  11
ATOM     11  O   UNL     1       5.576  -1.659 -14.583  1.00  0.00    -0.478 OA
ATOM     12  H   UNL     1       6.440  -2.031 -14.808  1.00  0.00     0.297 HD
ENDBRANCH   9  11
ENDBRANCH   3   9
ENDBRANCH   1   2
BRANCH   1  13
ATOM     13  C   UNL     1       2.722   0.703  -9.418  1.00  0.00     0.230 C 
BRANCH  13  14
ATOM     14  C   UNL     1       2.424   0.901  -7.931  1.00  0.00     0.046 C 
BRANCH  14  15
ATOM     15  C   UNL     1       3.696   1.356  -7.212  1.00  0.00     0.043 C 
BRANCH  15  16
ATOM     16  C   UNL     1       4.401   0.159  -6.631  1.00  0.00    -0.004 A 
ATOM     17  C   UNL     1       3.942  -0.628  -5.630  1.00  0.00     0.036 A 
ATOM     18  C   UNL     1       5.644  -0.341  -7.034  1.00  0.00     0.063 A 
ATOM     19  N   UNL     1       4.865  -1.587  -5.404  1.00  0.00    -0.282 N 
ATOM     20  N   UNL     1       5.926  -1.382  -6.295  1.00  0.00    -0.181 NA
ATOM     21  C   UNL     1       2.635  -0.463  -4.899  1.00  0.00     0.066 C 
ATOM     22  C   UNL     1       6.514   0.231  -8.125  1.00  0.00     0.069 C 
ATOM     23  H   UNL     1       4.804  -2.292  -4.741  1.00  0.00     0.190 HD
ENDBRANCH  15  16
ENDBRANCH  14  15
ENDBRANCH  13  14
ENDBRANCH   1  13
TORSDOF 7
ENDMDL
MODEL 7
REMARK VINA RESULT:    -4.668      4.101      7.364
REMARK INTER + INTRA:          -7.058
REMARK INTER:                  -6.445
REMARK INTRA:                  -0.613
REMARK UNBOUND:                -0.617
REMARK SMILES Cc1n[nH]c(C)c1CCCOc1cc(C(=O)O)ccc1F
REMARK SMILES IDX 11 1 12 2 14 3 18 4 13 5 19 6 20 7 21 8 15 9 16 10 17 11
REMARK SMILES IDX 10 13 9 14 8 15 7 16 5 17 2 18 4 19 3 20 6 21 1 22
REMARK H PARENT 17 12 4 23
ROOT
ATOM      1  O   UNL     1       4.261   1.778 -10.170  1.00  0.00    -0.490 OA
ENDROOT
BRANCH   1   2
ATOM      2  C   UNL     1       4.657   1.819 -11.470  1.00  0.00     0.155 A 
ATOM      3  C   UNL     1       5.407   0.697 -13.460  1.00  0.00     0.063 A 
ATOM      4  C   UNL     1       5.456   1.923 -14.128  1.00  0.00     0.019 A 
ATOM      5  C   UNL     1       5.005   0.652 -12.123  1.00  0.00     0.065 A 
ATOM      6  C   UNL     1       5.101   3.082 -13.470  1.00  0.00     0.044 A 
ATOM      7  C   UNL     1       4.698   3.034 -12.146  1.00  0.00     0.165 A 
ATOM      8  F   UNL     1       4.352   4.172 -11.506  1.00  0.00    -0.203 F 
BRANCH   3   9
ATOM      9  C   UNL     1       5.785  -0.545 -14.162  1.00  0.00     0.335 C 
ATOM     10  O   UNL     1       5.847  -0.563 -15.374  1.00  0.00    -0.246 OA
BRANCH   9  11
ATOM     11  O   UNL     1       6.069  -1.658 -13.456  1.00  0.00    -0.478 OA
ATOM     12  H   UNL     1       5.333  -2.085 -12.995  1.00  0.00     0.297 HD
ENDBRANCH   9  11
ENDBRANCH   3   9
ENDBRANCH   1   2
BRANCH   1  13
ATOM     13  C   UNL     1       3.156   0.926  -9.855  1.00  0.00     0.230 C 
BRANCH  13  14
ATOM     14  C   UNL     1       3.608  -0.147  -8.863  1.00  0.00     0.046 C 
BRANCH  14  15
ATOM     15  C   UNL     1       4.264   0.521  -7.653  1.00  0.00     0.043 C 
BRANCH  15  16
ATOM     16  C   UNL     1       3.623   0.011  -6.388  1.00  0.00    -0.004 A 
ATOM     17  C   UNL     1       2.544   0.545  -5.771  1.00  0.00     0.036 A 
ATOM     18  C   UNL     1       4.034  -1.103  -5.648  1.00  0.00     0.063 A 
ATOM     19  N   UNL     1       2.285  -0.200  -4.676  1.00  0.00    -0.282 N 
ATOM     20  N   UNL     1       3.237  -1.226  -4.618  1.00  0.00    -0.181 NA
ATOM     21  C   UNL     1       1.769   1.755  -6.226  1.00  0.00     0.066 C 
ATOM     22  C   UNL     1       5.202  -1.999  -5.974  1.00  0.00     0.069 C 
ATOM     23  H   UNL     1       1.568  -0.050  -4.040  1.00  0.00     0.190 HD
ENDBRANCH  15  16
ENDBRANCH  14  15
ENDBRANCH  13  14
ENDBRANCH   1  13
TORSDOF 7
ENDMDL
MODEL 8
REMARK VINA RESULT:    -4.494      4.710      7.957
REMARK INTER + INTRA:          -6.818
REMARK INTER:                  -6.094
REMARK INTRA:                  -0.723
REMARK UNBOUND:                -0.617
REMARK SMILES Cc1n[nH]c(C)c1CCCOc1cc(C(=O)O)ccc1F
REMARK SMILES IDX 11 1 12 2 14 3 18 4 13 5 19 6 20 7 21 8 15 9 16 10 17 11
REMARK SMILES IDX 10 13 9 14 8 15 7 16 5 17 2 18 4 19 3 20 6 21 1 22
REMARK H PARENT 17 12 4 23
ROOT
ATOM      1  O   UNL     1       5.576  -0.270 -12.445  1.00  0.00    -0.490 OA
ENDROOT
BRANCH   1   2
ATOM      2  C   UNL     1       5.683  -0.851 -13.670  1.00  0.00     0.155 A 
ATOM      3  C   UNL     1       6.463  -0.800 -15.944  1.00  0.00     0.063 A 
ATOM      4  C   UNL     1       5.898  -2.059 -16.162  1.00  0.00     0.019 A 
ATOM      5  C   UNL     1       6.351  -0.198 -14.688  1.00  0.00     0.065 A 
ATOM      6  C   UNL     1       5.239  -2.705 -15.138  1.00  0.00     0.044 A 
ATOM      7  C   UNL     1       5.133  -2.109 -13.892  1.00  0.00     0.165 A 
ATOM      8  F   UNL     1       4.485  -2.747 -12.893  1.00  0.00    -0.203 F 
BRANCH   3   9
ATOM      9  C   UNL     1       7.170  -0.105 -17.037  1.00  0.00     0.335 C 
ATOM     10  O   UNL     1       6.985  -0.439 -18.189  1.00  0.00    -0.246 OA
BRANCH   9  11
ATOM     11  O   UNL     1       8.018   0.904 -16.757  1.00  0.00    -0.478 OA
ATOM     12  H   UNL     1       7.932   1.321 -15.888  1.00  0.00     0.297 HD
ENDBRANCH   9  11
ENDBRANCH   3   9
ENDBRANCH   1   2
BRANCH   1  13
ATOM     13  C   UNL     1       4.821   0.941 -12.365  1.00  0.00     0.230 C 
BRANCH  13  14
ATOM     14  C   UNL     1       4.583   1.297 -10.897  1.00  0.00     0.046 C 
BRANCH  14  15
ATOM     15  C   UNL     1       4.399   0.014 -10.084  1.00  0.00     0.043 C 
BRANCH  15  16
ATOM     16  C   UNL     1       4.005   0.364  -8.673  1.00  0.00    -0.004 A 
ATOM     17  C   UNL     1       4.850   0.538  -7.630  1.00  0.00     0.036 A 
ATOM     18  C   UNL     1       2.702   0.573  -8.209  1.00  0.00     0.063 A 
ATOM     19  N   UNL     1       4.107   0.840  -6.544  1.00  0.00    -0.282 N 
ATOM     20  N   UNL     1       2.761   0.852  -6.933  1.00  0.00    -0.181 NA
ATOM     21  C   UNL     1       6.351   0.417  -7.674  1.00  0.00     0.066 C 
ATOM     22  C   UNL     1       1.444   0.481  -9.036  1.00  0.00     0.069 C 
ATOM     23  H   UNL     1       4.445   1.017  -5.653  1.00  0.00     0.190 HD
ENDBRANCH  15  16
ENDBRANCH  14  15
ENDBRANCH  13  14
ENDBRANCH   1  13
TORSDOF 7
ENDMDL
MODEL 9
REMARK VINA RESULT:    -4.246      8.071     10.515
REMARK INTER + INTRA:          -6.476
REMARK INTER:                  -4.396
REMARK INTRA:                  -2.079
REMARK UNBOUND:                -0.617
REMARK SMILES Cc1n[nH]c(C)c1CCCOc1cc(C(=O)O)ccc1F
REMARK SMILES IDX 11 1 12 2 14 3 18 4 13 5 19 6 20 7 21 8 15 9 16 10 17 11
REMARK SMILES IDX 10 13 9 14 8 15 7 16 5 17 2 18 4 19 3 20 6 21 1 22
REMARK H PARENT 17 12 4 23
ROOT
ATOM      1  O   UNL     1       7.054   9.486 -16.136  1.00  0.00    -0.490 OA
ENDROOT
BRANCH   1   2
ATOM      2  C   UNL     1       7.497   8.486 -15.328  1.00  0.00     0.155 A 
ATOM      3  C   UNL     1       7.085   6.471 -14.082  1.00  0.00     0.063 A 
ATOM      4  C   UNL     1       8.425   6.446 -13.686  1.00  0.00     0.019 A 
ATOM      5  C   UNL     1       6.625   7.499 -14.907  1.00  0.00     0.065 A 
ATOM      6  C   UNL     1       9.289   7.432 -14.116  1.00  0.00     0.044 A 
ATOM      7  C   UNL     1       8.831   8.448 -14.939  1.00  0.00     0.165 A 
ATOM      8  F   UNL     1       9.683   9.410 -15.357  1.00  0.00    -0.203 F 
BRANCH   3   9
ATOM      9  C   UNL     1       6.158   5.418 -13.624  1.00  0.00     0.335 C 
ATOM     10  O   UNL     1       5.655   5.489 -12.522  1.00  0.00    -0.246 OA
BRANCH   9  11
ATOM     11  O   UNL     1       5.866   4.380 -14.432  1.00  0.00    -0.478 OA
ATOM     12  H   UNL     1       5.643   3.541 -14.006  1.00  0.00     0.297 HD
ENDBRANCH   9  11
ENDBRANCH   3   9
ENDBRANCH   1   2
BRANCH   1  13
ATOM     13  C   UNL     1       7.440   9.428 -17.511  1.00  0.00     0.230 C 
BRANCH  13  14
ATOM     14  C   UNL     1       6.654   8.321 -18.215  1.00  0.00     0.046 C 
BRANCH  14  15
ATOM     15  C   UNL     1       7.594   7.527 -19.125  1.00  0.00     0.043 C 
BRANCH  15  16
ATOM     16  C   UNL     1       8.253   6.429 -18.331  1.00  0.00    -0.004 A 
ATOM     17  C   UNL     1       9.559   6.374 -17.980  1.00  0.00     0.036 A 
ATOM     18  C   UNL     1       7.622   5.289 -17.822  1.00  0.00     0.063 A 
ATOM     19  N   UNL     1       9.749   5.236 -17.279  1.00  0.00    -0.282 N 
ATOM     20  N   UNL     1       8.519   4.570 -17.197  1.00  0.00    -0.181 NA
ATOM     21  C   UNL     1      10.612   7.399 -18.313  1.00  0.00     0.066 C 
ATOM     22  C   UNL     1       6.163   4.943 -17.976  1.00  0.00     0.069 C 
ATOM     23  H   UNL     1      10.588   4.933 -16.900  1.00  0.00     0.190 HD
ENDBRANCH  15  16
ENDBRANCH  14  15
ENDBRANCH  13  14
ENDBRANCH   1  13
TORSDOF 7
ENDMDL
