MODEL 1
REMARK VINA RESULT:    -5.258      0.000      0.000
REMARK INTER + INTRA:          -7.648
REMARK INTER:                  -7.256
REMARK INTRA:                  -0.391
REMARK UNBOUND:                -0.391
REMARK SMILES Cc1n[nH]c(C)c1CCCOc1cc(C(=O)O)ccc1F
REMARK SMILES IDX 11 1 12 2 14 3 18 4 13 5 19 6 20 7 21 8 15 9 16 10 17 11
REMARK SMILES IDX 10 13 9 14 8 15 7 16 5 17 2 18 4 19 3 20 6 21 1 22
REMARK H PARENT 17 12 4 23
ROOT
ATOM      1  O   UNL     1       7.948   2.013  -0.220  1.00  0.00    -0.490 OA
ENDROOT
BRANCH   1   2
ATOM      2  C   UNL     1       6.817   1.851  -0.958  1.00  0.00     0.155 A 
ATOM      3  C   UNL     1       5.057   2.776  -2.311  1.00  0.00     0.063 A 
ATOM      4  C   UNL     1       4.513   1.499  -2.470  1.00  0.00     0.019 A 
ATOM      5  C   UNL     1       6.216   2.947  -1.550  1.00  0.00     0.065 A 
ATOM      6  C   UNL     1       5.124   0.412  -1.881  1.00  0.00     0.044 A 
ATOM      7  C   UNL     1       6.275   0.582  -1.130  1.00  0.00     0.165 A 
ATOM      8  F   UNL     1       6.868  -0.487  -0.555  1.00  0.00    -0.203 F 
BRANCH   3   9
ATOM      9  C   UNL     1       4.407   3.942  -2.941  1.00  0.00     0.335 C 
ATOM     10  O   UNL     1       4.627   5.060  -2.522  1.00  0.00    -0.246 OA
BRANCH   9  11
ATOM     11  O   UNL     1       3.573   3.766  -3.984  1.00  0.00    -0.478 OA
ATOM     12  H   UNL     1       3.193   4.561  -4.382  1.00  0.00     0.297 HD
ENDBRANCH   9  11
ENDBRANCH   3   9
ENDBRANCH   1   2
BRANCH   1  13
ATOM     13  C   UNL     1       9.102   1.276  -0.632  1.00  0.00     0.230 C 
BRANCH  13  14
ATOM     14  C   UNL     1      10.206   2.250  -1.048  1.00  0.00     0.046 C 
BRANCH  14  15
ATOM     15  C   UNL     1      10.052   2.593  -2.531  1.00  0.00     0.043 C 
BRANCH  15  16
ATOM     16  C   UNL     1      11.340   3.179  -3.048  1.00  0.00    -0.004 A 
ATOM     17  C   UNL     1      11.694   4.485  -3.007  1.00  0.00     0.036 A 
ATOM     18  C   UNL     1      12.384   2.469  -3.649  1.00  0.00     0.063 A 
ATOM     19  N   UNL     1      12.916   4.597  -3.569  1.00  0.00    -0.282 N 
ATOM     20  N   UNL     1      13.326   3.318  -3.968  1.00  0.00    -0.181 NA
ATOM     21  C   UNL     1      10.872   5.610  -2.437  1.00  0.00     0.066 C 
ATOM     22  C   UNL     1      12.413   0.982  -3.898  1.00  0.00     0.069 C 
ATOM     23  H   UNL     1      13.421   5.418  -3.678  1.00  0.00     0.190 HD
ENDBRANCH  15  16
ENDBRANCH  14  15
ENDBRANCH  13  14
ENDBRANCH   1  13
TORSDOF 7
ENDMDL
MODEL 2
REMARK VINA RESULT:    -5.234      2.355      3.969
REMARK INTER + INTRA:          -7.614
REMARK INTER:                  -7.157
REMARK INTRA:                  -0.456
REMARK UNBOUND:                -0.391
REMARK SMILES Cc1n[nH]c(C)c1CCCOc1cc(C(=O)O)ccc1F
REMARK SMILES IDX 11 1 12 2 14 3 18 4 13 5 19 6 20 7 21 8 15 9 16 10 17 11
REMARK SMILES IDX 10 13 9 14 8 15 7 16 5 17 2 18 4 19 3 20 6 21 1 22
REMARK H PARENT 17 12 4 23
ROOT
ATOM      1  O   UNL     1       6.859   2.563  -4.814  1.00  0.00    -0.490 OA
ENDROOT
BRANCH   1   2
ATOM      2  C   UNL     1       6.172   2.096  -3.738  1.00  0.00     0.155 A 
ATOM      3  C   UNL     1       5.870   0.458  -2.004  1.00  0.00     0.063 A 
ATOM      4  C   UNL     1       4.760   1.165  -1.534  1.00  0.00     0.019 A 
ATOM      5  C   UNL     1       6.575   0.931  -3.112  1.00  0.00     0.065 A 
ATOM      6  C   UNL     1       4.369   2.329  -2.161  1.00  0.00     0.044 A 
ATOM      7  C   UNL     1       5.073   2.800  -3.257  1.00  0.00     0.165 A 
ATOM      8  F   UNL     1       4.684   3.941  -3.866  1.00  0.00    -0.203 F 
BRANCH   3   9
ATOM      9  C   UNL     1       6.292  -0.789  -1.335  1.00  0.00     0.335 C 
ATOM     10  O   UNL     1       7.004  -1.580  -1.918  1.00  0.00    -0.246 OA
BRANCH   9  11
ATOM     11  O   UNL     1       5.892  -1.044  -0.074  1.00  0.00    -0.478 OA
ATOM     12  H   UNL     1       6.034  -1.942   0.258  1.00  0.00     0.297 HD
ENDBRANCH   9  11
ENDBRANCH   3   9
ENDBRANCH   1   2
BRANCH   1  13
ATOM     13  C   UNL     1       7.493   3.837  -4.677  1.00  0.00     0.230 C 
BRANCH  13  14
ATOM     14  C   UNL     1       9.011   3.658  -4.728  1.00  0.00     0.046 C 
BRANCH  14  15
ATOM     15  C   UNL     1       9.562   3.563  -3.304  1.00  0.00     0.043 C 
BRANCH  15  16
ATOM     16  C   UNL     1      11.032   3.894  -3.310  1.00  0.00    -0.004 A 
ATOM     17  C   UNL     1      12.039   3.043  -3.617  1.00  0.00     0.036 A 
ATOM     18  C   UNL     1      11.598   5.136  -3.006  1.00  0.00     0.063 A 
ATOM     19  N   UNL     1      13.200   3.721  -3.505  1.00  0.00    -0.282 N 
ATOM     20  N   UNL     1      12.897   5.032  -3.115  1.00  0.00    -0.181 NA
ATOM     21  C   UNL     1      11.889   1.597  -4.014  1.00  0.00     0.066 C 
ATOM     22  C   UNL     1      10.841   6.378  -2.608  1.00  0.00     0.069 C 
ATOM     23  H   UNL     1      14.087   3.364  -3.664  1.00  0.00     0.190 HD
ENDBRANCH  15  16
ENDBRANCH  14  15
ENDBRANCH  13  14
ENDBRANCH   1  13
TORSDOF 7
ENDMDL
MODEL 3
REMARK VINA RESULT:    -5.095      0.174      1.776
REMARK INTER + INTRA:          -7.422
REMARK INTER:                  -6.790
REMARK INTRA:                  -0.632
REMARK UNBOUND:                -0.391
REMARK SMILES Cc1n[nH]c(C)c1CCCOc1cc(C(=O)O)ccc1F
REMARK SMILES IDX 11 1 12 2 14 3 18 4 13 5 19 6 20 7 21 8 15 9 16 10 17 11
REMARK SMILES IDX 10 13 9 14 8 15 7 16 5 17 2 18 4 19 3 20 6 21 1 22
REMARK H PARENT 17 12 4 23
ROOT
ATOM      1  O   UNL     1       7.896   1.870  -0.284  1.00  0.00    -0.490 OA
ENDROOT
BRANCH   1   2
ATOM      2  C   UNL     1       6.735   1.762  -0.983  1.00  0.00     0.155 A 
ATOM      3  C   UNL     1       4.992   2.763  -2.303  1.00  0.00     0.063 A 
ATOM      4  C   UNL     1       4.367   1.518  -2.415  1.00  0.00     0.019 A 
ATOM      5  C   UNL     1       6.182   2.879  -1.581  1.00  0.00     0.065 A 
ATOM      6  C   UNL     1       4.929   0.409  -1.819  1.00  0.00     0.044 A 
ATOM      7  C   UNL     1       6.112   0.525  -1.108  1.00  0.00     0.165 A 
ATOM      8  F   UNL     1       6.658  -0.566  -0.527  1.00  0.00    -0.203 F 
BRANCH   3   9
ATOM      9  C   UNL     1       4.393   3.952  -2.939  1.00  0.00     0.335 C 
ATOM     10  O   UNL     1       4.649   5.061  -2.517  1.00  0.00    -0.246 OA
BRANCH   9  11
ATOM     11  O   UNL     1       3.567   3.807  -3.994  1.00  0.00    -0.478 OA
ATOM     12  H   UNL     1       3.340   2.903  -4.253  1.00  0.00     0.297 HD
ENDBRANCH   9  11
ENDBRANCH   3   9
ENDBRANCH   1   2
BRANCH   1  13
ATOM     13  C   UNL     1       9.071   1.326  -0.890  1.00  0.00     0.230 C 
BRANCH  13  14
ATOM     14  C   UNL     1      10.066   2.453  -1.174  1.00  0.00     0.046 C 
BRANCH  14  15
ATOM     15  C   UNL     1      10.037   2.796  -2.665  1.00  0.00     0.043 C 
BRANCH  15  16
ATOM     16  C   UNL     1      11.385   3.318  -3.087  1.00  0.00    -0.004 A 
ATOM     17  C   UNL     1      12.389   2.588  -3.625  1.00  0.00     0.036 A 
ATOM     18  C   UNL     1      11.818   4.646  -3.000  1.00  0.00     0.063 A 
ATOM     19  N   UNL     1      13.424   3.421  -3.863  1.00  0.00    -0.282 N 
ATOM     20  N   UNL     1      13.042   4.707  -3.458  1.00  0.00    -0.181 NA
ATOM     21  C   UNL     1      12.358   1.108  -3.908  1.00  0.00     0.066 C 
ATOM     22  C   UNL     1      11.018   5.803  -2.459  1.00  0.00     0.069 C 
ATOM     23  H   UNL     1      14.280   3.174  -4.245  1.00  0.00     0.190 HD
ENDBRANCH  15  16
ENDBRANCH  14  15
ENDBRANCH  13  14
ENDBRANCH   1  13
TORSDOF 7
ENDMDL
MODEL 4
REMARK VINA RESULT:    -5.011      2.302      3.495
REMARK INTER + INTRA:          -7.306
REMARK INTER:                  -6.684
REMARK INTRA:                  -0.622
REMARK UNBOUND:                -0.391
REMARK SMILES Cc1n[nH]c(C)c1CCCOc1cc(C(=O)O)ccc1F
REMARK SMILES IDX 11 1 12 2 14 3 18 4 13 5 19 6 20 7 21 8 15 9 16 10 17 11
REMARK SMILES IDX 10 13 9 14 8 15 7 16 5 17 2 18 4 19 3 20 6 21 1 22
REMARK H PARENT 17 12 4 23
ROOT
ATOM      1  O   UNL     1       6.938   2.652  -4.633  1.00  0.00    -0.490 OA
ENDROOT
BRANCH   1   2
ATOM      2  C   UNL     1       6.191   2.118  -3.630  1.00  0.00     0.155 A 
ATOM      3  C   UNL     1       5.840   0.416  -1.968  1.00  0.00     0.063 A 
ATOM      4  C   UNL     1       4.656   1.047  -1.577  1.00  0.00     0.019 A 
ATOM      5  C   UNL     1       6.607   0.959  -3.001  1.00  0.00     0.065 A 
ATOM      6  C   UNL     1       4.253   2.206  -2.207  1.00  0.00     0.044 A 
ATOM      7  C   UNL     1       5.018   2.746  -3.228  1.00  0.00     0.165 A 
ATOM      8  F   UNL     1       4.617   3.881  -3.840  1.00  0.00    -0.203 F 
BRANCH   3   9
ATOM      9  C   UNL     1       6.275  -0.824  -1.296  1.00  0.00     0.335 C 
ATOM     10  O   UNL     1       6.981  -1.618  -1.883  1.00  0.00    -0.246 OA
BRANCH   9  11
ATOM     11  O   UNL     1       5.892  -1.073  -0.028  1.00  0.00    -0.478 OA
ATOM     12  H   UNL     1       6.123  -1.937   0.339  1.00  0.00     0.297 HD
ENDBRANCH   9  11
ENDBRANCH   3   9
ENDBRANCH   1   2
BRANCH   1  13
ATOM     13  C   UNL     1       7.663   3.848  -4.335  1.00  0.00     0.230 C 
BRANCH  13  14
ATOM     14  C   UNL     1       9.156   3.610  -4.572  1.00  0.00     0.046 C 
BRANCH  14  15
ATOM     15  C   UNL     1       9.851   3.355  -3.233  1.00  0.00     0.043 C 
BRANCH  15  16
ATOM     16  C   UNL     1      11.301   3.749  -3.336  1.00  0.00    -0.004 A 
ATOM     17  C   UNL     1      11.814   4.975  -3.082  1.00  0.00     0.036 A 
ATOM     18  C   UNL     1      12.358   2.909  -3.705  1.00  0.00     0.063 A 
ATOM     19  N   UNL     1      13.146   4.915  -3.289  1.00  0.00    -0.282 N 
ATOM     20  N   UNL     1      13.463   3.609  -3.684  1.00  0.00    -0.181 NA
ATOM     21  C   UNL     1      11.037   6.189  -2.646  1.00  0.00     0.066 C 
ATOM     22  C   UNL     1      12.241   1.452  -4.075  1.00  0.00     0.069 C 
ATOM     23  H   UNL     1      13.773   5.648  -3.185  1.00  0.00     0.190 HD
ENDBRANCH  15  16
ENDBRANCH  14  15
ENDBRANCH  13  14
ENDBRANCH   1  13
TORSDOF 7
ENDMDL
MODEL 5
REMARK VINA RESULT:    -4.171      3.747      6.452
REMARK INTER + INTRA:          -6.148
REMARK INTER:                  -5.368
REMARK INTRA:                  -0.780
REMARK UNBOUND:                -0.391
REMARK SMILES Cc1n[nH]c(C)c1CCCOc1cc(C(=O)O)ccc1F
REMARK SMILES IDX 11 1 12 2 14 3 18 4 13 5 19 6 20 7 21 8 15 9 16 10 17 11
REMARK SMILES IDX 10 13 9 14 8 15 7 16 5 17 2 18 4 19 3 20 6 21 1 22
REMARK H PARENT 17 12 4 23
ROOT
ATOM      1  O   UNL     1       9.179   1.692  -2.751  1.00  0.00    -0.490 OA
ENDROOT
BRANCH   1   2
ATOM      2  C   UNL     1      10.237   2.521  -2.957  1.00  0.00     0.155 A 
ATOM      3  C   UNL     1      11.234   4.706  -2.828  1.00  0.00     0.063 A 
ATOM      4  C   UNL     1      12.414   4.195  -3.376  1.00  0.00     0.019 A 
ATOM      5  C   UNL     1      10.143   3.858  -2.620  1.00  0.00     0.065 A 
ATOM      6  C   UNL     1      12.500   2.859  -3.704  1.00  0.00     0.044 A 
ATOM      7  C   UNL     1      11.419   2.019  -3.492  1.00  0.00     0.165 A 
ATOM      8  F   UNL     1      11.509   0.710  -3.815  1.00  0.00    -0.203 F 
BRANCH   3   9
ATOM      9  C   UNL     1      11.138   6.136  -2.476  1.00  0.00     0.335 C 
ATOM     10  O   UNL     1      10.761   6.941  -3.302  1.00  0.00    -0.246 OA
BRANCH   9  11
ATOM     11  O   UNL     1      11.464   6.547  -1.235  1.00  0.00    -0.478 OA
ATOM     12  H   UNL     1      10.841   6.337  -0.525  1.00  0.00     0.297 HD
ENDBRANCH   9  11
ENDBRANCH   3   9
ENDBRANCH   1   2
BRANCH   1  13
ATOM     13  C   UNL     1       8.566   1.731  -1.460  1.00  0.00     0.230 C 
BRANCH  13  14
ATOM     14  C   UNL     1       7.237   0.975  -1.504  1.00  0.00     0.046 C 
BRANCH  14  15
ATOM     15  C   UNL     1       6.719   0.939  -2.943  1.00  0.00     0.043 C 
BRANCH  15  16
ATOM     16  C   UNL     1       5.721   2.049  -3.146  1.00  0.00    -0.004 A 
ATOM     17  C   UNL     1       4.501   2.140  -2.566  1.00  0.00     0.036 A 
ATOM     18  C   UNL     1       5.893   3.172  -3.963  1.00  0.00     0.063 A 
ATOM     19  N   UNL     1       3.920   3.276  -3.005  1.00  0.00    -0.282 N 
ATOM     20  N   UNL     1       4.812   3.904  -3.885  1.00  0.00    -0.181 NA
ATOM     21  C   UNL     1       3.900   1.150  -1.603  1.00  0.00     0.066 C 
ATOM     22  C   UNL     1       7.110   3.478  -4.798  1.00  0.00     0.069 C 
ATOM     23  H   UNL     1       3.041   3.600  -2.757  1.00  0.00     0.190 HD
ENDBRANCH  15  16
ENDBRANCH  14  15
ENDBRANCH  13  14
ENDBRANCH   1  13
TORSDOF 7
ENDMDL
MODEL 6
REMARK VINA RESULT:    -4.165      3.916      6.961
REMARK INTER + INTRA:          -6.139
REMARK INTER:                  -5.359
REMARK INTRA:                  -0.780
REMARK UNBOUND:                -0.391
REMARK SMILES Cc1n[nH]c(C)c1CCCOc1cc(C(=O)O)ccc1F
REMARK SMILES IDX 11 1 12 2 14 3 18 4 13 5 19 6 20 7 21 8 15 9 16 10 17 11
REMARK SMILES IDX 10 13 9 14 8 15 7 16 5 17 2 18 4 19 3 20 6 21 1 22
REMARK H PARENT 17 12 4 23
ROOT
ATOM      1  O   UNL     1       8.511   3.736  -2.740  1.00  0.00    -0.490 OA
ENDROOT
BRANCH   1   2
ATOM      2  C   UNL     1       9.848   3.710  -2.985  1.00  0.00     0.155 A 
ATOM      3  C   UNL     1      11.820   2.525  -3.683  1.00  0.00     0.063 A 
ATOM      4  C   UNL     1      12.580   3.681  -3.488  1.00  0.00     0.019 A 
ATOM      5  C   UNL     1      10.448   2.546  -3.428  1.00  0.00     0.065 A 
ATOM      6  C   UNL     1      11.972   4.839  -3.051  1.00  0.00     0.044 A 
ATOM      7  C   UNL     1      10.610   4.859  -2.804  1.00  0.00     0.165 A 
ATOM      8  F   UNL     1      10.020   5.997  -2.376  1.00  0.00    -0.203 F 
BRANCH   3   9
ATOM      9  C   UNL     1      12.468   1.284  -4.152  1.00  0.00     0.335 C 
ATOM     10  O   UNL     1      12.942   0.506  -3.349  1.00  0.00    -0.246 OA
BRANCH   9  11
ATOM     11  O   UNL     1      12.527   1.011  -5.470  1.00  0.00    -0.478 OA
ATOM     12  H   UNL     1      13.374   0.699  -5.817  1.00  0.00     0.297 HD
ENDBRANCH   9  11
ENDBRANCH   3   9
ENDBRANCH   1   2
BRANCH   1  13
ATOM     13  C   UNL     1       7.652   3.261  -3.780  1.00  0.00     0.230 C 
BRANCH  13  14
ATOM     14  C   UNL     1       6.234   3.092  -3.231  1.00  0.00     0.046 C 
BRANCH  14  15
ATOM     15  C   UNL     1       6.289   2.963  -1.708  1.00  0.00     0.043 C 
BRANCH  15  16
ATOM     16  C   UNL     1       6.231   1.507  -1.323  1.00  0.00    -0.004 A 
ATOM     17  C   UNL     1       5.175   0.679  -1.498  1.00  0.00     0.036 A 
ATOM     18  C   UNL     1       7.261   0.771  -0.729  1.00  0.00     0.063 A 
ATOM     19  N   UNL     1       5.522  -0.536  -1.025  1.00  0.00    -0.282 N 
ATOM     20  N   UNL     1       6.835  -0.452  -0.543  1.00  0.00    -0.181 NA
ATOM     21  C   UNL     1       3.849   1.048  -2.111  1.00  0.00     0.066 C 
ATOM     22  C   UNL     1       8.623   1.299  -0.355  1.00  0.00     0.069 C 
ATOM     23  H   UNL     1       4.962  -1.328  -1.018  1.00  0.00     0.190 HD
ENDBRANCH  15  16
ENDBRANCH  14  15
ENDBRANCH  13  14
ENDBRANCH   1  13
TORSDOF 7
ENDMDL
MODEL 7
REMARK VINA RESULT:    -4.103      3.930      7.047
REMARK INTER + INTRA:          -6.054
REMARK INTER:                  -5.225
REMARK INTRA:                  -0.829
REMARK UNBOUND:                -0.391
REMARK SMILES Cc1n[nH]c(C)c1CCCOc1cc(C(=O)O)ccc1F
REMARK SMILES IDX 11 1 12 2 14 3 18 4 13 5 19 6 20 7 21 8 15 9 16 10 17 11
REMARK SMILES IDX 10 13 9 14 8 15 7 16 5 17 2 18 4 19 3 20 6 21 1 22
REMARK H PARENT 17 12 4 23
ROOT
ATOM      1  O   UNL     1       8.592   3.723  -2.755  1.00  0.00    -0.490 OA
ENDROOT
BRANCH   1   2
ATOM      2  C   UNL     1       9.929   3.700  -3.001  1.00  0.00     0.155 A 
ATOM      3  C   UNL     1      11.904   2.517  -3.696  1.00  0.00     0.063 A 
ATOM      4  C   UNL     1      12.660   3.677  -3.508  1.00  0.00     0.019 A 
ATOM      5  C   UNL     1      10.531   2.535  -3.439  1.00  0.00     0.065 A 
ATOM      6  C   UNL     1      12.049   4.835  -3.076  1.00  0.00     0.044 A 
ATOM      7  C   UNL     1      10.687   4.852  -2.827  1.00  0.00     0.165 A 
ATOM      8  F   UNL     1      10.095   5.991  -2.405  1.00  0.00    -0.203 F 
BRANCH   3   9
ATOM      9  C   UNL     1      12.554   1.275  -4.158  1.00  0.00     0.335 C 
ATOM     10  O   UNL     1      11.879   0.317  -4.473  1.00  0.00    -0.246 OA
BRANCH   9  11
ATOM     11  O   UNL     1      13.898   1.208  -4.235  1.00  0.00    -0.478 OA
ATOM     12  H   UNL     1      14.401   1.658  -3.543  1.00  0.00     0.297 HD
ENDBRANCH   9  11
ENDBRANCH   3   9
ENDBRANCH   1   2
BRANCH   1  13
ATOM     13  C   UNL     1       7.738   3.166  -3.758  1.00  0.00     0.230 C 
BRANCH  13  14
ATOM     14  C   UNL     1       6.304   3.107  -3.230  1.00  0.00     0.046 C 
BRANCH  14  15
ATOM     15  C   UNL     1       6.326   2.948  -1.709  1.00  0.00     0.043 C 
BRANCH  15  16
ATOM     16  C   UNL     1       6.275   1.484  -1.355  1.00  0.00    -0.004 A 
ATOM     17  C   UNL     1       7.275   0.765  -0.794  1.00  0.00     0.036 A 
ATOM     18  C   UNL     1       5.183   0.630  -1.541  1.00  0.00     0.063 A 
ATOM     19  N   UNL     1       6.833  -0.501  -0.638  1.00  0.00    -0.282 N 
ATOM     20  N   UNL     1       5.519  -0.561  -1.119  1.00  0.00    -0.181 NA
ATOM     21  C   UNL     1       8.636   1.284  -0.413  1.00  0.00     0.066 C 
ATOM     22  C   UNL     1       3.853   1.014  -2.138  1.00  0.00     0.069 C 
ATOM     23  H   UNL     1       7.337  -1.238  -0.261  1.00  0.00     0.190 HD
ENDBRANCH  15  16
ENDBRANCH  14  15
ENDBRANCH  13  14
ENDBRANCH   1  13
TORSDOF 7
ENDMDL
MODEL 8
REMARK VINA RESULT:    -3.892      3.778      6.537
REMARK INTER + INTRA:          -5.763
REMARK INTER:                  -5.166
REMARK INTRA:                  -0.597
REMARK UNBOUND:                -0.391
REMARK SMILES Cc1n[nH]c(C)c1CCCOc1cc(C(=O)O)ccc1F
REMARK SMILES IDX 11 1 12 2 14 3 18 4 13 5 19 6 20 7 21 8 15 9 16 10 17 11
REMARK SMILES IDX 10 13 9 14 8 15 7 16 5 17 2 18 4 19 3 20 6 21 1 22
REMARK H PARENT 17 12 4 23
ROOT
ATOM      1  O   UNL     1       8.538   2.585  -3.502  1.00  0.00    -0.490 OA
ENDROOT
BRANCH   1   2
ATOM      2  C   UNL     1       9.762   3.165  -3.378  1.00  0.00     0.155 A 
ATOM      3  C   UNL     1      11.121   5.084  -2.879  1.00  0.00     0.063 A 
ATOM      4  C   UNL     1      12.271   4.327  -3.119  1.00  0.00     0.019 A 
ATOM      5  C   UNL     1       9.863   4.493  -3.010  1.00  0.00     0.065 A 
ATOM      6  C   UNL     1      12.160   3.001  -3.480  1.00  0.00     0.044 A 
ATOM      7  C   UNL     1      10.911   2.416  -3.605  1.00  0.00     0.165 A 
ATOM      8  F   UNL     1      10.809   1.116  -3.958  1.00  0.00    -0.203 F 
BRANCH   3   9
ATOM      9  C   UNL     1      11.237   6.504  -2.492  1.00  0.00     0.335 C 
ATOM     10  O   UNL     1      10.316   7.056  -1.925  1.00  0.00    -0.246 OA
BRANCH   9  11
ATOM     11  O   UNL     1      12.367   7.186  -2.764  1.00  0.00    -0.478 OA
ATOM     12  H   UNL     1      12.921   6.849  -3.482  1.00  0.00     0.297 HD
ENDBRANCH   9  11
ENDBRANCH   3   9
ENDBRANCH   1   2
BRANCH   1  13
ATOM     13  C   UNL     1       7.489   3.393  -4.043  1.00  0.00     0.230 C 
BRANCH  13  14
ATOM     14  C   UNL     1       6.166   3.029  -3.367  1.00  0.00     0.046 C 
BRANCH  14  15
ATOM     15  C   UNL     1       6.372   2.949  -1.853  1.00  0.00     0.043 C 
BRANCH  15  16
ATOM     16  C   UNL     1       6.307   1.510  -1.411  1.00  0.00    -0.004 A 
ATOM     17  C   UNL     1       7.302   0.815  -0.812  1.00  0.00     0.036 A 
ATOM     18  C   UNL     1       5.206   0.658  -1.542  1.00  0.00     0.063 A 
ATOM     19  N   UNL     1       6.848  -0.434  -0.578  1.00  0.00    -0.282 N 
ATOM     20  N   UNL     1       5.531  -0.509  -1.050  1.00  0.00    -0.181 NA
ATOM     21  C   UNL     1       8.670   1.342  -0.468  1.00  0.00     0.066 C 
ATOM     22  C   UNL     1       3.877   1.019  -2.156  1.00  0.00     0.069 C 
ATOM     23  H   UNL     1       7.346  -1.153  -0.159  1.00  0.00     0.190 HD
ENDBRANCH  15  16
ENDBRANCH  14  15
ENDBRANCH  13  14
ENDBRANCH   1  13
TORSDOF 7
ENDMDL
MODEL 9
REMARK VINA RESULT:    -3.869      4.894      7.823
REMARK INTER + INTRA:          -5.730
REMARK INTER:                  -5.052
REMARK INTRA:                  -0.678
REMARK UNBOUND:                -0.391
REMARK SMILES Cc1n[nH]c(C)c1CCCOc1cc(C(=O)O)ccc1F
REMARK SMILES IDX 11 1 12 2 14 3 18 4 13 5 19 6 20 7 21 8 15 9 16 10 17 11
REMARK SMILES IDX 10 13 9 14 8 15 7 16 5 17 2 18 4 19 3 20 6 21 1 22
REMARK H PARENT 17 12 4 23
ROOT
ATOM      1  O   UNL     1      10.806   5.159  -2.828  1.00  0.00    -0.490 OA
ENDROOT
BRANCH   1   2
ATOM      2  C   UNL     1      11.775   6.091  -2.625  1.00  0.00     0.155 A 
ATOM      3  C   UNL     1      13.882   7.079  -3.232  1.00  0.00     0.063 A 
ATOM      4  C   UNL     1      13.740   8.008  -2.198  1.00  0.00     0.019 A 
ATOM      5  C   UNL     1      12.891   6.118  -3.441  1.00  0.00     0.065 A 
ATOM      6  C   UNL     1      12.621   7.977  -1.393  1.00  0.00     0.044 A 
ATOM      7  C   UNL     1      11.637   7.026  -1.605  1.00  0.00     0.165 A 
ATOM      8  F   UNL     1      10.543   7.001  -0.812  1.00  0.00    -0.203 F 
BRANCH   3   9
ATOM      9  C   UNL     1      15.078   7.109  -4.096  1.00  0.00     0.335 C 
ATOM     10  O   UNL     1      15.670   8.153  -4.278  1.00  0.00    -0.246 OA
BRANCH   9  11
ATOM     11  O   UNL     1      15.517   5.976  -4.679  1.00  0.00    -0.478 OA
ATOM     12  H   UNL     1      16.098   5.409  -4.154  1.00  0.00     0.297 HD
ENDBRANCH   9  11
ENDBRANCH   3   9
ENDBRANCH   1   2
BRANCH   1  13
ATOM     13  C   UNL     1      11.214   3.912  -3.396  1.00  0.00     0.230 C 
BRANCH  13  14
ATOM     14  C   UNL     1      10.190   2.832  -3.041  1.00  0.00     0.046 C 
BRANCH  14  15
ATOM     15  C   UNL     1       8.902   3.493  -2.546  1.00  0.00     0.043 C 
BRANCH  15  16
ATOM     16  C   UNL     1       7.777   2.492  -2.581  1.00  0.00    -0.004 A 
ATOM     17  C   UNL     1       6.874   2.343  -3.578  1.00  0.00     0.036 A 
ATOM     18  C   UNL     1       7.485   1.547  -1.592  1.00  0.00     0.063 A 
ATOM     19  N   UNL     1       6.037   1.344  -3.229  1.00  0.00    -0.282 N 
ATOM     20  N   UNL     1       6.438   0.863  -1.976  1.00  0.00    -0.181 NA
ATOM     21  C   UNL     1       6.816   3.148  -4.850  1.00  0.00     0.066 C 
ATOM     22  C   UNL     1       8.239   1.357  -0.300  1.00  0.00     0.069 C 
ATOM     23  H   UNL     1       5.289   1.018  -3.753  1.00  0.00     0.190 HD
ENDBRANCH  15  16
ENDBRANCH  14  15
ENDBRANCH  13  14
ENDBRANCH   1  13
TORSDOF 7
ENDMDL
