MODEL 1
REMARK VINA RESULT:    -3.218      0.000      0.000
REMARK INTER + INTRA:          -3.984
REMARK INTER:                  -3.688
REMARK INTRA:                  -0.297
REMARK UNBOUND:                -0.297
REMARK SMILES O=C(O)c1ccc2nc(-c3cc(Cl)cc(Cl)c3)oc2c1
REMARK SMILES IDX 5 1 6 2 20 3 8 4 18 5 4 6 9 7 7 8 19 9 2 10 1 11 3 12 10 14
REMARK SMILES IDX 11 15 17 16 12 17 15 18 14 19 13 20 16 21
REMARK H PARENT 3 13
ROOT
ATOM      1  C   UNL     1      12.786   4.072  -3.441  1.00  0.00     0.018 A 
ATOM      2  C   UNL     1      11.527   4.468  -3.103  1.00  0.00     0.033 A 
ATOM      3  C   UNL     1      12.023   1.785  -3.701  1.00  0.00     0.065 A 
ATOM      4  N   UNL     1       9.173   3.619  -2.761  1.00  0.00    -0.209 NA
ATOM      5  O   UNL     1       9.569   1.530  -3.223  1.00  0.00    -0.436 OA
ATOM      6  C   UNL     1      13.051   2.729  -3.746  1.00  0.00     0.063 A 
ATOM      7  C   UNL     1       8.634   2.429  -2.863  1.00  0.00     0.227 A 
ATOM      8  C   UNL     1      10.488   3.531  -3.055  1.00  0.00     0.110 A 
ATOM      9  C   UNL     1      10.745   2.182  -3.354  1.00  0.00     0.156 A 
ENDROOT
BRANCH   6  10
ATOM     10  C   UNL     1      14.416   2.314  -4.116  1.00  0.00     0.335 C 
ATOM     11  O   UNL     1      14.642   1.154  -4.399  1.00  0.00    -0.246 OA
BRANCH  10  12
ATOM     12  O   UNL     1      15.413   3.220  -4.141  1.00  0.00    -0.478 OA
ATOM     13  H   UNL     1      16.237   2.979  -3.696  1.00  0.00     0.297 HD
ENDBRANCH  10  12
ENDBRANCH   6  10
BRANCH   7  14
ATOM     14  C   UNL     1       7.209   2.121  -2.618  1.00  0.00     0.040 A 
ATOM     15  C   UNL     1       6.243   3.120  -2.747  1.00  0.00     0.034 A 
ATOM     16  C   UNL     1       6.825   0.828  -2.256  1.00  0.00     0.034 A 
ATOM     17  C   UNL     1       4.914   2.825  -2.518  1.00  0.00     0.043 A 
ATOM     18  C   UNL     1       5.493   0.546  -2.030  1.00  0.00     0.043 A 
ATOM     19  C   UNL     1       4.539   1.541  -2.159  1.00  0.00     0.041 A 
ATOM     20  Cl  UNL     1       3.711   4.065  -2.678  1.00  0.00    -0.084 Cl
ATOM     21  Cl  UNL     1       5.013  -1.061  -1.579  1.00  0.00    -0.084 Cl
ENDBRANCH   7  14
TORSDOF 3
ENDMDL
MODEL 2
REMARK VINA RESULT:    -3.212      1.816      2.514
REMARK INTER + INTRA:          -3.978
REMARK INTER:                  -3.682
REMARK INTRA:                  -0.296
REMARK UNBOUND:                -0.297
REMARK SMILES O=C(O)c1ccc2nc(-c3cc(Cl)cc(Cl)c3)oc2c1
REMARK SMILES IDX 5 1 6 2 20 3 8 4 18 5 4 6 9 7 7 8 19 9 2 10 1 11 3 12 10 14
REMARK SMILES IDX 11 15 17 16 12 17 15 18 14 19 13 20 16 21
REMARK H PARENT 3 13
ROOT
ATOM      1  C   UNL     1      12.811   4.135  -3.518  1.00  0.00     0.018 A 
ATOM      2  C   UNL     1      12.001   3.040  -3.488  1.00  0.00     0.033 A 
ATOM      3  C   UNL     1      10.986   5.535  -2.752  1.00  0.00     0.065 A 
ATOM      4  N   UNL     1       9.646   2.290  -2.964  1.00  0.00    -0.209 NA
ATOM      5  O   UNL     1       8.862   4.238  -2.397  1.00  0.00    -0.436 OA
ATOM      6  C   UNL     1      12.317   5.394  -3.149  1.00  0.00     0.063 A 
ATOM      7  C   UNL     1       8.581   2.931  -2.552  1.00  0.00     0.227 A 
ATOM      8  C   UNL     1      10.664   3.167  -3.091  1.00  0.00     0.110 A 
ATOM      9  C   UNL     1      10.159   4.427  -2.725  1.00  0.00     0.156 A 
ENDROOT
BRANCH   6  10
ATOM     10  C   UNL     1      13.204   6.570  -3.180  1.00  0.00     0.335 C 
ATOM     11  O   UNL     1      12.797   7.648  -2.794  1.00  0.00    -0.246 OA
BRANCH  10  12
ATOM     12  O   UNL     1      14.467   6.451  -3.636  1.00  0.00    -0.478 OA
ATOM     13  H   UNL     1      14.773   7.121  -4.261  1.00  0.00     0.297 HD
ENDBRANCH  10  12
ENDBRANCH   6  10
BRANCH   7  14
ATOM     14  C   UNL     1       7.265   2.309  -2.296  1.00  0.00     0.040 A 
ATOM     15  C   UNL     1       6.099   3.069  -2.400  1.00  0.00     0.034 A 
ATOM     16  C   UNL     1       7.184   0.960  -1.947  1.00  0.00     0.034 A 
ATOM     17  C   UNL     1       4.872   2.482  -2.161  1.00  0.00     0.043 A 
ATOM     18  C   UNL     1       5.951   0.384  -1.710  1.00  0.00     0.043 A 
ATOM     19  C   UNL     1       4.798   1.143  -1.815  1.00  0.00     0.041 A 
ATOM     20  Cl  UNL     1       3.420   3.424  -2.291  1.00  0.00    -0.084 Cl
ATOM     21  Cl  UNL     1       5.848  -1.294  -1.276  1.00  0.00    -0.084 Cl
ENDBRANCH   7  14
TORSDOF 3
ENDMDL
MODEL 3
REMARK VINA RESULT:    -3.210      0.004      2.019
REMARK INTER + INTRA:          -3.976
REMARK INTER:                  -3.680
REMARK INTRA:                  -0.296
REMARK UNBOUND:                -0.297
REMARK SMILES O=C(O)c1ccc2nc(-c3cc(Cl)cc(Cl)c3)oc2c1
REMARK SMILES IDX 5 1 6 2 20 3 8 4 18 5 4 6 9 7 7 8 19 9 2 10 1 11 3 12 10 14
REMARK SMILES IDX 11 15 17 16 12 17 15 18 14 19 13 20 16 21
REMARK H PARENT 3 13
ROOT
ATOM      1  C   UNL     1      12.789   4.070  -3.442  1.00  0.00     0.018 A 
ATOM      2  C   UNL     1      11.529   4.466  -3.104  1.00  0.00     0.033 A 
ATOM      3  C   UNL     1      12.025   1.783  -3.702  1.00  0.00     0.065 A 
ATOM      4  N   UNL     1       9.175   3.617  -2.762  1.00  0.00    -0.209 NA
ATOM      5  O   UNL     1       9.570   1.528  -3.224  1.00  0.00    -0.436 OA
ATOM      6  C   UNL     1      13.053   2.727  -3.747  1.00  0.00     0.063 A 
ATOM      7  C   UNL     1       8.636   2.427  -2.864  1.00  0.00     0.227 A 
ATOM      8  C   UNL     1      10.490   3.529  -3.055  1.00  0.00     0.110 A 
ATOM      9  C   UNL     1      10.747   2.179  -3.355  1.00  0.00     0.156 A 
ENDROOT
BRANCH   6  10
ATOM     10  C   UNL     1      14.418   2.311  -4.117  1.00  0.00     0.335 C 
ATOM     11  O   UNL     1      14.643   1.152  -4.402  1.00  0.00    -0.246 OA
BRANCH  10  12
ATOM     12  O   UNL     1      15.416   3.217  -4.139  1.00  0.00    -0.478 OA
ATOM     13  H   UNL     1      15.584   3.665  -4.979  1.00  0.00     0.297 HD
ENDBRANCH  10  12
ENDBRANCH   6  10
BRANCH   7  14
ATOM     14  C   UNL     1       7.211   2.119  -2.620  1.00  0.00     0.040 A 
ATOM     15  C   UNL     1       6.825   0.828  -2.258  1.00  0.00     0.034 A 
ATOM     16  C   UNL     1       6.246   3.119  -2.751  1.00  0.00     0.034 A 
ATOM     17  C   UNL     1       5.493   0.547  -2.029  1.00  0.00     0.043 A 
ATOM     18  C   UNL     1       4.917   2.826  -2.520  1.00  0.00     0.043 A 
ATOM     19  C   UNL     1       4.540   1.543  -2.161  1.00  0.00     0.041 A 
ATOM     20  Cl  UNL     1       5.011  -1.059  -1.578  1.00  0.00    -0.084 Cl
ATOM     21  Cl  UNL     1       3.714   4.068  -2.682  1.00  0.00    -0.084 Cl
ENDBRANCH   7  14
TORSDOF 3
ENDMDL
MODEL 4
REMARK VINA RESULT:    -3.209      1.816      3.209
REMARK INTER + INTRA:          -3.974
REMARK INTER:                  -3.678
REMARK INTRA:                  -0.296
REMARK UNBOUND:                -0.297
REMARK SMILES O=C(O)c1ccc2nc(-c3cc(Cl)cc(Cl)c3)oc2c1
REMARK SMILES IDX 5 1 6 2 20 3 8 4 18 5 4 6 9 7 7 8 19 9 2 10 1 11 3 12 10 14
REMARK SMILES IDX 11 15 17 16 12 17 15 18 14 19 13 20 16 21
REMARK H PARENT 3 13
ROOT
ATOM      1  C   UNL     1      12.811   4.135  -3.519  1.00  0.00     0.018 A 
ATOM      2  C   UNL     1      12.001   3.039  -3.489  1.00  0.00     0.033 A 
ATOM      3  C   UNL     1      10.986   5.534  -2.751  1.00  0.00     0.065 A 
ATOM      4  N   UNL     1       9.647   2.288  -2.965  1.00  0.00    -0.209 NA
ATOM      5  O   UNL     1       8.862   4.236  -2.397  1.00  0.00    -0.436 OA
ATOM      6  C   UNL     1      12.316   5.393  -3.149  1.00  0.00     0.063 A 
ATOM      7  C   UNL     1       8.581   2.928  -2.552  1.00  0.00     0.227 A 
ATOM      8  C   UNL     1      10.665   3.166  -3.092  1.00  0.00     0.110 A 
ATOM      9  C   UNL     1      10.159   4.426  -2.725  1.00  0.00     0.156 A 
ENDROOT
BRANCH   6  10
ATOM     10  C   UNL     1      13.203   6.570  -3.179  1.00  0.00     0.335 C 
ATOM     11  O   UNL     1      12.796   7.648  -2.793  1.00  0.00    -0.246 OA
BRANCH  10  12
ATOM     12  O   UNL     1      14.466   6.452  -3.636  1.00  0.00    -0.478 OA
ATOM     13  H   UNL     1      14.771   7.122  -4.261  1.00  0.00     0.297 HD
ENDBRANCH  10  12
ENDBRANCH   6  10
BRANCH   7  14
ATOM     14  C   UNL     1       7.266   2.307  -2.296  1.00  0.00     0.040 A 
ATOM     15  C   UNL     1       7.183   0.957  -1.951  1.00  0.00     0.034 A 
ATOM     16  C   UNL     1       6.099   3.068  -2.400  1.00  0.00     0.034 A 
ATOM     17  C   UNL     1       5.951   0.382  -1.712  1.00  0.00     0.043 A 
ATOM     18  C   UNL     1       4.873   2.481  -2.158  1.00  0.00     0.043 A 
ATOM     19  C   UNL     1       4.798   1.142  -1.816  1.00  0.00     0.041 A 
ATOM     20  Cl  UNL     1       5.846  -1.296  -1.281  1.00  0.00    -0.084 Cl
ATOM     21  Cl  UNL     1       3.422   3.426  -2.286  1.00  0.00    -0.084 Cl
ENDBRANCH   7  14
TORSDOF 3
ENDMDL
MODEL 5
REMARK VINA RESULT:    -3.079      3.913      7.837
REMARK INTER + INTRA:          -3.826
REMARK INTER:                  -3.528
REMARK INTRA:                  -0.298
REMARK UNBOUND:                -0.297
REMARK SMILES O=C(O)c1ccc2nc(-c3cc(Cl)cc(Cl)c3)oc2c1
REMARK SMILES IDX 5 1 6 2 20 3 8 4 18 5 4 6 9 7 7 8 19 9 2 10 1 11 3 12 10 14
REMARK SMILES IDX 11 15 17 16 12 17 15 18 14 19 13 20 16 21
REMARK H PARENT 3 13
ROOT
ATOM      1  C   UNL     1       5.244   0.376  -1.948  1.00  0.00     0.018 A 
ATOM      2  C   UNL     1       6.564   0.161  -2.209  1.00  0.00     0.033 A 
ATOM      3  C   UNL     1       5.589   2.774  -2.058  1.00  0.00     0.065 A 
ATOM      4  N   UNL     1       8.747   1.349  -2.663  1.00  0.00    -0.209 NA
ATOM      5  O   UNL     1       7.980   3.381  -2.540  1.00  0.00    -0.436 OA
ATOM      6  C   UNL     1       4.739   1.682  -1.872  1.00  0.00     0.063 A 
ATOM      7  C   UNL     1       9.069   2.616  -2.747  1.00  0.00     0.227 A 
ATOM      8  C   UNL     1       7.427   1.247  -2.398  1.00  0.00     0.110 A 
ATOM      9  C   UNL     1       6.930   2.560  -2.318  1.00  0.00     0.156 A 
ENDROOT
BRANCH   6  10
ATOM     10  C   UNL     1       3.308   1.902  -1.595  1.00  0.00     0.335 C 
ATOM     11  O   UNL     1       2.569   0.952  -1.428  1.00  0.00    -0.246 OA
BRANCH  10  12
ATOM     12  O   UNL     1       2.819   3.156  -1.530  1.00  0.00    -0.478 OA
ATOM     13  H   UNL     1       3.344   3.807  -1.045  1.00  0.00     0.297 HD
ENDBRANCH  10  12
ENDBRANCH   6  10
BRANCH   7  14
ATOM     14  C   UNL     1      10.426   3.129  -3.026  1.00  0.00     0.040 A 
ATOM     15  C   UNL     1      11.424   2.264  -3.476  1.00  0.00     0.034 A 
ATOM     16  C   UNL     1      10.715   4.482  -2.839  1.00  0.00     0.034 A 
ATOM     17  C   UNL     1      12.690   2.749  -3.735  1.00  0.00     0.043 A 
ATOM     18  C   UNL     1      11.985   4.956  -3.102  1.00  0.00     0.043 A 
ATOM     19  C   UNL     1      12.970   4.092  -3.548  1.00  0.00     0.041 A 
ATOM     20  Cl  UNL     1      13.933   1.675  -4.296  1.00  0.00    -0.084 Cl
ATOM     21  Cl  UNL     1      12.347   6.639  -2.871  1.00  0.00    -0.084 Cl
ENDBRANCH   7  14
TORSDOF 3
ENDMDL
MODEL 6
REMARK VINA RESULT:    -3.065      3.913      7.602
REMARK INTER + INTRA:          -3.810
REMARK INTER:                  -3.512
REMARK INTRA:                  -0.298
REMARK UNBOUND:                -0.297
REMARK SMILES O=C(O)c1ccc2nc(-c3cc(Cl)cc(Cl)c3)oc2c1
REMARK SMILES IDX 5 1 6 2 20 3 8 4 18 5 4 6 9 7 7 8 19 9 2 10 1 11 3 12 10 14
REMARK SMILES IDX 11 15 17 16 12 17 15 18 14 19 13 20 16 21
REMARK H PARENT 3 13
ROOT
ATOM      1  C   UNL     1       5.248   0.366  -1.943  1.00  0.00     0.018 A 
ATOM      2  C   UNL     1       6.568   0.152  -2.205  1.00  0.00     0.033 A 
ATOM      3  C   UNL     1       5.592   2.765  -2.047  1.00  0.00     0.065 A 
ATOM      4  N   UNL     1       8.750   1.342  -2.659  1.00  0.00    -0.209 NA
ATOM      5  O   UNL     1       7.983   3.373  -2.529  1.00  0.00    -0.436 OA
ATOM      6  C   UNL     1       4.743   1.672  -1.862  1.00  0.00     0.063 A 
ATOM      7  C   UNL     1       9.071   2.609  -2.739  1.00  0.00     0.227 A 
ATOM      8  C   UNL     1       7.430   1.239  -2.393  1.00  0.00     0.110 A 
ATOM      9  C   UNL     1       6.932   2.552  -2.308  1.00  0.00     0.156 A 
ENDROOT
BRANCH   6  10
ATOM     10  C   UNL     1       3.312   1.891  -1.583  1.00  0.00     0.335 C 
ATOM     11  O   UNL     1       2.571   0.941  -1.428  1.00  0.00    -0.246 OA
BRANCH  10  12
ATOM     12  O   UNL     1       2.825   3.145  -1.501  1.00  0.00    -0.478 OA
ATOM     13  H   UNL     1       2.454   3.418  -0.651  1.00  0.00     0.297 HD
ENDBRANCH  10  12
ENDBRANCH   6  10
BRANCH   7  14
ATOM     14  C   UNL     1      10.428   3.123  -3.019  1.00  0.00     0.040 A 
ATOM     15  C   UNL     1      10.717   4.475  -2.834  1.00  0.00     0.034 A 
ATOM     16  C   UNL     1      11.426   2.257  -3.470  1.00  0.00     0.034 A 
ATOM     17  C   UNL     1      11.987   4.949  -3.095  1.00  0.00     0.043 A 
ATOM     18  C   UNL     1      12.692   2.742  -3.728  1.00  0.00     0.043 A 
ATOM     19  C   UNL     1      12.972   4.085  -3.543  1.00  0.00     0.041 A 
ATOM     20  Cl  UNL     1      12.350   6.631  -2.865  1.00  0.00    -0.084 Cl
ATOM     21  Cl  UNL     1      13.934   1.667  -4.290  1.00  0.00    -0.084 Cl
ENDBRANCH   7  14
TORSDOF 3
ENDMDL
MODEL 7
REMARK VINA RESULT:    -3.022      3.737      7.417
REMARK INTER + INTRA:          -3.760
REMARK INTER:                  -3.462
REMARK INTRA:                  -0.298
REMARK UNBOUND:                -0.297
REMARK SMILES O=C(O)c1ccc2nc(-c3cc(Cl)cc(Cl)c3)oc2c1
REMARK SMILES IDX 5 1 6 2 20 3 8 4 18 5 4 6 9 7 7 8 19 9 2 10 1 11 3 12 10 14
REMARK SMILES IDX 11 15 17 16 12 17 15 18 14 19 13 20 16 21
REMARK H PARENT 3 13
ROOT
ATOM      1  C   UNL     1       4.457   2.395  -2.256  1.00  0.00     0.018 A 
ATOM      2  C   UNL     1       5.391   3.371  -2.431  1.00  0.00     0.033 A 
ATOM      3  C   UNL     1       6.176   0.690  -2.397  1.00  0.00     0.065 A 
ATOM      4  N   UNL     1       7.864   3.753  -2.783  1.00  0.00    -0.209 NA
ATOM      5  O   UNL     1       8.466   1.662  -2.761  1.00  0.00    -0.436 OA
ATOM      6  C   UNL     1       4.835   1.045  -2.235  1.00  0.00     0.063 A 
ATOM      7  C   UNL     1       8.884   2.936  -2.880  1.00  0.00     0.227 A 
ATOM      8  C   UNL     1       6.739   3.029  -2.595  1.00  0.00     0.110 A 
ATOM      9  C   UNL     1       7.126   1.677  -2.580  1.00  0.00     0.156 A 
ENDROOT
BRANCH   6  10
ATOM     10  C   UNL     1       3.816  -0.002  -2.039  1.00  0.00     0.335 C 
ATOM     11  O   UNL     1       2.652   0.306  -1.879  1.00  0.00    -0.246 OA
BRANCH  10  12
ATOM     12  O   UNL     1       4.176  -1.301  -2.036  1.00  0.00    -0.478 OA
ATOM     13  H   UNL     1       5.122  -1.495  -2.004  1.00  0.00     0.297 HD
ENDBRANCH  10  12
ENDBRANCH   6  10
BRANCH   7  14
ATOM     14  C   UNL     1      10.285   3.354  -3.089  1.00  0.00     0.040 A 
ATOM     15  C   UNL     1      10.659   4.683  -2.890  1.00  0.00     0.034 A 
ATOM     16  C   UNL     1      11.242   2.418  -3.490  1.00  0.00     0.034 A 
ATOM     17  C   UNL     1      11.970   5.067  -3.086  1.00  0.00     0.043 A 
ATOM     18  C   UNL     1      12.550   2.814  -3.683  1.00  0.00     0.043 A 
ATOM     19  C   UNL     1      12.914   4.134  -3.483  1.00  0.00     0.041 A 
ATOM     20  Cl  UNL     1      12.437   6.720  -2.838  1.00  0.00    -0.084 Cl
ATOM     21  Cl  UNL     1      13.742   1.652  -4.181  1.00  0.00    -0.084 Cl
ENDBRANCH   7  14
TORSDOF 3
ENDMDL
MODEL 8
REMARK VINA RESULT:    -2.788      4.573      7.549
REMARK INTER + INTRA:          -3.492
REMARK INTER:                  -3.205
REMARK INTRA:                  -0.287
REMARK UNBOUND:                -0.297
REMARK SMILES O=C(O)c1ccc2nc(-c3cc(Cl)cc(Cl)c3)oc2c1
REMARK SMILES IDX 5 1 6 2 20 3 8 4 18 5 4 6 9 7 7 8 19 9 2 10 1 11 3 12 10 14
REMARK SMILES IDX 11 15 17 16 12 17 15 18 14 19 13 20 16 21
REMARK H PARENT 3 13
ROOT
ATOM      1  C   UNL     1       7.376   2.304  -3.819  1.00  0.00     0.018 A 
ATOM      2  C   UNL     1       8.011   3.427  -4.258  1.00  0.00     0.033 A 
ATOM      3  C   UNL     1       8.932   2.119  -1.968  1.00  0.00     0.065 A 
ATOM      4  N   UNL     1       9.938   4.980  -3.751  1.00  0.00    -0.209 NA
ATOM      5  O   UNL     1      10.652   3.952  -1.971  1.00  0.00    -0.436 OA
ATOM      6  C   UNL     1       7.825   1.638  -2.670  1.00  0.00     0.063 A 
ATOM      7  C   UNL     1      10.842   4.994  -2.803  1.00  0.00     0.227 A 
ATOM      8  C   UNL     1       9.123   3.920  -3.564  1.00  0.00     0.110 A 
ATOM      9  C   UNL     1       9.583   3.254  -2.414  1.00  0.00     0.156 A 
ENDROOT
BRANCH   6  10
ATOM     10  C   UNL     1       7.126   0.428  -2.200  1.00  0.00     0.335 C 
ATOM     11  O   UNL     1       6.444  -0.217  -2.972  1.00  0.00    -0.246 OA
BRANCH  10  12
ATOM     12  O   UNL     1       7.242   0.038  -0.915  1.00  0.00    -0.478 OA
ATOM     13  H   UNL     1       8.077  -0.371  -0.654  1.00  0.00     0.297 HD
ENDBRANCH  10  12
ENDBRANCH   6  10
BRANCH   7  14
ATOM     14  C   UNL     1      11.912   6.004  -2.668  1.00  0.00     0.040 A 
ATOM     15  C   UNL     1      12.961   6.040  -3.586  1.00  0.00     0.034 A 
ATOM     16  C   UNL     1      11.877   6.925  -1.619  1.00  0.00     0.034 A 
ATOM     17  C   UNL     1      13.958   6.987  -3.455  1.00  0.00     0.043 A 
ATOM     18  C   UNL     1      12.879   7.867  -1.498  1.00  0.00     0.043 A 
ATOM     19  C   UNL     1      13.918   7.898  -2.413  1.00  0.00     0.041 A 
ATOM     20  Cl  UNL     1      15.264   7.035  -4.597  1.00  0.00    -0.084 Cl
ATOM     21  Cl  UNL     1      12.838   9.013  -0.195  1.00  0.00    -0.084 Cl
ENDBRANCH   7  14
TORSDOF 3
ENDMDL
MODEL 9
REMARK VINA RESULT:    -2.784      4.584      7.496
REMARK INTER + INTRA:          -3.487
REMARK INTER:                  -3.200
REMARK INTRA:                  -0.287
REMARK UNBOUND:                -0.297
REMARK SMILES O=C(O)c1ccc2nc(-c3cc(Cl)cc(Cl)c3)oc2c1
REMARK SMILES IDX 5 1 6 2 20 3 8 4 18 5 4 6 9 7 7 8 19 9 2 10 1 11 3 12 10 14
REMARK SMILES IDX 11 15 17 16 12 17 15 18 14 19 13 20 16 21
REMARK H PARENT 3 13
ROOT
ATOM      1  C   UNL     1       7.388   2.330  -3.806  1.00  0.00     0.018 A 
ATOM      2  C   UNL     1       8.025   3.450  -4.249  1.00  0.00     0.033 A 
ATOM      3  C   UNL     1       8.944   2.146  -1.955  1.00  0.00     0.065 A 
ATOM      4  N   UNL     1       9.955   5.000  -3.746  1.00  0.00    -0.209 NA
ATOM      5  O   UNL     1      10.667   3.976  -1.963  1.00  0.00    -0.436 OA
ATOM      6  C   UNL     1       7.836   1.666  -2.655  1.00  0.00     0.063 A 
ATOM      7  C   UNL     1      10.859   5.015  -2.798  1.00  0.00     0.227 A 
ATOM      8  C   UNL     1       9.138   3.942  -3.556  1.00  0.00     0.110 A 
ATOM      9  C   UNL     1       9.597   3.279  -2.404  1.00  0.00     0.156 A 
ENDROOT
BRANCH   6  10
ATOM     10  C   UNL     1       7.134   0.459  -2.182  1.00  0.00     0.335 C 
ATOM     11  O   UNL     1       7.260   0.095  -1.030  1.00  0.00    -0.246 OA
BRANCH  10  12
ATOM     12  O   UNL     1       6.353  -0.242  -3.028  1.00  0.00    -0.478 OA
ATOM     13  H   UNL     1       5.591  -0.698  -2.646  1.00  0.00     0.297 HD
ENDBRANCH  10  12
ENDBRANCH   6  10
BRANCH   7  14
ATOM     14  C   UNL     1      11.932   6.023  -2.665  1.00  0.00     0.040 A 
ATOM     15  C   UNL     1      11.899   6.949  -1.622  1.00  0.00     0.034 A 
ATOM     16  C   UNL     1      12.982   6.053  -3.585  1.00  0.00     0.034 A 
ATOM     17  C   UNL     1      12.904   7.888  -1.503  1.00  0.00     0.043 A 
ATOM     18  C   UNL     1      13.981   6.997  -3.456  1.00  0.00     0.043 A 
ATOM     19  C   UNL     1      13.943   7.912  -2.419  1.00  0.00     0.041 A 
ATOM     20  Cl  UNL     1      12.866   9.040  -0.205  1.00  0.00    -0.084 Cl
ATOM     21  Cl  UNL     1      15.288   7.036  -4.599  1.00  0.00    -0.084 Cl
ENDBRANCH   7  14
TORSDOF 3
ENDMDL
