MODEL 1
REMARK VINA RESULT:    -5.205      0.000      0.000
REMARK INTER + INTRA:          -6.261
REMARK INTER:                  -5.966
REMARK INTRA:                  -0.295
REMARK UNBOUND:                -0.295
REMARK SMILES O=C(O)c1ccc2nc(-c3cc(Cl)cc(Cl)c3)oc2c1
REMARK SMILES IDX 5 1 6 2 20 3 8 4 18 5 4 6 9 7 7 8 19 9 2 10 1 11 3 12 10 14
REMARK SMILES IDX 11 15 17 16 12 17 15 18 14 19 13 20 16 21
REMARK H PARENT 3 13
ROOT
ATOM      1  C   UNL     1       2.347   1.306  -4.671  1.00  0.00     0.018 A 
ATOM      2  C   UNL     1       1.155   0.837  -4.206  1.00  0.00     0.033 A 
ATOM      3  C   UNL     1       3.450   0.590  -2.634  1.00  0.00     0.065 A 
ATOM      4  N   UNL     1       0.073  -0.309  -2.232  1.00  0.00    -0.209 NA
ATOM      5  O   UNL     1       1.864  -0.493  -1.011  1.00  0.00    -0.436 OA
ATOM      6  C   UNL     1       3.508   1.188  -3.894  1.00  0.00     0.063 A 
ATOM      7  C   UNL     1       0.543  -0.739  -1.087  1.00  0.00     0.227 A 
ATOM      8  C   UNL     1       1.083   0.236  -2.944  1.00  0.00     0.110 A 
ATOM      9  C   UNL     1       2.241   0.118  -2.156  1.00  0.00     0.156 A 
ENDROOT
BRANCH   6  10
ATOM     10  C   UNL     1       4.793   1.693  -4.410  1.00  0.00     0.335 C 
ATOM     11  O   UNL     1       5.833   1.165  -4.071  1.00  0.00    -0.246 OA
BRANCH  10  12
ATOM     12  O   UNL     1       4.814   2.742  -5.256  1.00  0.00    -0.478 OA
ATOM     13  H   UNL     1       4.779   3.624  -4.864  1.00  0.00     0.297 HD
ENDBRANCH  10  12
ENDBRANCH   6  10
BRANCH   7  14
ATOM     14  C   UNL     1      -0.260  -1.397  -0.036  1.00  0.00     0.040 A 
ATOM     15  C   UNL     1      -1.635  -1.561  -0.203  1.00  0.00     0.034 A 
ATOM     16  C   UNL     1       0.356  -1.857   1.130  1.00  0.00     0.034 A 
ATOM     17  C   UNL     1      -2.380  -2.178   0.783  1.00  0.00     0.043 A 
ATOM     18  C   UNL     1      -0.399  -2.473   2.109  1.00  0.00     0.043 A 
ATOM     19  C   UNL     1      -1.763  -2.632   1.937  1.00  0.00     0.041 A 
ATOM     20  Cl  UNL     1      -4.091  -2.384   0.577  1.00  0.00    -0.084 Cl
ATOM     21  Cl  UNL     1       0.364  -3.046   3.559  1.00  0.00    -0.084 Cl
ENDBRANCH   7  14
TORSDOF 3
ENDMDL
MODEL 2
REMARK VINA RESULT:    -5.203      4.002      7.579
REMARK INTER + INTRA:          -6.259
REMARK INTER:                  -5.963
REMARK INTRA:                  -0.296
REMARK UNBOUND:                -0.295
REMARK SMILES O=C(O)c1ccc2nc(-c3cc(Cl)cc(Cl)c3)oc2c1
REMARK SMILES IDX 5 1 6 2 20 3 8 4 18 5 4 6 9 7 7 8 19 9 2 10 1 11 3 12 10 14
REMARK SMILES IDX 11 15 17 16 12 17 15 18 14 19 13 20 16 21
REMARK H PARENT 3 13
ROOT
ATOM      1  C   UNL     1      -0.386  -2.757   1.068  1.00  0.00     0.018 A 
ATOM      2  C   UNL     1       0.758  -2.627   0.339  1.00  0.00     0.033 A 
ATOM      3  C   UNL     1      -1.306  -0.773   0.019  1.00  0.00     0.065 A 
ATOM      4  N   UNL     1       1.885  -1.186  -1.403  1.00  0.00    -0.209 NA
ATOM      5  O   UNL     1       0.275   0.257  -1.643  1.00  0.00    -0.436 OA
ATOM      6  C   UNL     1      -1.432  -1.835   0.916  1.00  0.00     0.063 A 
ATOM      7  C   UNL     1       1.510  -0.105  -2.039  1.00  0.00     0.227 A 
ATOM      8  C   UNL     1       0.898  -1.567  -0.564  1.00  0.00     0.110 A 
ATOM      9  C   UNL     1      -0.144  -0.635  -0.718  1.00  0.00     0.156 A 
ENDROOT
BRANCH   6  10
ATOM     10  C   UNL     1      -2.667  -1.988   1.705  1.00  0.00     0.335 C 
ATOM     11  O   UNL     1      -3.723  -1.579   1.266  1.00  0.00    -0.246 OA
BRANCH  10  12
ATOM     12  O   UNL     1      -2.626  -2.581   2.915  1.00  0.00    -0.478 OA
ATOM     13  H   UNL     1      -2.483  -3.537   2.931  1.00  0.00     0.297 HD
ENDBRANCH  10  12
ENDBRANCH   6  10
BRANCH   7  14
ATOM     14  C   UNL     1       2.322   0.612  -3.044  1.00  0.00     0.040 A 
ATOM     15  C   UNL     1       1.797   1.720  -3.710  1.00  0.00     0.034 A 
ATOM     16  C   UNL     1       3.619   0.182  -3.331  1.00  0.00     0.034 A 
ATOM     17  C   UNL     1       2.562   2.386  -4.646  1.00  0.00     0.043 A 
ATOM     18  C   UNL     1       4.374   0.857  -4.270  1.00  0.00     0.043 A 
ATOM     19  C   UNL     1       3.847   1.955  -4.927  1.00  0.00     0.041 A 
ATOM     20  Cl  UNL     1       1.911   3.766  -5.475  1.00  0.00    -0.084 Cl
ATOM     21  Cl  UNL     1       5.988   0.324  -4.629  1.00  0.00    -0.084 Cl
ENDBRANCH   7  14
TORSDOF 3
ENDMDL
MODEL 3
REMARK VINA RESULT:    -5.200      0.004      2.019
REMARK INTER + INTRA:          -6.256
REMARK INTER:                  -5.960
REMARK INTRA:                  -0.296
REMARK UNBOUND:                -0.295
REMARK SMILES O=C(O)c1ccc2nc(-c3cc(Cl)cc(Cl)c3)oc2c1
REMARK SMILES IDX 5 1 6 2 20 3 8 4 18 5 4 6 9 7 7 8 19 9 2 10 1 11 3 12 10 14
REMARK SMILES IDX 11 15 17 16 12 17 15 18 14 19 13 20 16 21
REMARK H PARENT 3 13
ROOT
ATOM      1  C   UNL     1       2.351   1.305  -4.670  1.00  0.00     0.018 A 
ATOM      2  C   UNL     1       1.159   0.837  -4.205  1.00  0.00     0.033 A 
ATOM      3  C   UNL     1       3.454   0.590  -2.632  1.00  0.00     0.065 A 
ATOM      4  N   UNL     1       0.077  -0.309  -2.230  1.00  0.00    -0.209 NA
ATOM      5  O   UNL     1       1.868  -0.493  -1.009  1.00  0.00    -0.436 OA
ATOM      6  C   UNL     1       3.512   1.187  -3.893  1.00  0.00     0.063 A 
ATOM      7  C   UNL     1       0.547  -0.739  -1.085  1.00  0.00     0.227 A 
ATOM      8  C   UNL     1       1.087   0.236  -2.942  1.00  0.00     0.110 A 
ATOM      9  C   UNL     1       2.246   0.117  -2.155  1.00  0.00     0.156 A 
ENDROOT
BRANCH   6  10
ATOM     10  C   UNL     1       4.797   1.692  -4.409  1.00  0.00     0.335 C 
ATOM     11  O   UNL     1       5.837   1.165  -4.069  1.00  0.00    -0.246 OA
BRANCH  10  12
ATOM     12  O   UNL     1       4.818   2.740  -5.256  1.00  0.00    -0.478 OA
ATOM     13  H   UNL     1       4.170   3.441  -5.104  1.00  0.00     0.297 HD
ENDBRANCH  10  12
ENDBRANCH   6  10
BRANCH   7  14
ATOM     14  C   UNL     1      -0.255  -1.397  -0.034  1.00  0.00     0.040 A 
ATOM     15  C   UNL     1       0.359  -1.858   1.132  1.00  0.00     0.034 A 
ATOM     16  C   UNL     1      -1.632  -1.561  -0.203  1.00  0.00     0.034 A 
ATOM     17  C   UNL     1      -0.397  -2.471   2.111  1.00  0.00     0.043 A 
ATOM     18  C   UNL     1      -2.377  -2.176   0.784  1.00  0.00     0.043 A 
ATOM     19  C   UNL     1      -1.762  -2.631   1.937  1.00  0.00     0.041 A 
ATOM     20  Cl  UNL     1       0.364  -3.045   3.562  1.00  0.00    -0.084 Cl
ATOM     21  Cl  UNL     1      -4.089  -2.381   0.576  1.00  0.00    -0.084 Cl
ENDBRANCH   7  14
TORSDOF 3
ENDMDL
MODEL 4
REMARK VINA RESULT:    -5.197      4.003      7.787
REMARK INTER + INTRA:          -6.252
REMARK INTER:                  -5.956
REMARK INTRA:                  -0.296
REMARK UNBOUND:                -0.295
REMARK SMILES O=C(O)c1ccc2nc(-c3cc(Cl)cc(Cl)c3)oc2c1
REMARK SMILES IDX 5 1 6 2 20 3 8 4 18 5 4 6 9 7 7 8 19 9 2 10 1 11 3 12 10 14
REMARK SMILES IDX 11 15 17 16 12 17 15 18 14 19 13 20 16 21
REMARK H PARENT 3 13
ROOT
ATOM      1  C   UNL     1      -0.390  -2.760   1.061  1.00  0.00     0.018 A 
ATOM      2  C   UNL     1       0.754  -2.631   0.332  1.00  0.00     0.033 A 
ATOM      3  C   UNL     1      -1.308  -0.773   0.019  1.00  0.00     0.065 A 
ATOM      4  N   UNL     1       1.880  -1.187  -1.409  1.00  0.00    -0.209 NA
ATOM      5  O   UNL     1       0.272   0.259  -1.643  1.00  0.00    -0.436 OA
ATOM      6  C   UNL     1      -1.434  -1.836   0.914  1.00  0.00     0.063 A 
ATOM      7  C   UNL     1       1.505  -0.104  -2.043  1.00  0.00     0.227 A 
ATOM      8  C   UNL     1       0.893  -1.569  -0.570  1.00  0.00     0.110 A 
ATOM      9  C   UNL     1      -0.147  -0.635  -0.720  1.00  0.00     0.156 A 
ENDROOT
BRANCH   6  10
ATOM     10  C   UNL     1      -2.669  -1.990   1.704  1.00  0.00     0.335 C 
ATOM     11  O   UNL     1      -3.728  -1.598   1.258  1.00  0.00    -0.246 OA
BRANCH  10  12
ATOM     12  O   UNL     1      -2.622  -2.565   2.923  1.00  0.00    -0.478 OA
ATOM     13  H   UNL     1      -3.455  -2.900   3.282  1.00  0.00     0.297 HD
ENDBRANCH  10  12
ENDBRANCH   6  10
BRANCH   7  14
ATOM     14  C   UNL     1       2.317   0.614  -3.047  1.00  0.00     0.040 A 
ATOM     15  C   UNL     1       3.613   0.185  -3.338  1.00  0.00     0.034 A 
ATOM     16  C   UNL     1       1.791   1.726  -3.708  1.00  0.00     0.034 A 
ATOM     17  C   UNL     1       4.366   0.860  -4.278  1.00  0.00     0.043 A 
ATOM     18  C   UNL     1       2.553   2.392  -4.646  1.00  0.00     0.043 A 
ATOM     19  C   UNL     1       3.838   1.962  -4.930  1.00  0.00     0.041 A 
ATOM     20  Cl  UNL     1       5.978   0.328  -4.641  1.00  0.00    -0.084 Cl
ATOM     21  Cl  UNL     1       1.901   3.774  -5.470  1.00  0.00    -0.084 Cl
ENDBRANCH   7  14
TORSDOF 3
ENDMDL
MODEL 5
REMARK VINA RESULT:    -4.525     14.773     16.183
REMARK INTER + INTRA:          -5.481
REMARK INTER:                  -5.197
REMARK INTRA:                  -0.285
REMARK UNBOUND:                -0.295
REMARK SMILES O=C(O)c1ccc2nc(-c3cc(Cl)cc(Cl)c3)oc2c1
REMARK SMILES IDX 5 1 6 2 20 3 8 4 18 5 4 6 9 7 7 8 19 9 2 10 1 11 3 12 10 14
REMARK SMILES IDX 11 15 17 16 12 17 15 18 14 19 13 20 16 21
REMARK H PARENT 3 13
ROOT
ATOM      1  C   UNL     1      -1.919  12.780  10.595  1.00  0.00     0.018 A 
ATOM      2  C   UNL     1      -0.853  12.869   9.750  1.00  0.00     0.033 A 
ATOM      3  C   UNL     1      -2.262  10.466   9.956  1.00  0.00     0.065 A 
ATOM      4  N   UNL     1       0.517  11.547   8.090  1.00  0.00    -0.209 NA
ATOM      5  O   UNL     1      -0.589   9.680   8.252  1.00  0.00    -0.436 OA
ATOM      6  C   UNL     1      -2.635  11.580  10.710  1.00  0.00     0.063 A 
ATOM      7  C   UNL     1       0.440  10.313   7.657  1.00  0.00     0.227 A 
ATOM      8  C   UNL     1      -0.469  11.759   8.988  1.00  0.00     0.110 A 
ATOM      9  C   UNL     1      -1.184  10.553   9.095  1.00  0.00     0.156 A 
ENDROOT
BRANCH   6  10
ATOM     10  C   UNL     1      -3.782  11.494  11.632  1.00  0.00     0.335 C 
ATOM     11  O   UNL     1      -3.595  11.348  12.823  1.00  0.00    -0.246 OA
BRANCH  10  12
ATOM     12  O   UNL     1      -5.040  11.576  11.152  1.00  0.00    -0.478 OA
ATOM     13  H   UNL     1      -5.319  12.430  10.796  1.00  0.00     0.297 HD
ENDBRANCH  10  12
ENDBRANCH   6  10
BRANCH   7  14
ATOM     14  C   UNL     1       1.349   9.705   6.663  1.00  0.00     0.040 A 
ATOM     15  C   UNL     1       2.675  10.129   6.575  1.00  0.00     0.034 A 
ATOM     16  C   UNL     1       0.883   8.705   5.807  1.00  0.00     0.034 A 
ATOM     17  C   UNL     1       3.520   9.556   5.645  1.00  0.00     0.043 A 
ATOM     18  C   UNL     1       1.737   8.141   4.881  1.00  0.00     0.043 A 
ATOM     19  C   UNL     1       3.052   8.565   4.799  1.00  0.00     0.041 A 
ATOM     20  Cl  UNL     1       5.171  10.081   5.534  1.00  0.00    -0.084 Cl
ATOM     21  Cl  UNL     1       1.159   6.897   3.816  1.00  0.00    -0.084 Cl
ENDBRANCH   7  14
TORSDOF 3
ENDMDL
MODEL 6
REMARK VINA RESULT:    -4.519     14.776     16.097
REMARK INTER + INTRA:          -5.474
REMARK INTER:                  -5.190
REMARK INTRA:                  -0.285
REMARK UNBOUND:                -0.295
REMARK SMILES O=C(O)c1ccc2nc(-c3cc(Cl)cc(Cl)c3)oc2c1
REMARK SMILES IDX 5 1 6 2 20 3 8 4 18 5 4 6 9 7 7 8 19 9 2 10 1 11 3 12 10 14
REMARK SMILES IDX 11 15 17 16 12 17 15 18 14 19 13 20 16 21
REMARK H PARENT 3 13
ROOT
ATOM      1  C   UNL     1      -1.916  12.779  10.601  1.00  0.00     0.018 A 
ATOM      2  C   UNL     1      -0.855  12.870   9.750  1.00  0.00     0.033 A 
ATOM      3  C   UNL     1      -2.249  10.460   9.975  1.00  0.00     0.065 A 
ATOM      4  N   UNL     1       0.513  11.548   8.088  1.00  0.00    -0.209 NA
ATOM      5  O   UNL     1      -0.580   9.676   8.266  1.00  0.00    -0.436 OA
ATOM      6  C   UNL     1      -2.624  11.575  10.726  1.00  0.00     0.063 A 
ATOM      7  C   UNL     1       0.442  10.311   7.663  1.00  0.00     0.227 A 
ATOM      8  C   UNL     1      -0.468  11.759   8.991  1.00  0.00     0.110 A 
ATOM      9  C   UNL     1      -1.176  10.549   9.107  1.00  0.00     0.156 A 
ENDROOT
BRANCH   6  10
ATOM     10  C   UNL     1      -3.766  11.487  11.654  1.00  0.00     0.335 C 
ATOM     11  O   UNL     1      -3.572  11.347  12.845  1.00  0.00    -0.246 OA
BRANCH  10  12
ATOM     12  O   UNL     1      -5.026  11.560  11.181  1.00  0.00    -0.478 OA
ATOM     13  H   UNL     1      -5.386  10.765  10.765  1.00  0.00     0.297 HD
ENDBRANCH  10  12
ENDBRANCH   6  10
BRANCH   7  14
ATOM     14  C   UNL     1       1.349   9.705   6.667  1.00  0.00     0.040 A 
ATOM     15  C   UNL     1       0.887   8.697   5.819  1.00  0.00     0.034 A 
ATOM     16  C   UNL     1       2.673  10.137   6.571  1.00  0.00     0.034 A 
ATOM     17  C   UNL     1       1.739   8.135   4.889  1.00  0.00     0.043 A 
ATOM     18  C   UNL     1       3.516   9.567   5.637  1.00  0.00     0.043 A 
ATOM     19  C   UNL     1       3.051   8.568   4.799  1.00  0.00     0.041 A 
ATOM     20  Cl  UNL     1       1.166   6.882   3.834  1.00  0.00    -0.084 Cl
ATOM     21  Cl  UNL     1       5.163  10.103   5.516  1.00  0.00    -0.084 Cl
ENDBRANCH   7  14
TORSDOF 3
ENDMDL
MODEL 7
REMARK VINA RESULT:    -4.511     11.083     11.550
REMARK INTER + INTRA:          -5.466
REMARK INTER:                  -5.171
REMARK INTRA:                  -0.295
REMARK UNBOUND:                -0.295
REMARK SMILES O=C(O)c1ccc2nc(-c3cc(Cl)cc(Cl)c3)oc2c1
REMARK SMILES IDX 5 1 6 2 20 3 8 4 18 5 4 6 9 7 7 8 19 9 2 10 1 11 3 12 10 14
REMARK SMILES IDX 11 15 17 16 12 17 15 18 14 19 13 20 16 21
REMARK H PARENT 3 13
ROOT
ATOM      1  C   UNL     1       2.567  10.831   7.172  1.00  0.00     0.018 A 
ATOM      2  C   UNL     1       1.646  10.023   6.576  1.00  0.00     0.033 A 
ATOM      3  C   UNL     1       4.356   9.710   5.977  1.00  0.00     0.065 A 
ATOM      4  N   UNL     1       1.398   8.114   4.940  1.00  0.00    -0.209 NA
ATOM      5  O   UNL     1       3.511   7.874   4.483  1.00  0.00    -0.436 OA
ATOM      6  C   UNL     1       3.931  10.687   6.880  1.00  0.00     0.063 A 
ATOM      7  C   UNL     1       2.265   7.427   4.238  1.00  0.00     0.227 A 
ATOM      8  C   UNL     1       2.058   9.039   5.669  1.00  0.00     0.110 A 
ATOM      9  C   UNL     1       3.424   8.886   5.374  1.00  0.00     0.156 A 
ENDROOT
BRANCH   6  10
ATOM     10  C   UNL     1       4.918  11.571   7.526  1.00  0.00     0.335 C 
ATOM     11  O   UNL     1       6.085  11.237   7.585  1.00  0.00    -0.246 OA
BRANCH  10  12
ATOM     12  O   UNL     1       4.527  12.748   8.052  1.00  0.00    -0.478 OA
ATOM     13  H   UNL     1       4.539  12.824   9.015  1.00  0.00     0.297 HD
ENDBRANCH  10  12
ENDBRANCH   6  10
BRANCH   7  14
ATOM     14  C   UNL     1       1.924   6.324   3.316  1.00  0.00     0.040 A 
ATOM     15  C   UNL     1       0.681   6.297   2.683  1.00  0.00     0.034 A 
ATOM     16  C   UNL     1       2.846   5.303   3.076  1.00  0.00     0.034 A 
ATOM     17  C   UNL     1       0.370   5.264   1.822  1.00  0.00     0.043 A 
ATOM     18  C   UNL     1       2.523   4.275   2.212  1.00  0.00     0.043 A 
ATOM     19  C   UNL     1       1.288   4.255   1.588  1.00  0.00     0.041 A 
ATOM     20  Cl  UNL     1      -1.176   5.230   1.033  1.00  0.00    -0.084 Cl
ATOM     21  Cl  UNL     1       3.667   3.004   1.911  1.00  0.00    -0.084 Cl
ENDBRANCH   7  14
TORSDOF 3
ENDMDL
MODEL 8
REMARK VINA RESULT:    -4.509     11.088     11.710
REMARK INTER + INTRA:          -5.464
REMARK INTER:                  -5.169
REMARK INTRA:                  -0.295
REMARK UNBOUND:                -0.295
REMARK SMILES O=C(O)c1ccc2nc(-c3cc(Cl)cc(Cl)c3)oc2c1
REMARK SMILES IDX 5 1 6 2 20 3 8 4 18 5 4 6 9 7 7 8 19 9 2 10 1 11 3 12 10 14
REMARK SMILES IDX 11 15 17 16 12 17 15 18 14 19 13 20 16 21
REMARK H PARENT 3 13
ROOT
ATOM      1  C   UNL     1       2.553  10.836   7.172  1.00  0.00     0.018 A 
ATOM      2  C   UNL     1       1.635  10.025   6.575  1.00  0.00     0.033 A 
ATOM      3  C   UNL     1       4.348   9.719   5.985  1.00  0.00     0.065 A 
ATOM      4  N   UNL     1       1.398   8.113   4.940  1.00  0.00    -0.209 NA
ATOM      5  O   UNL     1       3.513   7.878   4.490  1.00  0.00    -0.436 OA
ATOM      6  C   UNL     1       3.918  10.696   6.885  1.00  0.00     0.063 A 
ATOM      7  C   UNL     1       2.269   7.428   4.242  1.00  0.00     0.227 A 
ATOM      8  C   UNL     1       2.053   9.041   5.670  1.00  0.00     0.110 A 
ATOM      9  C   UNL     1       3.421   8.891   5.380  1.00  0.00     0.156 A 
ENDROOT
BRANCH   6  10
ATOM     10  C   UNL     1       4.900  11.583   7.533  1.00  0.00     0.335 C 
ATOM     11  O   UNL     1       6.068  11.253   7.596  1.00  0.00    -0.246 OA
BRANCH  10  12
ATOM     12  O   UNL     1       4.504  12.760   8.056  1.00  0.00    -0.478 OA
ATOM     13  H   UNL     1       3.577  13.006   7.934  1.00  0.00     0.297 HD
ENDBRANCH  10  12
ENDBRANCH   6  10
BRANCH   7  14
ATOM     14  C   UNL     1       1.935   6.322   3.321  1.00  0.00     0.040 A 
ATOM     15  C   UNL     1       2.859   5.304   3.083  1.00  0.00     0.034 A 
ATOM     16  C   UNL     1       0.693   6.293   2.684  1.00  0.00     0.034 A 
ATOM     17  C   UNL     1       2.540   4.273   2.221  1.00  0.00     0.043 A 
ATOM     18  C   UNL     1       0.385   5.257   1.824  1.00  0.00     0.043 A 
ATOM     19  C   UNL     1       1.306   4.250   1.592  1.00  0.00     0.041 A 
ATOM     20  Cl  UNL     1       3.687   3.005   1.924  1.00  0.00    -0.084 Cl
ATOM     21  Cl  UNL     1      -1.159   5.219   1.031  1.00  0.00    -0.084 Cl
ENDBRANCH   7  14
TORSDOF 3
ENDMDL
MODEL 9
REMARK VINA RESULT:    -4.494     11.153     11.870
REMARK INTER + INTRA:          -5.447
REMARK INTER:                  -5.151
REMARK INTRA:                  -0.296
REMARK UNBOUND:                -0.295
REMARK SMILES O=C(O)c1ccc2nc(-c3cc(Cl)cc(Cl)c3)oc2c1
REMARK SMILES IDX 5 1 6 2 20 3 8 4 18 5 4 6 9 7 7 8 19 9 2 10 1 11 3 12 10 14
REMARK SMILES IDX 11 15 17 16 12 17 15 18 14 19 13 20 16 21
REMARK H PARENT 3 13
ROOT
ATOM      1  C   UNL     1       2.550  10.871   7.089  1.00  0.00     0.018 A 
ATOM      2  C   UNL     1       3.228   9.948   6.349  1.00  0.00     0.033 A 
ATOM      3  C   UNL     1       0.450   9.770   6.581  1.00  0.00     0.065 A 
ATOM      4  N   UNL     1       2.916   7.883   4.927  1.00  0.00    -0.209 NA
ATOM      5  O   UNL     1       0.752   7.755   5.108  1.00  0.00    -0.436 OA
ATOM      6  C   UNL     1       1.156  10.793   7.216  1.00  0.00     0.063 A 
ATOM      7  C   UNL     1       1.856   7.198   4.576  1.00  0.00     0.227 A 
ATOM      8  C   UNL     1       2.532   8.916   5.707  1.00  0.00     0.110 A 
ATOM      9  C   UNL     1       1.133   8.835   5.826  1.00  0.00     0.156 A 
ENDROOT
BRANCH   6  10
ATOM     10  C   UNL     1       0.434  11.794   8.023  1.00  0.00     0.335 C 
ATOM     11  O   UNL     1      -0.780  11.819   8.015  1.00  0.00    -0.246 OA
BRANCH  10  12
ATOM     12  O   UNL     1       1.122  12.681   8.769  1.00  0.00    -0.478 OA
ATOM     13  H   UNL     1       2.067  12.517   8.887  1.00  0.00     0.297 HD
ENDBRANCH  10  12
ENDBRANCH   6  10
BRANCH   7  14
ATOM     14  C   UNL     1       1.872   5.993   3.721  1.00  0.00     0.040 A 
ATOM     15  C   UNL     1       0.763   5.678   2.934  1.00  0.00     0.034 A 
ATOM     16  C   UNL     1       2.996   5.165   3.698  1.00  0.00     0.034 A 
ATOM     17  C   UNL     1       0.785   4.551   2.136  1.00  0.00     0.043 A 
ATOM     18  C   UNL     1       3.005   4.041   2.896  1.00  0.00     0.043 A 
ATOM     19  C   UNL     1       1.902   3.734   2.118  1.00  0.00     0.041 A 
ATOM     20  Cl  UNL     1      -0.593   4.157   1.156  1.00  0.00    -0.084 Cl
ATOM     21  Cl  UNL     1       4.401   3.010   2.866  1.00  0.00    -0.084 Cl
ENDBRANCH   7  14
TORSDOF 3
ENDMDL
