MODEL 1
REMARK VINA RESULT:    -5.784      0.000      0.000
REMARK INTER + INTRA:          -8.629
REMARK INTER:                  -7.982
REMARK INTRA:                  -0.647
REMARK UNBOUND:                -0.647
REMARK SMILES Cc1n[nH]c(C)c1CCCOc1cc(C(=O)O)ccc1F
REMARK SMILES IDX 11 1 12 2 14 3 18 4 13 5 19 6 20 7 21 8 15 9 16 10 17 11
REMARK SMILES IDX 10 13 9 14 8 15 7 16 5 17 2 18 4 19 3 20 6 21 1 22
REMARK H PARENT 17 12 4 23
ROOT
ATOM      1  O   UNL     1       0.874   7.086   3.434  1.00  0.00    -0.490 OA
ENDROOT
BRANCH   1   2
ATOM      2  C   UNL     1       1.236   5.895   2.887  1.00  0.00     0.155 A 
ATOM      3  C   UNL     1       2.780   4.061   2.712  1.00  0.00     0.063 A 
ATOM      4  C   UNL     1       1.951   3.458   1.762  1.00  0.00     0.019 A 
ATOM      5  C   UNL     1       2.415   5.286   3.273  1.00  0.00     0.065 A 
ATOM      6  C   UNL     1       0.774   4.070   1.387  1.00  0.00     0.044 A 
ATOM      7  C   UNL     1       0.411   5.283   1.949  1.00  0.00     0.165 A 
ATOM      8  F   UNL     1      -0.744   5.878   1.577  1.00  0.00    -0.203 F 
BRANCH   3   9
ATOM      9  C   UNL     1       4.041   3.408   3.116  1.00  0.00     0.335 C 
ATOM     10  O   UNL     1       5.092   4.008   3.025  1.00  0.00    -0.246 OA
BRANCH   9  11
ATOM     11  O   UNL     1       4.024   2.148   3.592  1.00  0.00    -0.478 OA
ATOM     12  H   UNL     1       4.492   1.476   3.077  1.00  0.00     0.297 HD
ENDBRANCH   9  11
ENDBRANCH   3   9
ENDBRANCH   1   2
BRANCH   1  13
ATOM     13  C   UNL     1       1.331   8.269   2.775  1.00  0.00     0.230 C 
BRANCH  13  14
ATOM     14  C   UNL     1       1.596   9.361   3.813  1.00  0.00     0.046 C 
BRANCH  14  15
ATOM     15  C   UNL     1       1.915   8.714   5.163  1.00  0.00     0.043 C 
BRANCH  15  16
ATOM     16  C   UNL     1       2.196   9.788   6.181  1.00  0.00    -0.004 A 
ATOM     17  C   UNL     1       3.410  10.315   6.469  1.00  0.00     0.036 A 
ATOM     18  C   UNL     1       1.249  10.422   6.993  1.00  0.00     0.063 A 
ATOM     19  N   UNL     1       3.237  11.245   7.432  1.00  0.00    -0.282 N 
ATOM     20  N   UNL     1       1.872  11.290   7.747  1.00  0.00    -0.181 NA
ATOM     21  C   UNL     1       4.718   9.933   5.827  1.00  0.00     0.066 C 
ATOM     22  C   UNL     1      -0.232  10.144   7.004  1.00  0.00     0.069 C 
ATOM     23  H   UNL     1       3.934  11.785   7.836  1.00  0.00     0.190 HD
ENDBRANCH  15  16
ENDBRANCH  14  15
ENDBRANCH  13  14
ENDBRANCH   1  13
TORSDOF 7
ENDMDL
MODEL 2
REMARK VINA RESULT:    -5.777      2.138      3.748
REMARK INTER + INTRA:          -8.620
REMARK INTER:                  -8.118
REMARK INTRA:                  -0.502
REMARK UNBOUND:                -0.647
REMARK SMILES Cc1n[nH]c(C)c1CCCOc1cc(C(=O)O)ccc1F
REMARK SMILES IDX 11 1 12 2 14 3 18 4 13 5 19 6 20 7 21 8 15 9 16 10 17 11
REMARK SMILES IDX 10 13 9 14 8 15 7 16 5 17 2 18 4 19 3 20 6 21 1 22
REMARK H PARENT 17 12 4 23
ROOT
ATOM      1  O   UNL     1       1.962   4.960   5.411  1.00  0.00    -0.490 OA
ENDROOT
BRANCH   1   2
ATOM      2  C   UNL     1       1.774   4.690   4.092  1.00  0.00     0.155 A 
ATOM      3  C   UNL     1       0.475   4.912   2.080  1.00  0.00     0.063 A 
ATOM      4  C   UNL     1       1.413   4.136   1.394  1.00  0.00     0.019 A 
ATOM      5  C   UNL     1       0.663   5.187   3.437  1.00  0.00     0.065 A 
ATOM      6  C   UNL     1       2.521   3.650   2.055  1.00  0.00     0.044 A 
ATOM      7  C   UNL     1       2.707   3.928   3.399  1.00  0.00     0.165 A 
ATOM      8  F   UNL     1       3.796   3.448   4.040  1.00  0.00    -0.203 F 
BRANCH   3   9
ATOM      9  C   UNL     1      -0.712   5.435   1.376  1.00  0.00     0.335 C 
ATOM     10  O   UNL     1      -1.706   5.739   2.003  1.00  0.00    -0.246 OA
BRANCH   9  11
ATOM     11  O   UNL     1      -0.690   5.581   0.037  1.00  0.00    -0.478 OA
ATOM     12  H   UNL     1      -1.217   6.301  -0.336  1.00  0.00     0.297 HD
ENDBRANCH   9  11
ENDBRANCH   3   9
ENDBRANCH   1   2
BRANCH   1  13
ATOM     13  C   UNL     1       3.103   5.749   5.755  1.00  0.00     0.230 C 
BRANCH  13  14
ATOM     14  C   UNL     1       2.650   6.990   6.526  1.00  0.00     0.046 C 
BRANCH  14  15
ATOM     15  C   UNL     1       2.393   8.135   5.544  1.00  0.00     0.043 C 
BRANCH  15  16
ATOM     16  C   UNL     1       2.477   9.451   6.273  1.00  0.00    -0.004 A 
ATOM     17  C   UNL     1       1.447  10.103   6.862  1.00  0.00     0.036 A 
ATOM     18  C   UNL     1       3.634  10.213   6.466  1.00  0.00     0.063 A 
ATOM     19  N   UNL     1       1.935  11.239   7.402  1.00  0.00    -0.282 N 
ATOM     20  N   UNL     1       3.309  11.288   7.136  1.00  0.00    -0.181 NA
ATOM     21  C   UNL     1       0.014   9.641   6.907  1.00  0.00     0.066 C 
ATOM     22  C   UNL     1       5.016   9.862   5.974  1.00  0.00     0.069 C 
ATOM     23  H   UNL     1       1.423  11.905   7.888  1.00  0.00     0.190 HD
ENDBRANCH  15  16
ENDBRANCH  14  15
ENDBRANCH  13  14
ENDBRANCH   1  13
TORSDOF 7
ENDMDL
MODEL 3
REMARK VINA RESULT:    -5.750      2.145      3.304
REMARK INTER + INTRA:          -8.582
REMARK INTER:                  -8.032
REMARK INTRA:                  -0.550
REMARK UNBOUND:                -0.647
REMARK SMILES Cc1n[nH]c(C)c1CCCOc1cc(C(=O)O)ccc1F
REMARK SMILES IDX 11 1 12 2 14 3 18 4 13 5 19 6 20 7 21 8 15 9 16 10 17 11
REMARK SMILES IDX 10 13 9 14 8 15 7 16 5 17 2 18 4 19 3 20 6 21 1 22
REMARK H PARENT 17 12 4 23
ROOT
ATOM      1  O   UNL     1       1.980   5.009   5.378  1.00  0.00    -0.490 OA
ENDROOT
BRANCH   1   2
ATOM      2  C   UNL     1       1.777   4.722   4.065  1.00  0.00     0.155 A 
ATOM      3  C   UNL     1       0.456   4.918   2.065  1.00  0.00     0.063 A 
ATOM      4  C   UNL     1       1.385   4.132   1.379  1.00  0.00     0.019 A 
ATOM      5  C   UNL     1       0.659   5.211   3.415  1.00  0.00     0.065 A 
ATOM      6  C   UNL     1       2.501   3.654   2.034  1.00  0.00     0.044 A 
ATOM      7  C   UNL     1       2.702   3.950   3.371  1.00  0.00     0.165 A 
ATOM      8  F   UNL     1       3.798   3.478   4.007  1.00  0.00    -0.203 F 
BRANCH   3   9
ATOM      9  C   UNL     1      -0.739   5.431   1.367  1.00  0.00     0.335 C 
ATOM     10  O   UNL     1      -1.730   5.733   2.001  1.00  0.00    -0.246 OA
BRANCH   9  11
ATOM     11  O   UNL     1      -0.728   5.571   0.027  1.00  0.00    -0.478 OA
ATOM     12  H   UNL     1      -0.525   6.451  -0.321  1.00  0.00     0.297 HD
ENDBRANCH   9  11
ENDBRANCH   3   9
ENDBRANCH   1   2
BRANCH   1  13
ATOM     13  C   UNL     1       3.084   5.863   5.692  1.00  0.00     0.230 C 
BRANCH  13  14
ATOM     14  C   UNL     1       2.573   7.108   6.420  1.00  0.00     0.046 C 
BRANCH  14  15
ATOM     15  C   UNL     1       2.593   8.302   5.463  1.00  0.00     0.043 C 
BRANCH  15  16
ATOM     16  C   UNL     1       2.829   9.568   6.244  1.00  0.00    -0.004 A 
ATOM     17  C   UNL     1       4.020  10.186   6.419  1.00  0.00     0.036 A 
ATOM     18  C   UNL     1       1.854  10.318   6.910  1.00  0.00     0.063 A 
ATOM     19  N   UNL     1       3.807  11.283   7.175  1.00  0.00    -0.282 N 
ATOM     20  N   UNL     1       2.440  11.342   7.475  1.00  0.00    -0.181 NA
ATOM     21  C   UNL     1       5.346   9.730   5.868  1.00  0.00     0.066 C 
ATOM     22  C   UNL     1       0.383   9.994   6.978  1.00  0.00     0.069 C 
ATOM     23  H   UNL     1       4.482  11.919   7.462  1.00  0.00     0.190 HD
ENDBRANCH  15  16
ENDBRANCH  14  15
ENDBRANCH  13  14
ENDBRANCH   1  13
TORSDOF 7
ENDMDL
MODEL 4
REMARK VINA RESULT:    -5.730      0.252      1.780
REMARK INTER + INTRA:          -8.554
REMARK INTER:                  -7.899
REMARK INTRA:                  -0.655
REMARK UNBOUND:                -0.647
REMARK SMILES Cc1n[nH]c(C)c1CCCOc1cc(C(=O)O)ccc1F
REMARK SMILES IDX 11 1 12 2 14 3 18 4 13 5 19 6 20 7 21 8 15 9 16 10 17 11
REMARK SMILES IDX 10 13 9 14 8 15 7 16 5 17 2 18 4 19 3 20 6 21 1 22
REMARK H PARENT 17 12 4 23
ROOT
ATOM      1  O   UNL     1       0.912   7.114   3.461  1.00  0.00    -0.490 OA
ENDROOT
BRANCH   1   2
ATOM      2  C   UNL     1       1.260   5.920   2.912  1.00  0.00     0.155 A 
ATOM      3  C   UNL     1       2.790   4.074   2.726  1.00  0.00     0.063 A 
ATOM      4  C   UNL     1       1.948   3.476   1.785  1.00  0.00     0.019 A 
ATOM      5  C   UNL     1       2.438   5.303   3.288  1.00  0.00     0.065 A 
ATOM      6  C   UNL     1       0.771   4.096   1.420  1.00  0.00     0.044 A 
ATOM      7  C   UNL     1       0.422   5.312   1.983  1.00  0.00     0.165 A 
ATOM      8  F   UNL     1      -0.732   5.915   1.621  1.00  0.00    -0.203 F 
BRANCH   3   9
ATOM      9  C   UNL     1       4.049   3.412   3.119  1.00  0.00     0.335 C 
ATOM     10  O   UNL     1       5.104   4.006   3.021  1.00  0.00    -0.246 OA
BRANCH   9  11
ATOM     11  O   UNL     1       4.028   2.151   3.593  1.00  0.00    -0.478 OA
ATOM     12  H   UNL     1       4.677   1.926   4.274  1.00  0.00     0.297 HD
ENDBRANCH   9  11
ENDBRANCH   3   9
ENDBRANCH   1   2
BRANCH   1  13
ATOM     13  C   UNL     1       1.372   8.293   2.796  1.00  0.00     0.230 C 
BRANCH  13  14
ATOM     14  C   UNL     1       1.632   9.391   3.828  1.00  0.00     0.046 C 
BRANCH  14  15
ATOM     15  C   UNL     1       1.781   8.763   5.215  1.00  0.00     0.043 C 
BRANCH  15  16
ATOM     16  C   UNL     1       1.895   9.852   6.251  1.00  0.00    -0.004 A 
ATOM     17  C   UNL     1       0.873  10.387   6.958  1.00  0.00     0.036 A 
ATOM     18  C   UNL     1       3.076  10.482   6.656  1.00  0.00     0.063 A 
ATOM     19  N   UNL     1       1.388  11.329   7.777  1.00  0.00    -0.282 N 
ATOM     20  N   UNL     1       2.772  11.373   7.565  1.00  0.00    -0.181 NA
ATOM     21  C   UNL     1      -0.579  10.002   6.851  1.00  0.00     0.066 C 
ATOM     22  C   UNL     1       4.458  10.195   6.127  1.00  0.00     0.069 C 
ATOM     23  H   UNL     1       0.888  11.878   8.400  1.00  0.00     0.190 HD
ENDBRANCH  15  16
ENDBRANCH  14  15
ENDBRANCH  13  14
ENDBRANCH   1  13
TORSDOF 7
ENDMDL
MODEL 5
REMARK VINA RESULT:    -4.800      3.720      6.621
REMARK INTER + INTRA:          -7.272
REMARK INTER:                  -6.442
REMARK INTRA:                  -0.830
REMARK UNBOUND:                -0.647
REMARK SMILES Cc1n[nH]c(C)c1CCCOc1cc(C(=O)O)ccc1F
REMARK SMILES IDX 11 1 12 2 14 3 18 4 13 5 19 6 20 7 21 8 15 9 16 10 17 11
REMARK SMILES IDX 10 13 9 14 8 15 7 16 5 17 2 18 4 19 3 20 6 21 1 22
REMARK H PARENT 17 12 4 23
ROOT
ATOM      1  O   UNL     1       0.967   7.686   4.533  1.00  0.00    -0.490 OA
ENDROOT
BRANCH   1   2
ATOM      2  C   UNL     1       1.586   8.629   5.293  1.00  0.00     0.155 A 
ATOM      3  C   UNL     1       3.569   9.841   5.909  1.00  0.00     0.063 A 
ATOM      4  C   UNL     1       2.829  10.566   6.847  1.00  0.00     0.019 A 
ATOM      5  C   UNL     1       2.938   8.868   5.131  1.00  0.00     0.065 A 
ATOM      6  C   UNL     1       1.480  10.324   6.997  1.00  0.00     0.044 A 
ATOM      7  C   UNL     1       0.855   9.363   6.221  1.00  0.00     0.165 A 
ATOM      8  F   UNL     1      -0.467   9.130   6.373  1.00  0.00    -0.203 F 
BRANCH   3   9
ATOM      9  C   UNL     1       5.013  10.098   5.746  1.00  0.00     0.335 C 
ATOM     10  O   UNL     1       5.823   9.392   6.310  1.00  0.00    -0.246 OA
BRANCH   9  11
ATOM     11  O   UNL     1       5.432  11.113   4.965  1.00  0.00    -0.478 OA
ATOM     12  H   UNL     1       5.138  11.108   4.043  1.00  0.00     0.297 HD
ENDBRANCH   9  11
ENDBRANCH   3   9
ENDBRANCH   1   2
BRANCH   1  13
ATOM     13  C   UNL     1       1.450   7.508   3.199  1.00  0.00     0.230 C 
BRANCH  13  14
ATOM     14  C   UNL     1       0.727   6.327   2.549  1.00  0.00     0.046 C 
BRANCH  14  15
ATOM     15  C   UNL     1       0.639   5.171   3.547  1.00  0.00     0.043 C 
BRANCH  15  16
ATOM     16  C   UNL     1       1.917   4.374   3.507  1.00  0.00    -0.004 A 
ATOM     17  C   UNL     1       2.342   3.601   2.480  1.00  0.00     0.036 A 
ATOM     18  C   UNL     1       2.878   4.307   4.521  1.00  0.00     0.063 A 
ATOM     19  N   UNL     1       3.526   3.059   2.834  1.00  0.00    -0.282 N 
ATOM     20  N   UNL     1       3.839   3.514   4.122  1.00  0.00    -0.181 NA
ATOM     21  C   UNL     1       1.621   3.385   1.174  1.00  0.00     0.066 C 
ATOM     22  C   UNL     1       2.812   5.016   5.849  1.00  0.00     0.069 C 
ATOM     23  H   UNL     1       4.064   2.460   2.294  1.00  0.00     0.190 HD
ENDBRANCH  15  16
ENDBRANCH  14  15
ENDBRANCH  13  14
ENDBRANCH   1  13
TORSDOF 7
ENDMDL
MODEL 6
REMARK VINA RESULT:    -4.692      3.797      7.198
REMARK INTER + INTRA:          -7.122
REMARK INTER:                  -6.303
REMARK INTRA:                  -0.819
REMARK UNBOUND:                -0.647
REMARK SMILES Cc1n[nH]c(C)c1CCCOc1cc(C(=O)O)ccc1F
REMARK SMILES IDX 11 1 12 2 14 3 18 4 13 5 19 6 20 7 21 8 15 9 16 10 17 11
REMARK SMILES IDX 10 13 9 14 8 15 7 16 5 17 2 18 4 19 3 20 6 21 1 22
REMARK H PARENT 17 12 4 23
ROOT
ATOM      1  O   UNL     1       3.074   7.500   4.538  1.00  0.00    -0.490 OA
ENDROOT
BRANCH   1   2
ATOM      2  C   UNL     1       2.826   8.562   5.350  1.00  0.00     0.155 A 
ATOM      3  C   UNL     1       1.294   9.880   6.653  1.00  0.00     0.063 A 
ATOM      4  C   UNL     1       2.341  10.731   7.016  1.00  0.00     0.019 A 
ATOM      5  C   UNL     1       1.544   8.791   5.815  1.00  0.00     0.065 A 
ATOM      6  C   UNL     1       3.617  10.491   6.552  1.00  0.00     0.044 A 
ATOM      7  C   UNL     1       3.864   9.407   5.725  1.00  0.00     0.165 A 
ATOM      8  F   UNL     1       5.117   9.177   5.274  1.00  0.00    -0.203 F 
BRANCH   3   9
ATOM      9  C   UNL     1      -0.073  10.134   7.149  1.00  0.00     0.335 C 
ATOM     10  O   UNL     1      -0.777   9.207   7.493  1.00  0.00    -0.246 OA
BRANCH   9  11
ATOM     11  O   UNL     1      -0.538  11.396   7.225  1.00  0.00    -0.478 OA
ATOM     12  H   UNL     1      -0.390  11.966   6.457  1.00  0.00     0.297 HD
ENDBRANCH   9  11
ENDBRANCH   3   9
ENDBRANCH   1   2
BRANCH   1  13
ATOM     13  C   UNL     1       2.566   6.231   4.956  1.00  0.00     0.230 C 
BRANCH  13  14
ATOM     14  C   UNL     1       2.892   5.177   3.896  1.00  0.00     0.046 C 
BRANCH  14  15
ATOM     15  C   UNL     1       2.952   5.841   2.519  1.00  0.00     0.043 C 
BRANCH  15  16
ATOM     16  C   UNL     1       1.594   5.779   1.870  1.00  0.00    -0.004 A 
ATOM     17  C   UNL     1       0.966   4.659   1.443  1.00  0.00     0.036 A 
ATOM     18  C   UNL     1       0.756   6.869   1.609  1.00  0.00     0.063 A 
ATOM     19  N   UNL     1      -0.224   5.028   0.923  1.00  0.00    -0.282 N 
ATOM     20  N   UNL     1      -0.331   6.420   1.036  1.00  0.00    -0.181 NA
ATOM     21  C   UNL     1       1.500   3.254   1.531  1.00  0.00     0.066 C 
ATOM     22  C   UNL     1       1.058   8.312   1.923  1.00  0.00     0.069 C 
ATOM     23  H   UNL     1      -0.888   4.434   0.540  1.00  0.00     0.190 HD
ENDBRANCH  15  16
ENDBRANCH  14  15
ENDBRANCH  13  14
ENDBRANCH   1  13
TORSDOF 7
ENDMDL
MODEL 7
REMARK VINA RESULT:    -4.564      4.841      8.077
REMARK INTER + INTRA:          -6.946
REMARK INTER:                  -6.280
REMARK INTRA:                  -0.666
REMARK UNBOUND:                -0.647
REMARK SMILES Cc1n[nH]c(C)c1CCCOc1cc(C(=O)O)ccc1F
REMARK SMILES IDX 11 1 12 2 14 3 18 4 13 5 19 6 20 7 21 8 15 9 16 10 17 11
REMARK SMILES IDX 10 13 9 14 8 15 7 16 5 17 2 18 4 19 3 20 6 21 1 22
REMARK H PARENT 17 12 4 23
ROOT
ATOM      1  O   UNL     1       4.171   9.480   6.063  1.00  0.00    -0.490 OA
ENDROOT
BRANCH   1   2
ATOM      2  C   UNL     1       4.915  10.567   6.400  1.00  0.00     0.155 A 
ATOM      3  C   UNL     1       5.435  12.349   7.928  1.00  0.00     0.063 A 
ATOM      4  C   UNL     1       6.452  12.781   7.072  1.00  0.00     0.019 A 
ATOM      5  C   UNL     1       4.666  11.236   7.584  1.00  0.00     0.065 A 
ATOM      6  C   UNL     1       6.697  12.104   5.896  1.00  0.00     0.044 A 
ATOM      7  C   UNL     1       5.936  10.997   5.559  1.00  0.00     0.165 A 
ATOM      8  F   UNL     1       6.180  10.339   4.405  1.00  0.00    -0.203 F 
BRANCH   3   9
ATOM      9  C   UNL     1       5.171  13.071   9.188  1.00  0.00     0.335 C 
ATOM     10  O   UNL     1       5.571  14.208   9.333  1.00  0.00    -0.246 OA
BRANCH   9  11
ATOM     11  O   UNL     1       4.480  12.469  10.176  1.00  0.00    -0.478 OA
ATOM     12  H   UNL     1       3.762  11.877   9.912  1.00  0.00     0.297 HD
ENDBRANCH   9  11
ENDBRANCH   3   9
ENDBRANCH   1   2
BRANCH   1  13
ATOM     13  C   UNL     1       2.802   9.711   5.721  1.00  0.00     0.230 C 
BRANCH  13  14
ATOM     14  C   UNL     1       2.109   8.372   5.461  1.00  0.00     0.046 C 
BRANCH  14  15
ATOM     15  C   UNL     1       2.907   7.578   4.424  1.00  0.00     0.043 C 
BRANCH  15  16
ATOM     16  C   UNL     1       2.036   6.496   3.841  1.00  0.00    -0.004 A 
ATOM     17  C   UNL     1       1.278   6.598   2.724  1.00  0.00     0.036 A 
ATOM     18  C   UNL     1       1.873   5.204   4.354  1.00  0.00     0.063 A 
ATOM     19  N   UNL     1       0.653   5.416   2.542  1.00  0.00    -0.282 N 
ATOM     20  N   UNL     1       1.039   4.559   3.580  1.00  0.00    -0.181 NA
ATOM     21  C   UNL     1       1.155   7.814   1.844  1.00  0.00     0.066 C 
ATOM     22  C   UNL     1       2.535   4.656   5.592  1.00  0.00     0.069 C 
ATOM     23  H   UNL     1       0.043   5.199   1.820  1.00  0.00     0.190 HD
ENDBRANCH  15  16
ENDBRANCH  14  15
ENDBRANCH  13  14
ENDBRANCH   1  13
TORSDOF 7
ENDMDL
MODEL 8
REMARK VINA RESULT:    -4.562      4.448      8.171
REMARK INTER + INTRA:          -6.943
REMARK INTER:                  -6.268
REMARK INTRA:                  -0.676
REMARK UNBOUND:                -0.647
REMARK SMILES Cc1n[nH]c(C)c1CCCOc1cc(C(=O)O)ccc1F
REMARK SMILES IDX 11 1 12 2 14 3 18 4 13 5 19 6 20 7 21 8 15 9 16 10 17 11
REMARK SMILES IDX 10 13 9 14 8 15 7 16 5 17 2 18 4 19 3 20 6 21 1 22
REMARK H PARENT 17 12 4 23
ROOT
ATOM      1  O   UNL     1       0.600   9.699   6.315  1.00  0.00    -0.490 OA
ENDROOT
BRANCH   1   2
ATOM      2  C   UNL     1       0.080  10.415   7.347  1.00  0.00     0.155 A 
ATOM      3  C   UNL     1       0.036  12.407   8.694  1.00  0.00     0.063 A 
ATOM      4  C   UNL     1      -1.003  11.865   9.454  1.00  0.00     0.019 A 
ATOM      5  C   UNL     1       0.576  11.673   7.636  1.00  0.00     0.065 A 
ATOM      6  C   UNL     1      -1.496  10.612   9.156  1.00  0.00     0.044 A 
ATOM      7  C   UNL     1      -0.962   9.888   8.103  1.00  0.00     0.165 A 
ATOM      8  F   UNL     1      -1.448   8.661   7.815  1.00  0.00    -0.203 F 
BRANCH   3   9
ATOM      9  C   UNL     1       0.565  13.748   9.011  1.00  0.00     0.335 C 
ATOM     10  O   UNL     1       0.329  14.255  10.088  1.00  0.00    -0.246 OA
BRANCH   9  11
ATOM     11  O   UNL     1       1.315  14.407   8.106  1.00  0.00    -0.478 OA
ATOM     12  H   UNL     1       0.878  14.679   7.287  1.00  0.00     0.297 HD
ENDBRANCH   9  11
ENDBRANCH   3   9
ENDBRANCH   1   2
BRANCH   1  13
ATOM     13  C   UNL     1       1.976   9.322   6.415  1.00  0.00     0.230 C 
BRANCH  13  14
ATOM     14  C   UNL     1       2.392   8.573   5.148  1.00  0.00     0.046 C 
BRANCH  14  15
ATOM     15  C   UNL     1       1.301   7.571   4.766  1.00  0.00     0.043 C 
BRANCH  15  16
ATOM     16  C   UNL     1       1.854   6.580   3.775  1.00  0.00    -0.004 A 
ATOM     17  C   UNL     1       1.853   6.715   2.428  1.00  0.00     0.036 A 
ATOM     18  C   UNL     1       2.464   5.359   4.083  1.00  0.00     0.063 A 
ATOM     19  N   UNL     1       2.436   5.617   1.903  1.00  0.00    -0.282 N 
ATOM     20  N   UNL     1       2.807   4.778   2.963  1.00  0.00    -0.181 NA
ATOM     21  C   UNL     1       1.300   7.884   1.654  1.00  0.00     0.066 C 
ATOM     22  C   UNL     1       2.678   4.804   5.468  1.00  0.00     0.069 C 
ATOM     23  H   UNL     1       2.572   5.439   0.960  1.00  0.00     0.190 HD
ENDBRANCH  15  16
ENDBRANCH  14  15
ENDBRANCH  13  14
ENDBRANCH   1  13
TORSDOF 7
ENDMDL
MODEL 9
REMARK VINA RESULT:    -4.311     10.101     12.914
REMARK INTER + INTRA:          -6.596
REMARK INTER:                  -4.577
REMARK INTRA:                  -2.019
REMARK UNBOUND:                -0.647
REMARK SMILES Cc1n[nH]c(C)c1CCCOc1cc(C(=O)O)ccc1F
REMARK SMILES IDX 11 1 12 2 14 3 18 4 13 5 19 6 20 7 21 8 15 9 16 10 17 11
REMARK SMILES IDX 10 13 9 14 8 15 7 16 5 17 2 18 4 19 3 20 6 21 1 22
REMARK H PARENT 17 12 4 23
ROOT
ATOM      1  O   UNL     1      -0.100  13.871  14.165  1.00  0.00    -0.490 OA
ENDROOT
BRANCH   1   2
ATOM      2  C   UNL     1      -0.963  14.657  13.467  1.00  0.00     0.155 A 
ATOM      3  C   UNL     1      -3.188  15.486  13.084  1.00  0.00     0.063 A 
ATOM      4  C   UNL     1      -2.708  16.276  12.036  1.00  0.00     0.019 A 
ATOM      5  C   UNL     1      -2.305  14.674  13.799  1.00  0.00     0.065 A 
ATOM      6  C   UNL     1      -1.367  16.257  11.716  1.00  0.00     0.044 A 
ATOM      7  C   UNL     1      -0.493  15.455  12.430  1.00  0.00     0.165 A 
ATOM      8  F   UNL     1       0.820  15.441  12.112  1.00  0.00    -0.203 F 
BRANCH   3   9
ATOM      9  C   UNL     1      -4.623  15.504  13.429  1.00  0.00     0.335 C 
ATOM     10  O   UNL     1      -5.154  14.505  13.868  1.00  0.00    -0.246 OA
BRANCH   9  11
ATOM     11  O   UNL     1      -5.341  16.632  13.262  1.00  0.00    -0.478 OA
ATOM     12  H   UNL     1      -5.020  17.427  13.710  1.00  0.00     0.297 HD
ENDBRANCH   9  11
ENDBRANCH   3   9
ENDBRANCH   1   2
BRANCH   1  13
ATOM     13  C   UNL     1       0.479  12.766  13.468  1.00  0.00     0.230 C 
BRANCH  13  14
ATOM     14  C   UNL     1      -0.422  11.539  13.620  1.00  0.00     0.046 C 
BRANCH  14  15
ATOM     15  C   UNL     1      -0.671  10.916  12.245  1.00  0.00     0.043 C 
BRANCH  15  16
ATOM     16  C   UNL     1      -1.768  11.672  11.541  1.00  0.00    -0.004 A 
ATOM     17  C   UNL     1      -1.625  12.432  10.431  1.00  0.00     0.036 A 
ATOM     18  C   UNL     1      -3.116  11.706  11.916  1.00  0.00     0.063 A 
ATOM     19  N   UNL     1      -2.838  12.936  10.118  1.00  0.00    -0.282 N 
ATOM     20  N   UNL     1      -3.756  12.469  11.068  1.00  0.00    -0.181 NA
ATOM     21  C   UNL     1      -0.343  12.673   9.679  1.00  0.00     0.066 C 
ATOM     22  C   UNL     1      -3.722  10.997  13.100  1.00  0.00     0.069 C 
ATOM     23  H   UNL     1      -3.038  13.518   9.369  1.00  0.00     0.190 HD
ENDBRANCH  15  16
ENDBRANCH  14  15
ENDBRANCH  13  14
ENDBRANCH   1  13
TORSDOF 7
ENDMDL
