MODEL 1
REMARK VINA RESULT:    -4.978      0.000      0.000
REMARK INTER + INTRA:          -5.992
REMARK INTER:                  -5.706
REMARK INTRA:                  -0.286
REMARK UNBOUND:                -0.286
REMARK SMILES O=C(O)c1ccc2nc(-c3cc(Cl)cc(Cl)c3)oc2c1
REMARK SMILES IDX 5 1 6 2 20 3 8 4 18 5 4 6 9 7 7 8 19 9 2 10 1 11 3 12 10 14
REMARK SMILES IDX 11 15 17 16 12 17 15 18 14 19 13 20 16 21
REMARK H PARENT 3 13
ROOT
ATOM      1  C   UNL     1       4.420  -1.580   3.818  1.00  0.00     0.018 A 
ATOM      2  C   UNL     1       4.969  -2.684   4.399  1.00  0.00     0.033 A 
ATOM      3  C   UNL     1       6.384  -1.311   2.422  1.00  0.00     0.065 A 
ATOM      4  N   UNL     1       7.021  -4.158   4.388  1.00  0.00    -0.209 NA
ATOM      5  O   UNL     1       8.119  -3.079   2.850  1.00  0.00    -0.436 OA
ATOM      6  C   UNL     1       5.118  -0.881   2.823  1.00  0.00     0.063 A 
ATOM      7  C   UNL     1       8.134  -4.124   3.698  1.00  0.00     0.227 A 
ATOM      8  C   UNL     1       6.238  -3.126   4.006  1.00  0.00     0.110 A 
ATOM      9  C   UNL     1       6.946  -2.428   3.012  1.00  0.00     0.156 A 
ENDROOT
BRANCH   6  10
ATOM     10  C   UNL     1       4.512   0.308   2.198  1.00  0.00     0.335 C 
ATOM     11  O   UNL     1       3.516   0.808   2.682  1.00  0.00    -0.246 OA
BRANCH  10  12
ATOM     12  O   UNL     1       5.063   0.841   1.089  1.00  0.00    -0.478 OA
ATOM     13  H   UNL     1       4.464   1.055   0.361  1.00  0.00     0.297 HD
ENDBRANCH  10  12
ENDBRANCH   6  10
BRANCH   7  14
ATOM     14  C   UNL     1       9.243  -5.092   3.833  1.00  0.00     0.040 A 
ATOM     15  C   UNL     1       9.196  -6.311   3.156  1.00  0.00     0.034 A 
ATOM     16  C   UNL     1      10.342  -4.789   4.640  1.00  0.00     0.034 A 
ATOM     17  C   UNL     1      10.236  -7.210   3.286  1.00  0.00     0.043 A 
ATOM     18  C   UNL     1      11.375  -5.697   4.761  1.00  0.00     0.043 A 
ATOM     19  C   UNL     1      11.323  -6.904   4.087  1.00  0.00     0.041 A 
ATOM     20  Cl  UNL     1      10.180  -8.727   2.444  1.00  0.00    -0.084 Cl
ATOM     21  Cl  UNL     1      12.743  -5.323   5.764  1.00  0.00    -0.084 Cl
ENDBRANCH   7  14
TORSDOF 3
ENDMDL
MODEL 2
REMARK VINA RESULT:    -4.971      0.061      2.020
REMARK INTER + INTRA:          -5.984
REMARK INTER:                  -5.699
REMARK INTRA:                  -0.286
REMARK UNBOUND:                -0.286
REMARK SMILES O=C(O)c1ccc2nc(-c3cc(Cl)cc(Cl)c3)oc2c1
REMARK SMILES IDX 5 1 6 2 20 3 8 4 18 5 4 6 9 7 7 8 19 9 2 10 1 11 3 12 10 14
REMARK SMILES IDX 11 15 17 16 12 17 15 18 14 19 13 20 16 21
REMARK H PARENT 3 13
ROOT
ATOM      1  C   UNL     1       4.399  -1.578   3.739  1.00  0.00     0.018 A 
ATOM      2  C   UNL     1       4.937  -2.686   4.320  1.00  0.00     0.033 A 
ATOM      3  C   UNL     1       6.387  -1.297   2.379  1.00  0.00     0.065 A 
ATOM      4  N   UNL     1       6.990  -4.160   4.333  1.00  0.00    -0.209 NA
ATOM      5  O   UNL     1       8.115  -3.069   2.824  1.00  0.00    -0.436 OA
ATOM      6  C   UNL     1       5.114  -0.871   2.762  1.00  0.00     0.063 A 
ATOM      7  C   UNL     1       8.115  -4.121   3.663  1.00  0.00     0.227 A 
ATOM      8  C   UNL     1       6.213  -3.125   3.946  1.00  0.00     0.110 A 
ATOM      9  C   UNL     1       6.939  -2.418   2.970  1.00  0.00     0.156 A 
ENDROOT
BRANCH   6  10
ATOM     10  C   UNL     1       4.519   0.324   2.136  1.00  0.00     0.335 C 
ATOM     11  O   UNL     1       3.583   0.886   2.668  1.00  0.00    -0.246 OA
BRANCH  10  12
ATOM     12  O   UNL     1       5.013   0.792   0.972  1.00  0.00    -0.478 OA
ATOM     13  H   UNL     1       5.865   1.246   1.008  1.00  0.00     0.297 HD
ENDBRANCH  10  12
ENDBRANCH   6  10
BRANCH   7  14
ATOM     14  C   UNL     1       9.221  -5.089   3.810  1.00  0.00     0.040 A 
ATOM     15  C   UNL     1      10.314  -4.788   4.624  1.00  0.00     0.034 A 
ATOM     16  C   UNL     1       9.178  -6.310   3.133  1.00  0.00     0.034 A 
ATOM     17  C   UNL     1      11.344  -5.698   4.757  1.00  0.00     0.043 A 
ATOM     18  C   UNL     1      10.214  -7.211   3.274  1.00  0.00     0.043 A 
ATOM     19  C   UNL     1      11.295  -6.906   4.083  1.00  0.00     0.041 A 
ATOM     20  Cl  UNL     1      12.704  -5.325   5.769  1.00  0.00    -0.084 Cl
ATOM     21  Cl  UNL     1      10.161  -8.730   2.433  1.00  0.00    -0.084 Cl
ENDBRANCH   7  14
TORSDOF 3
ENDMDL
MODEL 3
REMARK VINA RESULT:    -4.781      1.911      2.236
REMARK INTER + INTRA:          -5.766
REMARK INTER:                  -5.468
REMARK INTRA:                  -0.298
REMARK UNBOUND:                -0.286
REMARK SMILES O=C(O)c1ccc2nc(-c3cc(Cl)cc(Cl)c3)oc2c1
REMARK SMILES IDX 5 1 6 2 20 3 8 4 18 5 4 6 9 7 7 8 19 9 2 10 1 11 3 12 10 14
REMARK SMILES IDX 11 15 17 16 12 17 15 18 14 19 13 20 16 21
REMARK H PARENT 3 13
ROOT
ATOM      1  C   UNL     1       4.156  -1.050   2.901  1.00  0.00     0.018 A 
ATOM      2  C   UNL     1       5.414  -0.970   3.419  1.00  0.00     0.033 A 
ATOM      3  C   UNL     1       4.428  -3.433   2.545  1.00  0.00     0.065 A 
ATOM      4  N   UNL     1       7.459  -2.349   3.963  1.00  0.00    -0.209 NA
ATOM      5  O   UNL     1       6.686  -4.263   3.276  1.00  0.00    -0.436 OA
ATOM      6  C   UNL     1       3.647  -2.280   2.460  1.00  0.00     0.063 A 
ATOM      7  C   UNL     1       7.736  -3.622   3.823  1.00  0.00     0.227 A 
ATOM      8  C   UNL     1       6.209  -2.120   3.510  1.00  0.00     0.110 A 
ATOM      9  C   UNL     1       5.707  -3.356   3.065  1.00  0.00     0.156 A 
ENDROOT
BRANCH   6  10
ATOM     10  C   UNL     1       2.282  -2.355   1.908  1.00  0.00     0.335 C 
ATOM     11  O   UNL     1       1.654  -1.336   1.701  1.00  0.00    -0.246 OA
BRANCH  10  12
ATOM     12  O   UNL     1       1.731  -3.554   1.633  1.00  0.00    -0.478 OA
ATOM     13  H   UNL     1       1.770  -4.225   2.327  1.00  0.00     0.297 HD
ENDBRANCH  10  12
ENDBRANCH   6  10
BRANCH   7  14
ATOM     14  C   UNL     1       9.013  -4.259   4.207  1.00  0.00     0.040 A 
ATOM     15  C   UNL     1       9.271  -5.583   3.851  1.00  0.00     0.034 A 
ATOM     16  C   UNL     1       9.966  -3.537   4.929  1.00  0.00     0.034 A 
ATOM     17  C   UNL     1      10.467  -6.172   4.212  1.00  0.00     0.043 A 
ATOM     18  C   UNL     1      11.158  -4.137   5.284  1.00  0.00     0.043 A 
ATOM     19  C   UNL     1      11.408  -5.451   4.927  1.00  0.00     0.041 A 
ATOM     20  Cl  UNL     1      10.791  -7.819   3.769  1.00  0.00    -0.084 Cl
ATOM     21  Cl  UNL     1      12.344  -3.241   6.181  1.00  0.00    -0.084 Cl
ENDBRANCH   7  14
TORSDOF 3
ENDMDL
MODEL 4
REMARK VINA RESULT:    -4.779      1.908      2.970
REMARK INTER + INTRA:          -5.764
REMARK INTER:                  -5.466
REMARK INTRA:                  -0.298
REMARK UNBOUND:                -0.286
REMARK SMILES O=C(O)c1ccc2nc(-c3cc(Cl)cc(Cl)c3)oc2c1
REMARK SMILES IDX 5 1 6 2 20 3 8 4 18 5 4 6 9 7 7 8 19 9 2 10 1 11 3 12 10 14
REMARK SMILES IDX 11 15 17 16 12 17 15 18 14 19 13 20 16 21
REMARK H PARENT 3 13
ROOT
ATOM      1  C   UNL     1       4.162  -1.054   2.892  1.00  0.00     0.018 A 
ATOM      2  C   UNL     1       5.419  -0.976   3.414  1.00  0.00     0.033 A 
ATOM      3  C   UNL     1       4.435  -3.435   2.526  1.00  0.00     0.065 A 
ATOM      4  N   UNL     1       7.462  -2.359   3.959  1.00  0.00    -0.209 NA
ATOM      5  O   UNL     1       6.690  -4.269   3.261  1.00  0.00    -0.436 OA
ATOM      6  C   UNL     1       3.654  -2.281   2.444  1.00  0.00     0.063 A 
ATOM      7  C   UNL     1       7.739  -3.631   3.814  1.00  0.00     0.227 A 
ATOM      8  C   UNL     1       6.213  -2.126   3.502  1.00  0.00     0.110 A 
ATOM      9  C   UNL     1       5.712  -3.360   3.051  1.00  0.00     0.156 A 
ENDROOT
BRANCH   6  10
ATOM     10  C   UNL     1       2.291  -2.353   1.887  1.00  0.00     0.335 C 
ATOM     11  O   UNL     1       1.660  -1.334   1.691  1.00  0.00    -0.246 OA
BRANCH  10  12
ATOM     12  O   UNL     1       1.745  -3.550   1.595  1.00  0.00    -0.478 OA
ATOM     13  H   UNL     1       1.968  -3.937   0.737  1.00  0.00     0.297 HD
ENDBRANCH  10  12
ENDBRANCH   6  10
BRANCH   7  14
ATOM     14  C   UNL     1       9.014  -4.270   4.199  1.00  0.00     0.040 A 
ATOM     15  C   UNL     1       9.964  -3.554   4.929  1.00  0.00     0.034 A 
ATOM     16  C   UNL     1       9.273  -5.592   3.834  1.00  0.00     0.034 A 
ATOM     17  C   UNL     1      11.154  -4.157   5.287  1.00  0.00     0.043 A 
ATOM     18  C   UNL     1      10.466  -6.184   4.197  1.00  0.00     0.043 A 
ATOM     19  C   UNL     1      11.405  -5.469   4.921  1.00  0.00     0.041 A 
ATOM     20  Cl  UNL     1      12.337  -3.269   6.195  1.00  0.00    -0.084 Cl
ATOM     21  Cl  UNL     1      10.791  -7.829   3.744  1.00  0.00    -0.084 Cl
ENDBRANCH   7  14
TORSDOF 3
ENDMDL
MODEL 5
REMARK VINA RESULT:    -4.766      1.647      1.976
REMARK INTER + INTRA:          -5.749
REMARK INTER:                  -5.451
REMARK INTRA:                  -0.298
REMARK UNBOUND:                -0.286
REMARK SMILES O=C(O)c1ccc2nc(-c3cc(Cl)cc(Cl)c3)oc2c1
REMARK SMILES IDX 5 1 6 2 20 3 8 4 18 5 4 6 9 7 7 8 19 9 2 10 1 11 3 12 10 14
REMARK SMILES IDX 11 15 17 16 12 17 15 18 14 19 13 20 16 21
REMARK H PARENT 3 13
ROOT
ATOM      1  C   UNL     1       3.738  -2.967   2.246  1.00  0.00     0.018 A 
ATOM      2  C   UNL     1       4.683  -3.936   2.405  1.00  0.00     0.033 A 
ATOM      3  C   UNL     1       5.183  -1.347   3.326  1.00  0.00     0.065 A 
ATOM      4  N   UNL     1       6.997  -4.360   3.324  1.00  0.00    -0.209 NA
ATOM      5  O   UNL     1       7.377  -2.342   4.043  1.00  0.00    -0.436 OA
ATOM      6  C   UNL     1       3.975  -1.662   2.701  1.00  0.00     0.063 A 
ATOM      7  C   UNL     1       7.870  -3.589   3.923  1.00  0.00     0.227 A 
ATOM      8  C   UNL     1       5.898  -3.633   3.030  1.00  0.00     0.110 A 
ATOM      9  C   UNL     1       6.142  -2.328   3.494  1.00  0.00     0.156 A 
ENDROOT
BRANCH   6  10
ATOM     10  C   UNL     1       2.948  -0.621   2.517  1.00  0.00     0.335 C 
ATOM     11  O   UNL     1       3.224   0.546   2.713  1.00  0.00    -0.246 OA
BRANCH  10  12
ATOM     12  O   UNL     1       1.702  -0.963   2.134  1.00  0.00    -0.478 OA
ATOM     13  H   UNL     1       1.612  -1.417   1.286  1.00  0.00     0.297 HD
ENDBRANCH  10  12
ENDBRANCH   6  10
BRANCH   7  14
ATOM     14  C   UNL     1       9.199  -4.025   4.399  1.00  0.00     0.040 A 
ATOM     15  C   UNL     1       9.640  -5.326   4.153  1.00  0.00     0.034 A 
ATOM     16  C   UNL     1      10.019  -3.137   5.097  1.00  0.00     0.034 A 
ATOM     17  C   UNL     1      10.884  -5.727   4.600  1.00  0.00     0.043 A 
ATOM     18  C   UNL     1      11.261  -3.549   5.539  1.00  0.00     0.043 A 
ATOM     19  C   UNL     1      11.692  -4.841   5.292  1.00  0.00     0.041 A 
ATOM     20  Cl  UNL     1      11.434  -7.345   4.295  1.00  0.00    -0.084 Cl
ATOM     21  Cl  UNL     1      12.282  -2.446   6.407  1.00  0.00    -0.084 Cl
ENDBRANCH   7  14
TORSDOF 3
ENDMDL
MODEL 6
REMARK VINA RESULT:    -4.749      3.994      7.401
REMARK INTER + INTRA:          -5.729
REMARK INTER:                  -5.434
REMARK INTRA:                  -0.295
REMARK UNBOUND:                -0.286
REMARK SMILES O=C(O)c1ccc2nc(-c3cc(Cl)cc(Cl)c3)oc2c1
REMARK SMILES IDX 5 1 6 2 20 3 8 4 18 5 4 6 9 7 7 8 19 9 2 10 1 11 3 12 10 14
REMARK SMILES IDX 11 15 17 16 12 17 15 18 14 19 13 20 16 21
REMARK H PARENT 3 13
ROOT
ATOM      1  C   UNL     1      11.237  -5.121   4.938  1.00  0.00     0.018 A 
ATOM      2  C   UNL     1      10.043  -5.422   4.353  1.00  0.00     0.033 A 
ATOM      3  C   UNL     1      10.468  -2.868   5.402  1.00  0.00     0.065 A 
ATOM      4  N   UNL     1       7.784  -4.452   3.771  1.00  0.00    -0.209 NA
ATOM      5  O   UNL     1       8.125  -2.464   4.586  1.00  0.00    -0.436 OA
ATOM      6  C   UNL     1      11.464  -3.844   5.470  1.00  0.00     0.063 A 
ATOM      7  C   UNL     1       7.249  -3.271   3.958  1.00  0.00     0.227 A 
ATOM      8  C   UNL     1       9.036  -4.452   4.277  1.00  0.00     0.110 A 
ATOM      9  C   UNL     1       9.258  -3.168   4.805  1.00  0.00     0.156 A 
ENDROOT
BRANCH   6  10
ATOM     10  C   UNL     1      12.757  -3.532   6.106  1.00  0.00     0.335 C 
ATOM     11  O   UNL     1      13.092  -2.375   6.265  1.00  0.00    -0.246 OA
BRANCH  10  12
ATOM     12  O   UNL     1      13.568  -4.529   6.510  1.00  0.00    -0.478 OA
ATOM     13  H   UNL     1      13.726  -4.609   7.460  1.00  0.00     0.297 HD
ENDBRANCH  10  12
ENDBRANCH   6  10
BRANCH   7  14
ATOM     14  C   UNL     1       5.886  -2.883   3.540  1.00  0.00     0.040 A 
ATOM     15  C   UNL     1       5.611  -1.561   3.187  1.00  0.00     0.034 A 
ATOM     16  C   UNL     1       4.868  -3.838   3.498  1.00  0.00     0.034 A 
ATOM     17  C   UNL     1       4.335  -1.205   2.796  1.00  0.00     0.043 A 
ATOM     18  C   UNL     1       3.596  -3.469   3.105  1.00  0.00     0.043 A 
ATOM     19  C   UNL     1       3.330  -2.156   2.756  1.00  0.00     0.041 A 
ATOM     20  Cl  UNL     1       3.991   0.438   2.356  1.00  0.00    -0.084 Cl
ATOM     21  Cl  UNL     1       2.329  -4.655   3.052  1.00  0.00    -0.084 Cl
ENDBRANCH   7  14
TORSDOF 3
ENDMDL
MODEL 7
REMARK VINA RESULT:    -4.747      3.958      7.507
REMARK INTER + INTRA:          -5.727
REMARK INTER:                  -5.443
REMARK INTRA:                  -0.284
REMARK UNBOUND:                -0.286
REMARK SMILES O=C(O)c1ccc2nc(-c3cc(Cl)cc(Cl)c3)oc2c1
REMARK SMILES IDX 5 1 6 2 20 3 8 4 18 5 4 6 9 7 7 8 19 9 2 10 1 11 3 12 10 14
REMARK SMILES IDX 11 15 17 16 12 17 15 18 14 19 13 20 16 21
REMARK H PARENT 3 13
ROOT
ATOM      1  C   UNL     1      11.209  -5.349   4.942  1.00  0.00     0.018 A 
ATOM      2  C   UNL     1      10.458  -4.211   4.938  1.00  0.00     0.033 A 
ATOM      3  C   UNL     1       9.524  -6.494   3.628  1.00  0.00     0.065 A 
ATOM      4  N   UNL     1       8.279  -3.239   4.108  1.00  0.00    -0.209 NA
ATOM      5  O   UNL     1       7.556  -5.023   3.094  1.00  0.00    -0.436 OA
ATOM      6  C   UNL     1      10.754  -6.502   4.287  1.00  0.00     0.063 A 
ATOM      7  C   UNL     1       7.295  -3.739   3.403  1.00  0.00     0.227 A 
ATOM      8  C   UNL     1       9.222  -4.190   4.281  1.00  0.00     0.110 A 
ATOM      9  C   UNL     1       8.757  -5.344   3.626  1.00  0.00     0.156 A 
ENDROOT
BRANCH   6  10
ATOM     10  C   UNL     1      11.578  -7.724   4.293  1.00  0.00     0.335 C 
ATOM     11  O   UNL     1      11.469  -8.525   5.200  1.00  0.00    -0.246 OA
BRANCH  10  12
ATOM     12  O   UNL     1      12.453  -7.953   3.294  1.00  0.00    -0.478 OA
ATOM     13  H   UNL     1      13.375  -8.101   3.543  1.00  0.00     0.297 HD
ENDBRANCH  10  12
ENDBRANCH   6  10
BRANCH   7  14
ATOM     14  C   UNL     1       6.077  -3.002   3.007  1.00  0.00     0.040 A 
ATOM     15  C   UNL     1       4.861  -3.675   2.878  1.00  0.00     0.034 A 
ATOM     16  C   UNL     1       6.139  -1.629   2.760  1.00  0.00     0.034 A 
ATOM     17  C   UNL     1       3.726  -2.980   2.509  1.00  0.00     0.043 A 
ATOM     18  C   UNL     1       4.997  -0.946   2.391  1.00  0.00     0.043 A 
ATOM     19  C   UNL     1       3.794  -1.619   2.265  1.00  0.00     0.041 A 
ATOM     20  Cl  UNL     1       2.213  -3.814   2.349  1.00  0.00    -0.084 Cl
ATOM     21  Cl  UNL     1       5.072   0.762   2.083  1.00  0.00    -0.084 Cl
ENDBRANCH   7  14
TORSDOF 3
ENDMDL
MODEL 8
REMARK VINA RESULT:    -4.746      3.996      7.217
REMARK INTER + INTRA:          -5.726
REMARK INTER:                  -5.432
REMARK INTRA:                  -0.294
REMARK UNBOUND:                -0.286
REMARK SMILES O=C(O)c1ccc2nc(-c3cc(Cl)cc(Cl)c3)oc2c1
REMARK SMILES IDX 5 1 6 2 20 3 8 4 18 5 4 6 9 7 7 8 19 9 2 10 1 11 3 12 10 14
REMARK SMILES IDX 11 15 17 16 12 17 15 18 14 19 13 20 16 21
REMARK H PARENT 3 13
ROOT
ATOM      1  C   UNL     1      11.248  -5.110   4.944  1.00  0.00     0.018 A 
ATOM      2  C   UNL     1      10.057  -5.412   4.355  1.00  0.00     0.033 A 
ATOM      3  C   UNL     1      10.473  -2.861   5.413  1.00  0.00     0.065 A 
ATOM      4  N   UNL     1       7.797  -4.446   3.770  1.00  0.00    -0.209 NA
ATOM      5  O   UNL     1       8.131  -2.460   4.593  1.00  0.00    -0.436 OA
ATOM      6  C   UNL     1      11.471  -3.835   5.481  1.00  0.00     0.063 A 
ATOM      7  C   UNL     1       7.259  -3.267   3.960  1.00  0.00     0.227 A 
ATOM      8  C   UNL     1       9.047  -4.445   4.279  1.00  0.00     0.110 A 
ATOM      9  C   UNL     1       9.265  -3.162   4.812  1.00  0.00     0.156 A 
ENDROOT
BRANCH   6  10
ATOM     10  C   UNL     1      12.761  -3.522   6.122  1.00  0.00     0.335 C 
ATOM     11  O   UNL     1      13.089  -2.364   6.293  1.00  0.00    -0.246 OA
BRANCH  10  12
ATOM     12  O   UNL     1      13.578  -4.519   6.517  1.00  0.00    -0.478 OA
ATOM     13  H   UNL     1      13.741  -4.603   7.465  1.00  0.00     0.297 HD
ENDBRANCH  10  12
ENDBRANCH   6  10
BRANCH   7  14
ATOM     14  C   UNL     1       5.896  -2.881   3.539  1.00  0.00     0.040 A 
ATOM     15  C   UNL     1       4.877  -3.834   3.500  1.00  0.00     0.034 A 
ATOM     16  C   UNL     1       5.623  -1.560   3.178  1.00  0.00     0.034 A 
ATOM     17  C   UNL     1       3.606  -3.466   3.108  1.00  0.00     0.043 A 
ATOM     18  C   UNL     1       4.347  -1.204   2.787  1.00  0.00     0.043 A 
ATOM     19  C   UNL     1       3.341  -2.155   2.750  1.00  0.00     0.041 A 
ATOM     20  Cl  UNL     1       2.337  -4.649   3.059  1.00  0.00    -0.084 Cl
ATOM     21  Cl  UNL     1       4.005   0.438   2.337  1.00  0.00    -0.084 Cl
ENDBRANCH   7  14
TORSDOF 3
ENDMDL
MODEL 9
REMARK VINA RESULT:    -4.745      3.956      7.708
REMARK INTER + INTRA:          -5.725
REMARK INTER:                  -5.441
REMARK INTRA:                  -0.284
REMARK UNBOUND:                -0.286
REMARK SMILES O=C(O)c1ccc2nc(-c3cc(Cl)cc(Cl)c3)oc2c1
REMARK SMILES IDX 5 1 6 2 20 3 8 4 18 5 4 6 9 7 7 8 19 9 2 10 1 11 3 12 10 14
REMARK SMILES IDX 11 15 17 16 12 17 15 18 14 19 13 20 16 21
REMARK H PARENT 3 13
ROOT
ATOM      1  C   UNL     1      11.206  -5.343   4.939  1.00  0.00     0.018 A 
ATOM      2  C   UNL     1      10.458  -4.204   4.938  1.00  0.00     0.033 A 
ATOM      3  C   UNL     1       9.520  -6.479   3.617  1.00  0.00     0.065 A 
ATOM      4  N   UNL     1       8.283  -3.223   4.107  1.00  0.00    -0.209 NA
ATOM      5  O   UNL     1       7.558  -5.001   3.085  1.00  0.00    -0.436 OA
ATOM      6  C   UNL     1      10.749  -6.493   4.279  1.00  0.00     0.063 A 
ATOM      7  C   UNL     1       7.299  -3.717   3.399  1.00  0.00     0.227 A 
ATOM      8  C   UNL     1       9.223  -4.177   4.278  1.00  0.00     0.110 A 
ATOM      9  C   UNL     1       8.756  -5.327   3.618  1.00  0.00     0.156 A 
ENDROOT
BRANCH   6  10
ATOM     10  C   UNL     1      11.569  -7.717   4.282  1.00  0.00     0.335 C 
ATOM     11  O   UNL     1      11.452  -8.525   5.182  1.00  0.00    -0.246 OA
BRANCH  10  12
ATOM     12  O   UNL     1      12.450  -7.941   3.286  1.00  0.00    -0.478 OA
ATOM     13  H   UNL     1      12.091  -8.030   2.394  1.00  0.00     0.297 HD
ENDBRANCH  10  12
ENDBRANCH   6  10
BRANCH   7  14
ATOM     14  C   UNL     1       6.084  -2.975   3.003  1.00  0.00     0.040 A 
ATOM     15  C   UNL     1       6.148  -1.603   2.762  1.00  0.00     0.034 A 
ATOM     16  C   UNL     1       4.866  -3.646   2.871  1.00  0.00     0.034 A 
ATOM     17  C   UNL     1       5.009  -0.915   2.391  1.00  0.00     0.043 A 
ATOM     18  C   UNL     1       3.734  -2.948   2.500  1.00  0.00     0.043 A 
ATOM     19  C   UNL     1       3.804  -1.586   2.262  1.00  0.00     0.041 A 
ATOM     20  Cl  UNL     1       5.087   0.792   2.089  1.00  0.00    -0.084 Cl
ATOM     21  Cl  UNL     1       2.219  -3.779   2.335  1.00  0.00    -0.084 Cl
ENDBRANCH   7  14
TORSDOF 3
ENDMDL
