MODEL 1
REMARK VINA RESULT:    -5.796      0.000      0.000
REMARK INTER + INTRA:          -8.692
REMARK INTER:                  -7.998
REMARK INTRA:                  -0.695
REMARK UNBOUND:                -0.695
REMARK SMILES Cc1n[nH]c(C)c1CCCOc1cc(C(=O)O)ccc1F
REMARK SMILES IDX 11 1 12 2 14 3 18 4 13 5 19 6 20 7 21 8 15 9 16 10 17 11
REMARK SMILES IDX 10 13 9 14 8 15 7 16 5 17 2 18 4 19 3 20 6 21 1 22
REMARK H PARENT 17 12 4 23
ROOT
ATOM      1  O   UNL     1       5.431  -3.647   5.039  1.00  0.00    -0.490 OA
ENDROOT
BRANCH   1   2
ATOM      2  C   UNL     1       4.764  -2.939   4.089  1.00  0.00     0.155 A 
ATOM      3  C   UNL     1       4.568  -0.994   2.688  1.00  0.00     0.063 A 
ATOM      4  C   UNL     1       3.394  -1.513   2.138  1.00  0.00     0.019 A 
ATOM      5  C   UNL     1       5.253  -1.716   3.669  1.00  0.00     0.065 A 
ATOM      6  C   UNL     1       2.918  -2.737   2.559  1.00  0.00     0.044 A 
ATOM      7  C   UNL     1       3.601  -3.454   3.528  1.00  0.00     0.165 A 
ATOM      8  F   UNL     1       3.129  -4.652   3.936  1.00  0.00    -0.203 F 
BRANCH   3   9
ATOM      9  C   UNL     1       5.081   0.315   2.240  1.00  0.00     0.335 C 
ATOM     10  O   UNL     1       5.710   1.016   3.006  1.00  0.00    -0.246 OA
BRANCH   9  11
ATOM     11  O   UNL     1       4.855   0.730   0.978  1.00  0.00    -0.478 OA
ATOM     12  H   UNL     1       4.291   0.171   0.426  1.00  0.00     0.297 HD
ENDBRANCH   9  11
ENDBRANCH   3   9
ENDBRANCH   1   2
BRANCH   1  13
ATOM     13  C   UNL     1       6.401  -4.593   4.583  1.00  0.00     0.230 C 
BRANCH  13  14
ATOM     14  C   UNL     1       7.756  -4.279   5.218  1.00  0.00     0.046 C 
BRANCH  14  15
ATOM     15  C   UNL     1       8.802  -4.083   4.118  1.00  0.00     0.043 C 
BRANCH  15  16
ATOM     16  C   UNL     1      10.060  -4.827   4.481  1.00  0.00    -0.004 A 
ATOM     17  C   UNL     1      10.357  -6.103   4.142  1.00  0.00     0.036 A 
ATOM     18  C   UNL     1      11.132  -4.320   5.223  1.00  0.00     0.063 A 
ATOM     19  N   UNL     1      11.570  -6.395   4.657  1.00  0.00    -0.282 N 
ATOM     20  N   UNL     1      12.034  -5.260   5.336  1.00  0.00    -0.181 NA
ATOM     21  C   UNL     1       9.488  -7.032   3.334  1.00  0.00     0.066 C 
ATOM     22  C   UNL     1      11.226  -2.932   5.805  1.00  0.00     0.069 C 
ATOM     23  H   UNL     1      12.037  -7.241   4.574  1.00  0.00     0.190 HD
ENDBRANCH  15  16
ENDBRANCH  14  15
ENDBRANCH  13  14
ENDBRANCH   1  13
TORSDOF 7
ENDMDL
MODEL 2
REMARK VINA RESULT:    -5.783      0.295      1.784
REMARK INTER + INTRA:          -8.675
REMARK INTER:                  -8.009
REMARK INTRA:                  -0.666
REMARK UNBOUND:                -0.695
REMARK SMILES Cc1n[nH]c(C)c1CCCOc1cc(C(=O)O)ccc1F
REMARK SMILES IDX 11 1 12 2 14 3 18 4 13 5 19 6 20 7 21 8 15 9 16 10 17 11
REMARK SMILES IDX 10 13 9 14 8 15 7 16 5 17 2 18 4 19 3 20 6 21 1 22
REMARK H PARENT 17 12 4 23
ROOT
ATOM      1  O   UNL     1       5.308  -3.570   5.205  1.00  0.00    -0.490 OA
ENDROOT
BRANCH   1   2
ATOM      2  C   UNL     1       4.697  -2.909   4.186  1.00  0.00     0.155 A 
ATOM      3  C   UNL     1       4.565  -1.020   2.704  1.00  0.00     0.063 A 
ATOM      4  C   UNL     1       3.439  -1.581   2.095  1.00  0.00     0.019 A 
ATOM      5  C   UNL     1       5.192  -1.693   3.754  1.00  0.00     0.065 A 
ATOM      6  C   UNL     1       2.955  -2.797   2.528  1.00  0.00     0.044 A 
ATOM      7  C   UNL     1       3.582  -3.465   3.567  1.00  0.00     0.165 A 
ATOM      8  F   UNL     1       3.104  -4.657   3.986  1.00  0.00    -0.203 F 
BRANCH   3   9
ATOM      9  C   UNL     1       5.085   0.282   2.243  1.00  0.00     0.335 C 
ATOM     10  O   UNL     1       5.697   0.998   3.009  1.00  0.00    -0.246 OA
BRANCH   9  11
ATOM     11  O   UNL     1       4.886   0.673   0.969  1.00  0.00    -0.478 OA
ATOM     12  H   UNL     1       4.627  -0.010   0.335  1.00  0.00     0.297 HD
ENDBRANCH   9  11
ENDBRANCH   3   9
ENDBRANCH   1   2
BRANCH   1  13
ATOM     13  C   UNL     1       6.166  -4.657   4.850  1.00  0.00     0.230 C 
BRANCH  13  14
ATOM     14  C   UNL     1       7.564  -4.408   5.417  1.00  0.00     0.046 C 
BRANCH  14  15
ATOM     15  C   UNL     1       8.523  -4.061   4.276  1.00  0.00     0.043 C 
BRANCH  15  16
ATOM     16  C   UNL     1       9.899  -4.583   4.598  1.00  0.00    -0.004 A 
ATOM     17  C   UNL     1      10.864  -3.918   5.276  1.00  0.00     0.036 A 
ATOM     18  C   UNL     1      10.403  -5.842   4.256  1.00  0.00     0.063 A 
ATOM     19  N   UNL     1      11.943  -4.726   5.353  1.00  0.00    -0.282 N 
ATOM     20  N   UNL     1      11.630  -5.927   4.702  1.00  0.00    -0.181 NA
ATOM     21  C   UNL     1      10.754  -2.527   5.842  1.00  0.00     0.066 C 
ATOM     22  C   UNL     1       9.664  -6.912   3.494  1.00  0.00     0.069 C 
ATOM     23  H   UNL     1      12.785  -4.513   5.783  1.00  0.00     0.190 HD
ENDBRANCH  15  16
ENDBRANCH  14  15
ENDBRANCH  13  14
ENDBRANCH   1  13
TORSDOF 7
ENDMDL
MODEL 3
REMARK VINA RESULT:    -5.781      2.219      3.753
REMARK INTER + INTRA:          -8.672
REMARK INTER:                  -8.040
REMARK INTRA:                  -0.632
REMARK UNBOUND:                -0.695
REMARK SMILES Cc1n[nH]c(C)c1CCCOc1cc(C(=O)O)ccc1F
REMARK SMILES IDX 11 1 12 2 14 3 18 4 13 5 19 6 20 7 21 8 15 9 16 10 17 11
REMARK SMILES IDX 10 13 9 14 8 15 7 16 5 17 2 18 4 19 3 20 6 21 1 22
REMARK H PARENT 17 12 4 23
ROOT
ATOM      1  O   UNL     1       7.005  -2.439   1.613  1.00  0.00    -0.490 OA
ENDROOT
BRANCH   1   2
ATOM      2  C   UNL     1       5.710  -2.311   2.007  1.00  0.00     0.155 A 
ATOM      3  C   UNL     1       3.650  -3.298   2.760  1.00  0.00     0.063 A 
ATOM      4  C   UNL     1       3.069  -2.029   2.819  1.00  0.00     0.019 A 
ATOM      5  C   UNL     1       4.979  -3.433   2.351  1.00  0.00     0.065 A 
ATOM      6  C   UNL     1       3.808  -0.915   2.480  1.00  0.00     0.044 A 
ATOM      7  C   UNL     1       5.127  -1.051   2.079  1.00  0.00     0.165 A 
ATOM      8  F   UNL     1       5.846   0.044   1.748  1.00  0.00    -0.203 F 
BRANCH   3   9
ATOM      9  C   UNL     1       2.862  -4.492   3.122  1.00  0.00     0.335 C 
ATOM     10  O   UNL     1       3.180  -5.583   2.695  1.00  0.00    -0.246 OA
BRANCH   9  11
ATOM     11  O   UNL     1       1.793  -4.372   3.933  1.00  0.00    -0.478 OA
ATOM     12  H   UNL     1       1.216  -5.144   4.017  1.00  0.00     0.297 HD
ENDBRANCH   9  11
ENDBRANCH   3   9
ENDBRANCH   1   2
BRANCH   1  13
ATOM     13  C   UNL     1       8.011  -2.083   2.565  1.00  0.00     0.230 C 
BRANCH  13  14
ATOM     14  C   UNL     1       8.946  -3.273   2.787  1.00  0.00     0.046 C 
BRANCH  14  15
ATOM     15  C   UNL     1       8.797  -3.779   4.223  1.00  0.00     0.043 C 
BRANCH  15  16
ATOM     16  C   UNL     1      10.139  -4.224   4.742  1.00  0.00    -0.004 A 
ATOM     17  C   UNL     1      11.005  -3.472   5.461  1.00  0.00     0.036 A 
ATOM     18  C   UNL     1      10.709  -5.490   4.571  1.00  0.00     0.063 A 
ATOM     19  N   UNL     1      12.086  -4.234   5.730  1.00  0.00    -0.282 N 
ATOM     20  N   UNL     1      11.879  -5.495   5.156  1.00  0.00    -0.181 NA
ATOM     21  C   UNL     1      10.797  -2.042   5.886  1.00  0.00     0.066 C 
ATOM     22  C   UNL     1      10.088  -6.646   3.828  1.00  0.00     0.069 C 
ATOM     23  H   UNL     1      12.869  -3.956   6.230  1.00  0.00     0.190 HD
ENDBRANCH  15  16
ENDBRANCH  14  15
ENDBRANCH  13  14
ENDBRANCH   1  13
TORSDOF 7
ENDMDL
MODEL 4
REMARK VINA RESULT:    -5.777      2.223      3.323
REMARK INTER + INTRA:          -8.667
REMARK INTER:                  -8.035
REMARK INTRA:                  -0.632
REMARK UNBOUND:                -0.695
REMARK SMILES Cc1n[nH]c(C)c1CCCOc1cc(C(=O)O)ccc1F
REMARK SMILES IDX 11 1 12 2 14 3 18 4 13 5 19 6 20 7 21 8 15 9 16 10 17 11
REMARK SMILES IDX 10 13 9 14 8 15 7 16 5 17 2 18 4 19 3 20 6 21 1 22
REMARK H PARENT 17 12 4 23
ROOT
ATOM      1  O   UNL     1       6.971  -2.404   1.497  1.00  0.00    -0.490 OA
ENDROOT
BRANCH   1   2
ATOM      2  C   UNL     1       5.686  -2.278   1.924  1.00  0.00     0.155 A 
ATOM      3  C   UNL     1       3.644  -3.267   2.721  1.00  0.00     0.063 A 
ATOM      4  C   UNL     1       3.065  -1.998   2.802  1.00  0.00     0.019 A 
ATOM      5  C   UNL     1       4.962  -3.401   2.279  1.00  0.00     0.065 A 
ATOM      6  C   UNL     1       3.797  -0.883   2.451  1.00  0.00     0.044 A 
ATOM      7  C   UNL     1       5.106  -1.018   2.017  1.00  0.00     0.165 A 
ATOM      8  F   UNL     1       5.817   0.079   1.675  1.00  0.00    -0.203 F 
BRANCH   3   9
ATOM      9  C   UNL     1       2.864  -4.462   3.096  1.00  0.00     0.335 C 
ATOM     10  O   UNL     1       3.166  -5.550   2.649  1.00  0.00    -0.246 OA
BRANCH   9  11
ATOM     11  O   UNL     1       1.820  -4.347   3.940  1.00  0.00    -0.478 OA
ATOM     12  H   UNL     1       1.007  -4.813   3.700  1.00  0.00     0.297 HD
ENDBRANCH   9  11
ENDBRANCH   3   9
ENDBRANCH   1   2
BRANCH   1  13
ATOM     13  C   UNL     1       7.999  -2.024   2.415  1.00  0.00     0.230 C 
BRANCH  13  14
ATOM     14  C   UNL     1       8.941  -3.208   2.643  1.00  0.00     0.046 C 
BRANCH  14  15
ATOM     15  C   UNL     1       8.689  -3.800   4.031  1.00  0.00     0.043 C 
BRANCH  15  16
ATOM     16  C   UNL     1       9.975  -4.364   4.579  1.00  0.00    -0.004 A 
ATOM     17  C   UNL     1      10.443  -5.618   4.381  1.00  0.00     0.036 A 
ATOM     18  C   UNL     1      10.899  -3.680   5.376  1.00  0.00     0.063 A 
ATOM     19  N   UNL     1      11.618  -5.727   5.035  1.00  0.00    -0.282 N 
ATOM     20  N   UNL     1      11.881  -4.498   5.656  1.00  0.00    -0.181 NA
ATOM     21  C   UNL     1       9.772  -6.699   3.575  1.00  0.00     0.066 C 
ATOM     22  C   UNL     1      10.779  -2.252   5.842  1.00  0.00     0.069 C 
ATOM     23  H   UNL     1      12.181  -6.516   5.071  1.00  0.00     0.190 HD
ENDBRANCH  15  16
ENDBRANCH  14  15
ENDBRANCH  13  14
ENDBRANCH   1  13
TORSDOF 7
ENDMDL
MODEL 5
REMARK VINA RESULT:    -4.910      3.925      7.167
REMARK INTER + INTRA:          -7.470
REMARK INTER:                  -6.649
REMARK INTRA:                  -0.821
REMARK UNBOUND:                -0.695
REMARK SMILES Cc1n[nH]c(C)c1CCCOc1cc(C(=O)O)ccc1F
REMARK SMILES IDX 11 1 12 2 14 3 18 4 13 5 19 6 20 7 21 8 15 9 16 10 17 11
REMARK SMILES IDX 10 13 9 14 8 15 7 16 5 17 2 18 4 19 3 20 6 21 1 22
REMARK H PARENT 17 12 4 23
ROOT
ATOM      1  O   UNL     1       7.684  -2.518   4.018  1.00  0.00    -0.490 OA
ENDROOT
BRANCH   1   2
ATOM      2  C   UNL     1       8.696  -3.396   4.250  1.00  0.00     0.155 A 
ATOM      3  C   UNL     1       9.720  -5.542   3.893  1.00  0.00     0.063 A 
ATOM      4  C   UNL     1      10.777  -5.173   4.729  1.00  0.00     0.019 A 
ATOM      5  C   UNL     1       8.677  -4.644   3.656  1.00  0.00     0.065 A 
ATOM      6  C   UNL     1      10.790  -3.923   5.313  1.00  0.00     0.044 A 
ATOM      7  C   UNL     1       9.756  -3.033   5.072  1.00  0.00     0.165 A 
ATOM      8  F   UNL     1       9.775  -1.810   5.647  1.00  0.00    -0.203 F 
BRANCH   3   9
ATOM      9  C   UNL     1       9.704  -6.878   3.266  1.00  0.00     0.335 C 
ATOM     10  O   UNL     1       9.056  -7.775   3.766  1.00  0.00    -0.246 OA
BRANCH   9  11
ATOM     11  O   UNL     1      10.403  -7.101   2.136  1.00  0.00    -0.478 OA
ATOM     12  H   UNL     1      11.047  -6.427   1.879  1.00  0.00     0.297 HD
ENDBRANCH   9  11
ENDBRANCH   3   9
ENDBRANCH   1   2
BRANCH   1  13
ATOM     13  C   UNL     1       7.178  -2.449   2.682  1.00  0.00     0.230 C 
BRANCH  13  14
ATOM     14  C   UNL     1       5.980  -1.499   2.640  1.00  0.00     0.046 C 
BRANCH  14  15
ATOM     15  C   UNL     1       5.176  -1.634   3.934  1.00  0.00     0.043 C 
BRANCH  15  16
ATOM     16  C   UNL     1       4.164  -2.740   3.785  1.00  0.00    -0.004 A 
ATOM     17  C   UNL     1       3.094  -2.734   2.956  1.00  0.00     0.036 A 
ATOM     18  C   UNL     1       4.168  -3.958   4.473  1.00  0.00     0.063 A 
ATOM     19  N   UNL     1       2.441  -3.904   3.119  1.00  0.00    -0.282 N 
ATOM     20  N   UNL     1       3.132  -4.653   4.081  1.00  0.00    -0.181 NA
ATOM     21  C   UNL     1       2.703  -1.622   2.019  1.00  0.00     0.066 C 
ATOM     22  C   UNL     1       5.184  -4.389   5.500  1.00  0.00     0.069 C 
ATOM     23  H   UNL     1       1.635  -4.177   2.655  1.00  0.00     0.190 HD
ENDBRANCH  15  16
ENDBRANCH  14  15
ENDBRANCH  13  14
ENDBRANCH   1  13
TORSDOF 7
ENDMDL
MODEL 6
REMARK VINA RESULT:    -4.873      3.921      7.172
REMARK INTER + INTRA:          -7.419
REMARK INTER:                  -6.586
REMARK INTRA:                  -0.833
REMARK UNBOUND:                -0.695
REMARK SMILES Cc1n[nH]c(C)c1CCCOc1cc(C(=O)O)ccc1F
REMARK SMILES IDX 11 1 12 2 14 3 18 4 13 5 19 6 20 7 21 8 15 9 16 10 17 11
REMARK SMILES IDX 10 13 9 14 8 15 7 16 5 17 2 18 4 19 3 20 6 21 1 22
REMARK H PARENT 17 12 4 23
ROOT
ATOM      1  O   UNL     1       7.684  -2.525   4.080  1.00  0.00    -0.490 OA
ENDROOT
BRANCH   1   2
ATOM      2  C   UNL     1       8.699  -3.407   4.279  1.00  0.00     0.155 A 
ATOM      3  C   UNL     1       9.721  -5.542   3.857  1.00  0.00     0.063 A 
ATOM      4  C   UNL     1      10.787  -5.192   4.690  1.00  0.00     0.019 A 
ATOM      5  C   UNL     1       8.675  -4.640   3.655  1.00  0.00     0.065 A 
ATOM      6  C   UNL     1      10.805  -3.957   5.304  1.00  0.00     0.044 A 
ATOM      7  C   UNL     1       9.769  -3.062   5.097  1.00  0.00     0.165 A 
ATOM      8  F   UNL     1       9.792  -1.853   5.701  1.00  0.00    -0.203 F 
BRANCH   3   9
ATOM      9  C   UNL     1       9.699  -6.863   3.199  1.00  0.00     0.335 C 
ATOM     10  O   UNL     1       9.070  -7.777   3.692  1.00  0.00    -0.246 OA
BRANCH   9  11
ATOM     11  O   UNL     1      10.373  -7.053   2.047  1.00  0.00    -0.478 OA
ATOM     12  H   UNL     1      11.006  -6.367   1.791  1.00  0.00     0.297 HD
ENDBRANCH   9  11
ENDBRANCH   3   9
ENDBRANCH   1   2
BRANCH   1  13
ATOM     13  C   UNL     1       7.190  -2.394   2.744  1.00  0.00     0.230 C 
BRANCH  13  14
ATOM     14  C   UNL     1       5.989  -1.447   2.735  1.00  0.00     0.046 C 
BRANCH  14  15
ATOM     15  C   UNL     1       5.164  -1.658   4.007  1.00  0.00     0.043 C 
BRANCH  15  16
ATOM     16  C   UNL     1       4.178  -2.776   3.788  1.00  0.00    -0.004 A 
ATOM     17  C   UNL     1       4.182  -3.975   4.416  1.00  0.00     0.036 A 
ATOM     18  C   UNL     1       3.094  -2.757   2.903  1.00  0.00     0.063 A 
ATOM     19  N   UNL     1       3.141  -4.691   3.941  1.00  0.00    -0.282 N 
ATOM     20  N   UNL     1       2.476  -3.907   2.989  1.00  0.00    -0.181 NA
ATOM     21  C   UNL     1       5.170  -4.428   5.458  1.00  0.00     0.066 C 
ATOM     22  C   UNL     1       2.712  -1.614   1.998  1.00  0.00     0.069 C 
ATOM     23  H   UNL     1       2.897  -5.590   4.210  1.00  0.00     0.190 HD
ENDBRANCH  15  16
ENDBRANCH  14  15
ENDBRANCH  13  14
ENDBRANCH   1  13
TORSDOF 7
ENDMDL
MODEL 7
REMARK VINA RESULT:    -4.852      3.891      6.741
REMARK INTER + INTRA:          -7.390
REMARK INTER:                  -6.604
REMARK INTRA:                  -0.786
REMARK UNBOUND:                -0.695
REMARK SMILES Cc1n[nH]c(C)c1CCCOc1cc(C(=O)O)ccc1F
REMARK SMILES IDX 11 1 12 2 14 3 18 4 13 5 19 6 20 7 21 8 15 9 16 10 17 11
REMARK SMILES IDX 10 13 9 14 8 15 7 16 5 17 2 18 4 19 3 20 6 21 1 22
REMARK H PARENT 17 12 4 23
ROOT
ATOM      1  O   UNL     1       7.035  -4.536   3.417  1.00  0.00    -0.490 OA
ENDROOT
BRANCH   1   2
ATOM      2  C   UNL     1       8.296  -4.568   3.924  1.00  0.00     0.155 A 
ATOM      3  C   UNL     1      10.064  -3.540   5.189  1.00  0.00     0.063 A 
ATOM      4  C   UNL     1      10.871  -4.657   4.961  1.00  0.00     0.019 A 
ATOM      5  C   UNL     1       8.770  -3.502   4.665  1.00  0.00     0.065 A 
ATOM      6  C   UNL     1      10.387  -5.719   4.226  1.00  0.00     0.044 A 
ATOM      7  C   UNL     1       9.102  -5.681   3.711  1.00  0.00     0.165 A 
ATOM      8  F   UNL     1       8.634  -6.725   2.992  1.00  0.00    -0.203 F 
BRANCH   3   9
ATOM      9  C   UNL     1      10.578  -2.402   5.975  1.00  0.00     0.335 C 
ATOM     10  O   UNL     1      11.101  -1.462   5.413  1.00  0.00    -0.246 OA
BRANCH   9  11
ATOM     11  O   UNL     1      10.462  -2.404   7.318  1.00  0.00    -0.478 OA
ATOM     12  H   UNL     1      10.682  -1.583   7.779  1.00  0.00     0.297 HD
ENDBRANCH   9  11
ENDBRANCH   3   9
ENDBRANCH   1   2
BRANCH   1  13
ATOM     13  C   UNL     1       6.046  -3.841   4.180  1.00  0.00     0.230 C 
BRANCH  13  14
ATOM     14  C   UNL     1       4.711  -3.872   3.432  1.00  0.00     0.046 C 
BRANCH  14  15
ATOM     15  C   UNL     1       4.922  -3.400   1.992  1.00  0.00     0.043 C 
BRANCH  15  16
ATOM     16  C   UNL     1       5.004  -1.896   1.961  1.00  0.00    -0.004 A 
ATOM     17  C   UNL     1       3.981  -1.038   2.183  1.00  0.00     0.036 A 
ATOM     18  C   UNL     1       6.152  -1.139   1.705  1.00  0.00     0.063 A 
ATOM     19  N   UNL     1       4.464   0.217   2.065  1.00  0.00    -0.282 N 
ATOM     20  N   UNL     1       5.828   0.127   1.760  1.00  0.00    -0.181 NA
ATOM     21  C   UNL     1       2.559  -1.416   2.505  1.00  0.00     0.066 C 
ATOM     22  C   UNL     1       7.524  -1.688   1.405  1.00  0.00     0.069 C 
ATOM     23  H   UNL     1       3.956   1.036   2.171  1.00  0.00     0.190 HD
ENDBRANCH  15  16
ENDBRANCH  14  15
ENDBRANCH  13  14
ENDBRANCH   1  13
TORSDOF 7
ENDMDL
MODEL 8
REMARK VINA RESULT:    -4.627      3.867      6.811
REMARK INTER + INTRA:          -7.079
REMARK INTER:                  -6.316
REMARK INTRA:                  -0.763
REMARK UNBOUND:                -0.695
REMARK SMILES Cc1n[nH]c(C)c1CCCOc1cc(C(=O)O)ccc1F
REMARK SMILES IDX 11 1 12 2 14 3 18 4 13 5 19 6 20 7 21 8 15 9 16 10 17 11
REMARK SMILES IDX 10 13 9 14 8 15 7 16 5 17 2 18 4 19 3 20 6 21 1 22
REMARK H PARENT 17 12 4 23
ROOT
ATOM      1  O   UNL     1       7.520  -3.574   3.091  1.00  0.00    -0.490 OA
ENDROOT
BRANCH   1   2
ATOM      2  C   UNL     1       8.649  -3.843   3.799  1.00  0.00     0.155 A 
ATOM      3  C   UNL     1      10.373  -3.147   5.323  1.00  0.00     0.063 A 
ATOM      4  C   UNL     1      10.951  -4.417   5.244  1.00  0.00     0.019 A 
ATOM      5  C   UNL     1       9.216  -2.865   4.594  1.00  0.00     0.065 A 
ATOM      6  C   UNL     1      10.374  -5.388   4.453  1.00  0.00     0.044 A 
ATOM      7  C   UNL     1       9.224  -5.108   3.734  1.00  0.00     0.165 A 
ATOM      8  F   UNL     1       8.664  -6.064   2.961  1.00  0.00    -0.203 F 
BRANCH   3   9
ATOM      9  C   UNL     1      10.988  -2.105   6.169  1.00  0.00     0.335 C 
ATOM     10  O   UNL     1      10.507  -0.991   6.207  1.00  0.00    -0.246 OA
BRANCH   9  11
ATOM     11  O   UNL     1      12.079  -2.393   6.905  1.00  0.00    -0.478 OA
ATOM     12  H   UNL     1      12.722  -1.682   7.034  1.00  0.00     0.297 HD
ENDBRANCH   9  11
ENDBRANCH   3   9
ENDBRANCH   1   2
BRANCH   1  13
ATOM     13  C   UNL     1       7.482  -2.337   2.374  1.00  0.00     0.230 C 
BRANCH  13  14
ATOM     14  C   UNL     1       6.030  -1.882   2.219  1.00  0.00     0.046 C 
BRANCH  14  15
ATOM     15  C   UNL     1       5.358  -1.843   3.593  1.00  0.00     0.043 C 
BRANCH  15  16
ATOM     16  C   UNL     1       4.241  -2.852   3.636  1.00  0.00    -0.004 A 
ATOM     17  C   UNL     1       3.103  -2.813   2.903  1.00  0.00     0.036 A 
ATOM     18  C   UNL     1       4.199  -4.000   4.435  1.00  0.00     0.063 A 
ATOM     19  N   UNL     1       2.365  -3.894   3.232  1.00  0.00    -0.282 N 
ATOM     20  N   UNL     1       3.072  -4.621   4.199  1.00  0.00    -0.181 NA
ATOM     21  C   UNL     1       2.729  -1.753   1.901  1.00  0.00     0.066 C 
ATOM     22  C   UNL     1       5.263  -4.438   5.409  1.00  0.00     0.069 C 
ATOM     23  H   UNL     1       1.498  -4.126   2.865  1.00  0.00     0.190 HD
ENDBRANCH  15  16
ENDBRANCH  14  15
ENDBRANCH  13  14
ENDBRANCH   1  13
TORSDOF 7
ENDMDL
MODEL 9
REMARK VINA RESULT:    -4.589      4.063      7.252
REMARK INTER + INTRA:          -7.027
REMARK INTER:                  -6.447
REMARK INTRA:                  -0.581
REMARK UNBOUND:                -0.695
REMARK SMILES Cc1n[nH]c(C)c1CCCOc1cc(C(=O)O)ccc1F
REMARK SMILES IDX 11 1 12 2 14 3 18 4 13 5 19 6 20 7 21 8 15 9 16 10 17 11
REMARK SMILES IDX 10 13 9 14 8 15 7 16 5 17 2 18 4 19 3 20 6 21 1 22
REMARK H PARENT 17 12 4 23
ROOT
ATOM      1  O   UNL     1       6.907  -4.336   3.258  1.00  0.00    -0.490 OA
ENDROOT
BRANCH   1   2
ATOM      2  C   UNL     1       8.147  -4.422   3.809  1.00  0.00     0.155 A 
ATOM      3  C   UNL     1      10.155  -5.670   4.247  1.00  0.00     0.063 A 
ATOM      4  C   UNL     1      10.682  -4.574   4.934  1.00  0.00     0.019 A 
ATOM      5  C   UNL     1       8.879  -5.587   3.684  1.00  0.00     0.065 A 
ATOM      6  C   UNL     1       9.946  -3.413   5.049  1.00  0.00     0.044 A 
ATOM      7  C   UNL     1       8.684  -3.331   4.485  1.00  0.00     0.165 A 
ATOM      8  F   UNL     1       7.968  -2.191   4.601  1.00  0.00    -0.203 F 
BRANCH   3   9
ATOM      9  C   UNL     1      10.940  -6.914   4.122  1.00  0.00     0.335 C 
ATOM     10  O   UNL     1      12.084  -6.953   4.526  1.00  0.00    -0.246 OA
BRANCH   9  11
ATOM     11  O   UNL     1      10.384  -8.008   3.566  1.00  0.00    -0.478 OA
ATOM     12  H   UNL     1      10.671  -8.240   2.672  1.00  0.00     0.297 HD
ENDBRANCH   9  11
ENDBRANCH   3   9
ENDBRANCH   1   2
BRANCH   1  13
ATOM     13  C   UNL     1       5.831  -3.988   4.133  1.00  0.00     0.230 C 
BRANCH  13  14
ATOM     14  C   UNL     1       4.545  -3.826   3.320  1.00  0.00     0.046 C 
BRANCH  14  15
ATOM     15  C   UNL     1       4.885  -3.281   1.931  1.00  0.00     0.043 C 
BRANCH  15  16
ATOM     16  C   UNL     1       4.988  -1.779   1.991  1.00  0.00    -0.004 A 
ATOM     17  C   UNL     1       6.098  -1.046   1.743  1.00  0.00     0.036 A 
ATOM     18  C   UNL     1       3.951  -0.895   2.307  1.00  0.00     0.063 A 
ATOM     19  N   UNL     1       5.777   0.255   1.903  1.00  0.00    -0.282 N 
ATOM     20  N   UNL     1       4.424   0.324   2.261  1.00  0.00    -0.181 NA
ATOM     21  C   UNL     1       7.451  -1.586   1.357  1.00  0.00     0.066 C 
ATOM     22  C   UNL     1       2.535  -1.281   2.653  1.00  0.00     0.069 C 
ATOM     23  H   UNL     1       6.377   1.008   1.790  1.00  0.00     0.190 HD
ENDBRANCH  15  16
ENDBRANCH  14  15
ENDBRANCH  13  14
ENDBRANCH   1  13
TORSDOF 7
ENDMDL
