MODEL 1
REMARK VINA RESULT:    -3.863      0.000      0.000
REMARK INTER + INTRA:          -4.710
REMARK INTER:                  -4.427
REMARK INTRA:                  -0.283
REMARK UNBOUND:                -0.283
REMARK SMILES O=C(O)c1ccc2nc(-c3cc(Cl)cc(Cl)c3)oc2c1
REMARK SMILES IDX 5 1 6 2 20 3 8 4 18 5 4 6 9 7 7 8 19 9 2 10 1 11 3 12 10 14
REMARK SMILES IDX 11 15 17 16 12 17 15 18 14 19 13 20 16 21
REMARK H PARENT 3 13
ROOT
ATOM      1  C   UNL     1      14.490   0.048   6.912  1.00  0.00     0.018 A 
ATOM      2  C   UNL     1      14.230   0.542   5.669  1.00  0.00     0.033 A 
ATOM      3  C   UNL     1      12.338  -1.069   6.945  1.00  0.00     0.065 A 
ATOM      4  N   UNL     1      12.488   0.577   3.840  1.00  0.00    -0.209 NA
ATOM      5  O   UNL     1      11.017  -0.674   4.842  1.00  0.00    -0.436 OA
ATOM      6  C   UNL     1      13.551  -0.764   7.564  1.00  0.00     0.063 A 
ATOM      7  C   UNL     1      11.303   0.030   3.730  1.00  0.00     0.227 A 
ATOM      8  C   UNL     1      13.017   0.243   5.036  1.00  0.00     0.110 A 
ATOM      9  C   UNL     1      12.068  -0.566   5.686  1.00  0.00     0.156 A 
ENDROOT
BRANCH   6  10
ATOM     10  C   UNL     1      13.846  -1.297   8.906  1.00  0.00     0.335 C 
ATOM     11  O   UNL     1      14.435  -2.353   9.024  1.00  0.00    -0.246 OA
BRANCH  10  12
ATOM     12  O   UNL     1      13.461  -0.615  10.003  1.00  0.00    -0.478 OA
ATOM     13  H   UNL     1      12.962   0.201   9.860  1.00  0.00     0.297 HD
ENDBRANCH  10  12
ENDBRANCH   6  10
BRANCH   7  14
ATOM     14  C   UNL     1      10.412   0.166   2.560  1.00  0.00     0.040 A 
ATOM     15  C   UNL     1       9.032   0.274   2.738  1.00  0.00     0.034 A 
ATOM     16  C   UNL     1      10.947   0.186   1.270  1.00  0.00     0.034 A 
ATOM     17  C   UNL     1       8.204   0.403   1.640  1.00  0.00     0.043 A 
ATOM     18  C   UNL     1      10.109   0.315   0.181  1.00  0.00     0.043 A 
ATOM     19  C   UNL     1       8.742   0.422   0.364  1.00  0.00     0.041 A 
ATOM     20  Cl  UNL     1       6.488   0.538   1.860  1.00  0.00    -0.084 Cl
ATOM     21  Cl  UNL     1      10.773   0.340  -1.424  1.00  0.00    -0.084 Cl
ENDBRANCH   7  14
TORSDOF 3
ENDMDL
MODEL 2
REMARK VINA RESULT:    -3.727      3.584      5.588
REMARK INTER + INTRA:          -4.555
REMARK INTER:                  -4.259
REMARK INTRA:                  -0.296
REMARK UNBOUND:                -0.283
REMARK SMILES O=C(O)c1ccc2nc(-c3cc(Cl)cc(Cl)c3)oc2c1
REMARK SMILES IDX 5 1 6 2 20 3 8 4 18 5 4 6 9 7 7 8 19 9 2 10 1 11 3 12 10 14
REMARK SMILES IDX 11 15 17 16 12 17 15 18 14 19 13 20 16 21
REMARK H PARENT 3 13
ROOT
ATOM      1  C   UNL     1      11.945   0.328   1.456  1.00  0.00     0.018 A 
ATOM      2  C   UNL     1      10.920   0.136   0.579  1.00  0.00     0.033 A 
ATOM      3  C   UNL     1      10.369   0.545   3.287  1.00  0.00     0.065 A 
ATOM      4  N   UNL     1       8.403  -0.010   0.424  1.00  0.00    -0.209 NA
ATOM      5  O   UNL     1       7.982   0.314   2.534  1.00  0.00    -0.436 OA
ATOM      6  C   UNL     1      11.684   0.532   2.819  1.00  0.00     0.063 A 
ATOM      7  C   UNL     1       7.450   0.090   1.317  1.00  0.00     0.227 A 
ATOM      8  C   UNL     1       9.596   0.147   1.035  1.00  0.00     0.110 A 
ATOM      9  C   UNL     1       9.326   0.356   2.399  1.00  0.00     0.156 A 
ENDROOT
BRANCH   6  10
ATOM     10  C   UNL     1      12.802   0.733   3.759  1.00  0.00     0.335 C 
ATOM     11  O   UNL     1      12.597   0.719   4.957  1.00  0.00    -0.246 OA
BRANCH  10  12
ATOM     12  O   UNL     1      14.050   0.932   3.291  1.00  0.00    -0.478 OA
ATOM     13  H   UNL     1      14.255   0.568   2.419  1.00  0.00     0.297 HD
ENDBRANCH  10  12
ENDBRANCH   6  10
BRANCH   7  14
ATOM     14  C   UNL     1       6.005  -0.026   1.031  1.00  0.00     0.040 A 
ATOM     15  C   UNL     1       5.565  -0.748  -0.079  1.00  0.00     0.034 A 
ATOM     16  C   UNL     1       5.074   0.588   1.872  1.00  0.00     0.034 A 
ATOM     17  C   UNL     1       4.214  -0.853  -0.340  1.00  0.00     0.043 A 
ATOM     18  C   UNL     1       3.725   0.475   1.600  1.00  0.00     0.043 A 
ATOM     19  C   UNL     1       3.295  -0.242   0.497  1.00  0.00     0.041 A 
ATOM     20  Cl  UNL     1       3.665  -1.751  -1.720  1.00  0.00    -0.084 Cl
ATOM     21  Cl  UNL     1       2.565   1.237   2.644  1.00  0.00    -0.084 Cl
ENDBRANCH   7  14
TORSDOF 3
ENDMDL
MODEL 3
REMARK VINA RESULT:    -3.725      5.072      6.669
REMARK INTER + INTRA:          -4.552
REMARK INTER:                  -4.256
REMARK INTRA:                  -0.296
REMARK UNBOUND:                -0.283
REMARK SMILES O=C(O)c1ccc2nc(-c3cc(Cl)cc(Cl)c3)oc2c1
REMARK SMILES IDX 5 1 6 2 20 3 8 4 18 5 4 6 9 7 7 8 19 9 2 10 1 11 3 12 10 14
REMARK SMILES IDX 11 15 17 16 12 17 15 18 14 19 13 20 16 21
REMARK H PARENT 3 13
ROOT
ATOM      1  C   UNL     1      11.957   0.274   1.675  1.00  0.00     0.018 A 
ATOM      2  C   UNL     1      10.755   0.355   2.313  1.00  0.00     0.033 A 
ATOM      3  C   UNL     1      10.833   0.049  -0.462  1.00  0.00     0.065 A 
ATOM      4  N   UNL     1       8.260   0.331   1.920  1.00  0.00    -0.209 NA
ATOM      5  O   UNL     1       8.329   0.088  -0.241  1.00  0.00    -0.436 OA
ATOM      6  C   UNL     1      12.012   0.123   0.282  1.00  0.00     0.063 A 
ATOM      7  C   UNL     1       7.533   0.216   0.837  1.00  0.00     0.227 A 
ATOM      8  C   UNL     1       9.566   0.283   1.578  1.00  0.00     0.110 A 
ATOM      9  C   UNL     1       9.612   0.126   0.182  1.00  0.00     0.156 A 
ENDROOT
BRANCH   6  10
ATOM     10  C   UNL     1      13.317   0.043  -0.398  1.00  0.00     0.335 C 
ATOM     11  O   UNL     1      13.367  -0.075  -1.606  1.00  0.00    -0.246 OA
BRANCH  10  12
ATOM     12  O   UNL     1      14.456   0.099   0.321  1.00  0.00    -0.478 OA
ATOM     13  H   UNL     1      15.276   0.256  -0.167  1.00  0.00     0.297 HD
ENDBRANCH  10  12
ENDBRANCH   6  10
BRANCH   7  14
ATOM     14  C   UNL     1       6.055   0.224   0.803  1.00  0.00     0.040 A 
ATOM     15  C   UNL     1       5.373  -0.466  -0.199  1.00  0.00     0.034 A 
ATOM     16  C   UNL     1       5.337   0.923   1.776  1.00  0.00     0.034 A 
ATOM     17  C   UNL     1       3.992  -0.456  -0.224  1.00  0.00     0.043 A 
ATOM     18  C   UNL     1       3.957   0.926   1.740  1.00  0.00     0.043 A 
ATOM     19  C   UNL     1       3.286   0.240   0.743  1.00  0.00     0.041 A 
ATOM     20  Cl  UNL     1       3.141  -1.314  -1.469  1.00  0.00    -0.084 Cl
ATOM     21  Cl  UNL     1       3.062   1.795   2.948  1.00  0.00    -0.084 Cl
ENDBRANCH   7  14
TORSDOF 3
ENDMDL
MODEL 4
REMARK VINA RESULT:    -3.723      3.481      5.218
REMARK INTER + INTRA:          -4.550
REMARK INTER:                  -4.254
REMARK INTRA:                  -0.296
REMARK UNBOUND:                -0.283
REMARK SMILES O=C(O)c1ccc2nc(-c3cc(Cl)cc(Cl)c3)oc2c1
REMARK SMILES IDX 5 1 6 2 20 3 8 4 18 5 4 6 9 7 7 8 19 9 2 10 1 11 3 12 10 14
REMARK SMILES IDX 11 15 17 16 12 17 15 18 14 19 13 20 16 21
REMARK H PARENT 3 13
ROOT
ATOM      1  C   UNL     1      11.984   0.351   1.644  1.00  0.00     0.018 A 
ATOM      2  C   UNL     1      10.982   0.172   0.739  1.00  0.00     0.033 A 
ATOM      3  C   UNL     1      10.365   0.500   3.443  1.00  0.00     0.065 A 
ATOM      4  N   UNL     1       8.471   0.001   0.521  1.00  0.00    -0.209 NA
ATOM      5  O   UNL     1       7.998   0.263   2.628  1.00  0.00    -0.436 OA
ATOM      6  C   UNL     1      11.690   0.515   3.005  1.00  0.00     0.063 A 
ATOM      7  C   UNL     1       7.497   0.066   1.395  1.00  0.00     0.227 A 
ATOM      8  C   UNL     1       9.648   0.155   1.164  1.00  0.00     0.110 A 
ATOM      9  C   UNL     1       9.345   0.324   2.527  1.00  0.00     0.156 A 
ENDROOT
BRANCH   6  10
ATOM     10  C   UNL     1      12.783   0.703   3.977  1.00  0.00     0.335 C 
ATOM     11  O   UNL     1      12.535   0.780   5.163  1.00  0.00    -0.246 OA
BRANCH  10  12
ATOM     12  O   UNL     1      14.058   0.789   3.549  1.00  0.00    -0.478 OA
ATOM     13  H   UNL     1      14.753   0.691   4.214  1.00  0.00     0.297 HD
ENDBRANCH  10  12
ENDBRANCH   6  10
BRANCH   7  14
ATOM     14  C   UNL     1       6.060  -0.059   1.072  1.00  0.00     0.040 A 
ATOM     15  C   UNL     1       5.105   0.563   1.877  1.00  0.00     0.034 A 
ATOM     16  C   UNL     1       5.654  -0.800  -0.039  1.00  0.00     0.034 A 
ATOM     17  C   UNL     1       3.764   0.444   1.569  1.00  0.00     0.043 A 
ATOM     18  C   UNL     1       4.310  -0.912  -0.336  1.00  0.00     0.043 A 
ATOM     19  C   UNL     1       3.367  -0.292   0.466  1.00  0.00     0.041 A 
ATOM     20  Cl  UNL     1       2.574   1.217   2.569  1.00  0.00    -0.084 Cl
ATOM     21  Cl  UNL     1       3.802  -1.833  -1.717  1.00  0.00    -0.084 Cl
ENDBRANCH   7  14
TORSDOF 3
ENDMDL
MODEL 5
REMARK VINA RESULT:    -3.716      5.064      6.498
REMARK INTER + INTRA:          -4.542
REMARK INTER:                  -4.246
REMARK INTRA:                  -0.296
REMARK UNBOUND:                -0.283
REMARK SMILES O=C(O)c1ccc2nc(-c3cc(Cl)cc(Cl)c3)oc2c1
REMARK SMILES IDX 5 1 6 2 20 3 8 4 18 5 4 6 9 7 7 8 19 9 2 10 1 11 3 12 10 14
REMARK SMILES IDX 11 15 17 16 12 17 15 18 14 19 13 20 16 21
REMARK H PARENT 3 13
ROOT
ATOM      1  C   UNL     1      11.951   0.274   1.692  1.00  0.00     0.018 A 
ATOM      2  C   UNL     1      10.748   0.354   2.328  1.00  0.00     0.033 A 
ATOM      3  C   UNL     1      10.830   0.049  -0.447  1.00  0.00     0.065 A 
ATOM      4  N   UNL     1       8.253   0.331   1.931  1.00  0.00    -0.209 NA
ATOM      5  O   UNL     1       8.326   0.088  -0.229  1.00  0.00    -0.436 OA
ATOM      6  C   UNL     1      12.007   0.122   0.299  1.00  0.00     0.063 A 
ATOM      7  C   UNL     1       7.527   0.216   0.847  1.00  0.00     0.227 A 
ATOM      8  C   UNL     1       9.559   0.282   1.592  1.00  0.00     0.110 A 
ATOM      9  C   UNL     1       9.608   0.126   0.195  1.00  0.00     0.156 A 
ENDROOT
BRANCH   6  10
ATOM     10  C   UNL     1      13.314   0.042  -0.379  1.00  0.00     0.335 C 
ATOM     11  O   UNL     1      13.365  -0.083  -1.587  1.00  0.00    -0.246 OA
BRANCH  10  12
ATOM     12  O   UNL     1      14.452   0.106   0.340  1.00  0.00    -0.478 OA
ATOM     13  H   UNL     1      14.367   0.319   1.279  1.00  0.00     0.297 HD
ENDBRANCH  10  12
ENDBRANCH   6  10
BRANCH   7  14
ATOM     14  C   UNL     1       6.050   0.224   0.812  1.00  0.00     0.040 A 
ATOM     15  C   UNL     1       5.330   0.922   1.782  1.00  0.00     0.034 A 
ATOM     16  C   UNL     1       5.370  -0.469  -0.192  1.00  0.00     0.034 A 
ATOM     17  C   UNL     1       3.949   0.926   1.743  1.00  0.00     0.043 A 
ATOM     18  C   UNL     1       3.990  -0.457  -0.220  1.00  0.00     0.043 A 
ATOM     19  C   UNL     1       3.281   0.238   0.745  1.00  0.00     0.041 A 
ATOM     20  Cl  UNL     1       3.051   1.795   2.948  1.00  0.00    -0.084 Cl
ATOM     21  Cl  UNL     1       3.141  -1.317  -1.467  1.00  0.00    -0.084 Cl
ENDBRANCH   7  14
TORSDOF 3
ENDMDL
MODEL 6
REMARK VINA RESULT:    -3.337      4.969      8.730
REMARK INTER + INTRA:          -4.108
REMARK INTER:                  -3.810
REMARK INTRA:                  -0.298
REMARK UNBOUND:                -0.283
REMARK SMILES O=C(O)c1ccc2nc(-c3cc(Cl)cc(Cl)c3)oc2c1
REMARK SMILES IDX 5 1 6 2 20 3 8 4 18 5 4 6 9 7 7 8 19 9 2 10 1 11 3 12 10 14
REMARK SMILES IDX 11 15 17 16 12 17 15 18 14 19 13 20 16 21
REMARK H PARENT 3 13
ROOT
ATOM      1  C   UNL     1       3.686  -0.423  -0.361  1.00  0.00     0.018 A 
ATOM      2  C   UNL     1       4.968  -0.535  -0.809  1.00  0.00     0.033 A 
ATOM      3  C   UNL     1       4.484   0.249   1.828  1.00  0.00     0.065 A 
ATOM      4  N   UNL     1       7.379  -0.282  -0.099  1.00  0.00    -0.209 NA
ATOM      5  O   UNL     1       6.994   0.324   1.955  1.00  0.00    -0.436 OA
ATOM      6  C   UNL     1       3.427  -0.028   0.959  1.00  0.00     0.063 A 
ATOM      7  C   UNL     1       7.940   0.066   1.033  1.00  0.00     0.227 A 
ATOM      8  C   UNL     1       6.037  -0.259   0.052  1.00  0.00     0.110 A 
ATOM      9  C   UNL     1       5.786   0.132   1.379  1.00  0.00     0.156 A 
ENDROOT
BRANCH   6  10
ATOM     10  C   UNL     1       2.036   0.095   1.430  1.00  0.00     0.335 C 
ATOM     11  O   UNL     1       1.117  -0.214   0.698  1.00  0.00    -0.246 OA
BRANCH  10  12
ATOM     12  O   UNL     1       1.783   0.552   2.673  1.00  0.00    -0.478 OA
ATOM     13  H   UNL     1       0.908   0.366   3.039  1.00  0.00     0.297 HD
ENDBRANCH  10  12
ENDBRANCH   6  10
BRANCH   7  14
ATOM     14  C   UNL     1       9.397   0.159   1.263  1.00  0.00     0.040 A 
ATOM     15  C   UNL     1      10.282   0.086   0.187  1.00  0.00     0.034 A 
ATOM     16  C   UNL     1       9.892   0.320   2.558  1.00  0.00     0.034 A 
ATOM     17  C   UNL     1      11.642   0.174   0.408  1.00  0.00     0.043 A 
ATOM     18  C   UNL     1      11.254   0.408   2.767  1.00  0.00     0.043 A 
ATOM     19  C   UNL     1      12.128   0.334   1.695  1.00  0.00     0.041 A 
ATOM     20  Cl  UNL     1      12.746   0.084  -0.928  1.00  0.00    -0.084 Cl
ATOM     21  Cl  UNL     1      11.873   0.609   4.377  1.00  0.00    -0.084 Cl
ENDBRANCH   7  14
TORSDOF 3
ENDMDL
MODEL 7
REMARK VINA RESULT:    -3.329      4.970      8.558
REMARK INTER + INTRA:          -4.098
REMARK INTER:                  -3.800
REMARK INTRA:                  -0.298
REMARK UNBOUND:                -0.283
REMARK SMILES O=C(O)c1ccc2nc(-c3cc(Cl)cc(Cl)c3)oc2c1
REMARK SMILES IDX 5 1 6 2 20 3 8 4 18 5 4 6 9 7 7 8 19 9 2 10 1 11 3 12 10 14
REMARK SMILES IDX 11 15 17 16 12 17 15 18 14 19 13 20 16 21
REMARK H PARENT 3 13
ROOT
ATOM      1  C   UNL     1       3.686  -0.417  -0.363  1.00  0.00     0.018 A 
ATOM      2  C   UNL     1       4.968  -0.527  -0.811  1.00  0.00     0.033 A 
ATOM      3  C   UNL     1       4.485   0.249   1.828  1.00  0.00     0.065 A 
ATOM      4  N   UNL     1       7.379  -0.276  -0.100  1.00  0.00    -0.209 NA
ATOM      5  O   UNL     1       6.995   0.323   1.955  1.00  0.00    -0.436 OA
ATOM      6  C   UNL     1       3.428  -0.026   0.959  1.00  0.00     0.063 A 
ATOM      7  C   UNL     1       7.941   0.068   1.032  1.00  0.00     0.227 A 
ATOM      8  C   UNL     1       6.038  -0.254   0.050  1.00  0.00     0.110 A 
ATOM      9  C   UNL     1       5.787   0.133   1.379  1.00  0.00     0.156 A 
ENDROOT
BRANCH   6  10
ATOM     10  C   UNL     1       2.037   0.097   1.431  1.00  0.00     0.335 C 
ATOM     11  O   UNL     1       1.118  -0.214   0.699  1.00  0.00    -0.246 OA
BRANCH  10  12
ATOM     12  O   UNL     1       1.784   0.553   2.673  1.00  0.00    -0.478 OA
ATOM     13  H   UNL     1       2.048  -0.012   3.411  1.00  0.00     0.297 HD
ENDBRANCH  10  12
ENDBRANCH   6  10
BRANCH   7  14
ATOM     14  C   UNL     1       9.397   0.160   1.262  1.00  0.00     0.040 A 
ATOM     15  C   UNL     1       9.894   0.323   2.556  1.00  0.00     0.034 A 
ATOM     16  C   UNL     1      10.282   0.086   0.184  1.00  0.00     0.034 A 
ATOM     17  C   UNL     1      11.257   0.408   2.764  1.00  0.00     0.043 A 
ATOM     18  C   UNL     1      11.642   0.172   0.405  1.00  0.00     0.043 A 
ATOM     19  C   UNL     1      12.129   0.333   1.691  1.00  0.00     0.041 A 
ATOM     20  Cl  UNL     1      11.877   0.610   4.372  1.00  0.00    -0.084 Cl
ATOM     21  Cl  UNL     1      12.745   0.079  -0.933  1.00  0.00    -0.084 Cl
ENDBRANCH   7  14
TORSDOF 3
ENDMDL
MODEL 8
REMARK VINA RESULT:    -2.864      4.056      7.937
REMARK INTER + INTRA:          -3.565
REMARK INTER:                  -3.276
REMARK INTRA:                  -0.289
REMARK UNBOUND:                -0.283
REMARK SMILES O=C(O)c1ccc2nc(-c3cc(Cl)cc(Cl)c3)oc2c1
REMARK SMILES IDX 5 1 6 2 20 3 8 4 18 5 4 6 9 7 7 8 19 9 2 10 1 11 3 12 10 14
REMARK SMILES IDX 11 15 17 16 12 17 15 18 14 19 13 20 16 21
REMARK H PARENT 3 13
ROOT
ATOM      1  C   UNL     1       6.005   0.922   0.305  1.00  0.00     0.018 A 
ATOM      2  C   UNL     1       6.907   1.585   1.083  1.00  0.00     0.033 A 
ATOM      3  C   UNL     1       7.139  -1.177   0.741  1.00  0.00     0.065 A 
ATOM      4  N   UNL     1       8.963   1.254   2.512  1.00  0.00    -0.209 NA
ATOM      5  O   UNL     1       9.140  -0.897   2.237  1.00  0.00    -0.436 OA
ATOM      6  C   UNL     1       6.108  -0.465   0.126  1.00  0.00     0.063 A 
ATOM      7  C   UNL     1       9.667   0.194   2.824  1.00  0.00     0.227 A 
ATOM      8  C   UNL     1       7.946   0.883   1.705  1.00  0.00     0.110 A 
ATOM      9  C   UNL     1       8.058  -0.507   1.526  1.00  0.00     0.156 A 
ENDROOT
BRANCH   6  10
ATOM     10  C   UNL     1       5.123  -1.173  -0.712  1.00  0.00     0.335 C 
ATOM     11  O   UNL     1       4.405  -0.546  -1.466  1.00  0.00    -0.246 OA
BRANCH  10  12
ATOM     12  O   UNL     1       5.019  -2.515  -0.642  1.00  0.00    -0.478 OA
ATOM     13  H   UNL     1       5.842  -3.021  -0.652  1.00  0.00     0.297 HD
ENDBRANCH  10  12
ENDBRANCH   6  10
BRANCH   7  14
ATOM     14  C   UNL     1      10.863   0.196   3.692  1.00  0.00     0.040 A 
ATOM     15  C   UNL     1      10.879  -0.558   4.865  1.00  0.00     0.034 A 
ATOM     16  C   UNL     1      11.981   0.955   3.340  1.00  0.00     0.034 A 
ATOM     17  C   UNL     1      12.001  -0.552   5.671  1.00  0.00     0.043 A 
ATOM     18  C   UNL     1      13.096   0.953   4.154  1.00  0.00     0.043 A 
ATOM     19  C   UNL     1      13.106   0.202   5.317  1.00  0.00     0.041 A 
ATOM     20  Cl  UNL     1      12.024  -1.491   7.131  1.00  0.00    -0.084 Cl
ATOM     21  Cl  UNL     1      14.488   1.896   3.719  1.00  0.00    -0.084 Cl
ENDBRANCH   7  14
TORSDOF 3
ENDMDL
MODEL 9
REMARK VINA RESULT:    -2.521      0.029      2.020
REMARK INTER + INTRA:          -3.172
REMARK INTER:                  -2.890
REMARK INTRA:                  -0.283
REMARK UNBOUND:                -0.283
REMARK SMILES O=C(O)c1ccc2nc(-c3cc(Cl)cc(Cl)c3)oc2c1
REMARK SMILES IDX 5 1 6 2 20 3 8 4 18 5 4 6 9 7 7 8 19 9 2 10 1 11 3 12 10 14
REMARK SMILES IDX 11 15 17 16 12 17 15 18 14 19 13 20 16 21
REMARK H PARENT 3 13
ROOT
ATOM      1  C   UNL     1      14.490   0.044   6.916  1.00  0.00     0.018 A 
ATOM      2  C   UNL     1      14.239   0.537   5.671  1.00  0.00     0.033 A 
ATOM      3  C   UNL     1      12.331  -1.060   6.941  1.00  0.00     0.065 A 
ATOM      4  N   UNL     1      12.506   0.579   3.833  1.00  0.00    -0.209 NA
ATOM      5  O   UNL     1      11.023  -0.661   4.831  1.00  0.00    -0.436 OA
ATOM      6  C   UNL     1      13.543  -0.760   7.566  1.00  0.00     0.063 A 
ATOM      7  C   UNL     1      11.318   0.039   3.720  1.00  0.00     0.227 A 
ATOM      8  C   UNL     1      13.027   0.245   5.033  1.00  0.00     0.110 A 
ATOM      9  C   UNL     1      12.070  -0.557   5.680  1.00  0.00     0.156 A 
ENDROOT
BRANCH   6  10
ATOM     10  C   UNL     1      13.828  -1.293   8.910  1.00  0.00     0.335 C 
ATOM     11  O   UNL     1      14.390  -2.363   9.033  1.00  0.00    -0.246 OA
BRANCH  10  12
ATOM     12  O   UNL     1      13.465  -0.594  10.004  1.00  0.00    -0.478 OA
ATOM     13  H   UNL     1      12.857   0.146   9.870  1.00  0.00     0.297 HD
ENDBRANCH  10  12
ENDBRANCH   6  10
BRANCH   7  14
ATOM     14  C   UNL     1      10.433   0.178   2.545  1.00  0.00     0.040 A 
ATOM     15  C   UNL     1      10.972   0.190   1.258  1.00  0.00     0.034 A 
ATOM     16  C   UNL     1       9.053   0.299   2.718  1.00  0.00     0.034 A 
ATOM     17  C   UNL     1      10.140   0.320   0.164  1.00  0.00     0.043 A 
ATOM     18  C   UNL     1       8.230   0.428   1.617  1.00  0.00     0.043 A 
ATOM     19  C   UNL     1       8.772   0.439   0.343  1.00  0.00     0.041 A 
ATOM     20  Cl  UNL     1      10.808   0.335  -1.438  1.00  0.00    -0.084 Cl
ATOM     21  Cl  UNL     1       6.514   0.578   1.830  1.00  0.00    -0.084 Cl
ENDBRANCH   7  14
TORSDOF 3
ENDMDL
