MODEL 1
REMARK VINA RESULT:    -5.449      0.000      0.000
REMARK INTER + INTRA:          -7.962
REMARK INTER:                  -7.520
REMARK INTRA:                  -0.443
REMARK UNBOUND:                -0.443
REMARK SMILES Cc1n[nH]c(C)c1CCCOc1cc(C(=O)O)ccc1F
REMARK SMILES IDX 11 1 12 2 14 3 18 4 13 5 19 6 20 7 21 8 15 9 16 10 17 11
REMARK SMILES IDX 10 13 9 14 8 15 7 16 5 17 2 18 4 19 3 20 6 21 1 22
REMARK H PARENT 17 12 4 23
ROOT
ATOM      1  O   UNL     1       6.250   2.382   0.501  1.00  0.00    -0.490 OA
ENDROOT
BRANCH   1   2
ATOM      2  C   UNL     1       5.279   1.431   0.531  1.00  0.00     0.155 A 
ATOM      3  C   UNL     1       4.310  -0.591  -0.337  1.00  0.00     0.063 A 
ATOM      4  C   UNL     1       3.290  -0.507   0.616  1.00  0.00     0.019 A 
ATOM      5  C   UNL     1       5.306   0.386  -0.374  1.00  0.00     0.065 A 
ATOM      6  C   UNL     1       3.275   0.536   1.518  1.00  0.00     0.044 A 
ATOM      7  C   UNL     1       4.267   1.502   1.482  1.00  0.00     0.165 A 
ATOM      8  F   UNL     1       4.246   2.521   2.369  1.00  0.00    -0.203 F 
BRANCH   3   9
ATOM      9  C   UNL     1       4.330  -1.706  -1.303  1.00  0.00     0.335 C 
ATOM     10  O   UNL     1       4.970  -1.609  -2.330  1.00  0.00    -0.246 OA
BRANCH   9  11
ATOM     11  O   UNL     1       3.642  -2.835  -1.043  1.00  0.00    -0.478 OA
ATOM     12  H   UNL     1       2.869  -3.017  -1.597  1.00  0.00     0.297 HD
ENDBRANCH   9  11
ENDBRANCH   3   9
ENDBRANCH   1   2
BRANCH   1  13
ATOM     13  C   UNL     1       7.060   2.519   1.672  1.00  0.00     0.230 C 
BRANCH  13  14
ATOM     14  C   UNL     1       8.521   2.238   1.316  1.00  0.00     0.046 C 
BRANCH  14  15
ATOM     15  C   UNL     1       8.794   0.737   1.424  1.00  0.00     0.043 C 
BRANCH  15  16
ATOM     16  C   UNL     1      10.277   0.502   1.549  1.00  0.00    -0.004 A 
ATOM     17  C   UNL     1      11.138   0.290   0.527  1.00  0.00     0.036 A 
ATOM     18  C   UNL     1      11.008   0.471   2.742  1.00  0.00     0.063 A 
ATOM     19  N   UNL     1      12.370   0.124   1.055  1.00  0.00    -0.282 N 
ATOM     20  N   UNL     1      12.261   0.238   2.447  1.00  0.00    -0.181 NA
ATOM     21  C   UNL     1      10.786   0.248  -0.937  1.00  0.00     0.066 C 
ATOM     22  C   UNL     1      10.446   0.661   4.128  1.00  0.00     0.069 C 
ATOM     23  H   UNL     1      13.185  -0.044   0.558  1.00  0.00     0.190 HD
ENDBRANCH  15  16
ENDBRANCH  14  15
ENDBRANCH  13  14
ENDBRANCH   1  13
TORSDOF 7
ENDMDL
MODEL 2
REMARK VINA RESULT:    -5.419      2.336      3.938
REMARK INTER + INTRA:          -7.920
REMARK INTER:                  -7.524
REMARK INTRA:                  -0.396
REMARK UNBOUND:                -0.443
REMARK SMILES Cc1n[nH]c(C)c1CCCOc1cc(C(=O)O)ccc1F
REMARK SMILES IDX 11 1 12 2 14 3 18 4 13 5 19 6 20 7 21 8 15 9 16 10 17 11
REMARK SMILES IDX 10 13 9 14 8 15 7 16 5 17 2 18 4 19 3 20 6 21 1 22
REMARK H PARENT 17 12 4 23
ROOT
ATOM      1  O   UNL     1       6.295  -2.241   1.450  1.00  0.00    -0.490 OA
ENDROOT
BRANCH   1   2
ATOM      2  C   UNL     1       5.309  -1.351   1.162  1.00  0.00     0.155 A 
ATOM      3  C   UNL     1       4.018   0.595   1.739  1.00  0.00     0.063 A 
ATOM      4  C   UNL     1       3.296   0.463   0.549  1.00  0.00     0.019 A 
ATOM      5  C   UNL     1       5.029  -0.321   2.040  1.00  0.00     0.065 A 
ATOM      6  C   UNL     1       3.587  -0.564  -0.323  1.00  0.00     0.044 A 
ATOM      7  C   UNL     1       4.593  -1.468  -0.024  1.00  0.00     0.165 A 
ATOM      8  F   UNL     1       4.872  -2.472  -0.883  1.00  0.00    -0.203 F 
BRANCH   3   9
ATOM      9  C   UNL     1       3.710   1.693   2.675  1.00  0.00     0.335 C 
ATOM     10  O   UNL     1       4.082   1.631   3.828  1.00  0.00    -0.246 OA
BRANCH   9  11
ATOM     11  O   UNL     1       3.021   2.769   2.246  1.00  0.00    -0.478 OA
ATOM     12  H   UNL     1       2.916   2.871   1.290  1.00  0.00     0.297 HD
ENDBRANCH   9  11
ENDBRANCH   3   9
ENDBRANCH   1   2
BRANCH   1  13
ATOM     13  C   UNL     1       7.368  -2.347   0.511  1.00  0.00     0.230 C 
BRANCH  13  14
ATOM     14  C   UNL     1       8.675  -1.917   1.179  1.00  0.00     0.046 C 
BRANCH  14  15
ATOM     15  C   UNL     1       8.841  -0.401   1.046  1.00  0.00     0.043 C 
BRANCH  15  16
ATOM     16  C   UNL     1      10.282  -0.031   1.277  1.00  0.00    -0.004 A 
ATOM     17  C   UNL     1      10.853   0.240   2.474  1.00  0.00     0.036 A 
ATOM     18  C   UNL     1      11.270   0.088   0.293  1.00  0.00     0.063 A 
ATOM     19  N   UNL     1      12.153   0.527   2.254  1.00  0.00    -0.282 N 
ATOM     20  N   UNL     1      12.390   0.429   0.877  1.00  0.00    -0.181 NA
ATOM     21  C   UNL     1      10.160   0.225   3.811  1.00  0.00     0.066 C 
ATOM     22  C   UNL     1      11.074  -0.128  -1.186  1.00  0.00     0.069 C 
ATOM     23  H   UNL     1      12.808   0.760   2.930  1.00  0.00     0.190 HD
ENDBRANCH  15  16
ENDBRANCH  14  15
ENDBRANCH  13  14
ENDBRANCH   1  13
TORSDOF 7
ENDMDL
MODEL 3
REMARK VINA RESULT:    -5.303      2.264      3.449
REMARK INTER + INTRA:          -7.761
REMARK INTER:                  -7.154
REMARK INTRA:                  -0.607
REMARK UNBOUND:                -0.443
REMARK SMILES Cc1n[nH]c(C)c1CCCOc1cc(C(=O)O)ccc1F
REMARK SMILES IDX 11 1 12 2 14 3 18 4 13 5 19 6 20 7 21 8 15 9 16 10 17 11
REMARK SMILES IDX 10 13 9 14 8 15 7 16 5 17 2 18 4 19 3 20 6 21 1 22
REMARK H PARENT 17 12 4 23
ROOT
ATOM      1  O   UNL     1       6.304  -2.199   1.179  1.00  0.00    -0.490 OA
ENDROOT
BRANCH   1   2
ATOM      2  C   UNL     1       5.280  -1.326   0.979  1.00  0.00     0.155 A 
ATOM      3  C   UNL     1       3.995   0.580   1.684  1.00  0.00     0.063 A 
ATOM      4  C   UNL     1       3.190   0.452   0.548  1.00  0.00     0.019 A 
ATOM      5  C   UNL     1       5.044  -0.317   1.894  1.00  0.00     0.065 A 
ATOM      6  C   UNL     1       3.437  -0.554  -0.362  1.00  0.00     0.044 A 
ATOM      7  C   UNL     1       4.482  -1.440  -0.153  1.00  0.00     0.165 A 
ATOM      8  F   UNL     1       4.718  -2.424  -1.049  1.00  0.00    -0.203 F 
BRANCH   3   9
ATOM      9  C   UNL     1       3.734   1.656   2.659  1.00  0.00     0.335 C 
ATOM     10  O   UNL     1       4.150   1.560   3.795  1.00  0.00    -0.246 OA
BRANCH   9  11
ATOM     11  O   UNL     1       3.038   2.748   2.287  1.00  0.00    -0.478 OA
ATOM     12  H   UNL     1       2.464   3.152   2.953  1.00  0.00     0.297 HD
ENDBRANCH   9  11
ENDBRANCH   3   9
ENDBRANCH   1   2
BRANCH   1  13
ATOM     13  C   UNL     1       7.523  -1.940   0.478  1.00  0.00     0.230 C 
BRANCH  13  14
ATOM     14  C   UNL     1       8.567  -1.397   1.455  1.00  0.00     0.046 C 
BRANCH  14  15
ATOM     15  C   UNL     1       8.969   0.019   1.037  1.00  0.00     0.043 C 
BRANCH  15  16
ATOM     16  C   UNL     1      10.467   0.158   1.106  1.00  0.00    -0.004 A 
ATOM     17  C   UNL     1      11.318   0.142   0.053  1.00  0.00     0.036 A 
ATOM     18  C   UNL     1      11.225   0.332   2.269  1.00  0.00     0.063 A 
ATOM     19  N   UNL     1      12.570   0.295   0.534  1.00  0.00    -0.282 N 
ATOM     20  N   UNL     1      12.486   0.407   1.928  1.00  0.00    -0.181 NA
ATOM     21  C   UNL     1      10.936  -0.016  -1.395  1.00  0.00     0.066 C 
ATOM     22  C   UNL     1      10.684   0.408   3.674  1.00  0.00     0.069 C 
ATOM     23  H   UNL     1      13.384   0.320   0.008  1.00  0.00     0.190 HD
ENDBRANCH  15  16
ENDBRANCH  14  15
ENDBRANCH  13  14
ENDBRANCH   1  13
TORSDOF 7
ENDMDL
MODEL 4
REMARK VINA RESULT:    -5.298      0.639      1.879
REMARK INTER + INTRA:          -7.754
REMARK INTER:                  -7.139
REMARK INTRA:                  -0.615
REMARK UNBOUND:                -0.443
REMARK SMILES Cc1n[nH]c(C)c1CCCOc1cc(C(=O)O)ccc1F
REMARK SMILES IDX 11 1 12 2 14 3 18 4 13 5 19 6 20 7 21 8 15 9 16 10 17 11
REMARK SMILES IDX 10 13 9 14 8 15 7 16 5 17 2 18 4 19 3 20 6 21 1 22
REMARK H PARENT 17 12 4 23
ROOT
ATOM      1  O   UNL     1       6.419   1.169   2.003  1.00  0.00    -0.490 OA
ENDROOT
BRANCH   1   2
ATOM      2  C   UNL     1       5.288   0.676   1.433  1.00  0.00     0.155 A 
ATOM      3  C   UNL     1       4.211  -0.762  -0.164  1.00  0.00     0.063 A 
ATOM      4  C   UNL     1       2.963  -0.326   0.289  1.00  0.00     0.019 A 
ATOM      5  C   UNL     1       5.375  -0.255   0.415  1.00  0.00     0.065 A 
ATOM      6  C   UNL     1       2.886   0.599   1.309  1.00  0.00     0.044 A 
ATOM      7  C   UNL     1       4.042   1.097   1.886  1.00  0.00     0.165 A 
ATOM      8  F   UNL     1       3.959   2.003   2.885  1.00  0.00    -0.203 F 
BRANCH   3   9
ATOM      9  C   UNL     1       4.297  -1.752  -1.256  1.00  0.00     0.335 C 
ATOM     10  O   UNL     1       4.967  -1.514  -2.240  1.00  0.00    -0.246 OA
BRANCH   9  11
ATOM     11  O   UNL     1       3.637  -2.923  -1.157  1.00  0.00    -0.478 OA
ATOM     12  H   UNL     1       3.504  -3.423  -1.974  1.00  0.00     0.297 HD
ENDBRANCH   9  11
ENDBRANCH   3   9
ENDBRANCH   1   2
BRANCH   1  13
ATOM     13  C   UNL     1       7.033   2.291   1.363  1.00  0.00     0.230 C 
BRANCH  13  14
ATOM     14  C   UNL     1       8.553   2.119   1.381  1.00  0.00     0.046 C 
BRANCH  14  15
ATOM     15  C   UNL     1       8.897   0.643   1.591  1.00  0.00     0.043 C 
BRANCH  15  16
ATOM     16  C   UNL     1      10.383   0.496   1.791  1.00  0.00    -0.004 A 
ATOM     17  C   UNL     1      11.031   0.506   2.979  1.00  0.00     0.036 A 
ATOM     18  C   UNL     1      11.336   0.320   0.783  1.00  0.00     0.063 A 
ATOM     19  N   UNL     1      12.348   0.348   2.731  1.00  0.00    -0.282 N 
ATOM     20  N   UNL     1      12.515   0.238   1.344  1.00  0.00    -0.181 NA
ATOM     21  C   UNL     1      10.396   0.664   4.336  1.00  0.00     0.066 C 
ATOM     22  C   UNL     1      11.055   0.249  -0.697  1.00  0.00     0.069 C 
ATOM     23  H   UNL     1      13.054   0.317   3.394  1.00  0.00     0.190 HD
ENDBRANCH  15  16
ENDBRANCH  14  15
ENDBRANCH  13  14
ENDBRANCH   1  13
TORSDOF 7
ENDMDL
MODEL 5
REMARK VINA RESULT:    -4.376      3.770      6.503
REMARK INTER + INTRA:          -6.481
REMARK INTER:                  -5.672
REMARK INTRA:                  -0.809
REMARK UNBOUND:                -0.443
REMARK SMILES Cc1n[nH]c(C)c1CCCOc1cc(C(=O)O)ccc1F
REMARK SMILES IDX 11 1 12 2 14 3 18 4 13 5 19 6 20 7 21 8 15 9 16 10 17 11
REMARK SMILES IDX 10 13 9 14 8 15 7 16 5 17 2 18 4 19 3 20 6 21 1 22
REMARK H PARENT 17 12 4 23
ROOT
ATOM      1  O   UNL     1       7.618   0.488   2.048  1.00  0.00    -0.490 OA
ENDROOT
BRANCH   1   2
ATOM      2  C   UNL     1       8.949   0.410   1.780  1.00  0.00     0.155 A 
ATOM      3  C   UNL     1      10.759   0.317   0.200  1.00  0.00     0.063 A 
ATOM      4  C   UNL     1      11.673   0.262   1.256  1.00  0.00     0.019 A 
ATOM      5  C   UNL     1       9.391   0.391   0.471  1.00  0.00     0.065 A 
ATOM      6  C   UNL     1      11.223   0.288   2.559  1.00  0.00     0.044 A 
ATOM      7  C   UNL     1       9.866   0.367   2.825  1.00  0.00     0.165 A 
ATOM      8  F   UNL     1       9.431   0.392   4.104  1.00  0.00    -0.203 F 
BRANCH   3   9
ATOM      9  C   UNL     1      11.237   0.290  -1.196  1.00  0.00     0.335 C 
ATOM     10  O   UNL     1      10.441   0.227  -2.110  1.00  0.00    -0.246 OA
BRANCH   9  11
ATOM     11  O   UNL     1      12.558   0.341  -1.456  1.00  0.00    -0.478 OA
ATOM     12  H   UNL     1      12.822   0.668  -2.327  1.00  0.00     0.297 HD
ENDBRANCH   9  11
ENDBRANCH   3   9
ENDBRANCH   1   2
BRANCH   1  13
ATOM     13  C   UNL     1       6.855   1.422   1.280  1.00  0.00     0.230 C 
BRANCH  13  14
ATOM     14  C   UNL     1       5.370   1.259   1.608  1.00  0.00     0.046 C 
BRANCH  14  15
ATOM     15  C   UNL     1       5.092  -0.194   2.002  1.00  0.00     0.043 C 
BRANCH  15  16
ATOM     16  C   UNL     1       4.722  -0.986   0.775  1.00  0.00    -0.004 A 
ATOM     17  C   UNL     1       3.599  -0.831   0.036  1.00  0.00     0.036 A 
ATOM     18  C   UNL     1       5.481  -2.007   0.195  1.00  0.00     0.063 A 
ATOM     19  N   UNL     1       3.643  -1.727  -0.973  1.00  0.00    -0.282 N 
ATOM     20  N   UNL     1       4.833  -2.457  -0.849  1.00  0.00    -0.181 NA
ATOM     21  C   UNL     1       2.497   0.164   0.292  1.00  0.00     0.066 C 
ATOM     22  C   UNL     1       6.812  -2.511   0.693  1.00  0.00     0.069 C 
ATOM     23  H   UNL     1       2.970  -1.845  -1.661  1.00  0.00     0.190 HD
ENDBRANCH  15  16
ENDBRANCH  14  15
ENDBRANCH  13  14
ENDBRANCH   1  13
TORSDOF 7
ENDMDL
MODEL 6
REMARK VINA RESULT:    -4.361      3.937      7.034
REMARK INTER + INTRA:          -6.461
REMARK INTER:                  -5.624
REMARK INTRA:                  -0.836
REMARK UNBOUND:                -0.443
REMARK SMILES Cc1n[nH]c(C)c1CCCOc1cc(C(=O)O)ccc1F
REMARK SMILES IDX 11 1 12 2 14 3 18 4 13 5 19 6 20 7 21 8 15 9 16 10 17 11
REMARK SMILES IDX 10 13 9 14 8 15 7 16 5 17 2 18 4 19 3 20 6 21 1 22
REMARK H PARENT 17 12 4 23
ROOT
ATOM      1  O   UNL     1       7.892  -0.200   0.214  1.00  0.00    -0.490 OA
ENDROOT
BRANCH   1   2
ATOM      2  C   UNL     1       9.116  -0.013   0.776  1.00  0.00     0.155 A 
ATOM      3  C   UNL     1      10.499   0.261   2.724  1.00  0.00     0.063 A 
ATOM      4  C   UNL     1      11.627   0.358   1.905  1.00  0.00     0.019 A 
ATOM      5  C   UNL     1       9.239   0.075   2.150  1.00  0.00     0.065 A 
ATOM      6  C   UNL     1      11.494   0.263   0.536  1.00  0.00     0.044 A 
ATOM      7  C   UNL     1      10.245   0.073  -0.031  1.00  0.00     0.165 A 
ATOM      8  F   UNL     1      10.122  -0.019  -1.373  1.00  0.00    -0.203 F 
BRANCH   3   9
ATOM      9  C   UNL     1      10.637   0.362   4.190  1.00  0.00     0.335 C 
ATOM     10  O   UNL     1       9.702   0.076   4.910  1.00  0.00    -0.246 OA
BRANCH   9  11
ATOM     11  O   UNL     1      11.804   0.766   4.730  1.00  0.00    -0.478 OA
ATOM     12  H   UNL     1      11.937   1.719   4.827  1.00  0.00     0.297 HD
ENDBRANCH   9  11
ENDBRANCH   3   9
ENDBRANCH   1   2
BRANCH   1  13
ATOM     13  C   UNL     1       7.020  -1.134   0.855  1.00  0.00     0.230 C 
BRANCH  13  14
ATOM     14  C   UNL     1       5.661  -1.126   0.153  1.00  0.00     0.046 C 
BRANCH  14  15
ATOM     15  C   UNL     1       5.341   0.293  -0.324  1.00  0.00     0.043 C 
BRANCH  15  16
ATOM     16  C   UNL     1       4.625   1.042   0.769  1.00  0.00    -0.004 A 
ATOM     17  C   UNL     1       3.371   0.796   1.214  1.00  0.00     0.036 A 
ATOM     18  C   UNL     1       5.141   2.111   1.509  1.00  0.00     0.063 A 
ATOM     19  N   UNL     1       3.101   1.682   2.195  1.00  0.00    -0.282 N 
ATOM     20  N   UNL     1       4.226   2.500   2.359  1.00  0.00    -0.181 NA
ATOM     21  C   UNL     1       2.443  -0.276   0.704  1.00  0.00     0.066 C 
ATOM     22  C   UNL     1       6.512   2.719   1.346  1.00  0.00     0.069 C 
ATOM     23  H   UNL     1       2.273   1.743   2.697  1.00  0.00     0.190 HD
ENDBRANCH  15  16
ENDBRANCH  14  15
ENDBRANCH  13  14
ENDBRANCH   1  13
TORSDOF 7
ENDMDL
MODEL 7
REMARK VINA RESULT:    -4.270      3.759      6.471
REMARK INTER + INTRA:          -6.335
REMARK INTER:                  -5.492
REMARK INTRA:                  -0.843
REMARK UNBOUND:                -0.443
REMARK SMILES Cc1n[nH]c(C)c1CCCOc1cc(C(=O)O)ccc1F
REMARK SMILES IDX 11 1 12 2 14 3 18 4 13 5 19 6 20 7 21 8 15 9 16 10 17 11
REMARK SMILES IDX 10 13 9 14 8 15 7 16 5 17 2 18 4 19 3 20 6 21 1 22
REMARK H PARENT 17 12 4 23
ROOT
ATOM      1  O   UNL     1       7.584   0.489   2.195  1.00  0.00    -0.490 OA
ENDROOT
BRANCH   1   2
ATOM      2  C   UNL     1       8.914   0.411   1.927  1.00  0.00     0.155 A 
ATOM      3  C   UNL     1      10.722   0.283   0.346  1.00  0.00     0.063 A 
ATOM      4  C   UNL     1      11.638   0.261   1.402  1.00  0.00     0.019 A 
ATOM      5  C   UNL     1       9.354   0.359   0.617  1.00  0.00     0.065 A 
ATOM      6  C   UNL     1      11.190   0.319   2.704  1.00  0.00     0.044 A 
ATOM      7  C   UNL     1       9.833   0.399   2.971  1.00  0.00     0.165 A 
ATOM      8  F   UNL     1       9.401   0.456   4.250  1.00  0.00    -0.203 F 
BRANCH   3   9
ATOM      9  C   UNL     1      11.198   0.222  -1.049  1.00  0.00     0.335 C 
ATOM     10  O   UNL     1      11.413   1.246  -1.664  1.00  0.00    -0.246 OA
BRANCH   9  11
ATOM     11  O   UNL     1      11.400  -0.973  -1.639  1.00  0.00    -0.478 OA
ATOM     12  H   UNL     1      10.615  -1.464  -1.917  1.00  0.00     0.297 HD
ENDBRANCH   9  11
ENDBRANCH   3   9
ENDBRANCH   1   2
BRANCH   1  13
ATOM     13  C   UNL     1       6.811   1.383   1.388  1.00  0.00     0.230 C 
BRANCH  13  14
ATOM     14  C   UNL     1       5.326   1.199   1.704  1.00  0.00     0.046 C 
BRANCH  14  15
ATOM     15  C   UNL     1       5.050  -0.273   2.019  1.00  0.00     0.043 C 
BRANCH  15  16
ATOM     16  C   UNL     1       4.718  -1.006   0.745  1.00  0.00    -0.004 A 
ATOM     17  C   UNL     1       5.472  -1.964   0.158  1.00  0.00     0.036 A 
ATOM     18  C   UNL     1       3.573  -0.821  -0.037  1.00  0.00     0.063 A 
ATOM     19  N   UNL     1       4.830  -2.366  -0.959  1.00  0.00    -0.282 N 
ATOM     20  N   UNL     1       3.642  -1.630  -1.062  1.00  0.00    -0.181 NA
ATOM     21  C   UNL     1       6.791  -2.488   0.662  1.00  0.00     0.066 C 
ATOM     22  C   UNL     1       2.457   0.153   0.246  1.00  0.00     0.069 C 
ATOM     23  H   UNL     1       5.137  -3.044  -1.581  1.00  0.00     0.190 HD
ENDBRANCH  15  16
ENDBRANCH  14  15
ENDBRANCH  13  14
ENDBRANCH   1  13
TORSDOF 7
ENDMDL
MODEL 8
REMARK VINA RESULT:    -4.140      3.770      6.507
REMARK INTER + INTRA:          -6.155
REMARK INTER:                  -5.493
REMARK INTRA:                  -0.662
REMARK UNBOUND:                -0.443
REMARK SMILES Cc1n[nH]c(C)c1CCCOc1cc(C(=O)O)ccc1F
REMARK SMILES IDX 11 1 12 2 14 3 18 4 13 5 19 6 20 7 21 8 15 9 16 10 17 11
REMARK SMILES IDX 10 13 9 14 8 15 7 16 5 17 2 18 4 19 3 20 6 21 1 22
REMARK H PARENT 17 12 4 23
ROOT
ATOM      1  O   UNL     1       7.468  -0.624   1.551  1.00  0.00    -0.490 OA
ENDROOT
BRANCH   1   2
ATOM      2  C   UNL     1       8.781  -0.289   1.439  1.00  0.00     0.155 A 
ATOM      3  C   UNL     1      10.742   0.052   0.089  1.00  0.00     0.063 A 
ATOM      4  C   UNL     1      11.462   0.410   1.232  1.00  0.00     0.019 A 
ATOM      5  C   UNL     1       9.395  -0.298   0.201  1.00  0.00     0.065 A 
ATOM      6  C   UNL     1      10.840   0.422   2.463  1.00  0.00     0.044 A 
ATOM      7  C   UNL     1       9.503   0.079   2.570  1.00  0.00     0.165 A 
ATOM      8  F   UNL     1       8.899   0.094   3.779  1.00  0.00    -0.203 F 
BRANCH   3   9
ATOM      9  C   UNL     1      11.404   0.038  -1.230  1.00  0.00     0.335 C 
ATOM     10  O   UNL     1      12.582  -0.245  -1.315  1.00  0.00    -0.246 OA
BRANCH   9  11
ATOM     11  O   UNL     1      10.700   0.332  -2.340  1.00  0.00    -0.478 OA
ATOM     12  H   UNL     1       9.811  -0.044  -2.409  1.00  0.00     0.297 HD
ENDBRANCH   9  11
ENDBRANCH   3   9
ENDBRANCH   1   2
BRANCH   1  13
ATOM     13  C   UNL     1       6.975  -1.621   0.653  1.00  0.00     0.230 C 
BRANCH  13  14
ATOM     14  C   UNL     1       5.526  -1.301   0.283  1.00  0.00     0.046 C 
BRANCH  14  15
ATOM     15  C   UNL     1       5.434   0.142  -0.216  1.00  0.00     0.043 C 
BRANCH  15  16
ATOM     16  C   UNL     1       4.706   0.981   0.802  1.00  0.00    -0.004 A 
ATOM     17  C   UNL     1       3.430   0.802   1.215  1.00  0.00     0.036 A 
ATOM     18  C   UNL     1       5.231   2.079   1.491  1.00  0.00     0.063 A 
ATOM     19  N   UNL     1       3.155   1.757   2.129  1.00  0.00    -0.282 N 
ATOM     20  N   UNL     1       4.301   2.549   2.282  1.00  0.00    -0.181 NA
ATOM     21  C   UNL     1       2.485  -0.271   0.740  1.00  0.00     0.066 C 
ATOM     22  C   UNL     1       6.625   2.632   1.341  1.00  0.00     0.069 C 
ATOM     23  H   UNL     1       2.314   1.874   2.596  1.00  0.00     0.190 HD
ENDBRANCH  15  16
ENDBRANCH  14  15
ENDBRANCH  13  14
ENDBRANCH   1  13
TORSDOF 7
ENDMDL
MODEL 9
REMARK VINA RESULT:    -4.136      3.894      6.859
REMARK INTER + INTRA:          -6.149
REMARK INTER:                  -5.350
REMARK INTRA:                  -0.799
REMARK UNBOUND:                -0.443
REMARK SMILES Cc1n[nH]c(C)c1CCCOc1cc(C(=O)O)ccc1F
REMARK SMILES IDX 11 1 12 2 14 3 18 4 13 5 19 6 20 7 21 8 15 9 16 10 17 11
REMARK SMILES IDX 10 13 9 14 8 15 7 16 5 17 2 18 4 19 3 20 6 21 1 22
REMARK H PARENT 17 12 4 23
ROOT
ATOM      1  O   UNL     1       7.561   0.916   0.671  1.00  0.00    -0.490 OA
ENDROOT
BRANCH   1   2
ATOM      2  C   UNL     1       8.827   0.671   1.102  1.00  0.00     0.155 A 
ATOM      3  C   UNL     1      10.416   0.439   2.893  1.00  0.00     0.063 A 
ATOM      4  C   UNL     1      11.419   0.157   1.961  1.00  0.00     0.019 A 
ATOM      5  C   UNL     1       9.115   0.696   2.454  1.00  0.00     0.065 A 
ATOM      6  C   UNL     1      11.121   0.128   0.615  1.00  0.00     0.044 A 
ATOM      7  C   UNL     1       9.829   0.379   0.183  1.00  0.00     0.165 A 
ATOM      8  F   UNL     1       9.544   0.349  -1.138  1.00  0.00    -0.203 F 
BRANCH   3   9
ATOM      9  C   UNL     1      10.731   0.470   4.334  1.00  0.00     0.335 C 
ATOM     10  O   UNL     1      11.859   0.723   4.704  1.00  0.00    -0.246 OA
BRANCH   9  11
ATOM     11  O   UNL     1       9.764   0.225   5.240  1.00  0.00    -0.478 OA
ATOM     12  H   UNL     1       9.807   0.716   6.073  1.00  0.00     0.297 HD
ENDBRANCH   9  11
ENDBRANCH   3   9
ENDBRANCH   1   2
BRANCH   1  13
ATOM     13  C   UNL     1       6.764   1.794   1.469  1.00  0.00     0.230 C 
BRANCH  13  14
ATOM     14  C   UNL     1       5.292   1.394   1.351  1.00  0.00     0.046 C 
BRANCH  14  15
ATOM     15  C   UNL     1       5.112  -0.042   1.849  1.00  0.00     0.043 C 
BRANCH  15  16
ATOM     16  C   UNL     1       4.733  -0.931   0.693  1.00  0.00    -0.004 A 
ATOM     17  C   UNL     1       3.592  -0.854  -0.030  1.00  0.00     0.036 A 
ATOM     18  C   UNL     1       5.501  -1.979   0.175  1.00  0.00     0.063 A 
ATOM     19  N   UNL     1       3.634  -1.822  -0.969  1.00  0.00    -0.282 N 
ATOM     20  N   UNL     1       4.840  -2.518  -0.817  1.00  0.00    -0.181 NA
ATOM     21  C   UNL     1       2.476   0.137   0.175  1.00  0.00     0.066 C 
ATOM     22  C   UNL     1       6.852  -2.419   0.679  1.00  0.00     0.069 C 
ATOM     23  H   UNL     1       2.949  -2.005  -1.631  1.00  0.00     0.190 HD
ENDBRANCH  15  16
ENDBRANCH  14  15
ENDBRANCH  13  14
ENDBRANCH   1  13
TORSDOF 7
ENDMDL
