MODEL 1
REMARK VINA RESULT:    -3.837      0.000      0.000
REMARK INTER + INTRA:          -4.694
REMARK INTER:                  -4.398
REMARK INTRA:                  -0.296
REMARK UNBOUND:                -0.296
REMARK SMILES O=C(O)c1ccc2nc(-c3cc(Cl)cc(Cl)c3)oc2c1
REMARK SMILES IDX 5 1 6 2 20 3 8 4 18 5 4 6 9 7 7 8 19 9 2 10 1 11 3 12 10 14
REMARK SMILES IDX 11 15 17 16 12 17 15 18 14 19 13 20 16 21
REMARK H PARENT 3 13
ROOT
ATOM      1  C   UNL     1       3.281   8.029 -10.807  1.00  0.00     0.018 A 
ATOM      2  C   UNL     1       3.568   6.794 -10.310  1.00  0.00     0.033 A 
ATOM      3  C   UNL     1       1.854   8.491  -8.901  1.00  0.00     0.065 A 
ATOM      4  N   UNL     1       3.098   5.243  -8.371  1.00  0.00    -0.209 NA
ATOM      5  O   UNL     1       1.760   6.569  -7.283  1.00  0.00    -0.436 OA
ATOM      6  C   UNL     1       2.423   8.893 -10.111  1.00  0.00     0.063 A 
ATOM      7  C   UNL     1       2.359   5.363  -7.297  1.00  0.00     0.227 A 
ATOM      8  C   UNL     1       3.004   6.378  -9.097  1.00  0.00     0.110 A 
ATOM      9  C   UNL     1       2.140   7.236  -8.395  1.00  0.00     0.156 A 
ENDROOT
BRANCH   6  10
ATOM     10  C   UNL     1       2.124  10.229 -10.656  1.00  0.00     0.335 C 
ATOM     11  O   UNL     1       1.326  10.950 -10.092  1.00  0.00    -0.246 OA
BRANCH  10  12
ATOM     12  O   UNL     1       2.735  10.651 -11.782  1.00  0.00    -0.478 OA
ATOM     13  H   UNL     1       3.634  10.334 -11.938  1.00  0.00     0.297 HD
ENDBRANCH  10  12
ENDBRANCH   6  10
BRANCH   7  14
ATOM     14  C   UNL     1       2.204   4.327  -6.254  1.00  0.00     0.040 A 
ATOM     15  C   UNL     1       3.221   3.398  -6.034  1.00  0.00     0.034 A 
ATOM     16  C   UNL     1       1.039   4.275  -5.487  1.00  0.00     0.034 A 
ATOM     17  C   UNL     1       3.071   2.433  -5.058  1.00  0.00     0.043 A 
ATOM     18  C   UNL     1       0.901   3.305  -4.514  1.00  0.00     0.043 A 
ATOM     19  C   UNL     1       1.913   2.386  -4.300  1.00  0.00     0.041 A 
ATOM     20  Cl  UNL     1       4.335   1.276  -4.781  1.00  0.00    -0.084 Cl
ATOM     21  Cl  UNL     1      -0.547   3.238  -3.557  1.00  0.00    -0.084 Cl
ENDBRANCH   7  14
TORSDOF 3
ENDMDL
MODEL 2
REMARK VINA RESULT:    -3.824      0.003      2.019
REMARK INTER + INTRA:          -4.679
REMARK INTER:                  -4.383
REMARK INTRA:                  -0.296
REMARK UNBOUND:                -0.296
REMARK SMILES O=C(O)c1ccc2nc(-c3cc(Cl)cc(Cl)c3)oc2c1
REMARK SMILES IDX 5 1 6 2 20 3 8 4 18 5 4 6 9 7 7 8 19 9 2 10 1 11 3 12 10 14
REMARK SMILES IDX 11 15 17 16 12 17 15 18 14 19 13 20 16 21
REMARK H PARENT 3 13
ROOT
ATOM      1  C   UNL     1       3.282   8.028 -10.808  1.00  0.00     0.018 A 
ATOM      2  C   UNL     1       3.569   6.793 -10.309  1.00  0.00     0.033 A 
ATOM      3  C   UNL     1       1.855   8.492  -8.903  1.00  0.00     0.065 A 
ATOM      4  N   UNL     1       3.097   5.244  -8.370  1.00  0.00    -0.209 NA
ATOM      5  O   UNL     1       1.759   6.571  -7.284  1.00  0.00    -0.436 OA
ATOM      6  C   UNL     1       2.425   8.893 -10.112  1.00  0.00     0.063 A 
ATOM      7  C   UNL     1       2.357   5.365  -7.296  1.00  0.00     0.227 A 
ATOM      8  C   UNL     1       3.004   6.378  -9.097  1.00  0.00     0.110 A 
ATOM      9  C   UNL     1       2.139   7.237  -8.396  1.00  0.00     0.156 A 
ENDROOT
BRANCH   6  10
ATOM     10  C   UNL     1       2.126  10.229 -10.659  1.00  0.00     0.335 C 
ATOM     11  O   UNL     1       1.329  10.951 -10.095  1.00  0.00    -0.246 OA
BRANCH  10  12
ATOM     12  O   UNL     1       2.737  10.649 -11.784  1.00  0.00    -0.478 OA
ATOM     13  H   UNL     1       2.908  11.597 -11.863  1.00  0.00     0.297 HD
ENDBRANCH  10  12
ENDBRANCH   6  10
BRANCH   7  14
ATOM     14  C   UNL     1       2.201   4.330  -6.253  1.00  0.00     0.040 A 
ATOM     15  C   UNL     1       1.038   4.278  -5.485  1.00  0.00     0.034 A 
ATOM     16  C   UNL     1       3.219   3.400  -6.033  1.00  0.00     0.034 A 
ATOM     17  C   UNL     1       0.899   3.307  -4.512  1.00  0.00     0.043 A 
ATOM     18  C   UNL     1       3.068   2.434  -5.058  1.00  0.00     0.043 A 
ATOM     19  C   UNL     1       1.912   2.388  -4.299  1.00  0.00     0.041 A 
ATOM     20  Cl  UNL     1      -0.548   3.241  -3.555  1.00  0.00    -0.084 Cl
ATOM     21  Cl  UNL     1       4.333   1.276  -4.782  1.00  0.00    -0.084 Cl
ENDBRANCH   7  14
TORSDOF 3
ENDMDL
MODEL 3
REMARK VINA RESULT:    -3.793      1.797      2.492
REMARK INTER + INTRA:          -4.643
REMARK INTER:                  -4.347
REMARK INTRA:                  -0.296
REMARK UNBOUND:                -0.296
REMARK SMILES O=C(O)c1ccc2nc(-c3cc(Cl)cc(Cl)c3)oc2c1
REMARK SMILES IDX 5 1 6 2 20 3 8 4 18 5 4 6 9 7 7 8 19 9 2 10 1 11 3 12 10 14
REMARK SMILES IDX 11 15 17 16 12 17 15 18 14 19 13 20 16 21
REMARK H PARENT 3 13
ROOT
ATOM      1  C   UNL     1       3.347   8.103 -10.770  1.00  0.00     0.018 A 
ATOM      2  C   UNL     1       2.626   7.895  -9.632  1.00  0.00     0.033 A 
ATOM      3  C   UNL     1       4.216   5.842 -10.661  1.00  0.00     0.065 A 
ATOM      4  N   UNL     1       2.100   6.164  -7.869  1.00  0.00    -0.209 NA
ATOM      5  O   UNL     1       3.345   4.571  -8.674  1.00  0.00    -0.436 OA
ATOM      6  C   UNL     1       4.148   7.082 -11.299  1.00  0.00     0.063 A 
ATOM      7  C   UNL     1       2.495   4.927  -7.693  1.00  0.00     0.227 A 
ATOM      8  C   UNL     1       2.685   6.656  -8.982  1.00  0.00     0.110 A 
ATOM      9  C   UNL     1       3.489   5.628  -9.504  1.00  0.00     0.156 A 
ENDROOT
BRANCH   6  10
ATOM     10  C   UNL     1       4.920   7.317 -12.533  1.00  0.00     0.335 C 
ATOM     11  O   UNL     1       5.588   6.422 -13.011  1.00  0.00    -0.246 OA
BRANCH  10  12
ATOM     12  O   UNL     1       4.884   8.524 -13.131  1.00  0.00    -0.478 OA
ATOM     13  H   UNL     1       4.766   9.294 -12.559  1.00  0.00     0.297 HD
ENDBRANCH  10  12
ENDBRANCH   6  10
BRANCH   7  14
ATOM     14  C   UNL     1       2.071   4.053  -6.579  1.00  0.00     0.040 A 
ATOM     15  C   UNL     1       2.906   3.027  -6.136  1.00  0.00     0.034 A 
ATOM     16  C   UNL     1       0.831   4.251  -5.967  1.00  0.00     0.034 A 
ATOM     17  C   UNL     1       2.504   2.215  -5.094  1.00  0.00     0.043 A 
ATOM     18  C   UNL     1       0.440   3.432  -4.926  1.00  0.00     0.043 A 
ATOM     19  C   UNL     1       1.273   2.416  -4.491  1.00  0.00     0.041 A 
ATOM     20  Cl  UNL     1       3.541   0.938  -4.540  1.00  0.00    -0.084 Cl
ATOM     21  Cl  UNL     1      -1.100   3.677  -4.163  1.00  0.00    -0.084 Cl
ENDBRANCH   7  14
TORSDOF 3
ENDMDL
MODEL 4
REMARK VINA RESULT:    -3.789      1.799      3.194
REMARK INTER + INTRA:          -4.639
REMARK INTER:                  -4.343
REMARK INTRA:                  -0.296
REMARK UNBOUND:                -0.296
REMARK SMILES O=C(O)c1ccc2nc(-c3cc(Cl)cc(Cl)c3)oc2c1
REMARK SMILES IDX 5 1 6 2 20 3 8 4 18 5 4 6 9 7 7 8 19 9 2 10 1 11 3 12 10 14
REMARK SMILES IDX 11 15 17 16 12 17 15 18 14 19 13 20 16 21
REMARK H PARENT 3 13
ROOT
ATOM      1  C   UNL     1       3.351   8.105 -10.773  1.00  0.00     0.018 A 
ATOM      2  C   UNL     1       2.630   7.898  -9.636  1.00  0.00     0.033 A 
ATOM      3  C   UNL     1       4.217   5.843 -10.665  1.00  0.00     0.065 A 
ATOM      4  N   UNL     1       2.102   6.168  -7.873  1.00  0.00    -0.209 NA
ATOM      5  O   UNL     1       3.344   4.574  -8.678  1.00  0.00    -0.436 OA
ATOM      6  C   UNL     1       4.151   7.083 -11.303  1.00  0.00     0.063 A 
ATOM      7  C   UNL     1       2.495   4.931  -7.696  1.00  0.00     0.227 A 
ATOM      8  C   UNL     1       2.687   6.659  -8.986  1.00  0.00     0.110 A 
ATOM      9  C   UNL     1       3.490   5.630  -9.508  1.00  0.00     0.156 A 
ENDROOT
BRANCH   6  10
ATOM     10  C   UNL     1       4.922   7.317 -12.537  1.00  0.00     0.335 C 
ATOM     11  O   UNL     1       5.589   6.421 -13.016  1.00  0.00    -0.246 OA
BRANCH  10  12
ATOM     12  O   UNL     1       4.890   8.525 -13.134  1.00  0.00    -0.478 OA
ATOM     13  H   UNL     1       5.738   8.959 -13.292  1.00  0.00     0.297 HD
ENDBRANCH  10  12
ENDBRANCH   6  10
BRANCH   7  14
ATOM     14  C   UNL     1       2.070   4.058  -6.583  1.00  0.00     0.040 A 
ATOM     15  C   UNL     1       0.831   4.255  -5.971  1.00  0.00     0.034 A 
ATOM     16  C   UNL     1       2.907   3.032  -6.138  1.00  0.00     0.034 A 
ATOM     17  C   UNL     1       0.439   3.435  -4.931  1.00  0.00     0.043 A 
ATOM     18  C   UNL     1       2.504   2.219  -5.098  1.00  0.00     0.043 A 
ATOM     19  C   UNL     1       1.274   2.420  -4.495  1.00  0.00     0.041 A 
ATOM     20  Cl  UNL     1      -1.101   3.677  -4.169  1.00  0.00    -0.084 Cl
ATOM     21  Cl  UNL     1       3.543   0.943  -4.543  1.00  0.00    -0.084 Cl
ENDBRANCH   7  14
TORSDOF 3
ENDMDL
MODEL 5
REMARK VINA RESULT:    -3.713      3.747      7.418
REMARK INTER + INTRA:          -4.552
REMARK INTER:                  -4.254
REMARK INTRA:                  -0.298
REMARK UNBOUND:                -0.296
REMARK SMILES O=C(O)c1ccc2nc(-c3cc(Cl)cc(Cl)c3)oc2c1
REMARK SMILES IDX 5 1 6 2 20 3 8 4 18 5 4 6 9 7 7 8 19 9 2 10 1 11 3 12 10 14
REMARK SMILES IDX 11 15 17 16 12 17 15 18 14 19 13 20 16 21
REMARK H PARENT 3 13
ROOT
ATOM      1  C   UNL     1       2.295   1.874  -5.051  1.00  0.00     0.018 A 
ATOM      2  C   UNL     1       2.923   2.269  -6.194  1.00  0.00     0.033 A 
ATOM      3  C   UNL     1       1.124   3.994  -4.933  1.00  0.00     0.065 A 
ATOM      4  N   UNL     1       3.123   4.192  -7.820  1.00  0.00    -0.209 NA
ATOM      5  O   UNL     1       1.724   5.531  -6.829  1.00  0.00    -0.436 OA
ATOM      6  C   UNL     1       1.388   2.728  -4.407  1.00  0.00     0.063 A 
ATOM      7  C   UNL     1       2.560   5.373  -7.873  1.00  0.00     0.227 A 
ATOM      8  C   UNL     1       2.667   3.537  -6.731  1.00  0.00     0.110 A 
ATOM      9  C   UNL     1       1.763   4.401  -6.090  1.00  0.00     0.156 A 
ENDROOT
BRANCH   6  10
ATOM     10  C   UNL     1       0.711   2.287  -3.175  1.00  0.00     0.335 C 
ATOM     11  O   UNL     1       1.086   1.285  -2.600  1.00  0.00    -0.246 OA
BRANCH  10  12
ATOM     12  O   UNL     1      -0.327   2.995  -2.685  1.00  0.00    -0.478 OA
ATOM     13  H   UNL     1      -1.198   2.579  -2.722  1.00  0.00     0.297 HD
ENDBRANCH  10  12
ENDBRANCH   6  10
BRANCH   7  14
ATOM     14  C   UNL     1       2.807   6.384  -8.923  1.00  0.00     0.040 A 
ATOM     15  C   UNL     1       3.645   6.087  -9.998  1.00  0.00     0.034 A 
ATOM     16  C   UNL     1       2.203   7.640  -8.842  1.00  0.00     0.034 A 
ATOM     17  C   UNL     1       3.871   7.035 -10.976  1.00  0.00     0.043 A 
ATOM     18  C   UNL     1       2.436   8.579  -9.826  1.00  0.00     0.043 A 
ATOM     19  C   UNL     1       3.269   8.279 -10.890  1.00  0.00     0.041 A 
ATOM     20  Cl  UNL     1       4.913   6.668 -12.315  1.00  0.00    -0.084 Cl
ATOM     21  Cl  UNL     1       1.685  10.142  -9.728  1.00  0.00    -0.084 Cl
ENDBRANCH   7  14
TORSDOF 3
ENDMDL
MODEL 6
REMARK VINA RESULT:    -3.708      3.746      7.656
REMARK INTER + INTRA:          -4.546
REMARK INTER:                  -4.249
REMARK INTRA:                  -0.298
REMARK UNBOUND:                -0.296
REMARK SMILES O=C(O)c1ccc2nc(-c3cc(Cl)cc(Cl)c3)oc2c1
REMARK SMILES IDX 5 1 6 2 20 3 8 4 18 5 4 6 9 7 7 8 19 9 2 10 1 11 3 12 10 14
REMARK SMILES IDX 11 15 17 16 12 17 15 18 14 19 13 20 16 21
REMARK H PARENT 3 13
ROOT
ATOM      1  C   UNL     1       2.270   1.875  -5.054  1.00  0.00     0.018 A 
ATOM      2  C   UNL     1       2.892   2.268  -6.200  1.00  0.00     0.033 A 
ATOM      3  C   UNL     1       1.121   4.006  -4.919  1.00  0.00     0.065 A 
ATOM      4  N   UNL     1       3.099   4.194  -7.822  1.00  0.00    -0.209 NA
ATOM      5  O   UNL     1       1.721   5.544  -6.815  1.00  0.00    -0.436 OA
ATOM      6  C   UNL     1       1.376   2.736  -4.400  1.00  0.00     0.063 A 
ATOM      7  C   UNL     1       2.547   5.381  -7.866  1.00  0.00     0.227 A 
ATOM      8  C   UNL     1       2.645   3.539  -6.732  1.00  0.00     0.110 A 
ATOM      9  C   UNL     1       1.754   4.410  -6.080  1.00  0.00     0.156 A 
ENDROOT
BRANCH   6  10
ATOM     10  C   UNL     1       0.704   2.297  -3.164  1.00  0.00     0.335 C 
ATOM     11  O   UNL     1       1.088   1.301  -2.584  1.00  0.00    -0.246 OA
BRANCH  10  12
ATOM     12  O   UNL     1      -0.337   3.001  -2.676  1.00  0.00    -0.478 OA
ATOM     13  H   UNL     1      -1.168   2.953  -3.167  1.00  0.00     0.297 HD
ENDBRANCH  10  12
ENDBRANCH   6  10
BRANCH   7  14
ATOM     14  C   UNL     1       2.796   6.392  -8.915  1.00  0.00     0.040 A 
ATOM     15  C   UNL     1       2.189   7.646  -8.837  1.00  0.00     0.034 A 
ATOM     16  C   UNL     1       3.639   6.096  -9.987  1.00  0.00     0.034 A 
ATOM     17  C   UNL     1       2.426   8.587  -9.820  1.00  0.00     0.043 A 
ATOM     18  C   UNL     1       3.868   7.045 -10.963  1.00  0.00     0.043 A 
ATOM     19  C   UNL     1       3.263   8.287 -10.881  1.00  0.00     0.041 A 
ATOM     20  Cl  UNL     1       1.673  10.148  -9.725  1.00  0.00    -0.084 Cl
ATOM     21  Cl  UNL     1       4.917   6.678 -12.298  1.00  0.00    -0.084 Cl
ENDBRANCH   7  14
TORSDOF 3
ENDMDL
MODEL 7
REMARK VINA RESULT:    -3.264      4.887      6.324
REMARK INTER + INTRA:          -4.037
REMARK INTER:                  -3.749
REMARK INTRA:                  -0.288
REMARK UNBOUND:                -0.296
REMARK SMILES O=C(O)c1ccc2nc(-c3cc(Cl)cc(Cl)c3)oc2c1
REMARK SMILES IDX 5 1 6 2 20 3 8 4 18 5 4 6 9 7 7 8 19 9 2 10 1 11 3 12 10 14
REMARK SMILES IDX 11 15 17 16 12 17 15 18 14 19 13 20 16 21
REMARK H PARENT 3 13
ROOT
ATOM      1  C   UNL     1       5.931   6.801 -15.496  1.00  0.00     0.018 A 
ATOM      2  C   UNL     1       5.621   7.553 -14.403  1.00  0.00     0.033 A 
ATOM      3  C   UNL     1       4.953   4.842 -14.454  1.00  0.00     0.065 A 
ATOM      4  N   UNL     1       4.547   7.441 -12.119  1.00  0.00    -0.209 NA
ATOM      5  O   UNL     1       4.034   5.327 -12.165  1.00  0.00    -0.436 OA
ATOM      6  C   UNL     1       5.601   5.439 -15.537  1.00  0.00     0.063 A 
ATOM      7  C   UNL     1       3.992   6.464 -11.446  1.00  0.00     0.227 A 
ATOM      8  C   UNL     1       4.972   6.967 -13.310  1.00  0.00     0.110 A 
ATOM      9  C   UNL     1       4.641   5.600 -13.341  1.00  0.00     0.156 A 
ENDROOT
BRANCH   6  10
ATOM     10  C   UNL     1       5.936   4.637 -16.728  1.00  0.00     0.335 C 
ATOM     11  O   UNL     1       5.089   3.936 -17.245  1.00  0.00    -0.246 OA
BRANCH  10  12
ATOM     12  O   UNL     1       7.181   4.680 -17.241  1.00  0.00    -0.478 OA
ATOM     13  H   UNL     1       7.564   3.843 -17.535  1.00  0.00     0.297 HD
ENDBRANCH  10  12
ENDBRANCH   6  10
BRANCH   7  14
ATOM     14  C   UNL     1       3.406   6.593 -10.095  1.00  0.00     0.040 A 
ATOM     15  C   UNL     1       3.517   5.545  -9.180  1.00  0.00     0.034 A 
ATOM     16  C   UNL     1       2.738   7.763  -9.730  1.00  0.00     0.034 A 
ATOM     17  C   UNL     1       2.968   5.671  -7.920  1.00  0.00     0.043 A 
ATOM     18  C   UNL     1       2.193   7.878  -8.467  1.00  0.00     0.043 A 
ATOM     19  C   UNL     1       2.307   6.835  -7.564  1.00  0.00     0.041 A 
ATOM     20  Cl  UNL     1       3.106   4.370  -6.780  1.00  0.00    -0.084 Cl
ATOM     21  Cl  UNL     1       1.362   9.333  -8.010  1.00  0.00    -0.084 Cl
ENDBRANCH   7  14
TORSDOF 3
ENDMDL
MODEL 8
REMARK VINA RESULT:    -3.246      4.317      7.775
REMARK INTER + INTRA:          -4.016
REMARK INTER:                  -3.728
REMARK INTRA:                  -0.287
REMARK UNBOUND:                -0.296
REMARK SMILES O=C(O)c1ccc2nc(-c3cc(Cl)cc(Cl)c3)oc2c1
REMARK SMILES IDX 5 1 6 2 20 3 8 4 18 5 4 6 9 7 7 8 19 9 2 10 1 11 3 12 10 14
REMARK SMILES IDX 11 15 17 16 12 17 15 18 14 19 13 20 16 21
REMARK H PARENT 3 13
ROOT
ATOM      1  C   UNL     1       1.448   3.807  -7.508  1.00  0.00     0.018 A 
ATOM      2  C   UNL     1       0.831   4.800  -8.209  1.00  0.00     0.033 A 
ATOM      3  C   UNL     1       3.361   5.242  -7.111  1.00  0.00     0.065 A 
ATOM      4  N   UNL     1       1.118   7.180  -9.004  1.00  0.00    -0.209 NA
ATOM      5  O   UNL     1       3.091   7.515  -8.150  1.00  0.00    -0.436 OA
ATOM      6  C   UNL     1       2.717   4.014  -6.950  1.00  0.00     0.063 A 
ATOM      7  C   UNL     1       2.084   8.053  -8.865  1.00  0.00     0.227 A 
ATOM      8  C   UNL     1       1.466   6.036  -8.378  1.00  0.00     0.110 A 
ATOM      9  C   UNL     1       2.741   6.251  -7.825  1.00  0.00     0.156 A 
ENDROOT
BRANCH   6  10
ATOM     10  C   UNL     1       3.371   2.935  -6.189  1.00  0.00     0.335 C 
ATOM     11  O   UNL     1       3.019   1.782  -6.345  1.00  0.00    -0.246 OA
BRANCH  10  12
ATOM     12  O   UNL     1       4.360   3.225  -5.320  1.00  0.00    -0.478 OA
ATOM     13  H   UNL     1       4.372   4.118  -4.951  1.00  0.00     0.297 HD
ENDBRANCH  10  12
ENDBRANCH   6  10
BRANCH   7  14
ATOM     14  C   UNL     1       2.072   9.426  -9.412  1.00  0.00     0.040 A 
ATOM     15  C   UNL     1       2.029  10.523  -8.552  1.00  0.00     0.034 A 
ATOM     16  C   UNL     1       2.102   9.629 -10.794  1.00  0.00     0.034 A 
ATOM     17  C   UNL     1       2.019  11.803  -9.070  1.00  0.00     0.043 A 
ATOM     18  C   UNL     1       2.091  10.913 -11.300  1.00  0.00     0.043 A 
ATOM     19  C   UNL     1       2.048  11.998 -10.441  1.00  0.00     0.041 A 
ATOM     20  Cl  UNL     1       1.966  13.171  -8.002  1.00  0.00    -0.084 Cl
ATOM     21  Cl  UNL     1       2.128  11.168 -13.017  1.00  0.00    -0.084 Cl
ENDBRANCH   7  14
TORSDOF 3
ENDMDL
MODEL 9
REMARK VINA RESULT:    -3.142      4.871      6.460
REMARK INTER + INTRA:          -3.898
REMARK INTER:                  -3.610
REMARK INTRA:                  -0.288
REMARK UNBOUND:                -0.296
REMARK SMILES O=C(O)c1ccc2nc(-c3cc(Cl)cc(Cl)c3)oc2c1
REMARK SMILES IDX 5 1 6 2 20 3 8 4 18 5 4 6 9 7 7 8 19 9 2 10 1 11 3 12 10 14
REMARK SMILES IDX 11 15 17 16 12 17 15 18 14 19 13 20 16 21
REMARK H PARENT 3 13
ROOT
ATOM      1  C   UNL     1       5.971   6.669 -15.418  1.00  0.00     0.018 A 
ATOM      2  C   UNL     1       5.706   7.412 -14.307  1.00  0.00     0.033 A 
ATOM      3  C   UNL     1       4.836   4.761 -14.441  1.00  0.00     0.065 A 
ATOM      4  N   UNL     1       4.599   7.320 -12.038  1.00  0.00    -0.209 NA
ATOM      5  O   UNL     1       3.930   5.252 -12.148  1.00  0.00    -0.436 OA
ATOM      6  C   UNL     1       5.539   5.337 -15.500  1.00  0.00     0.063 A 
ATOM      7  C   UNL     1       3.964   6.370 -11.398  1.00  0.00     0.227 A 
ATOM      8  C   UNL     1       5.001   6.847 -13.237  1.00  0.00     0.110 A 
ATOM      9  C   UNL     1       4.569   5.511 -13.310  1.00  0.00     0.156 A 
ENDROOT
BRANCH   6  10
ATOM     10  C   UNL     1       5.827   4.544 -16.709  1.00  0.00     0.335 C 
ATOM     11  O   UNL     1       4.940   3.910 -17.245  1.00  0.00    -0.246 OA
BRANCH  10  12
ATOM     12  O   UNL     1       7.074   4.522 -17.220  1.00  0.00    -0.478 OA
ATOM     13  H   UNL     1       7.154   4.518 -18.183  1.00  0.00     0.297 HD
ENDBRANCH  10  12
ENDBRANCH   6  10
BRANCH   7  14
ATOM     14  C   UNL     1       3.374   6.505 -10.050  1.00  0.00     0.040 A 
ATOM     15  C   UNL     1       2.728   7.686  -9.683  1.00  0.00     0.034 A 
ATOM     16  C   UNL     1       3.462   5.451  -9.138  1.00  0.00     0.034 A 
ATOM     17  C   UNL     1       2.178   7.806  -8.422  1.00  0.00     0.043 A 
ATOM     18  C   UNL     1       2.908   5.583  -7.880  1.00  0.00     0.043 A 
ATOM     19  C   UNL     1       2.268   6.757  -7.522  1.00  0.00     0.041 A 
ATOM     20  Cl  UNL     1       1.373   9.274  -7.963  1.00  0.00    -0.084 Cl
ATOM     21  Cl  UNL     1       3.016   4.274  -6.744  1.00  0.00    -0.084 Cl
ENDBRANCH   7  14
TORSDOF 3
ENDMDL
