MODEL 1
REMARK VINA RESULT:    -5.390      0.000      0.000
REMARK INTER + INTRA:          -8.037
REMARK INTER:                  -7.438
REMARK INTRA:                  -0.600
REMARK UNBOUND:                -0.600
REMARK SMILES Cc1n[nH]c(C)c1CCCOc1cc(C(=O)O)ccc1F
REMARK SMILES IDX 11 1 12 2 14 3 18 4 13 5 19 6 20 7 21 8 15 9 16 10 17 11
REMARK SMILES IDX 10 13 9 14 8 15 7 16 5 17 2 18 4 19 3 20 6 21 1 22
REMARK H PARENT 17 12 4 23
ROOT
ATOM      1  O   UNL     1       3.907   5.184  -5.319  1.00  0.00    -0.490 OA
ENDROOT
BRANCH   1   2
ATOM      2  C   UNL     1       2.999   4.206  -5.058  1.00  0.00     0.155 A 
ATOM      3  C   UNL     1       0.720   3.500  -4.755  1.00  0.00     0.063 A 
ATOM      4  C   UNL     1       1.159   2.192  -4.534  1.00  0.00     0.019 A 
ATOM      5  C   UNL     1       1.650   4.508  -5.018  1.00  0.00     0.065 A 
ATOM      6  C   UNL     1       2.506   1.899  -4.582  1.00  0.00     0.044 A 
ATOM      7  C   UNL     1       3.426   2.900  -4.848  1.00  0.00     0.165 A 
ATOM      8  F   UNL     1       4.744   2.606  -4.894  1.00  0.00    -0.203 F 
BRANCH   3   9
ATOM      9  C   UNL     1      -0.721   3.817  -4.704  1.00  0.00     0.335 C 
ATOM     10  O   UNL     1      -1.085   4.953  -4.479  1.00  0.00    -0.246 OA
BRANCH   9  11
ATOM     11  O   UNL     1      -1.631   2.846  -4.914  1.00  0.00    -0.478 OA
ATOM     12  H   UNL     1      -1.293   1.950  -5.055  1.00  0.00     0.297 HD
ENDBRANCH   9  11
ENDBRANCH   3   9
ENDBRANCH   1   2
BRANCH   1  13
ATOM     13  C   UNL     1       4.541   5.155  -6.600  1.00  0.00     0.230 C 
BRANCH  13  14
ATOM     14  C   UNL     1       4.145   6.403  -7.392  1.00  0.00     0.046 C 
BRANCH  14  15
ATOM     15  C   UNL     1       3.091   6.031  -8.437  1.00  0.00     0.043 C 
BRANCH  15  16
ATOM     16  C   UNL     1       3.199   6.965  -9.615  1.00  0.00    -0.004 A 
ATOM     17  C   UNL     1       2.630   8.188  -9.715  1.00  0.00     0.036 A 
ATOM     18  C   UNL     1       3.911   6.723 -10.794  1.00  0.00     0.063 A 
ATOM     19  N   UNL     1       2.964   8.700 -10.919  1.00  0.00    -0.282 N 
ATOM     20  N   UNL     1       3.765   7.759 -11.580  1.00  0.00    -0.181 NA
ATOM     21  C   UNL     1       1.776   8.859  -8.671  1.00  0.00     0.066 C 
ATOM     22  C   UNL     1       4.699   5.478 -11.112  1.00  0.00     0.069 C 
ATOM     23  H   UNL     1       2.696   9.565 -11.265  1.00  0.00     0.190 HD
ENDBRANCH  15  16
ENDBRANCH  14  15
ENDBRANCH  13  14
ENDBRANCH   1  13
TORSDOF 7
ENDMDL
MODEL 2
REMARK VINA RESULT:    -5.363      2.262      3.884
REMARK INTER + INTRA:          -8.000
REMARK INTER:                  -7.447
REMARK INTRA:                  -0.553
REMARK UNBOUND:                -0.600
REMARK SMILES Cc1n[nH]c(C)c1CCCOc1cc(C(=O)O)ccc1F
REMARK SMILES IDX 11 1 12 2 14 3 18 4 13 5 19 6 20 7 21 8 15 9 16 10 17 11
REMARK SMILES IDX 10 13 9 14 8 15 7 16 5 17 2 18 4 19 3 20 6 21 1 22
REMARK H PARENT 17 12 4 23
ROOT
ATOM      1  O   UNL     1       0.367   3.424  -7.774  1.00  0.00    -0.490 OA
ENDROOT
BRANCH   1   2
ATOM      2  C   UNL     1       0.897   3.123  -6.558  1.00  0.00     0.155 A 
ATOM      3  C   UNL     1       2.747   2.381  -5.213  1.00  0.00     0.063 A 
ATOM      4  C   UNL     1       1.963   2.522  -4.064  1.00  0.00     0.019 A 
ATOM      5  C   UNL     1       2.205   2.685  -6.463  1.00  0.00     0.065 A 
ATOM      6  C   UNL     1       0.661   2.965  -4.168  1.00  0.00     0.044 A 
ATOM      7  C   UNL     1       0.127   3.270  -5.409  1.00  0.00     0.165 A 
ATOM      8  F   UNL     1      -1.149   3.704  -5.504  1.00  0.00    -0.203 F 
BRANCH   3   9
ATOM      9  C   UNL     1       4.141   1.908  -5.105  1.00  0.00     0.335 C 
ATOM     10  O   UNL     1       4.695   1.426  -6.072  1.00  0.00    -0.246 OA
BRANCH   9  11
ATOM     11  O   UNL     1       4.800   2.016  -3.935  1.00  0.00    -0.478 OA
ATOM     12  H   UNL     1       4.626   1.336  -3.268  1.00  0.00     0.297 HD
ENDBRANCH   9  11
ENDBRANCH   3   9
ENDBRANCH   1   2
BRANCH   1  13
ATOM     13  C   UNL     1       0.119   4.805  -8.049  1.00  0.00     0.230 C 
BRANCH  13  14
ATOM     14  C   UNL     1       1.076   5.287  -9.141  1.00  0.00     0.046 C 
BRANCH  14  15
ATOM     15  C   UNL     1       2.188   6.129  -8.511  1.00  0.00     0.043 C 
BRANCH  15  16
ATOM     16  C   UNL     1       2.675   7.147  -9.509  1.00  0.00    -0.004 A 
ATOM     17  C   UNL     1       3.553   6.920 -10.513  1.00  0.00     0.036 A 
ATOM     18  C   UNL     1       2.295   8.492  -9.564  1.00  0.00     0.063 A 
ATOM     19  N   UNL     1       3.727   8.082 -11.177  1.00  0.00    -0.282 N 
ATOM     20  N   UNL     1       2.930   9.055 -10.560  1.00  0.00    -0.181 NA
ATOM     21  C   UNL     1       4.216   5.606 -10.834  1.00  0.00     0.066 C 
ATOM     22  C   UNL     1       1.330   9.177  -8.631  1.00  0.00     0.069 C 
ATOM     23  H   UNL     1       4.303   8.220 -11.945  1.00  0.00     0.190 HD
ENDBRANCH  15  16
ENDBRANCH  14  15
ENDBRANCH  13  14
ENDBRANCH   1  13
TORSDOF 7
ENDMDL
MODEL 3
REMARK VINA RESULT:    -5.237      2.245      3.447
REMARK INTER + INTRA:          -7.826
REMARK INTER:                  -7.204
REMARK INTRA:                  -0.622
REMARK UNBOUND:                -0.600
REMARK SMILES Cc1n[nH]c(C)c1CCCOc1cc(C(=O)O)ccc1F
REMARK SMILES IDX 11 1 12 2 14 3 18 4 13 5 19 6 20 7 21 8 15 9 16 10 17 11
REMARK SMILES IDX 10 13 9 14 8 15 7 16 5 17 2 18 4 19 3 20 6 21 1 22
REMARK H PARENT 17 12 4 23
ROOT
ATOM      1  O   UNL     1       0.321   3.426  -7.735  1.00  0.00    -0.490 OA
ENDROOT
BRANCH   1   2
ATOM      2  C   UNL     1       0.857   3.129  -6.522  1.00  0.00     0.155 A 
ATOM      3  C   UNL     1       2.718   2.403  -5.183  1.00  0.00     0.063 A 
ATOM      4  C   UNL     1       1.937   2.537  -4.032  1.00  0.00     0.019 A 
ATOM      5  C   UNL     1       2.169   2.702  -6.431  1.00  0.00     0.065 A 
ATOM      6  C   UNL     1       0.631   2.970  -4.131  1.00  0.00     0.044 A 
ATOM      7  C   UNL     1       0.091   3.270  -5.370  1.00  0.00     0.165 A 
ATOM      8  F   UNL     1      -1.189   3.694  -5.461  1.00  0.00    -0.203 F 
BRANCH   3   9
ATOM      9  C   UNL     1       4.116   1.941  -5.080  1.00  0.00     0.335 C 
ATOM     10  O   UNL     1       4.682   1.496  -6.057  1.00  0.00    -0.246 OA
BRANCH   9  11
ATOM     11  O   UNL     1       4.766   2.019  -3.902  1.00  0.00    -0.478 OA
ATOM     12  H   UNL     1       4.554   1.349  -3.238  1.00  0.00     0.297 HD
ENDBRANCH   9  11
ENDBRANCH   3   9
ENDBRANCH   1   2
BRANCH   1  13
ATOM     13  C   UNL     1       0.129   4.810  -8.039  1.00  0.00     0.230 C 
BRANCH  13  14
ATOM     14  C   UNL     1       1.089   5.223  -9.156  1.00  0.00     0.046 C 
BRANCH  14  15
ATOM     15  C   UNL     1       2.229   6.057  -8.567  1.00  0.00     0.043 C 
BRANCH  15  16
ATOM     16  C   UNL     1       2.694   7.065  -9.585  1.00  0.00    -0.004 A 
ATOM     17  C   UNL     1       2.319   8.364  -9.649  1.00  0.00     0.036 A 
ATOM     18  C   UNL     1       3.594   6.825 -10.629  1.00  0.00     0.063 A 
ATOM     19  N   UNL     1       2.955   8.924 -10.700  1.00  0.00    -0.282 N 
ATOM     20  N   UNL     1       3.746   7.937 -11.302  1.00  0.00    -0.181 NA
ATOM     21  C   UNL     1       1.364   9.059  -8.715  1.00  0.00     0.066 C 
ATOM     22  C   UNL     1       4.264   5.510 -10.934  1.00  0.00     0.069 C 
ATOM     23  H   UNL     1       2.877   9.847 -10.988  1.00  0.00     0.190 HD
ENDBRANCH  15  16
ENDBRANCH  14  15
ENDBRANCH  13  14
ENDBRANCH   1  13
TORSDOF 7
ENDMDL
MODEL 4
REMARK VINA RESULT:    -5.168      0.574      1.859
REMARK INTER + INTRA:          -7.731
REMARK INTER:                  -7.093
REMARK INTRA:                  -0.638
REMARK UNBOUND:                -0.600
REMARK SMILES Cc1n[nH]c(C)c1CCCOc1cc(C(=O)O)ccc1F
REMARK SMILES IDX 11 1 12 2 14 3 18 4 13 5 19 6 20 7 21 8 15 9 16 10 17 11
REMARK SMILES IDX 10 13 9 14 8 15 7 16 5 17 2 18 4 19 3 20 6 21 1 22
REMARK H PARENT 17 12 4 23
ROOT
ATOM      1  O   UNL     1       3.685   4.088  -6.667  1.00  0.00    -0.490 OA
ENDROOT
BRANCH   1   2
ATOM      2  C   UNL     1       2.823   3.477  -5.811  1.00  0.00     0.155 A 
ATOM      3  C   UNL     1       0.633   3.285  -4.837  1.00  0.00     0.063 A 
ATOM      4  C   UNL     1       1.076   2.210  -4.062  1.00  0.00     0.019 A 
ATOM      5  C   UNL     1       1.517   3.918  -5.714  1.00  0.00     0.065 A 
ATOM      6  C   UNL     1       2.380   1.774  -4.170  1.00  0.00     0.044 A 
ATOM      7  C   UNL     1       3.253   2.400  -5.044  1.00  0.00     0.165 A 
ATOM      8  F   UNL     1       4.529   1.968  -5.145  1.00  0.00    -0.203 F 
BRANCH   3   9
ATOM      9  C   UNL     1      -0.762   3.754  -4.724  1.00  0.00     0.335 C 
ATOM     10  O   UNL     1      -0.993   4.923  -4.493  1.00  0.00    -0.246 OA
BRANCH   9  11
ATOM     11  O   UNL     1      -1.779   2.885  -4.885  1.00  0.00    -0.478 OA
ATOM     12  H   UNL     1      -2.498   2.926  -4.239  1.00  0.00     0.297 HD
ENDBRANCH   9  11
ENDBRANCH   3   9
ENDBRANCH   1   2
BRANCH   1  13
ATOM     13  C   UNL     1       4.199   5.362  -6.272  1.00  0.00     0.230 C 
BRANCH  13  14
ATOM     14  C   UNL     1       4.367   6.248  -7.507  1.00  0.00     0.046 C 
BRANCH  14  15
ATOM     15  C   UNL     1       3.188   6.029  -8.458  1.00  0.00     0.043 C 
BRANCH  15  16
ATOM     16  C   UNL     1       3.272   7.009  -9.598  1.00  0.00    -0.004 A 
ATOM     17  C   UNL     1       3.942   6.825 -10.760  1.00  0.00     0.036 A 
ATOM     18  C   UNL     1       2.666   8.269  -9.647  1.00  0.00     0.063 A 
ATOM     19  N   UNL     1       3.771   7.931 -11.514  1.00  0.00    -0.282 N 
ATOM     20  N   UNL     1       2.970   8.825 -10.791  1.00  0.00    -0.181 NA
ATOM     21  C   UNL     1       4.735   5.603 -11.142  1.00  0.00     0.066 C 
ATOM     22  C   UNL     1       1.819   8.885  -8.563  1.00  0.00     0.069 C 
ATOM     23  H   UNL     1       4.139   8.081 -12.398  1.00  0.00     0.190 HD
ENDBRANCH  15  16
ENDBRANCH  14  15
ENDBRANCH  13  14
ENDBRANCH   1  13
TORSDOF 7
ENDMDL
MODEL 5
REMARK VINA RESULT:    -4.346      3.811      6.564
REMARK INTER + INTRA:          -6.597
REMARK INTER:                  -5.802
REMARK INTRA:                  -0.795
REMARK UNBOUND:                -0.600
REMARK SMILES Cc1n[nH]c(C)c1CCCOc1cc(C(=O)O)ccc1F
REMARK SMILES IDX 11 1 12 2 14 3 18 4 13 5 19 6 20 7 21 8 15 9 16 10 17 11
REMARK SMILES IDX 10 13 9 14 8 15 7 16 5 17 2 18 4 19 3 20 6 21 1 22
REMARK H PARENT 17 12 4 23
ROOT
ATOM      1  O   UNL     1       3.199   4.690  -8.000  1.00  0.00    -0.490 OA
ENDROOT
BRANCH   1   2
ATOM      2  C   UNL     1       3.144   5.793  -8.793  1.00  0.00     0.155 A 
ATOM      3  C   UNL     1       2.396   8.044  -9.189  1.00  0.00     0.063 A 
ATOM      4  C   UNL     1       3.051   8.040 -10.423  1.00  0.00     0.019 A 
ATOM      5  C   UNL     1       2.447   6.911  -8.374  1.00  0.00     0.065 A 
ATOM      6  C   UNL     1       3.749   6.922 -10.830  1.00  0.00     0.044 A 
ATOM      7  C   UNL     1       3.801   5.802 -10.018  1.00  0.00     0.165 A 
ATOM      8  F   UNL     1       4.487   4.710 -10.422  1.00  0.00    -0.203 F 
BRANCH   3   9
ATOM      9  C   UNL     1       1.649   9.239  -8.750  1.00  0.00     0.335 C 
ATOM     10  O   UNL     1       0.478   9.365  -9.044  1.00  0.00    -0.246 OA
BRANCH   9  11
ATOM     11  O   UNL     1       2.265  10.187  -8.018  1.00  0.00    -0.478 OA
ATOM     12  H   UNL     1       1.814  11.039  -7.932  1.00  0.00     0.297 HD
ENDBRANCH   9  11
ENDBRANCH   3   9
ENDBRANCH   1   2
BRANCH   1  13
ATOM     13  C   UNL     1       3.414   4.906  -6.603  1.00  0.00     0.230 C 
BRANCH  13  14
ATOM     14  C   UNL     1       3.384   3.563  -5.870  1.00  0.00     0.046 C 
BRANCH  14  15
ATOM     15  C   UNL     1       2.313   2.665  -6.493  1.00  0.00     0.043 C 
BRANCH  15  16
ATOM     16  C   UNL     1       0.977   2.969  -5.867  1.00  0.00    -0.004 A 
ATOM     17  C   UNL     1       0.614   2.696  -4.592  1.00  0.00     0.036 A 
ATOM     18  C   UNL     1      -0.107   3.588  -6.499  1.00  0.00     0.063 A 
ATOM     19  N   UNL     1      -0.656   3.121  -4.426  1.00  0.00    -0.282 N 
ATOM     20  N   UNL     1      -1.088   3.674  -5.639  1.00  0.00    -0.181 NA
ATOM     21  C   UNL     1       1.474   2.035  -3.546  1.00  0.00     0.066 C 
ATOM     22  C   UNL     1      -0.141   4.063  -7.929  1.00  0.00     0.069 C 
ATOM     23  H   UNL     1      -1.178   3.055  -3.611  1.00  0.00     0.190 HD
ENDBRANCH  15  16
ENDBRANCH  14  15
ENDBRANCH  13  14
ENDBRANCH   1  13
TORSDOF 7
ENDMDL
MODEL 6
REMARK VINA RESULT:    -4.331      3.940      7.058
REMARK INTER + INTRA:          -6.577
REMARK INTER:                  -5.728
REMARK INTRA:                  -0.848
REMARK UNBOUND:                -0.600
REMARK SMILES Cc1n[nH]c(C)c1CCCOc1cc(C(=O)O)ccc1F
REMARK SMILES IDX 11 1 12 2 14 3 18 4 13 5 19 6 20 7 21 8 15 9 16 10 17 11
REMARK SMILES IDX 10 13 9 14 8 15 7 16 5 17 2 18 4 19 3 20 6 21 1 22
REMARK H PARENT 17 12 4 23
ROOT
ATOM      1  O   UNL     1       1.644   5.992  -7.347  1.00  0.00    -0.490 OA
ENDROOT
BRANCH   1   2
ATOM      2  C   UNL     1       2.235   6.548  -8.438  1.00  0.00     0.155 A 
ATOM      3  C   UNL     1       3.638   6.351 -10.381  1.00  0.00     0.063 A 
ATOM      4  C   UNL     1       3.424   7.702 -10.667  1.00  0.00     0.019 A 
ATOM      5  C   UNL     1       3.037   5.777  -9.259  1.00  0.00     0.065 A 
ATOM      6  C   UNL     1       2.618   8.462  -9.846  1.00  0.00     0.044 A 
ATOM      7  C   UNL     1       2.019   7.889  -8.737  1.00  0.00     0.165 A 
ATOM      8  F   UNL     1       1.229   8.639  -7.936  1.00  0.00    -0.203 F 
BRANCH   3   9
ATOM      9  C   UNL     1       4.500   5.535 -11.258  1.00  0.00     0.335 C 
ATOM     10  O   UNL     1       5.698   5.497 -11.066  1.00  0.00    -0.246 OA
BRANCH   9  11
ATOM     11  O   UNL     1       3.956   4.828 -12.268  1.00  0.00    -0.478 OA
ATOM     12  H   UNL     1       3.296   5.278 -12.814  1.00  0.00     0.297 HD
ENDBRANCH   9  11
ENDBRANCH   3   9
ENDBRANCH   1   2
BRANCH   1  13
ATOM     13  C   UNL     1       1.142   4.660  -7.490  1.00  0.00     0.230 C 
BRANCH  13  14
ATOM     14  C   UNL     1       0.643   4.156  -6.135  1.00  0.00     0.046 C 
BRANCH  14  15
ATOM     15  C   UNL     1       1.615   4.595  -5.038  1.00  0.00     0.043 C 
BRANCH  15  16
ATOM     16  C   UNL     1       2.730   3.588  -4.921  1.00  0.00    -0.004 A 
ATOM     17  C   UNL     1       4.026   3.793  -5.253  1.00  0.00     0.036 A 
ATOM     18  C   UNL     1       2.610   2.279  -4.444  1.00  0.00     0.063 A 
ATOM     19  N   UNL     1       4.700   2.651  -5.002  1.00  0.00    -0.282 N 
ATOM     20  N   UNL     1       3.788   1.714  -4.499  1.00  0.00    -0.181 NA
ATOM     21  C   UNL     1       4.611   5.067  -5.805  1.00  0.00     0.066 C 
ATOM     22  C   UNL     1       1.339   1.627  -3.962  1.00  0.00     0.069 C 
ATOM     23  H   UNL     1       5.648   2.505  -5.145  1.00  0.00     0.190 HD
ENDBRANCH  15  16
ENDBRANCH  14  15
ENDBRANCH  13  14
ENDBRANCH   1  13
TORSDOF 7
ENDMDL
MODEL 7
REMARK VINA RESULT:    -4.307      4.898      7.913
REMARK INTER + INTRA:          -6.543
REMARK INTER:                  -5.840
REMARK INTRA:                  -0.703
REMARK UNBOUND:                -0.600
REMARK SMILES Cc1n[nH]c(C)c1CCCOc1cc(C(=O)O)ccc1F
REMARK SMILES IDX 11 1 12 2 14 3 18 4 13 5 19 6 20 7 21 8 15 9 16 10 17 11
REMARK SMILES IDX 10 13 9 14 8 15 7 16 5 17 2 18 4 19 3 20 6 21 1 22
REMARK H PARENT 17 12 4 23
ROOT
ATOM      1  O   UNL     1       1.801   8.034  -9.042  1.00  0.00    -0.490 OA
ENDROOT
BRANCH   1   2
ATOM      2  C   UNL     1       1.876   9.356  -9.349  1.00  0.00     0.155 A 
ATOM      3  C   UNL     1       2.085  11.113 -10.977  1.00  0.00     0.063 A 
ATOM      4  C   UNL     1       2.015  12.064  -9.955  1.00  0.00     0.019 A 
ATOM      5  C   UNL     1       2.014   9.754 -10.665  1.00  0.00     0.065 A 
ATOM      6  C   UNL     1       1.871  11.658  -8.645  1.00  0.00     0.044 A 
ATOM      7  C   UNL     1       1.796  10.309  -8.339  1.00  0.00     0.165 A 
ATOM      8  F   UNL     1       1.655   9.918  -7.053  1.00  0.00    -0.203 F 
BRANCH   3   9
ATOM      9  C   UNL     1       2.239  11.544 -12.380  1.00  0.00     0.335 C 
ATOM     10  O   UNL     1       2.306  12.726 -12.649  1.00  0.00    -0.246 OA
BRANCH   9  11
ATOM     11  O   UNL     1       2.311  10.624 -13.363  1.00  0.00    -0.478 OA
ATOM     12  H   UNL     1       1.637   9.931 -13.366  1.00  0.00     0.297 HD
ENDBRANCH   9  11
ENDBRANCH   3   9
ENDBRANCH   1   2
BRANCH   1  13
ATOM     13  C   UNL     1       2.904   7.214  -9.435  1.00  0.00     0.230 C 
BRANCH  13  14
ATOM     14  C   UNL     1       2.745   5.820  -8.826  1.00  0.00     0.046 C 
BRANCH  14  15
ATOM     15  C   UNL     1       2.143   5.941  -7.425  1.00  0.00     0.043 C 
BRANCH  15  16
ATOM     16  C   UNL     1       2.170   4.596  -6.747  1.00  0.00    -0.004 A 
ATOM     17  C   UNL     1       3.129   4.148  -5.904  1.00  0.00     0.036 A 
ATOM     18  C   UNL     1       1.205   3.591  -6.874  1.00  0.00     0.063 A 
ATOM     19  N   UNL     1       2.786   2.901  -5.516  1.00  0.00    -0.282 N 
ATOM     20  N   UNL     1       1.576   2.572  -6.142  1.00  0.00    -0.181 NA
ATOM     21  C   UNL     1       4.358   4.905  -5.475  1.00  0.00     0.066 C 
ATOM     22  C   UNL     1      -0.042   3.664  -7.718  1.00  0.00     0.069 C 
ATOM     23  H   UNL     1       3.288   2.333  -4.911  1.00  0.00     0.190 HD
ENDBRANCH  15  16
ENDBRANCH  14  15
ENDBRANCH  13  14
ENDBRANCH   1  13
TORSDOF 7
ENDMDL
MODEL 8
REMARK VINA RESULT:    -4.251      4.719      8.117
REMARK INTER + INTRA:          -6.467
REMARK INTER:                  -5.800
REMARK INTRA:                  -0.666
REMARK UNBOUND:                -0.600
REMARK SMILES Cc1n[nH]c(C)c1CCCOc1cc(C(=O)O)ccc1F
REMARK SMILES IDX 11 1 12 2 14 3 18 4 13 5 19 6 20 7 21 8 15 9 16 10 17 11
REMARK SMILES IDX 10 13 9 14 8 15 7 16 5 17 2 18 4 19 3 20 6 21 1 22
REMARK H PARENT 17 12 4 23
ROOT
ATOM      1  O   UNL     1       4.224   6.014 -10.257  1.00  0.00    -0.490 OA
ENDROOT
BRANCH   1   2
ATOM      2  C   UNL     1       4.567   6.161 -11.564  1.00  0.00     0.155 A 
ATOM      3  C   UNL     1       5.295   7.549 -13.388  1.00  0.00     0.063 A 
ATOM      4  C   UNL     1       5.276   6.439 -14.235  1.00  0.00     0.019 A 
ATOM      5  C   UNL     1       4.938   7.403 -12.046  1.00  0.00     0.065 A 
ATOM      6  C   UNL     1       4.911   5.203 -13.744  1.00  0.00     0.044 A 
ATOM      7  C   UNL     1       4.562   5.059 -12.412  1.00  0.00     0.165 A 
ATOM      8  F   UNL     1       4.205   3.846 -11.937  1.00  0.00    -0.203 F 
BRANCH   3   9
ATOM      9  C   UNL     1       5.686   8.874 -13.910  1.00  0.00     0.335 C 
ATOM     10  O   UNL     1       6.075   8.985 -15.054  1.00  0.00    -0.246 OA
BRANCH   9  11
ATOM     11  O   UNL     1       5.604   9.961 -13.118  1.00  0.00    -0.478 OA
ATOM     12  H   UNL     1       6.089   9.932 -12.281  1.00  0.00     0.297 HD
ENDBRANCH   9  11
ENDBRANCH   3   9
ENDBRANCH   1   2
BRANCH   1  13
ATOM     13  C   UNL     1       3.047   6.696  -9.815  1.00  0.00     0.230 C 
BRANCH  13  14
ATOM     14  C   UNL     1       2.794   6.373  -8.341  1.00  0.00     0.046 C 
BRANCH  14  15
ATOM     15  C   UNL     1       2.887   4.860  -8.127  1.00  0.00     0.043 C 
BRANCH  15  16
ATOM     16  C   UNL     1       2.285   4.503  -6.794  1.00  0.00    -0.004 A 
ATOM     17  C   UNL     1       1.027   4.051  -6.583  1.00  0.00     0.036 A 
ATOM     18  C   UNL     1       2.930   4.573  -5.554  1.00  0.00     0.063 A 
ATOM     19  N   UNL     1       0.879   3.849  -5.257  1.00  0.00    -0.282 N 
ATOM     20  N   UNL     1       2.086   4.188  -4.632  1.00  0.00    -0.181 NA
ATOM     21  C   UNL     1      -0.020   3.815  -7.640  1.00  0.00     0.066 C 
ATOM     22  C   UNL     1       4.349   5.026  -5.320  1.00  0.00     0.069 C 
ATOM     23  H   UNL     1       0.078   3.527  -4.815  1.00  0.00     0.190 HD
ENDBRANCH  15  16
ENDBRANCH  14  15
ENDBRANCH  13  14
ENDBRANCH   1  13
TORSDOF 7
ENDMDL
MODEL 9
REMARK VINA RESULT:    -4.079      3.817      6.716
REMARK INTER + INTRA:          -6.228
REMARK INTER:                  -5.673
REMARK INTRA:                  -0.555
REMARK UNBOUND:                -0.600
REMARK SMILES Cc1n[nH]c(C)c1CCCOc1cc(C(=O)O)ccc1F
REMARK SMILES IDX 11 1 12 2 14 3 18 4 13 5 19 6 20 7 21 8 15 9 16 10 17 11
REMARK SMILES IDX 10 13 9 14 8 15 7 16 5 17 2 18 4 19 3 20 6 21 1 22
REMARK H PARENT 17 12 4 23
ROOT
ATOM      1  O   UNL     1       1.667   5.666  -6.928  1.00  0.00    -0.490 OA
ENDROOT
BRANCH   1   2
ATOM      2  C   UNL     1       2.179   6.259  -8.040  1.00  0.00     0.155 A 
ATOM      3  C   UNL     1       2.399   8.180  -9.468  1.00  0.00     0.063 A 
ATOM      4  C   UNL     1       3.244   7.453 -10.310  1.00  0.00     0.019 A 
ATOM      5  C   UNL     1       1.867   7.574  -8.328  1.00  0.00     0.065 A 
ATOM      6  C   UNL     1       3.554   6.143 -10.011  1.00  0.00     0.044 A 
ATOM      7  C   UNL     1       3.029   5.545  -8.878  1.00  0.00     0.165 A 
ATOM      8  F   UNL     1       3.337   4.261  -8.590  1.00  0.00    -0.203 F 
BRANCH   3   9
ATOM      9  C   UNL     1       2.066   9.583  -9.785  1.00  0.00     0.335 C 
ATOM     10  O   UNL     1       1.409  10.242  -9.006  1.00  0.00    -0.246 OA
BRANCH   9  11
ATOM     11  O   UNL     1       2.497  10.134 -10.937  1.00  0.00    -0.478 OA
ATOM     12  H   UNL     1       2.168   9.745 -11.760  1.00  0.00     0.297 HD
ENDBRANCH   9  11
ENDBRANCH   3   9
ENDBRANCH   1   2
BRANCH   1  13
ATOM     13  C   UNL     1       0.909   4.469  -7.121  1.00  0.00     0.230 C 
BRANCH  13  14
ATOM     14  C   UNL     1       0.630   3.819  -5.765  1.00  0.00     0.046 C 
BRANCH  14  15
ATOM     15  C   UNL     1       1.726   4.216  -4.774  1.00  0.00     0.043 C 
BRANCH  15  16
ATOM     16  C   UNL     1       2.862   3.231  -4.859  1.00  0.00    -0.004 A 
ATOM     17  C   UNL     1       4.134   3.512  -5.229  1.00  0.00     0.036 A 
ATOM     18  C   UNL     1       2.793   1.866  -4.563  1.00  0.00     0.063 A 
ATOM     19  N   UNL     1       4.841   2.364  -5.176  1.00  0.00    -0.282 N 
ATOM     20  N   UNL     1       3.976   1.343  -4.760  1.00  0.00    -0.181 NA
ATOM     21  C   UNL     1       4.664   4.864  -5.628  1.00  0.00     0.066 C 
ATOM     22  C   UNL     1       1.563   1.121  -4.109  1.00  0.00     0.069 C 
ATOM     23  H   UNL     1       5.782   2.263  -5.389  1.00  0.00     0.190 HD
ENDBRANCH  15  16
ENDBRANCH  14  15
ENDBRANCH  13  14
ENDBRANCH   1  13
TORSDOF 7
ENDMDL
