MODEL 1
REMARK VINA RESULT:    -3.832      0.000      0.000
REMARK INTER + INTRA:          -4.687
REMARK INTER:                  -4.392
REMARK INTRA:                  -0.296
REMARK UNBOUND:                -0.296
REMARK SMILES O=C(O)c1ccc2nc(-c3cc(Cl)cc(Cl)c3)oc2c1
REMARK SMILES IDX 5 1 6 2 20 3 8 4 18 5 4 6 9 7 7 8 19 9 2 10 1 11 3 12 10 14
REMARK SMILES IDX 11 15 17 16 12 17 15 18 14 19 13 20 16 21
REMARK H PARENT 3 13
ROOT
ATOM      1  C   UNL     1      10.845   9.316   3.998  1.00  0.00     0.018 A 
ATOM      2  C   UNL     1      10.570   7.990   3.855  1.00  0.00     0.033 A 
ATOM      3  C   UNL     1       8.744   9.892   2.933  1.00  0.00     0.065 A 
ATOM      4  N   UNL     1       8.840   6.376   2.968  1.00  0.00    -0.209 NA
ATOM      5  O   UNL     1       7.426   7.864   2.249  1.00  0.00    -0.436 OA
ATOM      6  C   UNL     1       9.938  10.283   3.542  1.00  0.00     0.063 A 
ATOM      7  C   UNL     1       7.683   6.549   2.379  1.00  0.00     0.227 A 
ATOM      8  C   UNL     1       9.376   7.584   3.245  1.00  0.00     0.110 A 
ATOM      9  C   UNL     1       8.463   8.547   2.781  1.00  0.00     0.156 A 
ENDROOT
BRANCH   6  10
ATOM     10  C   UNL     1      10.244  11.715   3.709  1.00  0.00     0.335 C 
ATOM     11  O   UNL     1       9.518  12.553   3.211  1.00  0.00    -0.246 OA
BRANCH  10  12
ATOM     12  O   UNL     1      11.329  12.096   4.411  1.00  0.00    -0.478 OA
ATOM     13  H   UNL     1      11.959  11.405   4.655  1.00  0.00     0.297 HD
ENDBRANCH  10  12
ENDBRANCH   6  10
BRANCH   7  14
ATOM     14  C   UNL     1       6.794   5.461   1.922  1.00  0.00     0.040 A 
ATOM     15  C   UNL     1       6.800   4.229   2.578  1.00  0.00     0.034 A 
ATOM     16  C   UNL     1       5.945   5.661   0.832  1.00  0.00     0.034 A 
ATOM     17  C   UNL     1       5.965   3.217   2.147  1.00  0.00     0.043 A 
ATOM     18  C   UNL     1       5.115   4.641   0.411  1.00  0.00     0.043 A 
ATOM     19  C   UNL     1       5.126   3.422   1.065  1.00  0.00     0.041 A 
ATOM     20  Cl  UNL     1       5.970   1.684   2.962  1.00  0.00    -0.084 Cl
ATOM     21  Cl  UNL     1       4.058   4.888  -0.945  1.00  0.00    -0.084 Cl
ENDBRANCH   7  14
TORSDOF 3
ENDMDL
MODEL 2
REMARK VINA RESULT:    -3.831      0.002      2.019
REMARK INTER + INTRA:          -4.687
REMARK INTER:                  -4.391
REMARK INTRA:                  -0.295
REMARK UNBOUND:                -0.296
REMARK SMILES O=C(O)c1ccc2nc(-c3cc(Cl)cc(Cl)c3)oc2c1
REMARK SMILES IDX 5 1 6 2 20 3 8 4 18 5 4 6 9 7 7 8 19 9 2 10 1 11 3 12 10 14
REMARK SMILES IDX 11 15 17 16 12 17 15 18 14 19 13 20 16 21
REMARK H PARENT 3 13
ROOT
ATOM      1  C   UNL     1      10.845   9.316   3.997  1.00  0.00     0.018 A 
ATOM      2  C   UNL     1      10.569   7.990   3.854  1.00  0.00     0.033 A 
ATOM      3  C   UNL     1       8.744   9.893   2.932  1.00  0.00     0.065 A 
ATOM      4  N   UNL     1       8.838   6.376   2.967  1.00  0.00    -0.209 NA
ATOM      5  O   UNL     1       7.425   7.865   2.248  1.00  0.00    -0.436 OA
ATOM      6  C   UNL     1       9.938  10.283   3.542  1.00  0.00     0.063 A 
ATOM      7  C   UNL     1       7.682   6.550   2.377  1.00  0.00     0.227 A 
ATOM      8  C   UNL     1       9.375   7.584   3.244  1.00  0.00     0.110 A 
ATOM      9  C   UNL     1       8.463   8.548   2.780  1.00  0.00     0.156 A 
ENDROOT
BRANCH   6  10
ATOM     10  C   UNL     1      10.244  11.715   3.708  1.00  0.00     0.335 C 
ATOM     11  O   UNL     1       9.519  12.553   3.211  1.00  0.00    -0.246 OA
BRANCH  10  12
ATOM     12  O   UNL     1      11.329  12.096   4.411  1.00  0.00    -0.478 OA
ATOM     13  H   UNL     1      12.178  11.717   4.147  1.00  0.00     0.297 HD
ENDBRANCH  10  12
ENDBRANCH   6  10
BRANCH   7  14
ATOM     14  C   UNL     1       6.792   5.462   1.921  1.00  0.00     0.040 A 
ATOM     15  C   UNL     1       5.942   5.662   0.832  1.00  0.00     0.034 A 
ATOM     16  C   UNL     1       6.798   4.230   2.578  1.00  0.00     0.034 A 
ATOM     17  C   UNL     1       5.114   4.641   0.410  1.00  0.00     0.043 A 
ATOM     18  C   UNL     1       5.966   3.217   2.146  1.00  0.00     0.043 A 
ATOM     19  C   UNL     1       5.125   3.422   1.066  1.00  0.00     0.041 A 
ATOM     20  Cl  UNL     1       4.056   4.887  -0.944  1.00  0.00    -0.084 Cl
ATOM     21  Cl  UNL     1       5.972   1.684   2.962  1.00  0.00    -0.084 Cl
ENDBRANCH   7  14
TORSDOF 3
ENDMDL
MODEL 3
REMARK VINA RESULT:    -3.765      1.750      2.436
REMARK INTER + INTRA:          -4.611
REMARK INTER:                  -4.314
REMARK INTRA:                  -0.296
REMARK UNBOUND:                -0.296
REMARK SMILES O=C(O)c1ccc2nc(-c3cc(Cl)cc(Cl)c3)oc2c1
REMARK SMILES IDX 5 1 6 2 20 3 8 4 18 5 4 6 9 7 7 8 19 9 2 10 1 11 3 12 10 14
REMARK SMILES IDX 11 15 17 16 12 17 15 18 14 19 13 20 16 21
REMARK H PARENT 3 13
ROOT
ATOM      1  C   UNL     1      10.677   9.392   3.983  1.00  0.00     0.018 A 
ATOM      2  C   UNL     1       9.528   9.248   3.266  1.00  0.00     0.033 A 
ATOM      3  C   UNL     1      10.945   6.984   4.084  1.00  0.00     0.065 A 
ATOM      4  N   UNL     1       7.983   7.518   2.264  1.00  0.00    -0.209 NA
ATOM      5  O   UNL     1       9.090   5.760   2.909  1.00  0.00    -0.436 OA
ATOM      6  C   UNL     1      11.401   8.266   4.399  1.00  0.00     0.063 A 
ATOM      7  C   UNL     1       8.007   6.209   2.247  1.00  0.00     0.227 A 
ATOM      8  C   UNL     1       9.060   7.968   2.943  1.00  0.00     0.110 A 
ATOM      9  C   UNL     1       9.777   6.833   3.361  1.00  0.00     0.156 A 
ENDROOT
BRANCH   6  10
ATOM     10  C   UNL     1      12.646   8.435   5.169  1.00  0.00     0.335 C 
ATOM     11  O   UNL     1      13.326   7.466   5.444  1.00  0.00    -0.246 OA
BRANCH  10  12
ATOM     12  O   UNL     1      13.031   9.663   5.569  1.00  0.00    -0.478 OA
ATOM     13  H   UNL     1      13.909   9.741   5.964  1.00  0.00     0.297 HD
ENDBRANCH  10  12
ENDBRANCH   6  10
BRANCH   7  14
ATOM     14  C   UNL     1       6.994   5.351   1.597  1.00  0.00     0.040 A 
ATOM     15  C   UNL     1       6.785   4.048   2.050  1.00  0.00     0.034 A 
ATOM     16  C   UNL     1       6.244   5.842   0.526  1.00  0.00     0.034 A 
ATOM     17  C   UNL     1       5.836   3.252   1.439  1.00  0.00     0.043 A 
ATOM     18  C   UNL     1       5.299   5.036  -0.076  1.00  0.00     0.043 A 
ATOM     19  C   UNL     1       5.095   3.744   0.378  1.00  0.00     0.041 A 
ATOM     20  Cl  UNL     1       5.573   1.631   2.001  1.00  0.00    -0.084 Cl
ATOM     21  Cl  UNL     1       4.364   5.644  -1.407  1.00  0.00    -0.084 Cl
ENDBRANCH   7  14
TORSDOF 3
ENDMDL
MODEL 4
REMARK VINA RESULT:    -3.761      1.751      3.150
REMARK INTER + INTRA:          -4.606
REMARK INTER:                  -4.309
REMARK INTRA:                  -0.296
REMARK UNBOUND:                -0.296
REMARK SMILES O=C(O)c1ccc2nc(-c3cc(Cl)cc(Cl)c3)oc2c1
REMARK SMILES IDX 5 1 6 2 20 3 8 4 18 5 4 6 9 7 7 8 19 9 2 10 1 11 3 12 10 14
REMARK SMILES IDX 11 15 17 16 12 17 15 18 14 19 13 20 16 21
REMARK H PARENT 3 13
ROOT
ATOM      1  C   UNL     1      10.674   9.384   3.980  1.00  0.00     0.018 A 
ATOM      2  C   UNL     1       9.523   9.242   3.264  1.00  0.00     0.033 A 
ATOM      3  C   UNL     1      10.937   6.976   4.081  1.00  0.00     0.065 A 
ATOM      4  N   UNL     1       7.974   7.516   2.263  1.00  0.00    -0.209 NA
ATOM      5  O   UNL     1       9.078   5.755   2.907  1.00  0.00    -0.436 OA
ATOM      6  C   UNL     1      11.395   8.256   4.396  1.00  0.00     0.063 A 
ATOM      7  C   UNL     1       7.996   6.206   2.246  1.00  0.00     0.227 A 
ATOM      8  C   UNL     1       9.052   7.963   2.942  1.00  0.00     0.110 A 
ATOM      9  C   UNL     1       9.767   6.827   3.359  1.00  0.00     0.156 A 
ENDROOT
BRANCH   6  10
ATOM     10  C   UNL     1      12.642   8.423   5.165  1.00  0.00     0.335 C 
ATOM     11  O   UNL     1      13.318   7.452   5.443  1.00  0.00    -0.246 OA
BRANCH  10  12
ATOM     12  O   UNL     1      13.031   9.651   5.561  1.00  0.00    -0.478 OA
ATOM     13  H   UNL     1      13.837  10.005   5.163  1.00  0.00     0.297 HD
ENDBRANCH  10  12
ENDBRANCH   6  10
BRANCH   7  14
ATOM     14  C   UNL     1       6.981   5.350   1.597  1.00  0.00     0.040 A 
ATOM     15  C   UNL     1       6.233   5.839   0.525  1.00  0.00     0.034 A 
ATOM     16  C   UNL     1       6.766   4.049   2.055  1.00  0.00     0.034 A 
ATOM     17  C   UNL     1       5.287   5.034  -0.078  1.00  0.00     0.043 A 
ATOM     18  C   UNL     1       5.817   3.254   1.444  1.00  0.00     0.043 A 
ATOM     19  C   UNL     1       5.079   3.745   0.381  1.00  0.00     0.041 A 
ATOM     20  Cl  UNL     1       4.357   5.640  -1.412  1.00  0.00    -0.084 Cl
ATOM     21  Cl  UNL     1       5.548   1.635   2.012  1.00  0.00    -0.084 Cl
ENDBRANCH   7  14
TORSDOF 3
ENDMDL
MODEL 5
REMARK VINA RESULT:    -3.630      3.749      7.644
REMARK INTER + INTRA:          -4.457
REMARK INTER:                  -4.159
REMARK INTRA:                  -0.297
REMARK UNBOUND:                -0.296
REMARK SMILES O=C(O)c1ccc2nc(-c3cc(Cl)cc(Cl)c3)oc2c1
REMARK SMILES IDX 5 1 6 2 20 3 8 4 18 5 4 6 9 7 7 8 19 9 2 10 1 11 3 12 10 14
REMARK SMILES IDX 11 15 17 16 12 17 15 18 14 19 13 20 16 21
REMARK H PARENT 3 13
ROOT
ATOM      1  C   UNL     1       5.778   2.989   1.370  1.00  0.00     0.018 A 
ATOM      2  C   UNL     1       6.885   3.311   2.097  1.00  0.00     0.033 A 
ATOM      3  C   UNL     1       5.427   5.326   0.825  1.00  0.00     0.065 A 
ATOM      4  N   UNL     1       8.311   5.260   2.838  1.00  0.00    -0.209 NA
ATOM      5  O   UNL     1       7.167   6.824   1.848  1.00  0.00    -0.436 OA
ATOM      6  C   UNL     1       5.037   3.989   0.724  1.00  0.00     0.063 A 
ATOM      7  C   UNL     1       8.235   6.550   2.622  1.00  0.00     0.227 A 
ATOM      8  C   UNL     1       7.287   4.648   2.206  1.00  0.00     0.110 A 
ATOM      9  C   UNL     1       6.547   5.657   1.565  1.00  0.00     0.156 A 
ENDROOT
BRANCH   6  10
ATOM     10  C   UNL     1       3.845   3.628  -0.064  1.00  0.00     0.335 C 
ATOM     11  O   UNL     1       3.462   2.476  -0.093  1.00  0.00    -0.246 OA
BRANCH  10  12
ATOM     12  O   UNL     1       3.180   4.576  -0.753  1.00  0.00    -0.478 OA
ATOM     13  H   UNL     1       3.712   5.218  -1.243  1.00  0.00     0.297 HD
ENDBRANCH  10  12
ENDBRANCH   6  10
BRANCH   7  14
ATOM     14  C   UNL     1       9.180   7.555   3.150  1.00  0.00     0.040 A 
ATOM     15  C   UNL     1       8.873   8.914   3.076  1.00  0.00     0.034 A 
ATOM     16  C   UNL     1      10.386   7.148   3.724  1.00  0.00     0.034 A 
ATOM     17  C   UNL     1       9.761   9.848   3.572  1.00  0.00     0.043 A 
ATOM     18  C   UNL     1      11.266   8.091   4.217  1.00  0.00     0.043 A 
ATOM     19  C   UNL     1      10.955   9.438   4.141  1.00  0.00     0.041 A 
ATOM     20  Cl  UNL     1       9.380  11.539   3.482  1.00  0.00    -0.084 Cl
ATOM     21  Cl  UNL     1      12.766   7.587   4.932  1.00  0.00    -0.084 Cl
ENDBRANCH   7  14
TORSDOF 3
ENDMDL
MODEL 6
REMARK VINA RESULT:    -3.630      4.540      7.836
REMARK INTER + INTRA:          -4.456
REMARK INTER:                  -4.170
REMARK INTRA:                  -0.286
REMARK UNBOUND:                -0.296
REMARK SMILES O=C(O)c1ccc2nc(-c3cc(Cl)cc(Cl)c3)oc2c1
REMARK SMILES IDX 5 1 6 2 20 3 8 4 18 5 4 6 9 7 7 8 19 9 2 10 1 11 3 12 10 14
REMARK SMILES IDX 11 15 17 16 12 17 15 18 14 19 13 20 16 21
REMARK H PARENT 3 13
ROOT
ATOM      1  C   UNL     1       8.023   5.724   2.759  1.00  0.00     0.018 A 
ATOM      2  C   UNL     1       8.275   6.648   3.729  1.00  0.00     0.033 A 
ATOM      3  C   UNL     1       8.418   7.387   1.039  1.00  0.00     0.065 A 
ATOM      4  N   UNL     1       8.895   9.070   4.092  1.00  0.00    -0.209 NA
ATOM      5  O   UNL     1       9.000   9.639   1.994  1.00  0.00    -0.436 OA
ATOM      6  C   UNL     1       8.093   6.080   1.405  1.00  0.00     0.063 A 
ATOM      7  C   UNL     1       9.131  10.060   3.267  1.00  0.00     0.227 A 
ATOM      8  C   UNL     1       8.602   7.963   3.376  1.00  0.00     0.110 A 
ATOM      9  C   UNL     1       8.669   8.329   2.020  1.00  0.00     0.156 A 
ENDROOT
BRANCH   6  10
ATOM     10  C   UNL     1       7.825   5.071   0.365  1.00  0.00     0.335 C 
ATOM     11  O   UNL     1       7.587   5.421  -0.774  1.00  0.00    -0.246 OA
BRANCH  10  12
ATOM     12  O   UNL     1       7.842   3.760   0.677  1.00  0.00    -0.478 OA
ATOM     13  H   UNL     1       8.389   3.184   0.126  1.00  0.00     0.297 HD
ENDBRANCH  10  12
ENDBRANCH   6  10
BRANCH   7  14
ATOM     14  C   UNL     1       9.486  11.435   3.673  1.00  0.00     0.040 A 
ATOM     15  C   UNL     1      10.822  11.838   3.691  1.00  0.00     0.034 A 
ATOM     16  C   UNL     1       8.486  12.337   4.042  1.00  0.00     0.034 A 
ATOM     17  C   UNL     1      11.148  13.124   4.071  1.00  0.00     0.043 A 
ATOM     18  C   UNL     1       8.824  13.621   4.420  1.00  0.00     0.043 A 
ATOM     19  C   UNL     1      10.152  14.014   4.436  1.00  0.00     0.041 A 
ATOM     20  Cl  UNL     1      12.809  13.627   4.094  1.00  0.00    -0.084 Cl
ATOM     21  Cl  UNL     1       7.582  14.745   4.879  1.00  0.00    -0.084 Cl
ENDBRANCH   7  14
TORSDOF 3
ENDMDL
MODEL 7
REMARK VINA RESULT:    -3.625      4.539      7.927
REMARK INTER + INTRA:          -4.451
REMARK INTER:                  -4.165
REMARK INTRA:                  -0.286
REMARK UNBOUND:                -0.296
REMARK SMILES O=C(O)c1ccc2nc(-c3cc(Cl)cc(Cl)c3)oc2c1
REMARK SMILES IDX 5 1 6 2 20 3 8 4 18 5 4 6 9 7 7 8 19 9 2 10 1 11 3 12 10 14
REMARK SMILES IDX 11 15 17 16 12 17 15 18 14 19 13 20 16 21
REMARK H PARENT 3 13
ROOT
ATOM      1  C   UNL     1       8.046   5.714   2.778  1.00  0.00     0.018 A 
ATOM      2  C   UNL     1       8.296   6.641   3.745  1.00  0.00     0.033 A 
ATOM      3  C   UNL     1       8.429   7.375   1.053  1.00  0.00     0.065 A 
ATOM      4  N   UNL     1       8.907   9.066   4.100  1.00  0.00    -0.209 NA
ATOM      5  O   UNL     1       9.004   9.631   2.001  1.00  0.00    -0.436 OA
ATOM      6  C   UNL     1       8.110   6.067   1.423  1.00  0.00     0.063 A 
ATOM      7  C   UNL     1       9.136  10.055   3.272  1.00  0.00     0.227 A 
ATOM      8  C   UNL     1       8.617   7.956   3.388  1.00  0.00     0.110 A 
ATOM      9  C   UNL     1       8.679   8.319   2.031  1.00  0.00     0.156 A 
ENDROOT
BRANCH   6  10
ATOM     10  C   UNL     1       7.843   5.054   0.385  1.00  0.00     0.335 C 
ATOM     11  O   UNL     1       7.598   5.400  -0.753  1.00  0.00    -0.246 OA
BRANCH  10  12
ATOM     12  O   UNL     1       7.871   3.743   0.699  1.00  0.00    -0.478 OA
ATOM     13  H   UNL     1       8.156   3.132   0.008  1.00  0.00     0.297 HD
ENDBRANCH  10  12
ENDBRANCH   6  10
BRANCH   7  14
ATOM     14  C   UNL     1       9.488  11.433   3.675  1.00  0.00     0.040 A 
ATOM     15  C   UNL     1       8.486  12.333   4.039  1.00  0.00     0.034 A 
ATOM     16  C   UNL     1      10.824  11.838   3.691  1.00  0.00     0.034 A 
ATOM     17  C   UNL     1       8.821  13.619   4.415  1.00  0.00     0.043 A 
ATOM     18  C   UNL     1      11.146  13.126   4.069  1.00  0.00     0.043 A 
ATOM     19  C   UNL     1      10.148  14.015   4.429  1.00  0.00     0.041 A 
ATOM     20  Cl  UNL     1       7.577  14.741   4.870  1.00  0.00    -0.084 Cl
ATOM     21  Cl  UNL     1      12.807  13.633   4.090  1.00  0.00    -0.084 Cl
ENDBRANCH   7  14
TORSDOF 3
ENDMDL
MODEL 8
REMARK VINA RESULT:    -3.623      3.754      7.408
REMARK INTER + INTRA:          -4.448
REMARK INTER:                  -4.150
REMARK INTRA:                  -0.298
REMARK UNBOUND:                -0.296
REMARK SMILES O=C(O)c1ccc2nc(-c3cc(Cl)cc(Cl)c3)oc2c1
REMARK SMILES IDX 5 1 6 2 20 3 8 4 18 5 4 6 9 7 7 8 19 9 2 10 1 11 3 12 10 14
REMARK SMILES IDX 11 15 17 16 12 17 15 18 14 19 13 20 16 21
REMARK H PARENT 3 13
ROOT
ATOM      1  C   UNL     1       5.657   2.964   1.368  1.00  0.00     0.018 A 
ATOM      2  C   UNL     1       6.762   3.239   2.117  1.00  0.00     0.033 A 
ATOM      3  C   UNL     1       5.438   5.308   0.787  1.00  0.00     0.065 A 
ATOM      4  N   UNL     1       8.268   5.123   2.869  1.00  0.00    -0.209 NA
ATOM      5  O   UNL     1       7.228   6.729   1.834  1.00  0.00    -0.436 OA
ATOM      6  C   UNL     1       4.984   3.991   0.693  1.00  0.00     0.063 A 
ATOM      7  C   UNL     1       8.262   6.412   2.636  1.00  0.00     0.227 A 
ATOM      8  C   UNL     1       7.229   4.555   2.220  1.00  0.00     0.110 A 
ATOM      9  C   UNL     1       6.556   5.592   1.550  1.00  0.00     0.156 A 
ENDROOT
BRANCH   6  10
ATOM     10  C   UNL     1       3.793   3.681  -0.119  1.00  0.00     0.335 C 
ATOM     11  O   UNL     1       3.363   2.545  -0.157  1.00  0.00    -0.246 OA
BRANCH  10  12
ATOM     12  O   UNL     1       3.182   4.656  -0.820  1.00  0.00    -0.478 OA
ATOM     13  H   UNL     1       3.322   4.663  -1.776  1.00  0.00     0.297 HD
ENDBRANCH  10  12
ENDBRANCH   6  10
BRANCH   7  14
ATOM     14  C   UNL     1       9.245   7.374   3.175  1.00  0.00     0.040 A 
ATOM     15  C   UNL     1      10.427   6.917   3.759  1.00  0.00     0.034 A 
ATOM     16  C   UNL     1       8.994   8.746   3.102  1.00  0.00     0.034 A 
ATOM     17  C   UNL     1      11.342   7.822   4.260  1.00  0.00     0.043 A 
ATOM     18  C   UNL     1       9.917   9.641   3.606  1.00  0.00     0.043 A 
ATOM     19  C   UNL     1      11.087   9.181   4.184  1.00  0.00     0.041 A 
ATOM     20  Cl  UNL     1      12.813   7.255   4.987  1.00  0.00    -0.084 Cl
ATOM     21  Cl  UNL     1       9.608  11.347   3.516  1.00  0.00    -0.084 Cl
ENDBRANCH   7  14
TORSDOF 3
ENDMDL
MODEL 9
REMARK VINA RESULT:    -3.494      3.149      4.707
REMARK INTER + INTRA:          -4.300
REMARK INTER:                  -4.018
REMARK INTRA:                  -0.282
REMARK UNBOUND:                -0.296
REMARK SMILES O=C(O)c1ccc2nc(-c3cc(Cl)cc(Cl)c3)oc2c1
REMARK SMILES IDX 5 1 6 2 20 3 8 4 18 5 4 6 9 7 7 8 19 9 2 10 1 11 3 12 10 14
REMARK SMILES IDX 11 15 17 16 12 17 15 18 14 19 13 20 16 21
REMARK H PARENT 3 13
ROOT
ATOM      1  C   UNL     1       9.926  14.419   4.351  1.00  0.00     0.018 A 
ATOM      2  C   UNL     1      10.599  13.303   3.952  1.00  0.00     0.033 A 
ATOM      3  C   UNL     1       7.883  13.133   4.583  1.00  0.00     0.065 A 
ATOM      4  N   UNL     1      10.316  10.834   3.500  1.00  0.00    -0.209 NA
ATOM      5  O   UNL     1       8.199  10.710   3.989  1.00  0.00    -0.436 OA
ATOM      6  C   UNL     1       8.563  14.349   4.673  1.00  0.00     0.063 A 
ATOM      7  C   UNL     1       9.286  10.028   3.581  1.00  0.00     0.227 A 
ATOM      8  C   UNL     1       9.929  12.077   3.857  1.00  0.00     0.110 A 
ATOM      9  C   UNL     1       8.561  12.000   4.173  1.00  0.00     0.156 A 
ENDROOT
BRANCH   6  10
ATOM     10  C   UNL     1       7.847  15.561   5.109  1.00  0.00     0.335 C 
ATOM     11  O   UNL     1       7.061  16.105   4.360  1.00  0.00    -0.246 OA
BRANCH  10  12
ATOM     12  O   UNL     1       8.065  16.067   6.339  1.00  0.00    -0.478 OA
ATOM     13  H   UNL     1       7.572  15.671   7.071  1.00  0.00     0.297 HD
ENDBRANCH  10  12
ENDBRANCH   6  10
BRANCH   7  14
ATOM     14  C   UNL     1       9.314   8.584   3.270  1.00  0.00     0.040 A 
ATOM     15  C   UNL     1      10.346   7.781   3.758  1.00  0.00     0.034 A 
ATOM     16  C   UNL     1       8.308   8.018   2.484  1.00  0.00     0.034 A 
ATOM     17  C   UNL     1      10.365   6.432   3.465  1.00  0.00     0.043 A 
ATOM     18  C   UNL     1       8.339   6.667   2.197  1.00  0.00     0.043 A 
ATOM     19  C   UNL     1       9.365   5.876   2.685  1.00  0.00     0.041 A 
ATOM     20  Cl  UNL     1      11.647   5.432   4.072  1.00  0.00    -0.084 Cl
ATOM     21  Cl  UNL     1       7.089   5.961   1.221  1.00  0.00    -0.084 Cl
ENDBRANCH   7  14
TORSDOF 3
ENDMDL
