MODEL 1
REMARK VINA RESULT:    -5.544      0.000      0.000
REMARK INTER + INTRA:          -8.111
REMARK INTER:                  -7.651
REMARK INTRA:                  -0.459
REMARK UNBOUND:                -0.459
REMARK SMILES Cc1n[nH]c(C)c1CCCOc1cc(C(=O)O)ccc1F
REMARK SMILES IDX 11 1 12 2 14 3 18 4 13 5 19 6 20 7 21 8 15 9 16 10 17 11
REMARK SMILES IDX 10 13 9 14 8 15 7 16 5 17 2 18 4 19 3 20 6 21 1 22
REMARK H PARENT 17 12 4 23
ROOT
ATOM      1  O   UNL     1       5.848   5.605   3.771  1.00  0.00    -0.490 OA
ENDROOT
BRANCH   1   2
ATOM      2  C   UNL     1       5.633   4.971   2.588  1.00  0.00     0.155 A 
ATOM      3  C   UNL     1       5.230   5.053   0.219  1.00  0.00     0.063 A 
ATOM      4  C   UNL     1       5.204   3.656   0.179  1.00  0.00     0.019 A 
ATOM      5  C   UNL     1       5.446   5.708   1.433  1.00  0.00     0.065 A 
ATOM      6  C   UNL     1       5.397   2.930   1.335  1.00  0.00     0.044 A 
ATOM      7  C   UNL     1       5.616   3.581   2.537  1.00  0.00     0.165 A 
ATOM      8  F   UNL     1       5.804   2.864   3.666  1.00  0.00    -0.203 F 
BRANCH   3   9
ATOM      9  C   UNL     1       5.024   5.834  -1.017  1.00  0.00     0.335 C 
ATOM     10  O   UNL     1       4.657   6.989  -0.952  1.00  0.00    -0.246 OA
BRANCH   9  11
ATOM     11  O   UNL     1       5.251   5.265  -2.218  1.00  0.00    -0.478 OA
ATOM     12  H   UNL     1       4.551   5.347  -2.881  1.00  0.00     0.297 HD
ENDBRANCH   9  11
ENDBRANCH   3   9
ENDBRANCH   1   2
BRANCH   1  13
ATOM     13  C   UNL     1       7.096   5.356   4.423  1.00  0.00     0.230 C 
BRANCH  13  14
ATOM     14  C   UNL     1       7.867   6.669   4.566  1.00  0.00     0.046 C 
BRANCH  14  15
ATOM     15  C   UNL     1       8.787   6.855   3.357  1.00  0.00     0.043 C 
BRANCH  15  16
ATOM     16  C   UNL     1       9.826   7.899   3.672  1.00  0.00    -0.004 A 
ATOM     17  C   UNL     1       9.685   9.236   3.516  1.00  0.00     0.036 A 
ATOM     18  C   UNL     1      11.106   7.659   4.183  1.00  0.00     0.063 A 
ATOM     19  N   UNL     1      10.836   9.820   3.908  1.00  0.00    -0.282 N 
ATOM     20  N   UNL     1      11.715   8.809   4.318  1.00  0.00    -0.181 NA
ATOM     21  C   UNL     1       8.461   9.945   2.998  1.00  0.00     0.066 C 
ATOM     22  C   UNL     1      11.688   6.307   4.510  1.00  0.00     0.069 C 
ATOM     23  H   UNL     1      11.023  10.772   3.905  1.00  0.00     0.190 HD
ENDBRANCH  15  16
ENDBRANCH  14  15
ENDBRANCH  13  14
ENDBRANCH   1  13
TORSDOF 7
ENDMDL
MODEL 2
REMARK VINA RESULT:    -5.518      2.175      3.806
REMARK INTER + INTRA:          -8.074
REMARK INTER:                  -7.439
REMARK INTRA:                  -0.635
REMARK UNBOUND:                -0.459
REMARK SMILES Cc1n[nH]c(C)c1CCCOc1cc(C(=O)O)ccc1F
REMARK SMILES IDX 11 1 12 2 14 3 18 4 13 5 19 6 20 7 21 8 15 9 16 10 17 11
REMARK SMILES IDX 10 13 9 14 8 15 7 16 5 17 2 18 4 19 3 20 6 21 1 22
REMARK H PARENT 17 12 4 23
ROOT
ATOM      1  O   UNL     1       6.968   6.516   0.697  1.00  0.00    -0.490 OA
ENDROOT
BRANCH   1   2
ATOM      2  C   UNL     1       6.284   5.343   0.778  1.00  0.00     0.155 A 
ATOM      3  C   UNL     1       5.824   3.268   1.901  1.00  0.00     0.063 A 
ATOM      4  C   UNL     1       4.869   2.958   0.929  1.00  0.00     0.019 A 
ATOM      5  C   UNL     1       6.532   4.469   1.819  1.00  0.00     0.065 A 
ATOM      6  C   UNL     1       4.624   3.839  -0.102  1.00  0.00     0.044 A 
ATOM      7  C   UNL     1       5.324   5.032  -0.179  1.00  0.00     0.165 A 
ATOM      8  F   UNL     1       5.079   5.892  -1.192  1.00  0.00    -0.203 F 
BRANCH   3   9
ATOM      9  C   UNL     1       6.088   2.326   3.007  1.00  0.00     0.335 C 
ATOM     10  O   UNL     1       7.220   1.944   3.222  1.00  0.00    -0.246 OA
BRANCH   9  11
ATOM     11  O   UNL     1       5.073   1.896   3.782  1.00  0.00    -0.478 OA
ATOM     12  H   UNL     1       4.281   2.452   3.817  1.00  0.00     0.297 HD
ENDBRANCH   9  11
ENDBRANCH   3   9
ENDBRANCH   1   2
BRANCH   1  13
ATOM     13  C   UNL     1       8.311   6.451   0.212  1.00  0.00     0.230 C 
BRANCH  13  14
ATOM     14  C   UNL     1       9.170   7.476   0.954  1.00  0.00     0.046 C 
BRANCH  14  15
ATOM     15  C   UNL     1       8.696   7.584   2.405  1.00  0.00     0.043 C 
BRANCH  15  16
ATOM     16  C   UNL     1       9.643   8.464   3.179  1.00  0.00    -0.004 A 
ATOM     17  C   UNL     1      10.749   8.053   3.842  1.00  0.00     0.036 A 
ATOM     18  C   UNL     1       9.538   9.850   3.335  1.00  0.00     0.063 A 
ATOM     19  N   UNL     1      11.320   9.140   4.403  1.00  0.00    -0.282 N 
ATOM     20  N   UNL     1      10.538  10.256   4.074  1.00  0.00    -0.181 NA
ATOM     21  C   UNL     1      11.254   6.637   3.937  1.00  0.00     0.066 C 
ATOM     22  C   UNL     1       8.452  10.724   2.761  1.00  0.00     0.069 C 
ATOM     23  H   UNL     1      12.127   9.148   4.940  1.00  0.00     0.190 HD
ENDBRANCH  15  16
ENDBRANCH  14  15
ENDBRANCH  13  14
ENDBRANCH   1  13
TORSDOF 7
ENDMDL
MODEL 3
REMARK VINA RESULT:    -5.513      0.174      1.773
REMARK INTER + INTRA:          -8.068
REMARK INTER:                  -7.609
REMARK INTRA:                  -0.458
REMARK UNBOUND:                -0.459
REMARK SMILES Cc1n[nH]c(C)c1CCCOc1cc(C(=O)O)ccc1F
REMARK SMILES IDX 11 1 12 2 14 3 18 4 13 5 19 6 20 7 21 8 15 9 16 10 17 11
REMARK SMILES IDX 10 13 9 14 8 15 7 16 5 17 2 18 4 19 3 20 6 21 1 22
REMARK H PARENT 17 12 4 23
ROOT
ATOM      1  O   UNL     1       5.894   5.623   3.768  1.00  0.00    -0.490 OA
ENDROOT
BRANCH   1   2
ATOM      2  C   UNL     1       5.661   4.979   2.594  1.00  0.00     0.155 A 
ATOM      3  C   UNL     1       5.236   5.039   0.228  1.00  0.00     0.063 A 
ATOM      4  C   UNL     1       5.196   3.642   0.203  1.00  0.00     0.019 A 
ATOM      5  C   UNL     1       5.469   5.704   1.433  1.00  0.00     0.065 A 
ATOM      6  C   UNL     1       5.394   2.926   1.365  1.00  0.00     0.044 A 
ATOM      7  C   UNL     1       5.631   3.589   2.558  1.00  0.00     0.165 A 
ATOM      8  F   UNL     1       5.824   2.882   3.693  1.00  0.00    -0.203 F 
BRANCH   3   9
ATOM      9  C   UNL     1       5.025   5.808  -1.014  1.00  0.00     0.335 C 
ATOM     10  O   UNL     1       4.627   6.953  -0.959  1.00  0.00    -0.246 OA
BRANCH   9  11
ATOM     11  O   UNL     1       5.280   5.240  -2.209  1.00  0.00    -0.478 OA
ATOM     12  H   UNL     1       5.640   5.814  -2.900  1.00  0.00     0.297 HD
ENDBRANCH   9  11
ENDBRANCH   3   9
ENDBRANCH   1   2
BRANCH   1  13
ATOM     13  C   UNL     1       7.144   5.366   4.412  1.00  0.00     0.230 C 
BRANCH  13  14
ATOM     14  C   UNL     1       7.918   6.676   4.564  1.00  0.00     0.046 C 
BRANCH  14  15
ATOM     15  C   UNL     1       8.871   6.846   3.379  1.00  0.00     0.043 C 
BRANCH  15  16
ATOM     16  C   UNL     1       9.979   7.795   3.756  1.00  0.00    -0.004 A 
ATOM     17  C   UNL     1      11.203   7.448   4.218  1.00  0.00     0.036 A 
ATOM     18  C   UNL     1       9.926   9.191   3.685  1.00  0.00     0.063 A 
ATOM     19  N   UNL     1      11.897   8.584   4.438  1.00  0.00    -0.282 N 
ATOM     20  N   UNL     1      11.073   9.665   4.100  1.00  0.00    -0.181 NA
ATOM     21  C   UNL     1      11.700   6.044   4.446  1.00  0.00     0.066 C 
ATOM     22  C   UNL     1       8.747  10.009   3.222  1.00  0.00     0.069 C 
ATOM     23  H   UNL     1      12.806   8.642   4.771  1.00  0.00     0.190 HD
ENDBRANCH  15  16
ENDBRANCH  14  15
ENDBRANCH  13  14
ENDBRANCH   1  13
TORSDOF 7
ENDMDL
MODEL 4
REMARK VINA RESULT:    -5.503      2.185      3.368
REMARK INTER + INTRA:          -8.053
REMARK INTER:                  -7.431
REMARK INTRA:                  -0.622
REMARK UNBOUND:                -0.459
REMARK SMILES Cc1n[nH]c(C)c1CCCOc1cc(C(=O)O)ccc1F
REMARK SMILES IDX 11 1 12 2 14 3 18 4 13 5 19 6 20 7 21 8 15 9 16 10 17 11
REMARK SMILES IDX 10 13 9 14 8 15 7 16 5 17 2 18 4 19 3 20 6 21 1 22
REMARK H PARENT 17 12 4 23
ROOT
ATOM      1  O   UNL     1       7.025   6.619   0.899  1.00  0.00    -0.490 OA
ENDROOT
BRANCH   1   2
ATOM      2  C   UNL     1       6.335   5.448   0.918  1.00  0.00     0.155 A 
ATOM      3  C   UNL     1       5.850   3.327   1.942  1.00  0.00     0.063 A 
ATOM      4  C   UNL     1       4.906   3.066   0.945  1.00  0.00     0.019 A 
ATOM      5  C   UNL     1       6.565   4.526   1.923  1.00  0.00     0.065 A 
ATOM      6  C   UNL     1       4.680   3.994  -0.050  1.00  0.00     0.044 A 
ATOM      7  C   UNL     1       5.386   5.185  -0.064  1.00  0.00     0.165 A 
ATOM      8  F   UNL     1       5.159   6.090  -1.041  1.00  0.00    -0.203 F 
BRANCH   3   9
ATOM      9  C   UNL     1       6.094   2.336   3.008  1.00  0.00     0.335 C 
ATOM     10  O   UNL     1       7.226   1.967   3.247  1.00  0.00    -0.246 OA
BRANCH   9  11
ATOM     11  O   UNL     1       5.061   1.845   3.721  1.00  0.00    -0.478 OA
ATOM     12  H   UNL     1       4.902   0.892   3.664  1.00  0.00     0.297 HD
ENDBRANCH   9  11
ENDBRANCH   3   9
ENDBRANCH   1   2
BRANCH   1  13
ATOM     13  C   UNL     1       8.280   6.621   0.214  1.00  0.00     0.230 C 
BRANCH  13  14
ATOM     14  C   UNL     1       9.291   7.453   1.005  1.00  0.00     0.046 C 
BRANCH  14  15
ATOM     15  C   UNL     1       8.817   7.591   2.453  1.00  0.00     0.043 C 
BRANCH  15  16
ATOM     16  C   UNL     1       9.681   8.593   3.172  1.00  0.00    -0.004 A 
ATOM     17  C   UNL     1       9.458   9.926   3.252  1.00  0.00     0.036 A 
ATOM     18  C   UNL     1      10.853   8.311   3.882  1.00  0.00     0.063 A 
ATOM     19  N   UNL     1      10.457  10.468   3.980  1.00  0.00    -0.282 N 
ATOM     20  N   UNL     1      11.323   9.434   4.360  1.00  0.00    -0.181 NA
ATOM     21  C   UNL     1       8.301  10.671   2.638  1.00  0.00     0.066 C 
ATOM     22  C   UNL     1      11.475   6.948   4.054  1.00  0.00     0.069 C 
ATOM     23  H   UNL     1      10.558  11.406   4.200  1.00  0.00     0.190 HD
ENDBRANCH  15  16
ENDBRANCH  14  15
ENDBRANCH  13  14
ENDBRANCH   1  13
TORSDOF 7
ENDMDL
MODEL 5
REMARK VINA RESULT:    -4.695      3.899      6.966
REMARK INTER + INTRA:          -6.939
REMARK INTER:                  -6.106
REMARK INTRA:                  -0.833
REMARK UNBOUND:                -0.459
REMARK SMILES Cc1n[nH]c(C)c1CCCOc1cc(C(=O)O)ccc1F
REMARK SMILES IDX 11 1 12 2 14 3 18 4 13 5 19 6 20 7 21 8 15 9 16 10 17 11
REMARK SMILES IDX 10 13 9 14 8 15 7 16 5 17 2 18 4 19 3 20 6 21 1 22
REMARK H PARENT 17 12 4 23
ROOT
ATOM      1  O   UNL     1       7.494   7.456   1.866  1.00  0.00    -0.490 OA
ENDROOT
BRANCH   1   2
ATOM      2  C   UNL     1       8.558   7.923   2.570  1.00  0.00     0.155 A 
ATOM      3  C   UNL     1      10.637   7.535   3.716  1.00  0.00     0.063 A 
ATOM      4  C   UNL     1      10.730   8.900   4.000  1.00  0.00     0.019 A 
ATOM      5  C   UNL     1       9.542   7.050   2.996  1.00  0.00     0.065 A 
ATOM      6  C   UNL     1       9.747   9.763   3.566  1.00  0.00     0.044 A 
ATOM      7  C   UNL     1       8.665   9.281   2.849  1.00  0.00     0.165 A 
ATOM      8  F   UNL     1       7.705  10.133   2.426  1.00  0.00    -0.203 F 
BRANCH   3   9
ATOM      9  C   UNL     1      11.688   6.608   4.178  1.00  0.00     0.335 C 
ATOM     10  O   UNL     1      11.572   6.042   5.246  1.00  0.00    -0.246 OA
BRANCH   9  11
ATOM     11  O   UNL     1      12.774   6.385   3.412  1.00  0.00    -0.478 OA
ATOM     12  H   UNL     1      13.296   7.158   3.154  1.00  0.00     0.297 HD
ENDBRANCH   9  11
ENDBRANCH   3   9
ENDBRANCH   1   2
BRANCH   1  13
ATOM     13  C   UNL     1       7.745   6.401   0.934  1.00  0.00     0.230 C 
BRANCH  13  14
ATOM     14  C   UNL     1       6.416   5.876   0.388  1.00  0.00     0.046 C 
BRANCH  14  15
ATOM     15  C   UNL     1       5.413   5.738   1.536  1.00  0.00     0.043 C 
BRANCH  15  16
ATOM     16  C   UNL     1       5.586   4.395   2.197  1.00  0.00    -0.004 A 
ATOM     17  C   UNL     1       5.304   3.192   1.644  1.00  0.00     0.036 A 
ATOM     18  C   UNL     1       6.074   4.170   3.489  1.00  0.00     0.063 A 
ATOM     19  N   UNL     1       5.596   2.241   2.556  1.00  0.00    -0.282 N 
ATOM     20  N   UNL     1       6.073   2.881   3.707  1.00  0.00    -0.181 NA
ATOM     21  C   UNL     1       4.761   2.958   0.258  1.00  0.00     0.066 C 
ATOM     22  C   UNL     1       6.512   5.232   4.465  1.00  0.00     0.069 C 
ATOM     23  H   UNL     1       5.492   1.285   2.436  1.00  0.00     0.190 HD
ENDBRANCH  15  16
ENDBRANCH  14  15
ENDBRANCH  13  14
ENDBRANCH   1  13
TORSDOF 7
ENDMDL
MODEL 6
REMARK VINA RESULT:    -4.692      3.767      6.506
REMARK INTER + INTRA:          -6.934
REMARK INTER:                  -6.094
REMARK INTRA:                  -0.840
REMARK UNBOUND:                -0.459
REMARK SMILES Cc1n[nH]c(C)c1CCCOc1cc(C(=O)O)ccc1F
REMARK SMILES IDX 11 1 12 2 14 3 18 4 13 5 19 6 20 7 21 8 15 9 16 10 17 11
REMARK SMILES IDX 10 13 9 14 8 15 7 16 5 17 2 18 4 19 3 20 6 21 1 22
REMARK H PARENT 17 12 4 23
ROOT
ATOM      1  O   UNL     1       8.593   5.645   2.923  1.00  0.00    -0.490 OA
ENDROOT
BRANCH   1   2
ATOM      2  C   UNL     1       9.217   6.816   3.222  1.00  0.00     0.155 A 
ATOM      3  C   UNL     1       9.218   9.219   3.304  1.00  0.00     0.063 A 
ATOM      4  C   UNL     1      10.505   9.196   3.847  1.00  0.00     0.019 A 
ATOM      5  C   UNL     1       8.576   8.019   2.992  1.00  0.00     0.065 A 
ATOM      6  C   UNL     1      11.135   7.991   4.078  1.00  0.00     0.044 A 
ATOM      7  C   UNL     1      10.494   6.802   3.772  1.00  0.00     0.165 A 
ATOM      8  F   UNL     1      11.116   5.624   4.001  1.00  0.00    -0.203 F 
BRANCH   3   9
ATOM      9  C   UNL     1       8.541  10.507   3.056  1.00  0.00     0.335 C 
ATOM     10  O   UNL     1       8.626  11.038   1.968  1.00  0.00    -0.246 OA
BRANCH   9  11
ATOM     11  O   UNL     1       7.824  11.090   4.037  1.00  0.00    -0.478 OA
ATOM     12  H   UNL     1       8.179  11.907   4.414  1.00  0.00     0.297 HD
ENDBRANCH   9  11
ENDBRANCH   3   9
ENDBRANCH   1   2
BRANCH   1  13
ATOM     13  C   UNL     1       7.232   5.511   3.339  1.00  0.00     0.230 C 
BRANCH  13  14
ATOM     14  C   UNL     1       6.631   4.249   2.717  1.00  0.00     0.046 C 
BRANCH  14  15
ATOM     15  C   UNL     1       7.278   3.994   1.354  1.00  0.00     0.043 C 
BRANCH  15  16
ATOM     16  C   UNL     1       6.465   4.665   0.278  1.00  0.00    -0.004 A 
ATOM     17  C   UNL     1       6.864   5.706  -0.490  1.00  0.00     0.036 A 
ATOM     18  C   UNL     1       5.166   4.319  -0.109  1.00  0.00     0.063 A 
ATOM     19  N   UNL     1       5.851   6.011  -1.328  1.00  0.00    -0.282 N 
ATOM     20  N   UNL     1       4.794   5.129  -1.066  1.00  0.00    -0.181 NA
ATOM     21  C   UNL     1       8.199   6.399  -0.422  1.00  0.00     0.066 C 
ATOM     22  C   UNL     1       4.333   3.211   0.485  1.00  0.00     0.069 C 
ATOM     23  H   UNL     1       5.853   6.717  -1.993  1.00  0.00     0.190 HD
ENDBRANCH  15  16
ENDBRANCH  14  15
ENDBRANCH  13  14
ENDBRANCH   1  13
TORSDOF 7
ENDMDL
MODEL 7
REMARK VINA RESULT:    -4.551      4.963      7.925
REMARK INTER + INTRA:          -6.739
REMARK INTER:                  -6.036
REMARK INTRA:                  -0.703
REMARK UNBOUND:                -0.459
REMARK SMILES Cc1n[nH]c(C)c1CCCOc1cc(C(=O)O)ccc1F
REMARK SMILES IDX 11 1 12 2 14 3 18 4 13 5 19 6 20 7 21 8 15 9 16 10 17 11
REMARK SMILES IDX 10 13 9 14 8 15 7 16 5 17 2 18 4 19 3 20 6 21 1 22
REMARK H PARENT 17 12 4 23
ROOT
ATOM      1  O   UNL     1       9.051   9.579   2.739  1.00  0.00    -0.490 OA
ENDROOT
BRANCH   1   2
ATOM      2  C   UNL     1       9.188  10.822   3.272  1.00  0.00     0.155 A 
ATOM      3  C   UNL     1      10.585  12.642   3.992  1.00  0.00     0.063 A 
ATOM      4  C   UNL     1       9.447  13.367   4.354  1.00  0.00     0.019 A 
ATOM      5  C   UNL     1      10.448  11.363   3.449  1.00  0.00     0.065 A 
ATOM      6  C   UNL     1       8.194  12.821   4.169  1.00  0.00     0.044 A 
ATOM      7  C   UNL     1       8.060  11.555   3.625  1.00  0.00     0.165 A 
ATOM      8  F   UNL     1       6.830  11.026   3.446  1.00  0.00    -0.203 F 
BRANCH   3   9
ATOM      9  C   UNL     1      11.927  13.223   4.189  1.00  0.00     0.335 C 
ATOM     10  O   UNL     1      12.056  14.260   4.807  1.00  0.00    -0.246 OA
BRANCH   9  11
ATOM     11  O   UNL     1      13.011  12.599   3.687  1.00  0.00    -0.478 OA
ATOM     12  H   UNL     1      12.858  11.940   2.996  1.00  0.00     0.297 HD
ENDBRANCH   9  11
ENDBRANCH   3   9
ENDBRANCH   1   2
BRANCH   1  13
ATOM     13  C   UNL     1       9.571   8.485   3.500  1.00  0.00     0.230 C 
BRANCH  13  14
ATOM     14  C   UNL     1       9.199   7.168   2.817  1.00  0.00     0.046 C 
BRANCH  14  15
ATOM     15  C   UNL     1       7.745   7.231   2.345  1.00  0.00     0.043 C 
BRANCH  15  16
ATOM     16  C   UNL     1       7.293   5.857   1.923  1.00  0.00    -0.004 A 
ATOM     17  C   UNL     1       6.653   4.955   2.704  1.00  0.00     0.036 A 
ATOM     18  C   UNL     1       7.455   5.290   0.655  1.00  0.00     0.063 A 
ATOM     19  N   UNL     1       6.424   3.854   1.957  1.00  0.00    -0.282 N 
ATOM     20  N   UNL     1       6.941   4.087   0.676  1.00  0.00    -0.181 NA
ATOM     21  C   UNL     1       6.265   5.146   4.146  1.00  0.00     0.066 C 
ATOM     22  C   UNL     1       8.119   5.947  -0.528  1.00  0.00     0.069 C 
ATOM     23  H   UNL     1       5.981   3.045   2.255  1.00  0.00     0.190 HD
ENDBRANCH  15  16
ENDBRANCH  14  15
ENDBRANCH  13  14
ENDBRANCH   1  13
TORSDOF 7
ENDMDL
MODEL 8
REMARK VINA RESULT:    -4.434      4.671      8.071
REMARK INTER + INTRA:          -6.579
REMARK INTER:                  -5.924
REMARK INTRA:                  -0.654
REMARK UNBOUND:                -0.459
REMARK SMILES Cc1n[nH]c(C)c1CCCOc1cc(C(=O)O)ccc1F
REMARK SMILES IDX 11 1 12 2 14 3 18 4 13 5 19 6 20 7 21 8 15 9 16 10 17 11
REMARK SMILES IDX 10 13 9 14 8 15 7 16 5 17 2 18 4 19 3 20 6 21 1 22
REMARK H PARENT 17 12 4 23
ROOT
ATOM      1  O   UNL     1      10.616   6.874   4.167  1.00  0.00    -0.490 OA
ENDROOT
BRANCH   1   2
ATOM      2  C   UNL     1      11.911   7.108   4.507  1.00  0.00     0.155 A 
ATOM      3  C   UNL     1      13.586   8.514   5.507  1.00  0.00     0.063 A 
ATOM      4  C   UNL     1      14.562   7.561   5.203  1.00  0.00     0.019 A 
ATOM      5  C   UNL     1      12.255   8.280   5.154  1.00  0.00     0.065 A 
ATOM      6  C   UNL     1      14.208   6.392   4.563  1.00  0.00     0.044 A 
ATOM      7  C   UNL     1      12.887   6.160   4.218  1.00  0.00     0.165 A 
ATOM      8  F   UNL     1      12.547   5.013   3.591  1.00  0.00    -0.203 F 
BRANCH   3   9
ATOM      9  C   UNL     1      13.961   9.766   6.192  1.00  0.00     0.335 C 
ATOM     10  O   UNL     1      14.827  10.478   5.726  1.00  0.00    -0.246 OA
BRANCH   9  11
ATOM     11  O   UNL     1      13.338  10.122   7.333  1.00  0.00    -0.478 OA
ATOM     12  H   UNL     1      13.475   9.554   8.104  1.00  0.00     0.297 HD
ENDBRANCH   9  11
ENDBRANCH   3   9
ENDBRANCH   1   2
BRANCH   1  13
ATOM     13  C   UNL     1      10.050   7.712   3.155  1.00  0.00     0.230 C 
BRANCH  13  14
ATOM     14  C   UNL     1       8.579   7.342   2.952  1.00  0.00     0.046 C 
BRANCH  14  15
ATOM     15  C   UNL     1       8.474   5.867   2.561  1.00  0.00     0.043 C 
BRANCH  15  16
ATOM     16  C   UNL     1       7.141   5.614   1.906  1.00  0.00    -0.004 A 
ATOM     17  C   UNL     1       6.884   5.659   0.578  1.00  0.00     0.036 A 
ATOM     18  C   UNL     1       5.950   5.284   2.563  1.00  0.00     0.063 A 
ATOM     19  N   UNL     1       5.577   5.375   0.402  1.00  0.00    -0.282 N 
ATOM     20  N   UNL     1       5.011   5.147   1.663  1.00  0.00    -0.181 NA
ATOM     21  C   UNL     1       7.880   5.970  -0.508  1.00  0.00     0.066 C 
ATOM     22  C   UNL     1       5.777   5.126   4.052  1.00  0.00     0.069 C 
ATOM     23  H   UNL     1       5.111   5.336  -0.448  1.00  0.00     0.190 HD
ENDBRANCH  15  16
ENDBRANCH  14  15
ENDBRANCH  13  14
ENDBRANCH   1  13
TORSDOF 7
ENDMDL
MODEL 9
REMARK VINA RESULT:    -4.333      3.912      6.905
REMARK INTER + INTRA:          -6.439
REMARK INTER:                  -5.866
REMARK INTRA:                  -0.574
REMARK UNBOUND:                -0.459
REMARK SMILES Cc1n[nH]c(C)c1CCCOc1cc(C(=O)O)ccc1F
REMARK SMILES IDX 11 1 12 2 14 3 18 4 13 5 19 6 20 7 21 8 15 9 16 10 17 11
REMARK SMILES IDX 10 13 9 14 8 15 7 16 5 17 2 18 4 19 3 20 6 21 1 22
REMARK H PARENT 17 12 4 23
ROOT
ATOM      1  O   UNL     1       7.447   6.542   2.784  1.00  0.00    -0.490 OA
ENDROOT
BRANCH   1   2
ATOM      2  C   UNL     1       8.569   7.217   3.150  1.00  0.00     0.155 A 
ATOM      3  C   UNL     1      10.813   7.222   4.013  1.00  0.00     0.063 A 
ATOM      4  C   UNL     1      10.856   8.612   3.883  1.00  0.00     0.019 A 
ATOM      5  C   UNL     1       9.661   6.526   3.643  1.00  0.00     0.065 A 
ATOM      6  C   UNL     1       9.765   9.292   3.386  1.00  0.00     0.044 A 
ATOM      7  C   UNL     1       8.624   8.600   3.014  1.00  0.00     0.165 A 
ATOM      8  F   UNL     1       7.558   9.271   2.527  1.00  0.00    -0.203 F 
BRANCH   3   9
ATOM      9  C   UNL     1      11.980   6.491   4.545  1.00  0.00     0.335 C 
ATOM     10  O   UNL     1      12.799   7.070   5.230  1.00  0.00    -0.246 OA
BRANCH   9  11
ATOM     11  O   UNL     1      12.133   5.179   4.276  1.00  0.00    -0.478 OA
ATOM     12  H   UNL     1      11.762   4.855   3.444  1.00  0.00     0.297 HD
ENDBRANCH   9  11
ENDBRANCH   3   9
ENDBRANCH   1   2
BRANCH   1  13
ATOM     13  C   UNL     1       7.043   5.453   3.617  1.00  0.00     0.230 C 
BRANCH  13  14
ATOM     14  C   UNL     1       6.361   4.383   2.763  1.00  0.00     0.046 C 
BRANCH  14  15
ATOM     15  C   UNL     1       7.164   4.168   1.478  1.00  0.00     0.043 C 
BRANCH  15  16
ATOM     16  C   UNL     1       6.414   4.756   0.311  1.00  0.00    -0.004 A 
ATOM     17  C   UNL     1       6.856   5.743  -0.504  1.00  0.00     0.036 A 
ATOM     18  C   UNL     1       5.141   4.375  -0.126  1.00  0.00     0.063 A 
ATOM     19  N   UNL     1       5.893   5.982  -1.419  1.00  0.00    -0.282 N 
ATOM     20  N   UNL     1       4.825   5.114  -1.158  1.00  0.00    -0.181 NA
ATOM     21  C   UNL     1       8.184   6.447  -0.406  1.00  0.00     0.066 C 
ATOM     22  C   UNL     1       4.277   3.307   0.495  1.00  0.00     0.069 C 
ATOM     23  H   UNL     1       5.934   6.639  -2.131  1.00  0.00     0.190 HD
ENDBRANCH  15  16
ENDBRANCH  14  15
ENDBRANCH  13  14
ENDBRANCH   1  13
TORSDOF 7
ENDMDL
