MODEL 1
REMARK VINA RESULT:    -5.287      0.000      0.000
REMARK INTER + INTRA:          -6.352
REMARK INTER:                  -6.059
REMARK INTRA:                  -0.292
REMARK UNBOUND:                -0.292
REMARK SMILES O=C(O)c1ccc2nc(-c3cc(Cl)cc(Cl)c3)oc2c1
REMARK SMILES IDX 5 1 6 2 20 3 8 4 18 5 4 6 9 7 7 8 19 9 2 10 1 11 3 12 10 14
REMARK SMILES IDX 11 15 17 16 12 17 15 18 14 19 13 20 16 21
REMARK H PARENT 3 13
ROOT
ATOM      1  C   UNL     1      13.738   3.400  -3.791  1.00  0.00     0.018 A 
ATOM      2  C   UNL     1      12.728   2.492  -3.677  1.00  0.00     0.033 A 
ATOM      3  C   UNL     1      12.194   5.210  -3.324  1.00  0.00     0.065 A 
ATOM      4  N   UNL     1      10.253   2.279  -3.217  1.00  0.00    -0.209 NA
ATOM      5  O   UNL     1       9.845   4.398  -2.948  1.00  0.00    -0.436 OA
ATOM      6  C   UNL     1      13.486   4.767  -3.614  1.00  0.00     0.063 A 
ATOM      7  C   UNL     1       9.319   3.159  -2.957  1.00  0.00     0.227 A 
ATOM      8  C   UNL     1      11.428   2.922  -3.386  1.00  0.00     0.110 A 
ATOM      9  C   UNL     1      11.166   4.293  -3.213  1.00  0.00     0.156 A 
ENDROOT
BRANCH   6  10
ATOM     10  C   UNL     1      14.587   5.740  -3.733  1.00  0.00     0.335 C 
ATOM     11  O   UNL     1      14.362   6.868  -4.124  1.00  0.00    -0.246 OA
BRANCH  10  12
ATOM     12  O   UNL     1      15.845   5.377  -3.410  1.00  0.00    -0.478 OA
ATOM     13  H   UNL     1      15.997   5.082  -2.503  1.00  0.00     0.297 HD
ENDBRANCH  10  12
ENDBRANCH   6  10
BRANCH   7  14
ATOM     14  C   UNL     1       7.898   2.838  -2.711  1.00  0.00     0.040 A 
ATOM     15  C   UNL     1       6.898   3.717  -3.131  1.00  0.00     0.034 A 
ATOM     16  C   UNL     1       7.550   1.655  -2.057  1.00  0.00     0.034 A 
ATOM     17  C   UNL     1       5.572   3.411  -2.899  1.00  0.00     0.043 A 
ATOM     18  C   UNL     1       6.220   1.360  -1.831  1.00  0.00     0.043 A 
ATOM     19  C   UNL     1       5.233   2.236  -2.249  1.00  0.00     0.041 A 
ATOM     20  Cl  UNL     1       4.326   4.502  -3.420  1.00  0.00    -0.084 Cl
ATOM     21  Cl  UNL     1       5.786  -0.111  -1.018  1.00  0.00    -0.084 Cl
ENDBRANCH   7  14
TORSDOF 3
ENDMDL
MODEL 2
REMARK VINA RESULT:    -5.284      0.004      2.019
REMARK INTER + INTRA:          -6.349
REMARK INTER:                  -6.057
REMARK INTRA:                  -0.292
REMARK UNBOUND:                -0.292
REMARK SMILES O=C(O)c1ccc2nc(-c3cc(Cl)cc(Cl)c3)oc2c1
REMARK SMILES IDX 5 1 6 2 20 3 8 4 18 5 4 6 9 7 7 8 19 9 2 10 1 11 3 12 10 14
REMARK SMILES IDX 11 15 17 16 12 17 15 18 14 19 13 20 16 21
REMARK H PARENT 3 13
ROOT
ATOM      1  C   UNL     1      13.738   3.400  -3.790  1.00  0.00     0.018 A 
ATOM      2  C   UNL     1      12.728   2.492  -3.677  1.00  0.00     0.033 A 
ATOM      3  C   UNL     1      12.194   5.211  -3.323  1.00  0.00     0.065 A 
ATOM      4  N   UNL     1      10.253   2.279  -3.216  1.00  0.00    -0.209 NA
ATOM      5  O   UNL     1       9.845   4.399  -2.948  1.00  0.00    -0.436 OA
ATOM      6  C   UNL     1      13.486   4.768  -3.614  1.00  0.00     0.063 A 
ATOM      7  C   UNL     1       9.319   3.160  -2.956  1.00  0.00     0.227 A 
ATOM      8  C   UNL     1      11.428   2.923  -3.386  1.00  0.00     0.110 A 
ATOM      9  C   UNL     1      11.166   4.294  -3.212  1.00  0.00     0.156 A 
ENDROOT
BRANCH   6  10
ATOM     10  C   UNL     1      14.588   5.740  -3.733  1.00  0.00     0.335 C 
ATOM     11  O   UNL     1      14.362   6.867  -4.125  1.00  0.00    -0.246 OA
BRANCH  10  12
ATOM     12  O   UNL     1      15.845   5.377  -3.409  1.00  0.00    -0.478 OA
ATOM     13  H   UNL     1      16.384   4.989  -4.111  1.00  0.00     0.297 HD
ENDBRANCH  10  12
ENDBRANCH   6  10
BRANCH   7  14
ATOM     14  C   UNL     1       7.897   2.840  -2.710  1.00  0.00     0.040 A 
ATOM     15  C   UNL     1       7.548   1.658  -2.055  1.00  0.00     0.034 A 
ATOM     16  C   UNL     1       6.898   3.719  -3.133  1.00  0.00     0.034 A 
ATOM     17  C   UNL     1       6.218   1.366  -1.827  1.00  0.00     0.043 A 
ATOM     18  C   UNL     1       5.572   3.415  -2.899  1.00  0.00     0.043 A 
ATOM     19  C   UNL     1       5.232   2.241  -2.249  1.00  0.00     0.041 A 
ATOM     20  Cl  UNL     1       5.782  -0.103  -1.011  1.00  0.00    -0.084 Cl
ATOM     21  Cl  UNL     1       4.327   4.506  -3.425  1.00  0.00    -0.084 Cl
ENDBRANCH   7  14
TORSDOF 3
ENDMDL
MODEL 3
REMARK VINA RESULT:    -5.280      1.558      2.958
REMARK INTER + INTRA:          -6.344
REMARK INTER:                  -6.051
REMARK INTRA:                  -0.293
REMARK UNBOUND:                -0.292
REMARK SMILES O=C(O)c1ccc2nc(-c3cc(Cl)cc(Cl)c3)oc2c1
REMARK SMILES IDX 5 1 6 2 20 3 8 4 18 5 4 6 9 7 7 8 19 9 2 10 1 11 3 12 10 14
REMARK SMILES IDX 11 15 17 16 12 17 15 18 14 19 13 20 16 21
REMARK H PARENT 3 13
ROOT
ATOM      1  C   UNL     1      13.625   4.004  -3.618  1.00  0.00     0.018 A 
ATOM      2  C   UNL     1      12.398   4.561  -3.416  1.00  0.00     0.033 A 
ATOM      3  C   UNL     1      12.635   1.792  -3.691  1.00  0.00     0.065 A 
ATOM      4  N   UNL     1       9.948   4.000  -3.158  1.00  0.00    -0.209 NA
ATOM      5  O   UNL     1      10.142   1.843  -3.368  1.00  0.00    -0.436 OA
ATOM      6  C   UNL     1      13.759   2.616  -3.760  1.00  0.00     0.063 A 
ATOM      7  C   UNL     1       9.290   2.867  -3.174  1.00  0.00     0.227 A 
ATOM      8  C   UNL     1      11.262   3.746  -3.344  1.00  0.00     0.110 A 
ATOM      9  C   UNL     1      11.389   2.353  -3.481  1.00  0.00     0.156 A 
ENDROOT
BRANCH   6  10
ATOM     10  C   UNL     1      15.091   2.025  -3.984  1.00  0.00     0.335 C 
ATOM     11  O   UNL     1      15.970   2.686  -4.501  1.00  0.00    -0.246 OA
BRANCH  10  12
ATOM     12  O   UNL     1      15.335   0.751  -3.617  1.00  0.00    -0.478 OA
ATOM     13  H   UNL     1      15.252   0.074  -4.301  1.00  0.00     0.297 HD
ENDBRANCH  10  12
ENDBRANCH   6  10
BRANCH   7  14
ATOM     14  C   UNL     1       7.829   2.735  -3.002  1.00  0.00     0.040 A 
ATOM     15  C   UNL     1       7.296   1.612  -2.366  1.00  0.00     0.034 A 
ATOM     16  C   UNL     1       6.974   3.732  -3.477  1.00  0.00     0.034 A 
ATOM     17  C   UNL     1       5.930   1.495  -2.208  1.00  0.00     0.043 A 
ATOM     18  C   UNL     1       5.610   3.603  -3.313  1.00  0.00     0.043 A 
ATOM     19  C   UNL     1       5.088   2.488  -2.681  1.00  0.00     0.041 A 
ATOM     20  Cl  UNL     1       5.265   0.100  -1.416  1.00  0.00    -0.084 Cl
ATOM     21  Cl  UNL     1       4.546   4.842  -3.902  1.00  0.00    -0.084 Cl
ENDBRANCH   7  14
TORSDOF 3
ENDMDL
MODEL 4
REMARK VINA RESULT:    -5.273      1.559      2.172
REMARK INTER + INTRA:          -6.337
REMARK INTER:                  -6.043
REMARK INTRA:                  -0.293
REMARK UNBOUND:                -0.292
REMARK SMILES O=C(O)c1ccc2nc(-c3cc(Cl)cc(Cl)c3)oc2c1
REMARK SMILES IDX 5 1 6 2 20 3 8 4 18 5 4 6 9 7 7 8 19 9 2 10 1 11 3 12 10 14
REMARK SMILES IDX 11 15 17 16 12 17 15 18 14 19 13 20 16 21
REMARK H PARENT 3 13
ROOT
ATOM      1  C   UNL     1      13.610   3.989  -3.602  1.00  0.00     0.018 A 
ATOM      2  C   UNL     1      12.383   4.541  -3.388  1.00  0.00     0.033 A 
ATOM      3  C   UNL     1      12.624   1.776  -3.701  1.00  0.00     0.065 A 
ATOM      4  N   UNL     1       9.935   3.971  -3.130  1.00  0.00    -0.209 NA
ATOM      5  O   UNL     1      10.132   1.817  -3.370  1.00  0.00    -0.436 OA
ATOM      6  C   UNL     1      13.747   2.603  -3.763  1.00  0.00     0.063 A 
ATOM      7  C   UNL     1       9.279   2.837  -3.159  1.00  0.00     0.227 A 
ATOM      8  C   UNL     1      11.248   3.723  -3.324  1.00  0.00     0.110 A 
ATOM      9  C   UNL     1      11.378   2.331  -3.480  1.00  0.00     0.156 A 
ENDROOT
BRANCH   6  10
ATOM     10  C   UNL     1      15.079   2.018  -3.999  1.00  0.00     0.335 C 
ATOM     11  O   UNL     1      15.968   2.702  -4.467  1.00  0.00    -0.246 OA
BRANCH  10  12
ATOM     12  O   UNL     1      15.311   0.725  -3.698  1.00  0.00    -0.478 OA
ATOM     13  H   UNL     1      15.785   0.544  -2.876  1.00  0.00     0.297 HD
ENDBRANCH  10  12
ENDBRANCH   6  10
BRANCH   7  14
ATOM     14  C   UNL     1       7.818   2.699  -2.984  1.00  0.00     0.040 A 
ATOM     15  C   UNL     1       6.958   3.687  -3.465  1.00  0.00     0.034 A 
ATOM     16  C   UNL     1       7.293   1.579  -2.335  1.00  0.00     0.034 A 
ATOM     17  C   UNL     1       5.594   3.551  -3.300  1.00  0.00     0.043 A 
ATOM     18  C   UNL     1       5.928   1.455  -2.176  1.00  0.00     0.043 A 
ATOM     19  C   UNL     1       5.080   2.439  -2.656  1.00  0.00     0.041 A 
ATOM     20  Cl  UNL     1       4.522   4.779  -3.898  1.00  0.00    -0.084 Cl
ATOM     21  Cl  UNL     1       5.273   0.064  -1.370  1.00  0.00    -0.084 Cl
ENDBRANCH   7  14
TORSDOF 3
ENDMDL
MODEL 5
REMARK VINA RESULT:    -5.270      3.957      7.815
REMARK INTER + INTRA:          -6.333
REMARK INTER:                  -6.035
REMARK INTRA:                  -0.297
REMARK UNBOUND:                -0.292
REMARK SMILES O=C(O)c1ccc2nc(-c3cc(Cl)cc(Cl)c3)oc2c1
REMARK SMILES IDX 5 1 6 2 20 3 8 4 18 5 4 6 9 7 7 8 19 9 2 10 1 11 3 12 10 14
REMARK SMILES IDX 11 15 17 16 12 17 15 18 14 19 13 20 16 21
REMARK H PARENT 3 13
ROOT
ATOM      1  C   UNL     1       5.562   3.406  -2.397  1.00  0.00     0.018 A 
ATOM      2  C   UNL     1       6.674   4.175  -2.568  1.00  0.00     0.033 A 
ATOM      3  C   UNL     1       6.890   1.391  -2.638  1.00  0.00     0.065 A 
ATOM      4  N   UNL     1       9.164   4.054  -2.978  1.00  0.00    -0.209 NA
ATOM      5  O   UNL     1       9.322   1.885  -3.036  1.00  0.00    -0.436 OA
ATOM      6  C   UNL     1       5.655   2.008  -2.427  1.00  0.00     0.063 A 
ATOM      7  C   UNL     1       9.991   3.050  -3.128  1.00  0.00     0.227 A 
ATOM      8  C   UNL     1       7.919   3.570  -2.781  1.00  0.00     0.110 A 
ATOM      9  C   UNL     1       8.019   2.168  -2.818  1.00  0.00     0.156 A 
ENDROOT
BRANCH   6  10
ATOM     10  C   UNL     1       4.446   1.186  -2.235  1.00  0.00     0.335 C 
ATOM     11  O   UNL     1       3.346   1.693  -2.326  1.00  0.00    -0.246 OA
BRANCH  10  12
ATOM     12  O   UNL     1       4.561  -0.128  -1.957  1.00  0.00    -0.478 OA
ATOM     13  H   UNL     1       5.072  -0.665  -2.577  1.00  0.00     0.297 HD
ENDBRANCH  10  12
ENDBRANCH   6  10
BRANCH   7  14
ATOM     14  C   UNL     1      11.444   3.177  -3.365  1.00  0.00     0.040 A 
ATOM     15  C   UNL     1      12.212   2.045  -3.640  1.00  0.00     0.034 A 
ATOM     16  C   UNL     1      12.054   4.432  -3.312  1.00  0.00     0.034 A 
ATOM     17  C   UNL     1      13.569   2.172  -3.862  1.00  0.00     0.043 A 
ATOM     18  C   UNL     1      13.412   4.546  -3.535  1.00  0.00     0.043 A 
ATOM     19  C   UNL     1      14.168   3.419  -3.808  1.00  0.00     0.041 A 
ATOM     20  Cl  UNL     1      14.526   0.765  -4.206  1.00  0.00    -0.084 Cl
ATOM     21  Cl  UNL     1      14.173   6.105  -3.470  1.00  0.00    -0.084 Cl
ENDBRANCH   7  14
TORSDOF 3
ENDMDL
MODEL 6
REMARK VINA RESULT:    -5.267      3.960      7.604
REMARK INTER + INTRA:          -6.330
REMARK INTER:                  -6.032
REMARK INTRA:                  -0.298
REMARK UNBOUND:                -0.292
REMARK SMILES O=C(O)c1ccc2nc(-c3cc(Cl)cc(Cl)c3)oc2c1
REMARK SMILES IDX 5 1 6 2 20 3 8 4 18 5 4 6 9 7 7 8 19 9 2 10 1 11 3 12 10 14
REMARK SMILES IDX 11 15 17 16 12 17 15 18 14 19 13 20 16 21
REMARK H PARENT 3 13
ROOT
ATOM      1  C   UNL     1       5.567   3.398  -2.401  1.00  0.00     0.018 A 
ATOM      2  C   UNL     1       6.680   4.166  -2.574  1.00  0.00     0.033 A 
ATOM      3  C   UNL     1       6.893   1.381  -2.638  1.00  0.00     0.065 A 
ATOM      4  N   UNL     1       9.170   4.041  -2.983  1.00  0.00    -0.209 NA
ATOM      5  O   UNL     1       9.327   1.872  -3.037  1.00  0.00    -0.436 OA
ATOM      6  C   UNL     1       5.659   1.999  -2.429  1.00  0.00     0.063 A 
ATOM      7  C   UNL     1       9.996   3.036  -3.131  1.00  0.00     0.227 A 
ATOM      8  C   UNL     1       7.924   3.559  -2.785  1.00  0.00     0.110 A 
ATOM      9  C   UNL     1       8.024   2.157  -2.819  1.00  0.00     0.156 A 
ENDROOT
BRANCH   6  10
ATOM     10  C   UNL     1       4.450   1.179  -2.235  1.00  0.00     0.335 C 
ATOM     11  O   UNL     1       3.350   1.690  -2.310  1.00  0.00    -0.246 OA
BRANCH  10  12
ATOM     12  O   UNL     1       4.563  -0.138  -1.973  1.00  0.00    -0.478 OA
ATOM     13  H   UNL     1       5.243  -0.403  -1.340  1.00  0.00     0.297 HD
ENDBRANCH  10  12
ENDBRANCH   6  10
BRANCH   7  14
ATOM     14  C   UNL     1      11.450   3.162  -3.367  1.00  0.00     0.040 A 
ATOM     15  C   UNL     1      12.063   4.414  -3.313  1.00  0.00     0.034 A 
ATOM     16  C   UNL     1      12.215   2.027  -3.647  1.00  0.00     0.034 A 
ATOM     17  C   UNL     1      13.421   4.525  -3.534  1.00  0.00     0.043 A 
ATOM     18  C   UNL     1      13.572   2.151  -3.866  1.00  0.00     0.043 A 
ATOM     19  C   UNL     1      14.174   3.396  -3.811  1.00  0.00     0.041 A 
ATOM     20  Cl  UNL     1      14.186   6.081  -3.466  1.00  0.00    -0.084 Cl
ATOM     21  Cl  UNL     1      14.525   0.742  -4.214  1.00  0.00    -0.084 Cl
ENDBRANCH   7  14
TORSDOF 3
ENDMDL
MODEL 7
REMARK VINA RESULT:    -5.254      3.779      7.405
REMARK INTER + INTRA:          -6.314
REMARK INTER:                  -6.017
REMARK INTRA:                  -0.297
REMARK UNBOUND:                -0.292
REMARK SMILES O=C(O)c1ccc2nc(-c3cc(Cl)cc(Cl)c3)oc2c1
REMARK SMILES IDX 5 1 6 2 20 3 8 4 18 5 4 6 9 7 7 8 19 9 2 10 1 11 3 12 10 14
REMARK SMILES IDX 11 15 17 16 12 17 15 18 14 19 13 20 16 21
REMARK H PARENT 3 13
ROOT
ATOM      1  C   UNL     1       5.869   1.439  -2.879  1.00  0.00     0.018 A 
ATOM      2  C   UNL     1       7.156   1.039  -3.079  1.00  0.00     0.033 A 
ATOM      3  C   UNL     1       6.580   3.754  -2.767  1.00  0.00     0.065 A 
ATOM      4  N   UNL     1       9.521   1.900  -3.304  1.00  0.00    -0.209 NA
ATOM      5  O   UNL     1       9.064   4.012  -3.055  1.00  0.00    -0.436 OA
ATOM      6  C   UNL     1       5.564   2.798  -2.723  1.00  0.00     0.063 A 
ATOM      7  C   UNL     1      10.036   3.103  -3.262  1.00  0.00     0.227 A 
ATOM      8  C   UNL     1       8.185   1.988  -3.126  1.00  0.00     0.110 A 
ATOM      9  C   UNL     1       7.888   3.352  -2.965  1.00  0.00     0.156 A 
ENDROOT
BRANCH   6  10
ATOM     10  C   UNL     1       4.167   3.219  -2.514  1.00  0.00     0.335 C 
ATOM     11  O   UNL     1       3.845   4.374  -2.711  1.00  0.00    -0.246 OA
BRANCH  10  12
ATOM     12  O   UNL     1       3.247   2.324  -2.102  1.00  0.00    -0.478 OA
ATOM     13  H   UNL     1       3.517   1.396  -2.080  1.00  0.00     0.297 HD
ENDBRANCH  10  12
ENDBRANCH   6  10
BRANCH   7  14
ATOM     14  C   UNL     1      11.472   3.416  -3.417  1.00  0.00     0.040 A 
ATOM     15  C   UNL     1      11.919   4.733  -3.303  1.00  0.00     0.034 A 
ATOM     16  C   UNL     1      12.387   2.394  -3.678  1.00  0.00     0.034 A 
ATOM     17  C   UNL     1      13.262   5.019  -3.448  1.00  0.00     0.043 A 
ATOM     18  C   UNL     1      13.727   2.692  -3.821  1.00  0.00     0.043 A 
ATOM     19  C   UNL     1      14.164   4.001  -3.707  1.00  0.00     0.041 A 
ATOM     20  Cl  UNL     1      13.820   6.656  -3.306  1.00  0.00    -0.084 Cl
ATOM     21  Cl  UNL     1      14.867   1.423  -4.147  1.00  0.00    -0.084 Cl
ENDBRANCH   7  14
TORSDOF 3
ENDMDL
MODEL 8
REMARK VINA RESULT:    -5.250      3.779      7.624
REMARK INTER + INTRA:          -6.309
REMARK INTER:                  -6.012
REMARK INTRA:                  -0.297
REMARK UNBOUND:                -0.292
REMARK SMILES O=C(O)c1ccc2nc(-c3cc(Cl)cc(Cl)c3)oc2c1
REMARK SMILES IDX 5 1 6 2 20 3 8 4 18 5 4 6 9 7 7 8 19 9 2 10 1 11 3 12 10 14
REMARK SMILES IDX 11 15 17 16 12 17 15 18 14 19 13 20 16 21
REMARK H PARENT 3 13
ROOT
ATOM      1  C   UNL     1       5.869   1.440  -2.879  1.00  0.00     0.018 A 
ATOM      2  C   UNL     1       7.156   1.038  -3.076  1.00  0.00     0.033 A 
ATOM      3  C   UNL     1       6.583   3.755  -2.776  1.00  0.00     0.065 A 
ATOM      4  N   UNL     1       9.521   1.895  -3.302  1.00  0.00    -0.209 NA
ATOM      5  O   UNL     1       9.068   4.009  -3.063  1.00  0.00    -0.436 OA
ATOM      6  C   UNL     1       5.565   2.801  -2.729  1.00  0.00     0.063 A 
ATOM      7  C   UNL     1      10.038   3.098  -3.264  1.00  0.00     0.227 A 
ATOM      8  C   UNL     1       8.186   1.985  -3.126  1.00  0.00     0.110 A 
ATOM      9  C   UNL     1       7.891   3.351  -2.971  1.00  0.00     0.156 A 
ENDROOT
BRANCH   6  10
ATOM     10  C   UNL     1       4.169   3.225  -2.522  1.00  0.00     0.335 C 
ATOM     11  O   UNL     1       3.848   4.378  -2.725  1.00  0.00    -0.246 OA
BRANCH  10  12
ATOM     12  O   UNL     1       3.248   2.333  -2.106  1.00  0.00    -0.478 OA
ATOM     13  H   UNL     1       3.546   1.646  -1.495  1.00  0.00     0.297 HD
ENDBRANCH  10  12
ENDBRANCH   6  10
BRANCH   7  14
ATOM     14  C   UNL     1      11.474   3.408  -3.419  1.00  0.00     0.040 A 
ATOM     15  C   UNL     1      12.389   2.386  -3.676  1.00  0.00     0.034 A 
ATOM     16  C   UNL     1      11.922   4.726  -3.309  1.00  0.00     0.034 A 
ATOM     17  C   UNL     1      13.730   2.682  -3.821  1.00  0.00     0.043 A 
ATOM     18  C   UNL     1      13.265   5.010  -3.456  1.00  0.00     0.043 A 
ATOM     19  C   UNL     1      14.167   3.991  -3.710  1.00  0.00     0.041 A 
ATOM     20  Cl  UNL     1      14.869   1.412  -4.140  1.00  0.00    -0.084 Cl
ATOM     21  Cl  UNL     1      13.824   6.649  -3.320  1.00  0.00    -0.084 Cl
ENDBRANCH   7  14
TORSDOF 3
ENDMDL
MODEL 9
REMARK VINA RESULT:    -4.531      4.082      7.269
REMARK INTER + INTRA:          -5.485
REMARK INTER:                  -5.200
REMARK INTRA:                  -0.285
REMARK UNBOUND:                -0.292
REMARK SMILES O=C(O)c1ccc2nc(-c3cc(Cl)cc(Cl)c3)oc2c1
REMARK SMILES IDX 5 1 6 2 20 3 8 4 18 5 4 6 9 7 7 8 19 9 2 10 1 11 3 12 10 14
REMARK SMILES IDX 11 15 17 16 12 17 15 18 14 19 13 20 16 21
REMARK H PARENT 3 13
ROOT
ATOM      1  C   UNL     1       6.531   3.483  -1.839  1.00  0.00     0.018 A 
ATOM      2  C   UNL     1       7.754   3.012  -1.465  1.00  0.00     0.033 A 
ATOM      3  C   UNL     1       7.299   3.731  -4.125  1.00  0.00     0.065 A 
ATOM      4  N   UNL     1      10.058   2.469  -2.345  1.00  0.00    -0.209 NA
ATOM      5  O   UNL     1       9.698   3.035  -4.414  1.00  0.00    -0.436 OA
ATOM      6  C   UNL     1       6.287   3.846  -3.171  1.00  0.00     0.063 A 
ATOM      7  C   UNL     1      10.598   2.556  -3.535  1.00  0.00     0.227 A 
ATOM      8  C   UNL     1       8.778   2.891  -2.412  1.00  0.00     0.110 A 
ATOM      9  C   UNL     1       8.543   3.258  -3.749  1.00  0.00     0.156 A 
ENDROOT
BRANCH   6  10
ATOM     10  C   UNL     1       4.959   4.348  -3.565  1.00  0.00     0.335 C 
ATOM     11  O   UNL     1       3.976   4.033  -2.925  1.00  0.00    -0.246 OA
BRANCH  10  12
ATOM     12  O   UNL     1       4.834   5.157  -4.636  1.00  0.00    -0.478 OA
ATOM     13  H   UNL     1       3.944   5.465  -4.853  1.00  0.00     0.297 HD
ENDBRANCH  10  12
ENDBRANCH   6  10
BRANCH   7  14
ATOM     14  C   UNL     1      11.990   2.184  -3.864  1.00  0.00     0.040 A 
ATOM     15  C   UNL     1      13.027   3.093  -3.651  1.00  0.00     0.034 A 
ATOM     16  C   UNL     1      12.272   0.921  -4.389  1.00  0.00     0.034 A 
ATOM     17  C   UNL     1      14.326   2.739  -3.959  1.00  0.00     0.043 A 
ATOM     18  C   UNL     1      13.575   0.579  -4.692  1.00  0.00     0.043 A 
ATOM     19  C   UNL     1      14.599   1.485  -4.480  1.00  0.00     0.041 A 
ATOM     20  Cl  UNL     1      15.618   3.867  -3.695  1.00  0.00    -0.084 Cl
ATOM     21  Cl  UNL     1      13.928  -0.991  -5.345  1.00  0.00    -0.084 Cl
ENDBRANCH   7  14
TORSDOF 3
ENDMDL
