MODEL 1
REMARK VINA RESULT:    -5.848      0.000      0.000
REMARK INTER + INTRA:          -8.717
REMARK INTER:                  -8.071
REMARK INTRA:                  -0.646
REMARK UNBOUND:                -0.646
REMARK SMILES Cc1n[nH]c(C)c1CCCOc1cc(C(=O)O)ccc1F
REMARK SMILES IDX 11 1 12 2 14 3 18 4 13 5 19 6 20 7 21 8 15 9 16 10 17 11
REMARK SMILES IDX 10 13 9 14 8 15 7 16 5 17 2 18 4 19 3 20 6 21 1 22
REMARK H PARENT 17 12 4 23
ROOT
ATOM      1  O   UNL     1       8.114   3.125  -4.418  1.00  0.00    -0.490 OA
ENDROOT
BRANCH   1   2
ATOM      2  C   UNL     1       7.041   2.776  -3.659  1.00  0.00     0.155 A 
ATOM      3  C   UNL     1       6.005   1.315  -2.055  1.00  0.00     0.063 A 
ATOM      4  C   UNL     1       4.841   2.086  -2.109  1.00  0.00     0.019 A 
ATOM      5  C   UNL     1       7.107   1.667  -2.837  1.00  0.00     0.065 A 
ATOM      6  C   UNL     1       4.786   3.194  -2.928  1.00  0.00     0.044 A 
ATOM      7  C   UNL     1       5.883   3.545  -3.699  1.00  0.00     0.165 A 
ATOM      8  F   UNL     1       5.822   4.632  -4.500  1.00  0.00    -0.203 F 
BRANCH   3   9
ATOM      9  C   UNL     1       6.067   0.129  -1.179  1.00  0.00     0.335 C 
ATOM     10  O   UNL     1       6.596  -0.890  -1.573  1.00  0.00    -0.246 OA
BRANCH   9  11
ATOM     11  O   UNL     1       5.543   0.179   0.061  1.00  0.00    -0.478 OA
ATOM     12  H   UNL     1       5.427   1.056   0.454  1.00  0.00     0.297 HD
ENDBRANCH   9  11
ENDBRANCH   3   9
ENDBRANCH   1   2
BRANCH   1  13
ATOM     13  C   UNL     1       9.206   3.758  -3.746  1.00  0.00     0.230 C 
BRANCH  13  14
ATOM     14  C   UNL     1      10.516   3.088  -4.161  1.00  0.00     0.046 C 
BRANCH  14  15
ATOM     15  C   UNL     1      11.466   3.038  -2.962  1.00  0.00     0.043 C 
BRANCH  15  16
ATOM     16  C   UNL     1      12.835   3.504  -3.385  1.00  0.00    -0.004 A 
ATOM     17  C   UNL     1      13.273   4.785  -3.392  1.00  0.00     0.036 A 
ATOM     18  C   UNL     1      13.880   2.690  -3.834  1.00  0.00     0.063 A 
ATOM     19  N   UNL     1      14.548   4.781  -3.835  1.00  0.00    -0.282 N 
ATOM     20  N   UNL     1      14.904   3.455  -4.111  1.00  0.00    -0.181 NA
ATOM     21  C   UNL     1      12.480   5.997  -2.977  1.00  0.00     0.066 C 
ATOM     22  C   UNL     1      13.830   1.191  -3.985  1.00  0.00     0.069 C 
ATOM     23  H   UNL     1      15.116   5.559  -3.945  1.00  0.00     0.190 HD
ENDBRANCH  15  16
ENDBRANCH  14  15
ENDBRANCH  13  14
ENDBRANCH   1  13
TORSDOF 7
ENDMDL
MODEL 2
REMARK VINA RESULT:    -5.773      0.557      1.773
REMARK INTER + INTRA:          -8.614
REMARK INTER:                  -8.047
REMARK INTRA:                  -0.566
REMARK UNBOUND:                -0.646
REMARK SMILES Cc1n[nH]c(C)c1CCCOc1cc(C(=O)O)ccc1F
REMARK SMILES IDX 11 1 12 2 14 3 18 4 13 5 19 6 20 7 21 8 15 9 16 10 17 11
REMARK SMILES IDX 10 13 9 14 8 15 7 16 5 17 2 18 4 19 3 20 6 21 1 22
REMARK H PARENT 17 12 4 23
ROOT
ATOM      1  O   UNL     1       8.100   3.234  -4.409  1.00  0.00    -0.490 OA
ENDROOT
BRANCH   1   2
ATOM      2  C   UNL     1       7.026   2.864  -3.661  1.00  0.00     0.155 A 
ATOM      3  C   UNL     1       5.998   1.374  -2.078  1.00  0.00     0.063 A 
ATOM      4  C   UNL     1       4.825   2.131  -2.134  1.00  0.00     0.019 A 
ATOM      5  C   UNL     1       7.101   1.748  -2.848  1.00  0.00     0.065 A 
ATOM      6  C   UNL     1       4.761   3.245  -2.943  1.00  0.00     0.044 A 
ATOM      7  C   UNL     1       5.858   3.617  -3.702  1.00  0.00     0.165 A 
ATOM      8  F   UNL     1       5.790   4.711  -4.493  1.00  0.00    -0.203 F 
BRANCH   3   9
ATOM      9  C   UNL     1       6.070   0.180  -1.212  1.00  0.00     0.335 C 
ATOM     10  O   UNL     1       6.604  -0.832  -1.617  1.00  0.00    -0.246 OA
BRANCH   9  11
ATOM     11  O   UNL     1       5.547   0.217   0.029  1.00  0.00    -0.478 OA
ATOM     12  H   UNL     1       6.171   0.237   0.768  1.00  0.00     0.297 HD
ENDBRANCH   9  11
ENDBRANCH   3   9
ENDBRANCH   1   2
BRANCH   1  13
ATOM     13  C   UNL     1       9.370   2.697  -4.030  1.00  0.00     0.230 C 
BRANCH  13  14
ATOM     14  C   UNL     1      10.450   3.765  -4.215  1.00  0.00     0.046 C 
BRANCH  14  15
ATOM     15  C   UNL     1      11.349   3.802  -2.977  1.00  0.00     0.043 C 
BRANCH  15  16
ATOM     16  C   UNL     1      12.785   3.622  -3.393  1.00  0.00    -0.004 A 
ATOM     17  C   UNL     1      13.399   2.443  -3.647  1.00  0.00     0.036 A 
ATOM     18  C   UNL     1      13.719   4.644  -3.592  1.00  0.00     0.063 A 
ATOM     19  N   UNL     1      14.678   2.710  -3.988  1.00  0.00    -0.282 N 
ATOM     20  N   UNL     1      14.855   4.099  -3.942  1.00  0.00    -0.181 NA
ATOM     21  C   UNL     1      12.768   1.077  -3.565  1.00  0.00     0.066 C 
ATOM     22  C   UNL     1      13.464   6.120  -3.420  1.00  0.00     0.069 C 
ATOM     23  H   UNL     1      15.354   2.055  -4.222  1.00  0.00     0.190 HD
ENDBRANCH  15  16
ENDBRANCH  14  15
ENDBRANCH  13  14
ENDBRANCH   1  13
TORSDOF 7
ENDMDL
MODEL 3
REMARK VINA RESULT:    -5.725      2.083      3.478
REMARK INTER + INTRA:          -8.547
REMARK INTER:                  -7.929
REMARK INTRA:                  -0.618
REMARK UNBOUND:                -0.646
REMARK SMILES Cc1n[nH]c(C)c1CCCOc1cc(C(=O)O)ccc1F
REMARK SMILES IDX 11 1 12 2 14 3 18 4 13 5 19 6 20 7 21 8 15 9 16 10 17 11
REMARK SMILES IDX 10 13 9 14 8 15 7 16 5 17 2 18 4 19 3 20 6 21 1 22
REMARK H PARENT 17 12 4 23
ROOT
ATOM      1  O   UNL     1       8.602   2.319  -1.471  1.00  0.00    -0.490 OA
ENDROOT
BRANCH   1   2
ATOM      2  C   UNL     1       7.294   2.287  -1.842  1.00  0.00     0.155 A 
ATOM      3  C   UNL     1       5.420   3.281  -2.974  1.00  0.00     0.063 A 
ATOM      4  C   UNL     1       4.623   2.197  -2.598  1.00  0.00     0.019 A 
ATOM      5  C   UNL     1       6.763   3.320  -2.591  1.00  0.00     0.065 A 
ATOM      6  C   UNL     1       5.163   1.168  -1.855  1.00  0.00     0.044 A 
ATOM      7  C   UNL     1       6.496   1.206  -1.481  1.00  0.00     0.165 A 
ATOM      8  F   UNL     1       7.020   0.195  -0.753  1.00  0.00    -0.203 F 
BRANCH   3   9
ATOM      9  C   UNL     1       4.845   4.383  -3.769  1.00  0.00     0.335 C 
ATOM     10  O   UNL     1       5.254   4.602  -4.890  1.00  0.00    -0.246 OA
BRANCH   9  11
ATOM     11  O   UNL     1       3.860   5.143  -3.251  1.00  0.00    -0.478 OA
ATOM     12  H   UNL     1       3.409   4.803  -2.466  1.00  0.00     0.297 HD
ENDBRANCH   9  11
ENDBRANCH   3   9
ENDBRANCH   1   2
BRANCH   1  13
ATOM     13  C   UNL     1       9.466   3.182  -2.213  1.00  0.00     0.230 C 
BRANCH  13  14
ATOM     14  C   UNL     1      10.825   2.506  -2.399  1.00  0.00     0.046 C 
BRANCH  14  15
ATOM     15  C   UNL     1      11.340   2.774  -3.815  1.00  0.00     0.043 C 
BRANCH  15  16
ATOM     16  C   UNL     1      12.770   3.242  -3.750  1.00  0.00    -0.004 A 
ATOM     17  C   UNL     1      13.869   2.463  -3.882  1.00  0.00     0.036 A 
ATOM     18  C   UNL     1      13.198   4.559  -3.550  1.00  0.00     0.063 A 
ATOM     19  N   UNL     1      14.954   3.258  -3.763  1.00  0.00    -0.282 N 
ATOM     20  N   UNL     1      14.506   4.568  -3.550  1.00  0.00    -0.181 NA
ATOM     21  C   UNL     1      13.880   0.976  -4.120  1.00  0.00     0.066 C 
ATOM     22  C   UNL     1      12.305   5.758  -3.354  1.00  0.00     0.069 C 
ATOM     23  H   UNL     1      15.879   2.972  -3.814  1.00  0.00     0.190 HD
ENDBRANCH  15  16
ENDBRANCH  14  15
ENDBRANCH  13  14
ENDBRANCH   1  13
TORSDOF 7
ENDMDL
MODEL 4
REMARK VINA RESULT:    -5.639      2.150      3.121
REMARK INTER + INTRA:          -8.428
REMARK INTER:                  -7.769
REMARK INTRA:                  -0.659
REMARK UNBOUND:                -0.646
REMARK SMILES Cc1n[nH]c(C)c1CCCOc1cc(C(=O)O)ccc1F
REMARK SMILES IDX 11 1 12 2 14 3 18 4 13 5 19 6 20 7 21 8 15 9 16 10 17 11
REMARK SMILES IDX 10 13 9 14 8 15 7 16 5 17 2 18 4 19 3 20 6 21 1 22
REMARK H PARENT 17 12 4 23
ROOT
ATOM      1  O   UNL     1       8.471   2.329  -1.252  1.00  0.00    -0.490 OA
ENDROOT
BRANCH   1   2
ATOM      2  C   UNL     1       7.189   2.307  -1.706  1.00  0.00     0.155 A 
ATOM      3  C   UNL     1       5.366   3.365  -2.863  1.00  0.00     0.063 A 
ATOM      4  C   UNL     1       4.572   2.238  -2.633  1.00  0.00     0.019 A 
ATOM      5  C   UNL     1       6.681   3.393  -2.394  1.00  0.00     0.065 A 
ATOM      6  C   UNL     1       5.089   1.158  -1.951  1.00  0.00     0.044 A 
ATOM      7  C   UNL     1       6.396   1.186  -1.491  1.00  0.00     0.165 A 
ATOM      8  F   UNL     1       6.897   0.123  -0.823  1.00  0.00    -0.203 F 
BRANCH   3   9
ATOM      9  C   UNL     1       4.815   4.523  -3.593  1.00  0.00     0.335 C 
ATOM     10  O   UNL     1       3.805   5.067  -3.197  1.00  0.00    -0.246 OA
BRANCH   9  11
ATOM     11  O   UNL     1       5.438   4.981  -4.697  1.00  0.00    -0.478 OA
ATOM     12  H   UNL     1       6.394   5.117  -4.638  1.00  0.00     0.297 HD
ENDBRANCH   9  11
ENDBRANCH   3   9
ENDBRANCH   1   2
BRANCH   1  13
ATOM     13  C   UNL     1       9.377   3.216  -1.911  1.00  0.00     0.230 C 
BRANCH  13  14
ATOM     14  C   UNL     1      10.654   2.459  -2.281  1.00  0.00     0.046 C 
BRANCH  14  15
ATOM     15  C   UNL     1      11.052   2.801  -3.718  1.00  0.00     0.043 C 
BRANCH  15  16
ATOM     16  C   UNL     1      12.531   3.082  -3.777  1.00  0.00    -0.004 A 
ATOM     17  C   UNL     1      13.122   4.284  -3.581  1.00  0.00     0.036 A 
ATOM     18  C   UNL     1      13.537   2.146  -4.037  1.00  0.00     0.063 A 
ATOM     19  N   UNL     1      14.454   4.115  -3.719  1.00  0.00    -0.282 N 
ATOM     20  N   UNL     1      14.689   2.765  -4.010  1.00  0.00    -0.181 NA
ATOM     21  C   UNL     1      12.418   5.578  -3.266  1.00  0.00     0.066 C 
ATOM     22  C   UNL     1      13.329   0.679  -4.314  1.00  0.00     0.069 C 
ATOM     23  H   UNL     1      15.128   4.806  -3.634  1.00  0.00     0.190 HD
ENDBRANCH  15  16
ENDBRANCH  14  15
ENDBRANCH  13  14
ENDBRANCH   1  13
TORSDOF 7
ENDMDL
MODEL 5
REMARK VINA RESULT:    -5.290      4.284      7.700
REMARK INTER + INTRA:          -7.946
REMARK INTER:                  -7.287
REMARK INTRA:                  -0.660
REMARK UNBOUND:                -0.646
REMARK SMILES Cc1n[nH]c(C)c1CCCOc1cc(C(=O)O)ccc1F
REMARK SMILES IDX 11 1 12 2 14 3 18 4 13 5 19 6 20 7 21 8 15 9 16 10 17 11
REMARK SMILES IDX 10 13 9 14 8 15 7 16 5 17 2 18 4 19 3 20 6 21 1 22
REMARK H PARENT 17 12 4 23
ROOT
ATOM      1  O   UNL     1       9.922   3.988  -2.969  1.00  0.00    -0.490 OA
ENDROOT
BRANCH   1   2
ATOM      2  C   UNL     1      11.255   4.137  -3.191  1.00  0.00     0.155 A 
ATOM      3  C   UNL     1      13.406   3.189  -3.698  1.00  0.00     0.063 A 
ATOM      4  C   UNL     1      13.974   4.465  -3.652  1.00  0.00     0.019 A 
ATOM      5  C   UNL     1      12.038   3.031  -3.465  1.00  0.00     0.065 A 
ATOM      6  C   UNL     1      13.184   5.563  -3.384  1.00  0.00     0.044 A 
ATOM      7  C   UNL     1      11.827   5.404  -3.159  1.00  0.00     0.165 A 
ATOM      8  F   UNL     1      11.058   6.484  -2.896  1.00  0.00    -0.203 F 
BRANCH   3   9
ATOM      9  C   UNL     1      14.249   2.012  -3.985  1.00  0.00     0.335 C 
ATOM     10  O   UNL     1      13.818   0.894  -3.792  1.00  0.00    -0.246 OA
BRANCH   9  11
ATOM     11  O   UNL     1      15.496   2.179  -4.469  1.00  0.00    -0.478 OA
ATOM     12  H   UNL     1      15.795   1.550  -5.139  1.00  0.00     0.297 HD
ENDBRANCH   9  11
ENDBRANCH   3   9
ENDBRANCH   1   2
BRANCH   1  13
ATOM     13  C   UNL     1       9.178   3.260  -3.950  1.00  0.00     0.230 C 
BRANCH  13  14
ATOM     14  C   UNL     1       8.349   2.176  -3.260  1.00  0.00     0.046 C 
BRANCH  14  15
ATOM     15  C   UNL     1       7.526   2.803  -2.133  1.00  0.00     0.043 C 
BRANCH  15  16
ATOM     16  C   UNL     1       6.084   2.390  -2.273  1.00  0.00    -0.004 A 
ATOM     17  C   UNL     1       5.526   1.264  -1.769  1.00  0.00     0.036 A 
ATOM     18  C   UNL     1       5.083   3.104  -2.940  1.00  0.00     0.063 A 
ATOM     19  N   UNL     1       4.220   1.263  -2.112  1.00  0.00    -0.282 N 
ATOM     20  N   UNL     1       3.968   2.427  -2.850  1.00  0.00    -0.181 NA
ATOM     21  C   UNL     1       6.235   0.203  -0.970  1.00  0.00     0.066 C 
ATOM     22  C   UNL     1       5.262   4.422  -3.651  1.00  0.00     0.069 C 
ATOM     23  H   UNL     1       3.572   0.578  -1.887  1.00  0.00     0.190 HD
ENDBRANCH  15  16
ENDBRANCH  14  15
ENDBRANCH  13  14
ENDBRANCH   1  13
TORSDOF 7
ENDMDL
MODEL 6
REMARK VINA RESULT:    -5.281      4.387      7.833
REMARK INTER + INTRA:          -7.934
REMARK INTER:                  -7.333
REMARK INTRA:                  -0.600
REMARK UNBOUND:                -0.646
REMARK SMILES Cc1n[nH]c(C)c1CCCOc1cc(C(=O)O)ccc1F
REMARK SMILES IDX 11 1 12 2 14 3 18 4 13 5 19 6 20 7 21 8 15 9 16 10 17 11
REMARK SMILES IDX 10 13 9 14 8 15 7 16 5 17 2 18 4 19 3 20 6 21 1 22
REMARK H PARENT 17 12 4 23
ROOT
ATOM      1  O   UNL     1      10.083   1.994  -3.341  1.00  0.00    -0.490 OA
ENDROOT
BRANCH   1   2
ATOM      2  C   UNL     1      11.394   2.310  -3.511  1.00  0.00     0.155 A 
ATOM      3  C   UNL     1      13.155   3.946  -3.592  1.00  0.00     0.063 A 
ATOM      4  C   UNL     1      14.080   2.932  -3.852  1.00  0.00     0.019 A 
ATOM      5  C   UNL     1      11.806   3.626  -3.422  1.00  0.00     0.065 A 
ATOM      6  C   UNL     1      13.661   1.621  -3.934  1.00  0.00     0.044 A 
ATOM      7  C   UNL     1      12.324   1.306  -3.760  1.00  0.00     0.165 A 
ATOM      8  F   UNL     1      11.919   0.019  -3.841  1.00  0.00    -0.203 F 
BRANCH   3   9
ATOM      9  C   UNL     1      13.600   5.350  -3.503  1.00  0.00     0.335 C 
ATOM     10  O   UNL     1      12.809   6.252  -3.693  1.00  0.00    -0.246 OA
BRANCH   9  11
ATOM     11  O   UNL     1      14.884   5.632  -3.205  1.00  0.00    -0.478 OA
ATOM     12  H   UNL     1      15.392   4.942  -2.755  1.00  0.00     0.297 HD
ENDBRANCH   9  11
ENDBRANCH   3   9
ENDBRANCH   1   2
BRANCH   1  13
ATOM     13  C   UNL     1       9.411   2.592  -2.230  1.00  0.00     0.230 C 
BRANCH  13  14
ATOM     14  C   UNL     1       8.238   3.433  -2.736  1.00  0.00     0.046 C 
BRANCH  14  15
ATOM     15  C   UNL     1       7.311   2.558  -3.583  1.00  0.00     0.043 C 
BRANCH  15  16
ATOM     16  C   UNL     1       5.929   2.562  -2.983  1.00  0.00    -0.004 A 
ATOM     17  C   UNL     1       4.961   3.478  -3.220  1.00  0.00     0.036 A 
ATOM     18  C   UNL     1       5.416   1.616  -2.089  1.00  0.00     0.063 A 
ATOM     19  N   UNL     1       3.877   3.128  -2.495  1.00  0.00    -0.282 N 
ATOM     20  N   UNL     1       4.189   1.958  -1.790  1.00  0.00    -0.181 NA
ATOM     21  C   UNL     1       5.073   4.674  -4.128  1.00  0.00     0.066 C 
ATOM     22  C   UNL     1       6.155   0.417  -1.552  1.00  0.00     0.069 C 
ATOM     23  H   UNL     1       3.032   3.603  -2.467  1.00  0.00     0.190 HD
ENDBRANCH  15  16
ENDBRANCH  14  15
ENDBRANCH  13  14
ENDBRANCH   1  13
TORSDOF 7
ENDMDL
MODEL 7
REMARK VINA RESULT:    -5.254      4.463      8.126
REMARK INTER + INTRA:          -7.896
REMARK INTER:                  -7.307
REMARK INTRA:                  -0.590
REMARK UNBOUND:                -0.646
REMARK SMILES Cc1n[nH]c(C)c1CCCOc1cc(C(=O)O)ccc1F
REMARK SMILES IDX 11 1 12 2 14 3 18 4 13 5 19 6 20 7 21 8 15 9 16 10 17 11
REMARK SMILES IDX 10 13 9 14 8 15 7 16 5 17 2 18 4 19 3 20 6 21 1 22
REMARK H PARENT 17 12 4 23
ROOT
ATOM      1  O   UNL     1      10.417   2.019  -3.473  1.00  0.00    -0.490 OA
ENDROOT
BRANCH   1   2
ATOM      2  C   UNL     1      11.765   2.046  -3.650  1.00  0.00     0.155 A 
ATOM      3  C   UNL     1      13.826   3.275  -3.801  1.00  0.00     0.063 A 
ATOM      4  C   UNL     1      14.520   2.079  -4.003  1.00  0.00     0.019 A 
ATOM      5  C   UNL     1      12.441   3.252  -3.624  1.00  0.00     0.065 A 
ATOM      6  C   UNL     1      13.838   0.881  -4.021  1.00  0.00     0.044 A 
ATOM      7  C   UNL     1      12.465   0.860  -3.840  1.00  0.00     0.165 A 
ATOM      8  F   UNL     1      11.802  -0.318  -3.859  1.00  0.00    -0.203 F 
BRANCH   3   9
ATOM      9  C   UNL     1      14.554   4.559  -3.780  1.00  0.00     0.335 C 
ATOM     10  O   UNL     1      14.168   5.465  -3.070  1.00  0.00    -0.246 OA
BRANCH   9  11
ATOM     11  O   UNL     1      15.650   4.724  -4.546  1.00  0.00    -0.478 OA
ATOM     12  H   UNL     1      15.972   5.629  -4.664  1.00  0.00     0.297 HD
ENDBRANCH   9  11
ENDBRANCH   3   9
ENDBRANCH   1   2
BRANCH   1  13
ATOM     13  C   UNL     1       9.755   3.279  -3.341  1.00  0.00     0.230 C 
BRANCH  13  14
ATOM     14  C   UNL     1       8.432   3.084  -2.597  1.00  0.00     0.046 C 
BRANCH  14  15
ATOM     15  C   UNL     1       7.491   2.227  -3.447  1.00  0.00     0.043 C 
BRANCH  15  16
ATOM     16  C   UNL     1       6.092   2.319  -2.896  1.00  0.00    -0.004 A 
ATOM     17  C   UNL     1       5.531   1.471  -2.003  1.00  0.00     0.036 A 
ATOM     18  C   UNL     1       5.145   3.299  -3.212  1.00  0.00     0.063 A 
ATOM     19  N   UNL     1       4.271   1.896  -1.767  1.00  0.00    -0.282 N 
ATOM     20  N   UNL     1       4.052   3.042  -2.542  1.00  0.00    -0.181 NA
ATOM     21  C   UNL     1       6.193   0.269  -1.382  1.00  0.00     0.066 C 
ATOM     22  C   UNL     1       5.346   4.445  -4.170  1.00  0.00     0.069 C 
ATOM     23  H   UNL     1       3.632   1.480  -1.169  1.00  0.00     0.190 HD
ENDBRANCH  15  16
ENDBRANCH  14  15
ENDBRANCH  13  14
ENDBRANCH   1  13
TORSDOF 7
ENDMDL
MODEL 8
REMARK VINA RESULT:    -5.209      4.366      7.724
REMARK INTER + INTRA:          -7.834
REMARK INTER:                  -7.248
REMARK INTRA:                  -0.586
REMARK UNBOUND:                -0.646
REMARK SMILES Cc1n[nH]c(C)c1CCCOc1cc(C(=O)O)ccc1F
REMARK SMILES IDX 11 1 12 2 14 3 18 4 13 5 19 6 20 7 21 8 15 9 16 10 17 11
REMARK SMILES IDX 10 13 9 14 8 15 7 16 5 17 2 18 4 19 3 20 6 21 1 22
REMARK H PARENT 17 12 4 23
ROOT
ATOM      1  O   UNL     1      10.185   4.127  -2.923  1.00  0.00    -0.490 OA
ENDROOT
BRANCH   1   2
ATOM      2  C   UNL     1      11.500   4.364  -3.174  1.00  0.00     0.155 A 
ATOM      3  C   UNL     1      13.709   3.557  -3.678  1.00  0.00     0.063 A 
ATOM      4  C   UNL     1      14.181   4.872  -3.696  1.00  0.00     0.019 A 
ATOM      5  C   UNL     1      12.360   3.309  -3.415  1.00  0.00     0.065 A 
ATOM      6  C   UNL     1      13.315   5.919  -3.460  1.00  0.00     0.044 A 
ATOM      7  C   UNL     1      11.977   5.671  -3.204  1.00  0.00     0.165 A 
ATOM      8  F   UNL     1      11.133   6.701  -2.974  1.00  0.00    -0.203 F 
BRANCH   3   9
ATOM      9  C   UNL     1      14.633   2.435  -3.931  1.00  0.00     0.335 C 
ATOM     10  O   UNL     1      14.281   1.295  -3.705  1.00  0.00    -0.246 OA
BRANCH   9  11
ATOM     11  O   UNL     1      15.866   2.675  -4.418  1.00  0.00    -0.478 OA
ATOM     12  H   UNL     1      16.240   3.553  -4.256  1.00  0.00     0.297 HD
ENDBRANCH   9  11
ENDBRANCH   3   9
ENDBRANCH   1   2
BRANCH   1  13
ATOM     13  C   UNL     1       9.760   2.762  -2.930  1.00  0.00     0.230 C 
BRANCH  13  14
ATOM     14  C   UNL     1       8.282   2.690  -3.318  1.00  0.00     0.046 C 
BRANCH  14  15
ATOM     15  C   UNL     1       7.422   3.143  -2.136  1.00  0.00     0.043 C 
BRANCH  15  16
ATOM     16  C   UNL     1       6.030   2.588  -2.285  1.00  0.00    -0.004 A 
ATOM     17  C   UNL     1       5.000   3.184  -2.931  1.00  0.00     0.036 A 
ATOM     18  C   UNL     1       5.573   1.363  -1.788  1.00  0.00     0.063 A 
ATOM     19  N   UNL     1       3.929   2.368  -2.839  1.00  0.00    -0.282 N 
ATOM     20  N   UNL     1       4.313   1.233  -2.113  1.00  0.00    -0.181 NA
ATOM     21  C   UNL     1       5.043   4.519  -3.627  1.00  0.00     0.066 C 
ATOM     22  C   UNL     1       6.390   0.369  -1.002  1.00  0.00     0.069 C 
ATOM     23  H   UNL     1       3.049   2.538  -3.209  1.00  0.00     0.190 HD
ENDBRANCH  15  16
ENDBRANCH  14  15
ENDBRANCH  13  14
ENDBRANCH   1  13
TORSDOF 7
ENDMDL
MODEL 9
REMARK VINA RESULT:    -4.953      4.489      8.170
REMARK INTER + INTRA:          -7.481
REMARK INTER:                  -6.835
REMARK INTRA:                  -0.645
REMARK UNBOUND:                -0.646
REMARK SMILES Cc1n[nH]c(C)c1CCCOc1cc(C(=O)O)ccc1F
REMARK SMILES IDX 11 1 12 2 14 3 18 4 13 5 19 6 20 7 21 8 15 9 16 10 17 11
REMARK SMILES IDX 10 13 9 14 8 15 7 16 5 17 2 18 4 19 3 20 6 21 1 22
REMARK H PARENT 17 12 4 23
ROOT
ATOM      1  O   UNL     1      10.365   3.201  -2.784  1.00  0.00    -0.490 OA
ENDROOT
BRANCH   1   2
ATOM      2  C   UNL     1      11.652   3.489  -3.114  1.00  0.00     0.155 A 
ATOM      3  C   UNL     1      13.433   5.082  -3.380  1.00  0.00     0.063 A 
ATOM      4  C   UNL     1      14.288   4.054  -3.784  1.00  0.00     0.019 A 
ATOM      5  C   UNL     1      12.109   4.791  -3.045  1.00  0.00     0.065 A 
ATOM      6  C   UNL     1      13.825   2.756  -3.844  1.00  0.00     0.044 A 
ATOM      7  C   UNL     1      12.513   2.469  -3.506  1.00  0.00     0.165 A 
ATOM      8  F   UNL     1      12.066   1.196  -3.568  1.00  0.00    -0.203 F 
BRANCH   3   9
ATOM      9  C   UNL     1      13.926   6.472  -3.314  1.00  0.00     0.335 C 
ATOM     10  O   UNL     1      14.579   6.929  -4.229  1.00  0.00    -0.246 OA
BRANCH   9  11
ATOM     11  O   UNL     1      13.644   7.236  -2.240  1.00  0.00    -0.478 OA
ATOM     12  H   UNL     1      13.225   8.092  -2.407  1.00  0.00     0.297 HD
ENDBRANCH   9  11
ENDBRANCH   3   9
ENDBRANCH   1   2
BRANCH   1  13
ATOM     13  C   UNL     1       9.400   3.243  -3.838  1.00  0.00     0.230 C 
BRANCH  13  14
ATOM     14  C   UNL     1       8.252   2.284  -3.517  1.00  0.00     0.046 C 
BRANCH  14  15
ATOM     15  C   UNL     1       7.528   2.760  -2.255  1.00  0.00     0.043 C 
BRANCH  15  16
ATOM     16  C   UNL     1       6.075   2.371  -2.333  1.00  0.00    -0.004 A 
ATOM     17  C   UNL     1       5.523   1.247  -1.821  1.00  0.00     0.036 A 
ATOM     18  C   UNL     1       5.056   3.112  -2.941  1.00  0.00     0.063 A 
ATOM     19  N   UNL     1       4.203   1.272  -2.102  1.00  0.00    -0.282 N 
ATOM     20  N   UNL     1       3.935   2.451  -2.809  1.00  0.00    -0.181 NA
ATOM     21  C   UNL     1       6.251   0.161  -1.073  1.00  0.00     0.066 C 
ATOM     22  C   UNL     1       5.223   4.438  -3.639  1.00  0.00     0.069 C 
ATOM     23  H   UNL     1       3.554   0.593  -1.858  1.00  0.00     0.190 HD
ENDBRANCH  15  16
ENDBRANCH  14  15
ENDBRANCH  13  14
ENDBRANCH   1  13
TORSDOF 7
ENDMDL
