MODEL 1
REMARK VINA RESULT:    -5.143      0.000      0.000
REMARK INTER + INTRA:          -6.190
REMARK INTER:                  -5.894
REMARK INTRA:                  -0.295
REMARK UNBOUND:                -0.295
REMARK SMILES O=C(O)c1ccc2nc(-c3cc(Cl)cc(Cl)c3)oc2c1
REMARK SMILES IDX 5 1 6 2 20 3 8 4 18 5 4 6 9 7 7 8 19 9 2 10 1 11 3 12 10 14
REMARK SMILES IDX 11 15 17 16 12 17 15 18 14 19 13 20 16 21
REMARK H PARENT 3 13
ROOT
ATOM      1  C   UNL     1       1.134  -1.953   4.531  1.00  0.00     0.018 A 
ATOM      2  C   UNL     1       0.146  -1.404   3.771  1.00  0.00     0.033 A 
ATOM      3  C   UNL     1       2.818  -1.041   3.043  1.00  0.00     0.065 A 
ATOM      4  N   UNL     1      -0.268  -0.015   1.701  1.00  0.00    -0.209 NA
ATOM      5  O   UNL     1       1.816   0.258   1.138  1.00  0.00    -0.436 OA
ATOM      6  C   UNL     1       2.480  -1.778   4.180  1.00  0.00     0.063 A 
ATOM      7  C   UNL     1       0.536   0.529   0.821  1.00  0.00     0.227 A 
ATOM      8  C   UNL     1       0.471  -0.663   2.628  1.00  0.00     0.110 A 
ATOM      9  C   UNL     1       1.818  -0.487   2.266  1.00  0.00     0.156 A 
ENDROOT
BRANCH   6  10
ATOM     10  C   UNL     1       3.541  -2.371   5.013  1.00  0.00     0.335 C 
ATOM     11  O   UNL     1       4.621  -1.823   5.103  1.00  0.00    -0.246 OA
BRANCH  10  12
ATOM     12  O   UNL     1       3.314  -3.523   5.675  1.00  0.00    -0.478 OA
ATOM     13  H   UNL     1       2.738  -4.170   5.246  1.00  0.00     0.297 HD
ENDBRANCH  10  12
ENDBRANCH   6  10
BRANCH   7  14
ATOM     14  C   UNL     1       0.101   1.322  -0.347  1.00  0.00     0.040 A 
ATOM     15  C   UNL     1       1.046   1.939  -1.168  1.00  0.00     0.034 A 
ATOM     16  C   UNL     1      -1.259   1.458  -0.634  1.00  0.00     0.034 A 
ATOM     17  C   UNL     1       0.632   2.678  -2.258  1.00  0.00     0.043 A 
ATOM     18  C   UNL     1      -1.660   2.199  -1.727  1.00  0.00     0.043 A 
ATOM     19  C   UNL     1      -0.718   2.809  -2.537  1.00  0.00     0.041 A 
ATOM     20  Cl  UNL     1       1.807   3.445  -3.281  1.00  0.00    -0.084 Cl
ATOM     21  Cl  UNL     1      -3.351   2.370  -2.086  1.00  0.00    -0.084 Cl
ENDBRANCH   7  14
TORSDOF 3
ENDMDL
MODEL 2
REMARK VINA RESULT:    -5.135      0.012      2.019
REMARK INTER + INTRA:          -6.181
REMARK INTER:                  -5.886
REMARK INTRA:                  -0.295
REMARK UNBOUND:                -0.295
REMARK SMILES O=C(O)c1ccc2nc(-c3cc(Cl)cc(Cl)c3)oc2c1
REMARK SMILES IDX 5 1 6 2 20 3 8 4 18 5 4 6 9 7 7 8 19 9 2 10 1 11 3 12 10 14
REMARK SMILES IDX 11 15 17 16 12 17 15 18 14 19 13 20 16 21
REMARK H PARENT 3 13
ROOT
ATOM      1  C   UNL     1       1.138  -1.958   4.532  1.00  0.00     0.018 A 
ATOM      2  C   UNL     1       0.148  -1.411   3.772  1.00  0.00     0.033 A 
ATOM      3  C   UNL     1       2.820  -1.043   3.045  1.00  0.00     0.065 A 
ATOM      4  N   UNL     1      -0.267  -0.021   1.703  1.00  0.00    -0.209 NA
ATOM      5  O   UNL     1       1.816   0.257   1.141  1.00  0.00    -0.436 OA
ATOM      6  C   UNL     1       2.483  -1.781   4.181  1.00  0.00     0.063 A 
ATOM      7  C   UNL     1       0.535   0.525   0.824  1.00  0.00     0.227 A 
ATOM      8  C   UNL     1       0.472  -0.668   2.630  1.00  0.00     0.110 A 
ATOM      9  C   UNL     1       1.819  -0.489   2.268  1.00  0.00     0.156 A 
ENDROOT
BRANCH   6  10
ATOM     10  C   UNL     1       3.545  -2.373   5.014  1.00  0.00     0.335 C 
ATOM     11  O   UNL     1       4.621  -1.817   5.112  1.00  0.00    -0.246 OA
BRANCH  10  12
ATOM     12  O   UNL     1       3.324  -3.531   5.666  1.00  0.00    -0.478 OA
ATOM     13  H   UNL     1       3.983  -3.801   6.319  1.00  0.00     0.297 HD
ENDBRANCH  10  12
ENDBRANCH   6  10
BRANCH   7  14
ATOM     14  C   UNL     1       0.099   1.318  -0.344  1.00  0.00     0.040 A 
ATOM     15  C   UNL     1      -1.260   1.444  -0.638  1.00  0.00     0.034 A 
ATOM     16  C   UNL     1       1.044   1.944  -1.158  1.00  0.00     0.034 A 
ATOM     17  C   UNL     1      -1.661   2.188  -1.730  1.00  0.00     0.043 A 
ATOM     18  C   UNL     1       0.630   2.685  -2.247  1.00  0.00     0.043 A 
ATOM     19  C   UNL     1      -0.719   2.806  -2.534  1.00  0.00     0.041 A 
ATOM     20  Cl  UNL     1      -3.350   2.346  -2.097  1.00  0.00    -0.084 Cl
ATOM     21  Cl  UNL     1       1.805   3.465  -3.262  1.00  0.00    -0.084 Cl
ENDBRANCH   7  14
TORSDOF 3
ENDMDL
MODEL 3
REMARK VINA RESULT:    -5.052      4.000      7.791
REMARK INTER + INTRA:          -6.086
REMARK INTER:                  -5.791
REMARK INTRA:                  -0.295
REMARK UNBOUND:                -0.295
REMARK SMILES O=C(O)c1ccc2nc(-c3cc(Cl)cc(Cl)c3)oc2c1
REMARK SMILES IDX 5 1 6 2 20 3 8 4 18 5 4 6 9 7 7 8 19 9 2 10 1 11 3 12 10 14
REMARK SMILES IDX 11 15 17 16 12 17 15 18 14 19 13 20 16 21
REMARK H PARENT 3 13
ROOT
ATOM      1  C   UNL     1       0.193   2.837  -1.174  1.00  0.00     0.018 A 
ATOM      2  C   UNL     1       1.035   2.597  -0.130  1.00  0.00     0.033 A 
ATOM      3  C   UNL     1      -0.903   0.704  -0.813  1.00  0.00     0.065 A 
ATOM      4  N   UNL     1       1.602   0.896   1.650  1.00  0.00    -0.209 NA
ATOM      5  O   UNL     1       0.094  -0.575   1.109  1.00  0.00    -0.436 OA
ATOM      6  C   UNL     1      -0.786   1.898  -1.527  1.00  0.00     0.063 A 
ATOM      7  C   UNL     1       1.102  -0.277   1.950  1.00  0.00     0.227 A 
ATOM      8  C   UNL     1       0.929   1.404   0.595  1.00  0.00     0.110 A 
ATOM      9  C   UNL     1      -0.047   0.454   0.244  1.00  0.00     0.156 A 
ENDROOT
BRANCH   6  10
ATOM     10  C   UNL     1      -1.695   2.172  -2.654  1.00  0.00     0.335 C 
ATOM     11  O   UNL     1      -2.834   1.750  -2.632  1.00  0.00    -0.246 OA
BRANCH  10  12
ATOM     12  O   UNL     1      -1.263   2.889  -3.710  1.00  0.00    -0.478 OA
ATOM     13  H   UNL     1      -1.464   3.835  -3.711  1.00  0.00     0.297 HD
ENDBRANCH  10  12
ENDBRANCH   6  10
BRANCH   7  14
ATOM     14  C   UNL     1       1.575  -1.144   3.048  1.00  0.00     0.040 A 
ATOM     15  C   UNL     1       0.873  -2.304   3.378  1.00  0.00     0.034 A 
ATOM     16  C   UNL     1       2.727  -0.805   3.762  1.00  0.00     0.034 A 
ATOM     17  C   UNL     1       1.321  -3.111   4.405  1.00  0.00     0.043 A 
ATOM     18  C   UNL     1       3.165  -1.619   4.787  1.00  0.00     0.043 A 
ATOM     19  C   UNL     1       2.464  -2.769   5.109  1.00  0.00     0.041 A 
ATOM     20  Cl  UNL     1       0.450  -4.555   4.816  1.00  0.00    -0.084 Cl
ATOM     21  Cl  UNL     1       4.596  -1.200   5.675  1.00  0.00    -0.084 Cl
ENDBRANCH   7  14
TORSDOF 3
ENDMDL
MODEL 4
REMARK VINA RESULT:    -5.035      4.003      7.574
REMARK INTER + INTRA:          -6.066
REMARK INTER:                  -5.771
REMARK INTRA:                  -0.295
REMARK UNBOUND:                -0.295
REMARK SMILES O=C(O)c1ccc2nc(-c3cc(Cl)cc(Cl)c3)oc2c1
REMARK SMILES IDX 5 1 6 2 20 3 8 4 18 5 4 6 9 7 7 8 19 9 2 10 1 11 3 12 10 14
REMARK SMILES IDX 11 15 17 16 12 17 15 18 14 19 13 20 16 21
REMARK H PARENT 3 13
ROOT
ATOM      1  C   UNL     1       0.185   2.786  -1.176  1.00  0.00     0.018 A 
ATOM      2  C   UNL     1       1.035   2.556  -0.136  1.00  0.00     0.033 A 
ATOM      3  C   UNL     1      -0.900   0.652  -0.792  1.00  0.00     0.065 A 
ATOM      4  N   UNL     1       1.620   0.870   1.653  1.00  0.00    -0.209 NA
ATOM      5  O   UNL     1       0.113  -0.610   1.132  1.00  0.00    -0.436 OA
ATOM      6  C   UNL     1      -0.793   1.840  -1.516  1.00  0.00     0.063 A 
ATOM      7  C   UNL     1       1.126  -0.302   1.964  1.00  0.00     0.227 A 
ATOM      8  C   UNL     1       0.938   1.368   0.599  1.00  0.00     0.110 A 
ATOM      9  C   UNL     1      -0.036   0.412   0.261  1.00  0.00     0.156 A 
ENDROOT
BRANCH   6  10
ATOM     10  C   UNL     1      -1.710   2.103  -2.639  1.00  0.00     0.335 C 
ATOM     11  O   UNL     1      -2.855   1.700  -2.595  1.00  0.00    -0.246 OA
BRANCH  10  12
ATOM     12  O   UNL     1      -1.279   2.789  -3.716  1.00  0.00    -0.478 OA
ATOM     13  H   UNL     1      -1.824   2.744  -4.513  1.00  0.00     0.297 HD
ENDBRANCH  10  12
ENDBRANCH   6  10
BRANCH   7  14
ATOM     14  C   UNL     1       1.609  -1.160   3.066  1.00  0.00     0.040 A 
ATOM     15  C   UNL     1       2.764  -0.813   3.769  1.00  0.00     0.034 A 
ATOM     16  C   UNL     1       0.913  -2.321   3.407  1.00  0.00     0.034 A 
ATOM     17  C   UNL     1       3.210  -1.618   4.798  1.00  0.00     0.043 A 
ATOM     18  C   UNL     1       1.369  -3.118   4.438  1.00  0.00     0.043 A 
ATOM     19  C   UNL     1       2.515  -2.768   5.132  1.00  0.00     0.041 A 
ATOM     20  Cl  UNL     1       4.645  -1.189   5.675  1.00  0.00    -0.084 Cl
ATOM     21  Cl  UNL     1       0.504  -4.562   4.864  1.00  0.00    -0.084 Cl
ENDBRANCH   7  14
TORSDOF 3
ENDMDL
MODEL 5
REMARK VINA RESULT:    -4.477     11.236     11.976
REMARK INTER + INTRA:          -5.427
REMARK INTER:                  -5.143
REMARK INTRA:                  -0.284
REMARK UNBOUND:                -0.295
REMARK SMILES O=C(O)c1ccc2nc(-c3cc(Cl)cc(Cl)c3)oc2c1
REMARK SMILES IDX 5 1 6 2 20 3 8 4 18 5 4 6 9 7 7 8 19 9 2 10 1 11 3 12 10 14
REMARK SMILES IDX 11 15 17 16 12 17 15 18 14 19 13 20 16 21
REMARK H PARENT 3 13
ROOT
ATOM      1  C   UNL     1       5.474  -9.883  -7.895  1.00  0.00     0.018 A 
ATOM      2  C   UNL     1       5.870  -9.098  -6.854  1.00  0.00     0.033 A 
ATOM      3  C   UNL     1       3.303  -8.803  -7.915  1.00  0.00     0.065 A 
ATOM      4  N   UNL     1       5.094  -7.252  -5.314  1.00  0.00    -0.209 NA
ATOM      5  O   UNL     1       3.094  -7.032  -6.143  1.00  0.00    -0.436 OA
ATOM      6  C   UNL     1       4.190  -9.745  -8.440  1.00  0.00     0.063 A 
ATOM      7  C   UNL     1       3.966  -6.593  -5.216  1.00  0.00     0.227 A 
ATOM      8  C   UNL     1       4.991  -8.149  -6.318  1.00  0.00     0.110 A 
ATOM      9  C   UNL     1       3.700  -8.008  -6.855  1.00  0.00     0.156 A 
ENDROOT
BRANCH   6  10
ATOM     10  C   UNL     1       3.775 -10.595  -9.570  1.00  0.00     0.335 C 
ATOM     11  O   UNL     1       3.937 -10.211 -10.711  1.00  0.00    -0.246 OA
BRANCH  10  12
ATOM     12  O   UNL     1       3.214 -11.799  -9.338  1.00  0.00    -0.478 OA
ATOM     13  H   UNL     1       3.325 -12.172  -8.454  1.00  0.00     0.297 HD
ENDBRANCH  10  12
ENDBRANCH   6  10
BRANCH   7  14
ATOM     14  C   UNL     1       3.692  -5.525  -4.232  1.00  0.00     0.040 A 
ATOM     15  C   UNL     1       4.727  -4.703  -3.783  1.00  0.00     0.034 A 
ATOM     16  C   UNL     1       2.397  -5.336  -3.746  1.00  0.00     0.034 A 
ATOM     17  C   UNL     1       4.464  -3.706  -2.864  1.00  0.00     0.043 A 
ATOM     18  C   UNL     1       2.147  -4.336  -2.827  1.00  0.00     0.043 A 
ATOM     19  C   UNL     1       3.177  -3.524  -2.386  1.00  0.00     0.041 A 
ATOM     20  Cl  UNL     1       5.749  -2.681  -2.306  1.00  0.00    -0.084 Cl
ATOM     21  Cl  UNL     1       0.537  -4.099  -2.222  1.00  0.00    -0.084 Cl
ENDBRANCH   7  14
TORSDOF 3
ENDMDL
MODEL 6
REMARK VINA RESULT:    -4.474     11.095     11.584
REMARK INTER + INTRA:          -5.423
REMARK INTER:                  -5.138
REMARK INTRA:                  -0.285
REMARK UNBOUND:                -0.295
REMARK SMILES O=C(O)c1ccc2nc(-c3cc(Cl)cc(Cl)c3)oc2c1
REMARK SMILES IDX 5 1 6 2 20 3 8 4 18 5 4 6 9 7 7 8 19 9 2 10 1 11 3 12 10 14
REMARK SMILES IDX 11 15 17 16 12 17 15 18 14 19 13 20 16 21
REMARK H PARENT 3 13
ROOT
ATOM      1  C   UNL     1       6.020  -9.782  -7.665  1.00  0.00     0.018 A 
ATOM      2  C   UNL     1       4.900  -9.074  -7.350  1.00  0.00     0.033 A 
ATOM      3  C   UNL     1       7.170  -8.867  -5.737  1.00  0.00     0.065 A 
ATOM      4  N   UNL     1       3.955  -7.441  -5.670  1.00  0.00    -0.209 NA
ATOM      5  O   UNL     1       5.729  -7.281  -4.421  1.00  0.00    -0.436 OA
ATOM      6  C   UNL     1       7.167  -9.690  -6.864  1.00  0.00     0.063 A 
ATOM      7  C   UNL     1       4.459  -6.874  -4.602  1.00  0.00     0.227 A 
ATOM      8  C   UNL     1       4.889  -8.244  -6.223  1.00  0.00     0.110 A 
ATOM      9  C   UNL     1       6.037  -8.142  -5.417  1.00  0.00     0.156 A 
ENDROOT
BRANCH   6  10
ATOM     10  C   UNL     1       8.371 -10.466  -7.211  1.00  0.00     0.335 C 
ATOM     11  O   UNL     1       9.085 -10.102  -8.125  1.00  0.00    -0.246 OA
BRANCH  10  12
ATOM     12  O   UNL     1       8.680 -11.579  -6.517  1.00  0.00    -0.478 OA
ATOM     13  H   UNL     1       9.230 -11.467  -5.730  1.00  0.00     0.297 HD
ENDBRANCH  10  12
ENDBRANCH   6  10
BRANCH   7  14
ATOM     14  C   UNL     1       3.739  -5.926  -3.727  1.00  0.00     0.040 A 
ATOM     15  C   UNL     1       4.433  -4.902  -3.082  1.00  0.00     0.034 A 
ATOM     16  C   UNL     1       2.360  -6.053  -3.541  1.00  0.00     0.034 A 
ATOM     17  C   UNL     1       3.754  -4.018  -2.266  1.00  0.00     0.043 A 
ATOM     18  C   UNL     1       1.693  -5.163  -2.723  1.00  0.00     0.043 A 
ATOM     19  C   UNL     1       2.387  -4.149  -2.086  1.00  0.00     0.041 A 
ATOM     20  Cl  UNL     1       4.615  -2.743  -1.463  1.00  0.00    -0.084 Cl
ATOM     21  Cl  UNL     1      -0.021  -5.319  -2.491  1.00  0.00    -0.084 Cl
ENDBRANCH   7  14
TORSDOF 3
ENDMDL
MODEL 7
REMARK VINA RESULT:    -4.473     11.094     11.736
REMARK INTER + INTRA:          -5.422
REMARK INTER:                  -5.137
REMARK INTRA:                  -0.285
REMARK UNBOUND:                -0.295
REMARK SMILES O=C(O)c1ccc2nc(-c3cc(Cl)cc(Cl)c3)oc2c1
REMARK SMILES IDX 5 1 6 2 20 3 8 4 18 5 4 6 9 7 7 8 19 9 2 10 1 11 3 12 10 14
REMARK SMILES IDX 11 15 17 16 12 17 15 18 14 19 13 20 16 21
REMARK H PARENT 3 13
ROOT
ATOM      1  C   UNL     1       6.020  -9.782  -7.665  1.00  0.00     0.018 A 
ATOM      2  C   UNL     1       4.899  -9.074  -7.351  1.00  0.00     0.033 A 
ATOM      3  C   UNL     1       7.169  -8.866  -5.736  1.00  0.00     0.065 A 
ATOM      4  N   UNL     1       3.953  -7.441  -5.671  1.00  0.00    -0.209 NA
ATOM      5  O   UNL     1       5.727  -7.281  -4.421  1.00  0.00    -0.436 OA
ATOM      6  C   UNL     1       7.166  -9.690  -6.863  1.00  0.00     0.063 A 
ATOM      7  C   UNL     1       4.457  -6.874  -4.603  1.00  0.00     0.227 A 
ATOM      8  C   UNL     1       4.888  -8.244  -6.223  1.00  0.00     0.110 A 
ATOM      9  C   UNL     1       6.035  -8.142  -5.416  1.00  0.00     0.156 A 
ENDROOT
BRANCH   6  10
ATOM     10  C   UNL     1       8.371 -10.465  -7.210  1.00  0.00     0.335 C 
ATOM     11  O   UNL     1       9.085 -10.102  -8.124  1.00  0.00    -0.246 OA
BRANCH  10  12
ATOM     12  O   UNL     1       8.680 -11.578  -6.515  1.00  0.00    -0.478 OA
ATOM     13  H   UNL     1       9.450 -12.081  -6.811  1.00  0.00     0.297 HD
ENDBRANCH  10  12
ENDBRANCH   6  10
BRANCH   7  14
ATOM     14  C   UNL     1       3.736  -5.926  -3.728  1.00  0.00     0.040 A 
ATOM     15  C   UNL     1       2.358  -6.051  -3.543  1.00  0.00     0.034 A 
ATOM     16  C   UNL     1       4.431  -4.901  -3.083  1.00  0.00     0.034 A 
ATOM     17  C   UNL     1       1.691  -5.162  -2.724  1.00  0.00     0.043 A 
ATOM     18  C   UNL     1       3.753  -4.019  -2.266  1.00  0.00     0.043 A 
ATOM     19  C   UNL     1       2.386  -4.148  -2.087  1.00  0.00     0.041 A 
ATOM     20  Cl  UNL     1      -0.022  -5.316  -2.492  1.00  0.00    -0.084 Cl
ATOM     21  Cl  UNL     1       4.615  -2.744  -1.463  1.00  0.00    -0.084 Cl
ENDBRANCH   7  14
TORSDOF 3
ENDMDL
MODEL 8
REMARK VINA RESULT:    -4.440     10.368     11.138
REMARK INTER + INTRA:          -5.384
REMARK INTER:                  -5.086
REMARK INTRA:                  -0.298
REMARK UNBOUND:                -0.295
REMARK SMILES O=C(O)c1ccc2nc(-c3cc(Cl)cc(Cl)c3)oc2c1
REMARK SMILES IDX 5 1 6 2 20 3 8 4 18 5 4 6 9 7 7 8 19 9 2 10 1 11 3 12 10 14
REMARK SMILES IDX 11 15 17 16 12 17 15 18 14 19 13 20 16 21
REMARK H PARENT 3 13
ROOT
ATOM      1  C   UNL     1       3.767  -3.967  -1.962  1.00  0.00     0.018 A 
ATOM      2  C   UNL     1       4.743  -4.761  -2.485  1.00  0.00     0.033 A 
ATOM      3  C   UNL     1       2.163  -4.852  -3.552  1.00  0.00     0.065 A 
ATOM      4  N   UNL     1       5.190  -6.498  -4.265  1.00  0.00    -0.209 NA
ATOM      5  O   UNL     1       3.179  -6.559  -5.093  1.00  0.00    -0.436 OA
ATOM      6  C   UNL     1       2.467  -4.003  -2.486  1.00  0.00     0.063 A 
ATOM      7  C   UNL     1       4.429  -7.053  -5.175  1.00  0.00     0.227 A 
ATOM      8  C   UNL     1       4.453  -5.617  -3.554  1.00  0.00     0.110 A 
ATOM      9  C   UNL     1       3.153  -5.655  -4.088  1.00  0.00     0.156 A 
ENDROOT
BRANCH   6  10
ATOM     10  C   UNL     1       1.417  -3.145  -1.908  1.00  0.00     0.335 C 
ATOM     11  O   UNL     1       0.256  -3.310  -2.223  1.00  0.00    -0.246 OA
BRANCH  10  12
ATOM     12  O   UNL     1       1.746  -2.175  -1.031  1.00  0.00    -0.478 OA
ATOM     13  H   UNL     1       1.032  -1.814  -0.489  1.00  0.00     0.297 HD
ENDBRANCH  10  12
ENDBRANCH   6  10
BRANCH   7  14
ATOM     14  C   UNL     1       4.877  -8.070  -6.148  1.00  0.00     0.040 A 
ATOM     15  C   UNL     1       6.161  -8.609  -6.058  1.00  0.00     0.034 A 
ATOM     16  C   UNL     1       4.017  -8.496  -7.163  1.00  0.00     0.034 A 
ATOM     17  C   UNL     1       6.574  -9.560  -6.970  1.00  0.00     0.043 A 
ATOM     18  C   UNL     1       4.441  -9.448  -8.068  1.00  0.00     0.043 A 
ATOM     19  C   UNL     1       5.716  -9.978  -7.973  1.00  0.00     0.041 A 
ATOM     20  Cl  UNL     1       8.170 -10.232  -6.859  1.00  0.00    -0.084 Cl
ATOM     21  Cl  UNL     1       3.373  -9.979  -9.330  1.00  0.00    -0.084 Cl
ENDBRANCH   7  14
TORSDOF 3
ENDMDL
MODEL 9
REMARK VINA RESULT:    -4.439     10.398     11.280
REMARK INTER + INTRA:          -5.383
REMARK INTER:                  -5.085
REMARK INTRA:                  -0.298
REMARK UNBOUND:                -0.295
REMARK SMILES O=C(O)c1ccc2nc(-c3cc(Cl)cc(Cl)c3)oc2c1
REMARK SMILES IDX 5 1 6 2 20 3 8 4 18 5 4 6 9 7 7 8 19 9 2 10 1 11 3 12 10 14
REMARK SMILES IDX 11 15 17 16 12 17 15 18 14 19 13 20 16 21
REMARK H PARENT 3 13
ROOT
ATOM      1  C   UNL     1       3.777  -4.063  -1.918  1.00  0.00     0.018 A 
ATOM      2  C   UNL     1       4.738  -4.880  -2.433  1.00  0.00     0.033 A 
ATOM      3  C   UNL     1       2.188  -4.850  -3.572  1.00  0.00     0.065 A 
ATOM      4  N   UNL     1       5.172  -6.588  -4.243  1.00  0.00    -0.209 NA
ATOM      5  O   UNL     1       3.184  -6.555  -5.128  1.00  0.00    -0.436 OA
ATOM      6  C   UNL     1       2.491  -4.039  -2.477  1.00  0.00     0.063 A 
ATOM      7  C   UNL     1       4.417  -7.093  -5.188  1.00  0.00     0.227 A 
ATOM      8  C   UNL     1       4.447  -5.698  -3.531  1.00  0.00     0.110 A 
ATOM      9  C   UNL     1       3.162  -5.676  -4.102  1.00  0.00     0.156 A 
ENDROOT
BRANCH   6  10
ATOM     10  C   UNL     1       1.458  -3.156  -1.907  1.00  0.00     0.335 C 
ATOM     11  O   UNL     1       1.771  -2.277  -1.130  1.00  0.00    -0.246 OA
BRANCH  10  12
ATOM     12  O   UNL     1       0.164  -3.325  -2.247  1.00  0.00    -0.478 OA
ATOM     13  H   UNL     1      -0.274  -2.585  -2.689  1.00  0.00     0.297 HD
ENDBRANCH  10  12
ENDBRANCH   6  10
BRANCH   7  14
ATOM     14  C   UNL     1       4.856  -8.102  -6.173  1.00  0.00     0.040 A 
ATOM     15  C   UNL     1       3.985  -8.525  -7.178  1.00  0.00     0.034 A 
ATOM     16  C   UNL     1       6.143  -8.638  -6.102  1.00  0.00     0.034 A 
ATOM     17  C   UNL     1       4.401  -9.468  -8.097  1.00  0.00     0.043 A 
ATOM     18  C   UNL     1       6.548  -9.580  -7.026  1.00  0.00     0.043 A 
ATOM     19  C   UNL     1       5.679  -9.996  -8.021  1.00  0.00     0.041 A 
ATOM     20  Cl  UNL     1       3.320  -9.995  -9.349  1.00  0.00    -0.084 Cl
ATOM     21  Cl  UNL     1       8.149 -10.248  -6.939  1.00  0.00    -0.084 Cl
ENDBRANCH   7  14
TORSDOF 3
ENDMDL
