MODEL 1
REMARK VINA RESULT:    -5.520      0.000      0.000
REMARK INTER + INTRA:          -8.268
REMARK INTER:                  -7.617
REMARK INTRA:                  -0.651
REMARK UNBOUND:                -0.651
REMARK SMILES Cc1n[nH]c(C)c1CCCOc1cc(C(=O)O)ccc1F
REMARK SMILES IDX 11 1 12 2 14 3 18 4 13 5 19 6 20 7 21 8 15 9 16 10 17 11
REMARK SMILES IDX 10 13 9 14 8 15 7 16 5 17 2 18 4 19 3 20 6 21 1 22
REMARK H PARENT 17 12 4 23
ROOT
ATOM      1  O   UNL     1       5.041  -5.425  -4.255  1.00  0.00    -0.490 OA
ENDROOT
BRANCH   1   2
ATOM      2  C   UNL     1       4.104  -4.844  -3.460  1.00  0.00     0.155 A 
ATOM      3  C   UNL     1       1.862  -4.758  -2.596  1.00  0.00     0.063 A 
ATOM      4  C   UNL     1       2.206  -3.647  -1.821  1.00  0.00     0.019 A 
ATOM      5  C   UNL     1       2.820  -5.355  -3.418  1.00  0.00     0.065 A 
ATOM      6  C   UNL     1       3.491  -3.148  -1.866  1.00  0.00     0.044 A 
ATOM      7  C   UNL     1       4.442  -3.745  -2.677  1.00  0.00     0.165 A 
ATOM      8  F   UNL     1       5.699  -3.251  -2.716  1.00  0.00    -0.203 F 
BRANCH   3   9
ATOM      9  C   UNL     1       0.487  -5.295  -2.551  1.00  0.00     0.335 C 
ATOM     10  O   UNL     1      -0.153  -5.413  -3.575  1.00  0.00    -0.246 OA
BRANCH   9  11
ATOM     11  O   UNL     1      -0.054  -5.660  -1.372  1.00  0.00    -0.478 OA
ATOM     12  H   UNL     1      -0.954  -5.356  -1.188  1.00  0.00     0.297 HD
ENDBRANCH   9  11
ENDBRANCH   3   9
ENDBRANCH   1   2
BRANCH   1  13
ATOM     13  C   UNL     1       5.094  -4.994  -5.617  1.00  0.00     0.230 C 
BRANCH  13  14
ATOM     14  C   UNL     1       5.486  -6.173  -6.509  1.00  0.00     0.046 C 
BRANCH  14  15
ATOM     15  C   UNL     1       4.986  -7.476  -5.882  1.00  0.00     0.043 C 
BRANCH  15  16
ATOM     16  C   UNL     1       5.369  -8.638  -6.761  1.00  0.00    -0.004 A 
ATOM     17  C   UNL     1       4.622  -9.160  -7.761  1.00  0.00     0.036 A 
ATOM     18  C   UNL     1       6.563  -9.363  -6.692  1.00  0.00     0.063 A 
ATOM     19  N   UNL     1       5.315 -10.184  -8.302  1.00  0.00    -0.282 N 
ATOM     20  N   UNL     1       6.529 -10.294  -7.610  1.00  0.00    -0.181 NA
ATOM     21  C   UNL     1       3.260  -8.684  -8.194  1.00  0.00     0.066 C 
ATOM     22  C   UNL     1       7.689  -9.122  -5.720  1.00  0.00     0.069 C 
ATOM     23  H   UNL     1       5.025 -10.745  -9.037  1.00  0.00     0.190 HD
ENDBRANCH  15  16
ENDBRANCH  14  15
ENDBRANCH  13  14
ENDBRANCH   1  13
TORSDOF 7
ENDMDL
MODEL 2
REMARK VINA RESULT:    -5.509      1.971      3.694
REMARK INTER + INTRA:          -8.253
REMARK INTER:                  -7.595
REMARK INTRA:                  -0.658
REMARK UNBOUND:                -0.651
REMARK SMILES Cc1n[nH]c(C)c1CCCOc1cc(C(=O)O)ccc1F
REMARK SMILES IDX 11 1 12 2 14 3 18 4 13 5 19 6 20 7 21 8 15 9 16 10 17 11
REMARK SMILES IDX 10 13 9 14 8 15 7 16 5 17 2 18 4 19 3 20 6 21 1 22
REMARK H PARENT 17 12 4 23
ROOT
ATOM      1  O   UNL     1       2.647  -6.587  -4.183  1.00  0.00    -0.490 OA
ENDROOT
BRANCH   1   2
ATOM      2  C   UNL     1       2.765  -5.473  -3.412  1.00  0.00     0.155 A 
ATOM      3  C   UNL     1       4.095  -3.669  -2.541  1.00  0.00     0.063 A 
ATOM      4  C   UNL     1       2.983  -3.193  -1.840  1.00  0.00     0.019 A 
ATOM      5  C   UNL     1       3.978  -4.815  -3.329  1.00  0.00     0.065 A 
ATOM      6  C   UNL     1       1.776  -3.852  -1.933  1.00  0.00     0.044 A 
ATOM      7  C   UNL     1       1.661  -4.987  -2.720  1.00  0.00     0.165 A 
ATOM      8  F   UNL     1       0.476  -5.628  -2.807  1.00  0.00    -0.203 F 
BRANCH   3   9
ATOM      9  C   UNL     1       5.389  -2.965  -2.443  1.00  0.00     0.335 C 
ATOM     10  O   UNL     1       6.380  -3.564  -2.081  1.00  0.00    -0.246 OA
BRANCH   9  11
ATOM     11  O   UNL     1       5.470  -1.658  -2.762  1.00  0.00    -0.478 OA
ATOM     12  H   UNL     1       6.355  -1.268  -2.793  1.00  0.00     0.297 HD
ENDBRANCH   9  11
ENDBRANCH   3   9
ENDBRANCH   1   2
BRANCH   1  13
ATOM     13  C   UNL     1       3.051  -7.827  -3.597  1.00  0.00     0.230 C 
BRANCH  13  14
ATOM     14  C   UNL     1       3.612  -8.744  -4.684  1.00  0.00     0.046 C 
BRANCH  14  15
ATOM     15  C   UNL     1       4.388  -7.910  -5.706  1.00  0.00     0.043 C 
BRANCH  15  16
ATOM     16  C   UNL     1       4.992  -8.820  -6.744  1.00  0.00    -0.004 A 
ATOM     17  C   UNL     1       6.240  -9.343  -6.717  1.00  0.00     0.036 A 
ATOM     18  C   UNL     1       4.359  -9.278  -7.904  1.00  0.00     0.063 A 
ATOM     19  N   UNL     1       6.393 -10.100  -7.824  1.00  0.00    -0.282 N 
ATOM     20  N   UNL     1       5.200 -10.040  -8.555  1.00  0.00    -0.181 NA
ATOM     21  C   UNL     1       7.272  -9.120  -5.643  1.00  0.00     0.066 C 
ATOM     22  C   UNL     1       2.954  -8.943  -8.336  1.00  0.00     0.069 C 
ATOM     23  H   UNL     1       7.189 -10.596  -8.069  1.00  0.00     0.190 HD
ENDBRANCH  15  16
ENDBRANCH  14  15
ENDBRANCH  13  14
ENDBRANCH   1  13
TORSDOF 7
ENDMDL
MODEL 3
REMARK VINA RESULT:    -5.469      2.088      3.237
REMARK INTER + INTRA:          -8.198
REMARK INTER:                  -7.529
REMARK INTRA:                  -0.669
REMARK UNBOUND:                -0.651
REMARK SMILES Cc1n[nH]c(C)c1CCCOc1cc(C(=O)O)ccc1F
REMARK SMILES IDX 11 1 12 2 14 3 18 4 13 5 19 6 20 7 21 8 15 9 16 10 17 11
REMARK SMILES IDX 10 13 9 14 8 15 7 16 5 17 2 18 4 19 3 20 6 21 1 22
REMARK H PARENT 17 12 4 23
ROOT
ATOM      1  O   UNL     1       3.124  -7.297  -2.902  1.00  0.00    -0.490 OA
ENDROOT
BRANCH   1   2
ATOM      2  C   UNL     1       3.061  -5.960  -2.662  1.00  0.00     0.155 A 
ATOM      3  C   UNL     1       4.149  -3.830  -2.415  1.00  0.00     0.063 A 
ATOM      4  C   UNL     1       2.909  -3.229  -2.179  1.00  0.00     0.019 A 
ATOM      5  C   UNL     1       4.218  -5.203  -2.658  1.00  0.00     0.065 A 
ATOM      6  C   UNL     1       1.760  -3.991  -2.191  1.00  0.00     0.044 A 
ATOM      7  C   UNL     1       1.831  -5.352  -2.436  1.00  0.00     0.165 A 
ATOM      8  F   UNL     1       0.701  -6.093  -2.447  1.00  0.00    -0.203 F 
BRANCH   3   9
ATOM      9  C   UNL     1       5.380  -3.017  -2.404  1.00  0.00     0.335 C 
ATOM     10  O   UNL     1       6.431  -3.511  -2.050  1.00  0.00    -0.246 OA
BRANCH   9  11
ATOM     11  O   UNL     1       5.339  -1.727  -2.792  1.00  0.00    -0.478 OA
ATOM     12  H   UNL     1       4.943  -1.540  -3.654  1.00  0.00     0.297 HD
ENDBRANCH   9  11
ENDBRANCH   3   9
ENDBRANCH   1   2
BRANCH   1  13
ATOM     13  C   UNL     1       2.901  -7.725  -4.248  1.00  0.00     0.230 C 
BRANCH  13  14
ATOM     14  C   UNL     1       4.141  -8.461  -4.760  1.00  0.00     0.046 C 
BRANCH  14  15
ATOM     15  C   UNL     1       4.648  -7.782  -6.033  1.00  0.00     0.043 C 
BRANCH  15  16
ATOM     16  C   UNL     1       4.982  -8.830  -7.064  1.00  0.00    -0.004 A 
ATOM     17  C   UNL     1       4.173  -9.248  -8.065  1.00  0.00     0.036 A 
ATOM     18  C   UNL     1       6.184  -9.538  -7.158  1.00  0.00     0.063 A 
ATOM     19  N   UNL     1       4.838 -10.191  -8.764  1.00  0.00    -0.282 N 
ATOM     20  N   UNL     1       6.097 -10.359  -8.173  1.00  0.00    -0.181 NA
ATOM     21  C   UNL     1       2.780  -8.748  -8.349  1.00  0.00     0.066 C 
ATOM     22  C   UNL     1       7.372  -9.389  -6.241  1.00  0.00     0.069 C 
ATOM     23  H   UNL     1       4.503 -10.670  -9.538  1.00  0.00     0.190 HD
ENDBRANCH  15  16
ENDBRANCH  14  15
ENDBRANCH  13  14
ENDBRANCH   1  13
TORSDOF 7
ENDMDL
MODEL 4
REMARK VINA RESULT:    -5.317      0.558      1.852
REMARK INTER + INTRA:          -7.988
REMARK INTER:                  -7.344
REMARK INTRA:                  -0.644
REMARK UNBOUND:                -0.651
REMARK SMILES Cc1n[nH]c(C)c1CCCOc1cc(C(=O)O)ccc1F
REMARK SMILES IDX 11 1 12 2 14 3 18 4 13 5 19 6 20 7 21 8 15 9 16 10 17 11
REMARK SMILES IDX 10 13 9 14 8 15 7 16 5 17 2 18 4 19 3 20 6 21 1 22
REMARK H PARENT 17 12 4 23
ROOT
ATOM      1  O   UNL     1       4.513  -4.155  -5.286  1.00  0.00    -0.490 OA
ENDROOT
BRANCH   1   2
ATOM      2  C   UNL     1       3.829  -4.092  -4.112  1.00  0.00     0.155 A 
ATOM      3  C   UNL     1       1.885  -4.617  -2.798  1.00  0.00     0.063 A 
ATOM      4  C   UNL     1       2.454  -3.961  -1.703  1.00  0.00     0.019 A 
ATOM      5  C   UNL     1       2.582  -4.680  -4.006  1.00  0.00     0.065 A 
ATOM      6  C   UNL     1       3.700  -3.384  -1.816  1.00  0.00     0.044 A 
ATOM      7  C   UNL     1       4.392  -3.451  -3.014  1.00  0.00     0.165 A 
ATOM      8  F   UNL     1       5.613  -2.883  -3.119  1.00  0.00    -0.203 F 
BRANCH   3   9
ATOM      9  C   UNL     1       0.551  -5.237  -2.680  1.00  0.00     0.335 C 
ATOM     10  O   UNL     1      -0.114  -5.442  -3.674  1.00  0.00    -0.246 OA
BRANCH   9  11
ATOM     11  O   UNL     1       0.074  -5.582  -1.467  1.00  0.00    -0.478 OA
ATOM     12  H   UNL     1      -0.477  -4.931  -1.011  1.00  0.00     0.297 HD
ENDBRANCH   9  11
ENDBRANCH   3   9
ENDBRANCH   1   2
BRANCH   1  13
ATOM     13  C   UNL     1       5.461  -5.216  -5.428  1.00  0.00     0.230 C 
BRANCH  13  14
ATOM     14  C   UNL     1       4.935  -6.237  -6.438  1.00  0.00     0.046 C 
BRANCH  14  15
ATOM     15  C   UNL     1       4.808  -7.604  -5.762  1.00  0.00     0.043 C 
BRANCH  15  16
ATOM     16  C   UNL     1       5.318  -8.674  -6.692  1.00  0.00    -0.004 A 
ATOM     17  C   UNL     1       6.536  -9.261  -6.638  1.00  0.00     0.036 A 
ATOM     18  C   UNL     1       4.613  -9.242  -7.759  1.00  0.00     0.063 A 
ATOM     19  N   UNL     1       6.603 -10.163  -7.640  1.00  0.00    -0.282 N 
ATOM     20  N   UNL     1       5.385 -10.129  -8.332  1.00  0.00    -0.181 NA
ATOM     21  C   UNL     1       7.623  -8.961  -5.639  1.00  0.00     0.066 C 
ATOM     22  C   UNL     1       3.212  -8.884  -8.183  1.00  0.00     0.069 C 
ATOM     23  H   UNL     1       7.360 -10.733  -7.845  1.00  0.00     0.190 HD
ENDBRANCH  15  16
ENDBRANCH  14  15
ENDBRANCH  13  14
ENDBRANCH   1  13
TORSDOF 7
ENDMDL
MODEL 5
REMARK VINA RESULT:    -4.644      3.782      6.673
REMARK INTER + INTRA:          -7.059
REMARK INTER:                  -6.264
REMARK INTRA:                  -0.795
REMARK UNBOUND:                -0.651
REMARK SMILES Cc1n[nH]c(C)c1CCCOc1cc(C(=O)O)ccc1F
REMARK SMILES IDX 11 1 12 2 14 3 18 4 13 5 19 6 20 7 21 8 15 9 16 10 17 11
REMARK SMILES IDX 10 13 9 14 8 15 7 16 5 17 2 18 4 19 3 20 6 21 1 22
REMARK H PARENT 17 12 4 23
ROOT
ATOM      1  O   UNL     1       5.100  -6.709  -4.612  1.00  0.00    -0.490 OA
ENDROOT
BRANCH   1   2
ATOM      2  C   UNL     1       5.152  -7.627  -5.614  1.00  0.00     0.155 A 
ATOM      3  C   UNL     1       4.165  -8.673  -7.541  1.00  0.00     0.063 A 
ATOM      4  C   UNL     1       5.284  -9.502  -7.660  1.00  0.00     0.019 A 
ATOM      5  C   UNL     1       4.105  -7.733  -6.510  1.00  0.00     0.065 A 
ATOM      6  C   UNL     1       6.326  -9.385  -6.765  1.00  0.00     0.044 A 
ATOM      7  C   UNL     1       6.267  -8.448  -5.746  1.00  0.00     0.165 A 
ATOM      8  F   UNL     1       7.292  -8.338  -4.873  1.00  0.00    -0.203 F 
BRANCH   3   9
ATOM      9  C   UNL     1       3.047  -8.796  -8.497  1.00  0.00     0.335 C 
ATOM     10  O   UNL     1       2.116  -8.019  -8.446  1.00  0.00    -0.246 OA
BRANCH   9  11
ATOM     11  O   UNL     1       3.064  -9.766  -9.432  1.00  0.00    -0.478 OA
ATOM     12  H   UNL     1       3.853 -10.325  -9.470  1.00  0.00     0.297 HD
ENDBRANCH   9  11
ENDBRANCH   3   9
ENDBRANCH   1   2
BRANCH   1  13
ATOM     13  C   UNL     1       4.520  -5.440  -4.925  1.00  0.00     0.230 C 
BRANCH  13  14
ATOM     14  C   UNL     1       4.599  -4.528  -3.699  1.00  0.00     0.046 C 
BRANCH  14  15
ATOM     15  C   UNL     1       4.215  -5.321  -2.448  1.00  0.00     0.043 C 
BRANCH  15  16
ATOM     16  C   UNL     1       2.714  -5.379  -2.330  1.00  0.00    -0.004 A 
ATOM     17  C   UNL     1       1.897  -4.338  -2.044  1.00  0.00     0.036 A 
ATOM     18  C   UNL     1       1.917  -6.515  -2.504  1.00  0.00     0.063 A 
ATOM     19  N   UNL     1       0.630  -4.802  -2.030  1.00  0.00    -0.282 N 
ATOM     20  N   UNL     1       0.669  -6.172  -2.318  1.00  0.00    -0.181 NA
ATOM     21  C   UNL     1       2.326  -2.917  -1.786  1.00  0.00     0.066 C 
ATOM     22  C   UNL     1       2.413  -7.899  -2.837  1.00  0.00     0.069 C 
ATOM     23  H   UNL     1      -0.167  -4.279  -1.852  1.00  0.00     0.190 HD
ENDBRANCH  15  16
ENDBRANCH  14  15
ENDBRANCH  13  14
ENDBRANCH   1  13
TORSDOF 7
ENDMDL
MODEL 6
REMARK VINA RESULT:    -4.628      3.772      7.121
REMARK INTER + INTRA:          -7.037
REMARK INTER:                  -6.221
REMARK INTRA:                  -0.816
REMARK UNBOUND:                -0.651
REMARK SMILES Cc1n[nH]c(C)c1CCCOc1cc(C(=O)O)ccc1F
REMARK SMILES IDX 11 1 12 2 14 3 18 4 13 5 19 6 20 7 21 8 15 9 16 10 17 11
REMARK SMILES IDX 10 13 9 14 8 15 7 16 5 17 2 18 4 19 3 20 6 21 1 22
REMARK H PARENT 17 12 4 23
ROOT
ATOM      1  O   UNL     1       3.272  -6.865  -5.318  1.00  0.00    -0.490 OA
ENDROOT
BRANCH   1   2
ATOM      2  C   UNL     1       4.112  -7.713  -5.968  1.00  0.00     0.155 A 
ATOM      3  C   UNL     1       6.221  -8.860  -6.111  1.00  0.00     0.063 A 
ATOM      4  C   UNL     1       5.811  -9.457  -7.307  1.00  0.00     0.019 A 
ATOM      5  C   UNL     1       5.362  -7.984  -5.443  1.00  0.00     0.065 A 
ATOM      6  C   UNL     1       4.560  -9.184  -7.819  1.00  0.00     0.044 A 
ATOM      7  C   UNL     1       3.708  -8.320  -7.152  1.00  0.00     0.165 A 
ATOM      8  F   UNL     1       2.483  -8.057  -7.659  1.00  0.00    -0.203 F 
BRANCH   3   9
ATOM      9  C   UNL     1       7.559  -9.149  -5.560  1.00  0.00     0.335 C 
ATOM     10  O   UNL     1       8.504  -8.449  -5.860  1.00  0.00    -0.246 OA
BRANCH   9  11
ATOM     11  O   UNL     1       7.730 -10.187  -4.718  1.00  0.00    -0.478 OA
ATOM     12  H   UNL     1       8.324 -10.894  -5.007  1.00  0.00     0.297 HD
ENDBRANCH   9  11
ENDBRANCH   3   9
ENDBRANCH   1   2
BRANCH   1  13
ATOM     13  C   UNL     1       3.242  -6.949  -3.891  1.00  0.00     0.230 C 
BRANCH  13  14
ATOM     14  C   UNL     1       2.290  -5.886  -3.338  1.00  0.00     0.046 C 
BRANCH  14  15
ATOM     15  C   UNL     1       2.465  -4.586  -4.126  1.00  0.00     0.043 C 
BRANCH  15  16
ATOM     16  C   UNL     1       3.612  -3.797  -3.548  1.00  0.00    -0.004 A 
ATOM     17  C   UNL     1       3.637  -3.204  -2.332  1.00  0.00     0.036 A 
ATOM     18  C   UNL     1       4.841  -3.555  -4.170  1.00  0.00     0.063 A 
ATOM     19  N   UNL     1       4.837  -2.602  -2.192  1.00  0.00    -0.282 N 
ATOM     20  N   UNL     1       5.573  -2.833  -3.362  1.00  0.00    -0.181 NA
ATOM     21  C   UNL     1       2.525  -3.213  -1.316  1.00  0.00     0.066 C 
ATOM     22  C   UNL     1       5.247  -4.033  -5.541  1.00  0.00     0.069 C 
ATOM     23  H   UNL     1       5.136  -2.097  -1.420  1.00  0.00     0.190 HD
ENDBRANCH  15  16
ENDBRANCH  14  15
ENDBRANCH  13  14
ENDBRANCH   1  13
TORSDOF 7
ENDMDL
MODEL 7
REMARK VINA RESULT:    -4.443      4.199      7.692
REMARK INTER + INTRA:          -6.782
REMARK INTER:                  -6.486
REMARK INTRA:                  -0.296
REMARK UNBOUND:                -0.651
REMARK SMILES Cc1n[nH]c(C)c1CCCOc1cc(C(=O)O)ccc1F
REMARK SMILES IDX 11 1 12 2 14 3 18 4 13 5 19 6 20 7 21 8 15 9 16 10 17 11
REMARK SMILES IDX 10 13 9 14 8 15 7 16 5 17 2 18 4 19 3 20 6 21 1 22
REMARK H PARENT 17 12 4 23
ROOT
ATOM      1  O   UNL     1       3.409  -7.362  -5.542  1.00  0.00    -0.490 OA
ENDROOT
BRANCH   1   2
ATOM      2  C   UNL     1       4.246  -8.170  -6.247  1.00  0.00     0.155 A 
ATOM      3  C   UNL     1       6.375  -9.257  -6.501  1.00  0.00     0.063 A 
ATOM      4  C   UNL     1       5.935  -9.831  -7.697  1.00  0.00     0.019 A 
ATOM      5  C   UNL     1       5.521  -8.423  -5.777  1.00  0.00     0.065 A 
ATOM      6  C   UNL     1       4.659  -9.577  -8.154  1.00  0.00     0.044 A 
ATOM      7  C   UNL     1       3.812  -8.754  -7.432  1.00  0.00     0.165 A 
ATOM      8  F   UNL     1       2.563  -8.509  -7.886  1.00  0.00    -0.203 F 
BRANCH   3   9
ATOM      9  C   UNL     1       7.740  -9.527  -6.009  1.00  0.00     0.335 C 
ATOM     10  O   UNL     1       8.160  -8.941  -5.032  1.00  0.00    -0.246 OA
BRANCH   9  11
ATOM     11  O   UNL     1       8.517 -10.429  -6.639  1.00  0.00    -0.478 OA
ATOM     12  H   UNL     1       9.136 -10.934  -6.093  1.00  0.00     0.297 HD
ENDBRANCH   9  11
ENDBRANCH   3   9
ENDBRANCH   1   2
BRANCH   1  13
ATOM     13  C   UNL     1       3.601  -7.307  -4.126  1.00  0.00     0.230 C 
BRANCH  13  14
ATOM     14  C   UNL     1       4.456  -6.088  -3.775  1.00  0.00     0.046 C 
BRANCH  14  15
ATOM     15  C   UNL     1       3.700  -4.811  -4.149  1.00  0.00     0.043 C 
BRANCH  15  16
ATOM     16  C   UNL     1       3.281  -4.089  -2.895  1.00  0.00    -0.004 A 
ATOM     17  C   UNL     1       4.046  -3.239  -2.171  1.00  0.00     0.036 A 
ATOM     18  C   UNL     1       2.029  -4.174  -2.276  1.00  0.00     0.063 A 
ATOM     19  N   UNL     1       3.307  -2.807  -1.128  1.00  0.00    -0.282 N 
ATOM     20  N   UNL     1       2.045  -3.411  -1.213  1.00  0.00    -0.181 NA
ATOM     21  C   UNL     1       5.468  -2.846  -2.476  1.00  0.00     0.066 C 
ATOM     22  C   UNL     1       0.865  -5.009  -2.746  1.00  0.00     0.069 C 
ATOM     23  H   UNL     1       3.597  -2.188  -0.440  1.00  0.00     0.190 HD
ENDBRANCH  15  16
ENDBRANCH  14  15
ENDBRANCH  13  14
ENDBRANCH   1  13
TORSDOF 7
ENDMDL
MODEL 8
REMARK VINA RESULT:    -4.363      9.431     11.622
REMARK INTER + INTRA:          -6.673
REMARK INTER:                  -4.543
REMARK INTRA:                  -2.130
REMARK UNBOUND:                -0.651
REMARK SMILES Cc1n[nH]c(C)c1CCCOc1cc(C(=O)O)ccc1F
REMARK SMILES IDX 11 1 12 2 14 3 18 4 13 5 19 6 20 7 21 8 15 9 16 10 17 11
REMARK SMILES IDX 10 13 9 14 8 15 7 16 5 17 2 18 4 19 3 20 6 21 1 22
REMARK H PARENT 17 12 4 23
ROOT
ATOM      1  O   UNL     1       9.339 -15.741 -10.596  1.00  0.00    -0.490 OA
ENDROOT
BRANCH   1   2
ATOM      2  C   UNL     1       8.905 -14.470 -10.384  1.00  0.00     0.155 A 
ATOM      3  C   UNL     1       7.114 -12.875 -10.219  1.00  0.00     0.063 A 
ATOM      4  C   UNL     1       8.041 -11.868  -9.938  1.00  0.00     0.019 A 
ATOM      5  C   UNL     1       7.555 -14.181 -10.442  1.00  0.00     0.065 A 
ATOM      6  C   UNL     1       9.385 -12.167  -9.876  1.00  0.00     0.044 A 
ATOM      7  C   UNL     1       9.820 -13.464 -10.093  1.00  0.00     0.165 A 
ATOM      8  F   UNL     1      11.139 -13.751 -10.031  1.00  0.00    -0.203 F 
BRANCH   3   9
ATOM      9  C   UNL     1       5.673 -12.559 -10.285  1.00  0.00     0.335 C 
ATOM     10  O   UNL     1       5.267 -11.744 -11.088  1.00  0.00    -0.246 OA
BRANCH   9  11
ATOM     11  O   UNL     1       4.809 -13.179  -9.459  1.00  0.00    -0.478 OA
ATOM     12  H   UNL     1       5.181 -13.612  -8.678  1.00  0.00     0.297 HD
ENDBRANCH   9  11
ENDBRANCH   3   9
ENDBRANCH   1   2
BRANCH   1  13
ATOM     13  C   UNL     1       8.970 -16.354 -11.834  1.00  0.00     0.230 C 
BRANCH  13  14
ATOM     14  C   UNL     1      10.088 -16.145 -12.858  1.00  0.00     0.046 C 
BRANCH  14  15
ATOM     15  C   UNL     1       9.482 -15.704 -14.192  1.00  0.00     0.043 C 
BRANCH  15  16
ATOM     16  C   UNL     1       9.007 -14.278 -14.082  1.00  0.00    -0.004 A 
ATOM     17  C   UNL     1       9.789 -13.191 -13.884  1.00  0.00     0.036 A 
ATOM     18  C   UNL     1       7.681 -13.842 -14.172  1.00  0.00     0.063 A 
ATOM     19  N   UNL     1       8.986 -12.108 -13.844  1.00  0.00    -0.282 N 
ATOM     20  N   UNL     1       7.666 -12.543 -14.023  1.00  0.00    -0.181 NA
ATOM     21  C   UNL     1      11.288 -13.192 -13.736  1.00  0.00     0.066 C 
ATOM     22  C   UNL     1       6.475 -14.720 -14.391  1.00  0.00     0.069 C 
ATOM     23  H   UNL     1       9.271 -11.190 -13.713  1.00  0.00     0.190 HD
ENDBRANCH  15  16
ENDBRANCH  14  15
ENDBRANCH  13  14
ENDBRANCH   1  13
TORSDOF 7
ENDMDL
MODEL 9
REMARK VINA RESULT:    -4.354      9.086     11.359
REMARK INTER + INTRA:          -6.660
REMARK INTER:                  -4.411
REMARK INTRA:                  -2.249
REMARK UNBOUND:                -0.651
REMARK SMILES Cc1n[nH]c(C)c1CCCOc1cc(C(=O)O)ccc1F
REMARK SMILES IDX 11 1 12 2 14 3 18 4 13 5 19 6 20 7 21 8 15 9 16 10 17 11
REMARK SMILES IDX 10 13 9 14 8 15 7 16 5 17 2 18 4 19 3 20 6 21 1 22
REMARK H PARENT 17 12 4 23
ROOT
ATOM      1  O   UNL     1       8.726 -12.888 -13.785  1.00  0.00    -0.490 OA
ENDROOT
BRANCH   1   2
ATOM      2  C   UNL     1       8.594 -12.692 -12.446  1.00  0.00     0.155 A 
ATOM      3  C   UNL     1       7.204 -12.388 -10.507  1.00  0.00     0.063 A 
ATOM      4  C   UNL     1       8.346 -12.302  -9.707  1.00  0.00     0.019 A 
ATOM      5  C   UNL     1       7.336 -12.584 -11.884  1.00  0.00     0.065 A 
ATOM      6  C   UNL     1       9.597 -12.417 -10.276  1.00  0.00     0.044 A 
ATOM      7  C   UNL     1       9.725 -12.616 -11.640  1.00  0.00     0.165 A 
ATOM      8  F   UNL     1      10.953 -12.728 -12.192  1.00  0.00    -0.203 F 
BRANCH   3   9
ATOM      9  C   UNL     1       5.864 -12.265  -9.901  1.00  0.00     0.335 C 
ATOM     10  O   UNL     1       5.438 -11.174  -9.582  1.00  0.00    -0.246 OA
BRANCH   9  11
ATOM     11  O   UNL     1       5.110 -13.365  -9.708  1.00  0.00    -0.478 OA
ATOM     12  H   UNL     1       4.943 -13.629  -8.792  1.00  0.00     0.297 HD
ENDBRANCH   9  11
ENDBRANCH   3   9
ENDBRANCH   1   2
BRANCH   1  13
ATOM     13  C   UNL     1       7.935 -13.925 -14.369  1.00  0.00     0.230 C 
BRANCH  13  14
ATOM     14  C   UNL     1       8.676 -15.258 -14.251  1.00  0.00     0.046 C 
BRANCH  14  15
ATOM     15  C   UNL     1       7.694 -16.352 -13.824  1.00  0.00     0.043 C 
BRANCH  15  16
ATOM     16  C   UNL     1       7.395 -16.212 -12.354  1.00  0.00    -0.004 A 
ATOM     17  C   UNL     1       6.168 -16.067 -11.801  1.00  0.00     0.036 A 
ATOM     18  C   UNL     1       8.336 -16.216 -11.318  1.00  0.00     0.063 A 
ATOM     19  N   UNL     1       6.328 -15.976 -10.464  1.00  0.00    -0.282 N 
ATOM     20  N   UNL     1       7.698 -16.068 -10.186  1.00  0.00    -0.181 NA
ATOM     21  C   UNL     1       4.859 -16.017 -12.545  1.00  0.00     0.066 C 
ATOM     22  C   UNL     1       9.828 -16.355 -11.480  1.00  0.00     0.069 C 
ATOM     23  H   UNL     1       5.619 -15.865  -9.811  1.00  0.00     0.190 HD
ENDBRANCH  15  16
ENDBRANCH  14  15
ENDBRANCH  13  14
ENDBRANCH   1  13
TORSDOF 7
ENDMDL
