MODEL 1
REMARK VINA RESULT:    -4.241      0.000      0.000
REMARK INTER + INTRA:          -5.156
REMARK INTER:                  -4.861
REMARK INTRA:                  -0.295
REMARK UNBOUND:                -0.295
REMARK SMILES O=C(O)c1ccc2nc(-c3cc(Cl)cc(Cl)c3)oc2c1
REMARK SMILES IDX 5 1 6 2 20 3 8 4 18 5 4 6 9 7 7 8 19 9 2 10 1 11 3 12 10 14
REMARK SMILES IDX 11 15 17 16 12 17 15 18 14 19 13 20 16 21
REMARK H PARENT 3 13
ROOT
ATOM      1  C   UNL     1      13.012  -8.949  -1.905  1.00  0.00     0.018 A 
ATOM      2  C   UNL     1      12.127  -8.331  -2.738  1.00  0.00     0.033 A 
ATOM      3  C   UNL     1      11.780  -8.160   0.029  1.00  0.00     0.065 A 
ATOM      4  N   UNL     1      10.037  -6.913  -2.761  1.00  0.00    -0.209 NA
ATOM      5  O   UNL     1       9.776  -6.781  -0.605  1.00  0.00    -0.436 OA
ATOM      6  C   UNL     1      12.850  -8.874  -0.515  1.00  0.00     0.063 A 
ATOM      7  C   UNL     1       9.285  -6.423  -1.806  1.00  0.00     0.227 A 
ATOM      8  C   UNL     1      11.050  -7.612  -2.206  1.00  0.00     0.110 A 
ATOM      9  C   UNL     1      10.883  -7.528  -0.812  1.00  0.00     0.156 A 
ENDROOT
BRANCH   6  10
ATOM     10  C   UNL     1      13.809  -9.551   0.376  1.00  0.00     0.335 C 
ATOM     11  O   UNL     1      13.793  -9.328   1.569  1.00  0.00    -0.246 OA
BRANCH  10  12
ATOM     12  O   UNL     1      14.707 -10.418  -0.135  1.00  0.00    -0.478 OA
ATOM     13  H   UNL     1      14.372 -11.278  -0.422  1.00  0.00     0.297 HD
ENDBRANCH  10  12
ENDBRANCH   6  10
BRANCH   7  14
ATOM     14  C   UNL     1       8.077  -5.599  -2.018  1.00  0.00     0.040 A 
ATOM     15  C   UNL     1       7.335  -5.732  -3.193  1.00  0.00     0.034 A 
ATOM     16  C   UNL     1       7.674  -4.684  -1.044  1.00  0.00     0.034 A 
ATOM     17  C   UNL     1       6.206  -4.960  -3.384  1.00  0.00     0.043 A 
ATOM     18  C   UNL     1       6.544  -3.917  -1.247  1.00  0.00     0.043 A 
ATOM     19  C   UNL     1       5.812  -4.054  -2.414  1.00  0.00     0.041 A 
ATOM     20  Cl  UNL     1       5.282  -5.123  -4.844  1.00  0.00    -0.084 Cl
ATOM     21  Cl  UNL     1       6.040  -2.779  -0.037  1.00  0.00    -0.084 Cl
ENDBRANCH   7  14
TORSDOF 3
ENDMDL
MODEL 2
REMARK VINA RESULT:    -4.241      1.634      3.062
REMARK INTER + INTRA:          -5.156
REMARK INTER:                  -4.861
REMARK INTRA:                  -0.296
REMARK UNBOUND:                -0.295
REMARK SMILES O=C(O)c1ccc2nc(-c3cc(Cl)cc(Cl)c3)oc2c1
REMARK SMILES IDX 5 1 6 2 20 3 8 4 18 5 4 6 9 7 7 8 19 9 2 10 1 11 3 12 10 14
REMARK SMILES IDX 11 15 17 16 12 17 15 18 14 19 13 20 16 21
REMARK H PARENT 3 13
ROOT
ATOM      1  C   UNL     1      12.928  -9.022  -1.497  1.00  0.00     0.018 A 
ATOM      2  C   UNL     1      12.002  -8.311  -0.795  1.00  0.00     0.033 A 
ATOM      3  C   UNL     1      12.012  -8.200  -3.586  1.00  0.00     0.065 A 
ATOM      4  N   UNL     1      10.045  -6.736  -1.063  1.00  0.00    -0.209 NA
ATOM      5  O   UNL     1      10.056  -6.659  -3.237  1.00  0.00    -0.436 OA
ATOM      6  C   UNL     1      12.947  -8.975  -2.898  1.00  0.00     0.063 A 
ATOM      7  C   UNL     1       9.455  -6.223  -2.114  1.00  0.00     0.227 A 
ATOM      8  C   UNL     1      11.058  -7.529  -1.472  1.00  0.00     0.110 A 
ATOM      9  C   UNL     1      11.067  -7.480  -2.877  1.00  0.00     0.156 A 
ENDROOT
BRANCH   6  10
ATOM     10  C   UNL     1      13.957  -9.744  -3.646  1.00  0.00     0.335 C 
ATOM     11  O   UNL     1      13.871  -9.846  -4.854  1.00  0.00    -0.246 OA
BRANCH  10  12
ATOM     12  O   UNL     1      14.976 -10.336  -2.991  1.00  0.00    -0.478 OA
ATOM     13  H   UNL     1      15.130 -10.060  -2.078  1.00  0.00     0.297 HD
ENDBRANCH  10  12
ENDBRANCH   6  10
BRANCH   7  14
ATOM     14  C   UNL     1       8.301  -5.302  -2.072  1.00  0.00     0.040 A 
ATOM     15  C   UNL     1       8.103  -4.476  -0.965  1.00  0.00     0.034 A 
ATOM     16  C   UNL     1       7.403  -5.256  -3.140  1.00  0.00     0.034 A 
ATOM     17  C   UNL     1       7.022  -3.616  -0.932  1.00  0.00     0.043 A 
ATOM     18  C   UNL     1       6.326  -4.392  -3.096  1.00  0.00     0.043 A 
ATOM     19  C   UNL     1       6.135  -3.575  -1.995  1.00  0.00     0.041 A 
ATOM     20  Cl  UNL     1       6.774  -2.587   0.443  1.00  0.00    -0.084 Cl
ATOM     21  Cl  UNL     1       5.208  -4.333  -4.423  1.00  0.00    -0.084 Cl
ENDBRANCH   7  14
TORSDOF 3
ENDMDL
MODEL 3
REMARK VINA RESULT:    -4.239      0.018      2.020
REMARK INTER + INTRA:          -5.154
REMARK INTER:                  -4.858
REMARK INTRA:                  -0.296
REMARK UNBOUND:                -0.295
REMARK SMILES O=C(O)c1ccc2nc(-c3cc(Cl)cc(Cl)c3)oc2c1
REMARK SMILES IDX 5 1 6 2 20 3 8 4 18 5 4 6 9 7 7 8 19 9 2 10 1 11 3 12 10 14
REMARK SMILES IDX 11 15 17 16 12 17 15 18 14 19 13 20 16 21
REMARK H PARENT 3 13
ROOT
ATOM      1  C   UNL     1      13.000  -8.944  -1.913  1.00  0.00     0.018 A 
ATOM      2  C   UNL     1      12.113  -8.330  -2.746  1.00  0.00     0.033 A 
ATOM      3  C   UNL     1      11.772  -8.146   0.021  1.00  0.00     0.065 A 
ATOM      4  N   UNL     1      10.023  -6.911  -2.771  1.00  0.00    -0.209 NA
ATOM      5  O   UNL     1       9.767  -6.768  -0.615  1.00  0.00    -0.436 OA
ATOM      6  C   UNL     1      12.840  -8.862  -0.522  1.00  0.00     0.063 A 
ATOM      7  C   UNL     1       9.274  -6.417  -1.817  1.00  0.00     0.227 A 
ATOM      8  C   UNL     1      11.037  -7.608  -2.215  1.00  0.00     0.110 A 
ATOM      9  C   UNL     1      10.873  -7.517  -0.821  1.00  0.00     0.156 A 
ENDROOT
BRANCH   6  10
ATOM     10  C   UNL     1      13.802  -9.536   0.369  1.00  0.00     0.335 C 
ATOM     11  O   UNL     1      13.784  -9.312   1.563  1.00  0.00    -0.246 OA
BRANCH  10  12
ATOM     12  O   UNL     1      14.703 -10.400  -0.140  1.00  0.00    -0.478 OA
ATOM     13  H   UNL     1      15.351 -10.043  -0.762  1.00  0.00     0.297 HD
ENDBRANCH  10  12
ENDBRANCH   6  10
BRANCH   7  14
ATOM     14  C   UNL     1       8.065  -5.593  -2.030  1.00  0.00     0.040 A 
ATOM     15  C   UNL     1       7.660  -4.678  -1.057  1.00  0.00     0.034 A 
ATOM     16  C   UNL     1       7.324  -5.729  -3.205  1.00  0.00     0.034 A 
ATOM     17  C   UNL     1       6.531  -3.911  -1.263  1.00  0.00     0.043 A 
ATOM     18  C   UNL     1       6.196  -4.956  -3.399  1.00  0.00     0.043 A 
ATOM     19  C   UNL     1       5.800  -4.050  -2.431  1.00  0.00     0.041 A 
ATOM     20  Cl  UNL     1       6.025  -2.771  -0.055  1.00  0.00    -0.084 Cl
ATOM     21  Cl  UNL     1       5.273  -5.122  -4.860  1.00  0.00    -0.084 Cl
ENDBRANCH   7  14
TORSDOF 3
ENDMDL
MODEL 4
REMARK VINA RESULT:    -4.235      1.638      2.319
REMARK INTER + INTRA:          -5.150
REMARK INTER:                  -4.854
REMARK INTRA:                  -0.296
REMARK UNBOUND:                -0.295
REMARK SMILES O=C(O)c1ccc2nc(-c3cc(Cl)cc(Cl)c3)oc2c1
REMARK SMILES IDX 5 1 6 2 20 3 8 4 18 5 4 6 9 7 7 8 19 9 2 10 1 11 3 12 10 14
REMARK SMILES IDX 11 15 17 16 12 17 15 18 14 19 13 20 16 21
REMARK H PARENT 3 13
ROOT
ATOM      1  C   UNL     1      12.913  -9.011  -1.498  1.00  0.00     0.018 A 
ATOM      2  C   UNL     1      11.990  -8.298  -0.793  1.00  0.00     0.033 A 
ATOM      3  C   UNL     1      11.991  -8.186  -3.584  1.00  0.00     0.065 A 
ATOM      4  N   UNL     1      10.035  -6.719  -1.055  1.00  0.00    -0.209 NA
ATOM      5  O   UNL     1      10.039  -6.642  -3.229  1.00  0.00    -0.436 OA
ATOM      6  C   UNL     1      12.927  -8.963  -2.899  1.00  0.00     0.063 A 
ATOM      7  C   UNL     1       9.443  -6.205  -2.104  1.00  0.00     0.227 A 
ATOM      8  C   UNL     1      11.046  -7.514  -1.467  1.00  0.00     0.110 A 
ATOM      9  C   UNL     1      11.050  -7.465  -2.873  1.00  0.00     0.156 A 
ENDROOT
BRANCH   6  10
ATOM     10  C   UNL     1      13.934  -9.734  -3.650  1.00  0.00     0.335 C 
ATOM     11  O   UNL     1      13.857  -9.817  -4.860  1.00  0.00    -0.246 OA
BRANCH  10  12
ATOM     12  O   UNL     1      14.939 -10.349  -2.996  1.00  0.00    -0.478 OA
ATOM     13  H   UNL     1      15.510  -9.794  -2.447  1.00  0.00     0.297 HD
ENDBRANCH  10  12
ENDBRANCH   6  10
BRANCH   7  14
ATOM     14  C   UNL     1       8.290  -5.282  -2.059  1.00  0.00     0.040 A 
ATOM     15  C   UNL     1       7.389  -5.232  -3.123  1.00  0.00     0.034 A 
ATOM     16  C   UNL     1       8.098  -4.456  -0.950  1.00  0.00     0.034 A 
ATOM     17  C   UNL     1       6.313  -4.369  -3.074  1.00  0.00     0.043 A 
ATOM     18  C   UNL     1       7.018  -3.596  -0.912  1.00  0.00     0.043 A 
ATOM     19  C   UNL     1       6.128  -3.552  -1.972  1.00  0.00     0.041 A 
ATOM     20  Cl  UNL     1       5.191  -4.305  -4.397  1.00  0.00    -0.084 Cl
ATOM     21  Cl  UNL     1       6.777  -2.568   0.466  1.00  0.00    -0.084 Cl
ENDBRANCH   7  14
TORSDOF 3
ENDMDL
MODEL 5
REMARK VINA RESULT:    -4.043      3.931      7.623
REMARK INTER + INTRA:          -4.929
REMARK INTER:                  -4.631
REMARK INTRA:                  -0.298
REMARK UNBOUND:                -0.295
REMARK SMILES O=C(O)c1ccc2nc(-c3cc(Cl)cc(Cl)c3)oc2c1
REMARK SMILES IDX 5 1 6 2 20 3 8 4 18 5 4 6 9 7 7 8 19 9 2 10 1 11 3 12 10 14
REMARK SMILES IDX 11 15 17 16 12 17 15 18 14 19 13 20 16 21
REMARK H PARENT 3 13
ROOT
ATOM      1  C   UNL     1       6.281  -4.136  -1.209  1.00  0.00     0.018 A 
ATOM      2  C   UNL     1       7.253  -4.798  -0.521  1.00  0.00     0.033 A 
ATOM      3  C   UNL     1       7.208  -4.912  -3.311  1.00  0.00     0.065 A 
ATOM      4  N   UNL     1       9.284  -6.271  -0.818  1.00  0.00    -0.209 NA
ATOM      5  O   UNL     1       9.245  -6.350  -2.991  1.00  0.00    -0.436 OA
ATOM      6  C   UNL     1       6.244  -4.185  -2.610  1.00  0.00     0.063 A 
ATOM      7  C   UNL     1       9.884  -6.754  -1.877  1.00  0.00     0.227 A 
ATOM      8  C   UNL     1       8.225  -5.531  -1.212  1.00  0.00     0.110 A 
ATOM      9  C   UNL     1       8.198  -5.582  -2.617  1.00  0.00     0.156 A 
ENDROOT
BRANCH   6  10
ATOM     10  C   UNL     1       5.185  -3.470  -3.343  1.00  0.00     0.335 C 
ATOM     11  O   UNL     1       5.018  -3.680  -4.528  1.00  0.00    -0.246 OA
BRANCH  10  12
ATOM     12  O   UNL     1       4.402  -2.581  -2.700  1.00  0.00    -0.478 OA
ATOM     13  H   UNL     1       4.544  -2.477  -1.750  1.00  0.00     0.297 HD
ENDBRANCH  10  12
ENDBRANCH   6  10
BRANCH   7  14
ATOM     14  C   UNL     1      11.085  -7.614  -1.852  1.00  0.00     0.040 A 
ATOM     15  C   UNL     1      11.713  -7.977  -3.045  1.00  0.00     0.034 A 
ATOM     16  C   UNL     1      11.596  -8.069  -0.635  1.00  0.00     0.034 A 
ATOM     17  C   UNL     1      12.835  -8.780  -3.014  1.00  0.00     0.043 A 
ATOM     18  C   UNL     1      12.719  -8.871  -0.617  1.00  0.00     0.043 A 
ATOM     19  C   UNL     1      13.337  -9.227  -1.804  1.00  0.00     0.041 A 
ATOM     20  Cl  UNL     1      13.618  -9.231  -4.496  1.00  0.00    -0.084 Cl
ATOM     21  Cl  UNL     1      13.356  -9.437   0.896  1.00  0.00    -0.084 Cl
ENDBRANCH   7  14
TORSDOF 3
ENDMDL
MODEL 6
REMARK VINA RESULT:    -4.042      3.926      7.852
REMARK INTER + INTRA:          -4.928
REMARK INTER:                  -4.631
REMARK INTRA:                  -0.298
REMARK UNBOUND:                -0.295
REMARK SMILES O=C(O)c1ccc2nc(-c3cc(Cl)cc(Cl)c3)oc2c1
REMARK SMILES IDX 5 1 6 2 20 3 8 4 18 5 4 6 9 7 7 8 19 9 2 10 1 11 3 12 10 14
REMARK SMILES IDX 11 15 17 16 12 17 15 18 14 19 13 20 16 21
REMARK H PARENT 3 13
ROOT
ATOM      1  C   UNL     1       6.282  -4.131  -1.207  1.00  0.00     0.018 A 
ATOM      2  C   UNL     1       7.252  -4.790  -0.513  1.00  0.00     0.033 A 
ATOM      3  C   UNL     1       7.210  -4.922  -3.303  1.00  0.00     0.065 A 
ATOM      4  N   UNL     1       9.281  -6.267  -0.797  1.00  0.00    -0.209 NA
ATOM      5  O   UNL     1       9.245  -6.361  -2.971  1.00  0.00    -0.436 OA
ATOM      6  C   UNL     1       6.247  -4.190  -2.607  1.00  0.00     0.063 A 
ATOM      7  C   UNL     1       9.882  -6.758  -1.853  1.00  0.00     0.227 A 
ATOM      8  C   UNL     1       8.224  -5.529  -1.198  1.00  0.00     0.110 A 
ATOM      9  C   UNL     1       8.199  -5.589  -2.602  1.00  0.00     0.156 A 
ENDROOT
BRANCH   6  10
ATOM     10  C   UNL     1       5.189  -3.477  -3.347  1.00  0.00     0.335 C 
ATOM     11  O   UNL     1       5.024  -3.696  -4.530  1.00  0.00    -0.246 OA
BRANCH  10  12
ATOM     12  O   UNL     1       4.406  -2.584  -2.711  1.00  0.00    -0.478 OA
ATOM     13  H   UNL     1       4.166  -1.785  -3.198  1.00  0.00     0.297 HD
ENDBRANCH  10  12
ENDBRANCH   6  10
BRANCH   7  14
ATOM     14  C   UNL     1      11.082  -7.620  -1.821  1.00  0.00     0.040 A 
ATOM     15  C   UNL     1      11.603  -8.050  -0.600  1.00  0.00     0.034 A 
ATOM     16  C   UNL     1      11.699  -8.006  -3.012  1.00  0.00     0.034 A 
ATOM     17  C   UNL     1      12.724  -8.856  -0.577  1.00  0.00     0.043 A 
ATOM     18  C   UNL     1      12.819  -8.812  -2.976  1.00  0.00     0.043 A 
ATOM     19  C   UNL     1      13.331  -9.236  -1.762  1.00  0.00     0.041 A 
ATOM     20  Cl  UNL     1      13.374  -9.394   0.940  1.00  0.00    -0.084 Cl
ATOM     21  Cl  UNL     1      13.588  -9.293  -4.457  1.00  0.00    -0.084 Cl
ENDBRANCH   7  14
TORSDOF 3
ENDMDL
MODEL 7
REMARK VINA RESULT:    -3.889      3.718      5.708
REMARK INTER + INTRA:          -4.752
REMARK INTER:                  -4.468
REMARK INTRA:                  -0.285
REMARK UNBOUND:                -0.295
REMARK SMILES O=C(O)c1ccc2nc(-c3cc(Cl)cc(Cl)c3)oc2c1
REMARK SMILES IDX 5 1 6 2 20 3 8 4 18 5 4 6 9 7 7 8 19 9 2 10 1 11 3 12 10 14
REMARK SMILES IDX 11 15 17 16 12 17 15 18 14 19 13 20 16 21
REMARK H PARENT 3 13
ROOT
ATOM      1  C   UNL     1      14.585 -11.745   3.357  1.00  0.00     0.018 A 
ATOM      2  C   UNL     1      14.760 -11.025   2.213  1.00  0.00     0.033 A 
ATOM      3  C   UNL     1      12.219 -11.211   3.358  1.00  0.00     0.065 A 
ATOM      4  N   UNL     1      13.535  -9.616   0.512  1.00  0.00    -0.209 NA
ATOM      5  O   UNL     1      11.560  -9.761   1.413  1.00  0.00    -0.436 OA
ATOM      6  C   UNL     1      13.315 -11.849   3.942  1.00  0.00     0.063 A 
ATOM      7  C   UNL     1      12.281  -9.253   0.397  1.00  0.00     0.227 A 
ATOM      8  C   UNL     1      13.670 -10.380   1.617  1.00  0.00     0.110 A 
ATOM      9  C   UNL     1      12.394 -10.476   2.200  1.00  0.00     0.156 A 
ENDROOT
BRANCH   6  10
ATOM     10  C   UNL     1      13.136 -12.635   5.176  1.00  0.00     0.335 C 
ATOM     11  O   UNL     1      13.121 -13.849   5.126  1.00  0.00    -0.246 OA
BRANCH  10  12
ATOM     12  O   UNL     1      12.988 -12.008   6.360  1.00  0.00    -0.478 OA
ATOM     13  H   UNL     1      13.708 -12.099   6.998  1.00  0.00     0.297 HD
ENDBRANCH  10  12
ENDBRANCH   6  10
BRANCH   7  14
ATOM     14  C   UNL     1      11.741  -8.408  -0.689  1.00  0.00     0.040 A 
ATOM     15  C   UNL     1      10.654  -7.566  -0.447  1.00  0.00     0.034 A 
ATOM     16  C   UNL     1      12.315  -8.450  -1.961  1.00  0.00     0.034 A 
ATOM     17  C   UNL     1      10.155  -6.779  -1.465  1.00  0.00     0.043 A 
ATOM     18  C   UNL     1      11.806  -7.658  -2.971  1.00  0.00     0.043 A 
ATOM     19  C   UNL     1      10.728  -6.825  -2.725  1.00  0.00     0.041 A 
ATOM     20  Cl  UNL     1       8.804  -5.731  -1.167  1.00  0.00    -0.084 Cl
ATOM     21  Cl  UNL     1      12.519  -7.709  -4.553  1.00  0.00    -0.084 Cl
ENDBRANCH   7  14
TORSDOF 3
ENDMDL
MODEL 8
REMARK VINA RESULT:    -3.885      3.726      5.492
REMARK INTER + INTRA:          -4.749
REMARK INTER:                  -4.464
REMARK INTRA:                  -0.285
REMARK UNBOUND:                -0.295
REMARK SMILES O=C(O)c1ccc2nc(-c3cc(Cl)cc(Cl)c3)oc2c1
REMARK SMILES IDX 5 1 6 2 20 3 8 4 18 5 4 6 9 7 7 8 19 9 2 10 1 11 3 12 10 14
REMARK SMILES IDX 11 15 17 16 12 17 15 18 14 19 13 20 16 21
REMARK H PARENT 3 13
ROOT
ATOM      1  C   UNL     1      14.583 -11.746   3.372  1.00  0.00     0.018 A 
ATOM      2  C   UNL     1      14.762 -11.025   2.229  1.00  0.00     0.033 A 
ATOM      3  C   UNL     1      12.217 -11.217   3.364  1.00  0.00     0.065 A 
ATOM      4  N   UNL     1      13.539  -9.618   0.524  1.00  0.00    -0.209 NA
ATOM      5  O   UNL     1      11.561  -9.768   1.417  1.00  0.00    -0.436 OA
ATOM      6  C   UNL     1      13.312 -11.853   3.952  1.00  0.00     0.063 A 
ATOM      7  C   UNL     1      12.285  -9.258   0.404  1.00  0.00     0.227 A 
ATOM      8  C   UNL     1      13.672 -10.383   1.629  1.00  0.00     0.110 A 
ATOM      9  C   UNL     1      12.394 -10.481   2.207  1.00  0.00     0.156 A 
ENDROOT
BRANCH   6  10
ATOM     10  C   UNL     1      13.130 -12.640   5.185  1.00  0.00     0.335 C 
ATOM     11  O   UNL     1      13.103 -13.853   5.133  1.00  0.00    -0.246 OA
BRANCH  10  12
ATOM     12  O   UNL     1      12.993 -12.014   6.371  1.00  0.00    -0.478 OA
ATOM     13  H   UNL     1      12.621 -12.529   7.099  1.00  0.00     0.297 HD
ENDBRANCH  10  12
ENDBRANCH   6  10
BRANCH   7  14
ATOM     14  C   UNL     1      11.747  -8.414  -0.683  1.00  0.00     0.040 A 
ATOM     15  C   UNL     1      12.322  -8.456  -1.954  1.00  0.00     0.034 A 
ATOM     16  C   UNL     1      10.660  -7.571  -0.442  1.00  0.00     0.034 A 
ATOM     17  C   UNL     1      11.814  -7.665  -2.965  1.00  0.00     0.043 A 
ATOM     18  C   UNL     1      10.160  -6.786  -1.462  1.00  0.00     0.043 A 
ATOM     19  C   UNL     1      10.736  -6.832  -2.720  1.00  0.00     0.041 A 
ATOM     20  Cl  UNL     1      12.528  -7.716  -4.547  1.00  0.00    -0.084 Cl
ATOM     21  Cl  UNL     1       8.809  -5.737  -1.165  1.00  0.00    -0.084 Cl
ENDBRANCH   7  14
TORSDOF 3
ENDMDL
MODEL 9
REMARK VINA RESULT:    -3.803      4.033      7.356
REMARK INTER + INTRA:          -4.654
REMARK INTER:                  -4.368
REMARK INTRA:                  -0.287
REMARK UNBOUND:                -0.295
REMARK SMILES O=C(O)c1ccc2nc(-c3cc(Cl)cc(Cl)c3)oc2c1
REMARK SMILES IDX 5 1 6 2 20 3 8 4 18 5 4 6 9 7 7 8 19 9 2 10 1 11 3 12 10 14
REMARK SMILES IDX 11 15 17 16 12 17 15 18 14 19 13 20 16 21
REMARK H PARENT 3 13
ROOT
ATOM      1  C   UNL     1       6.526  -5.148  -0.911  1.00  0.00     0.018 A 
ATOM      2  C   UNL     1       7.044  -6.267  -1.490  1.00  0.00     0.033 A 
ATOM      3  C   UNL     1       8.717  -4.108  -0.907  1.00  0.00     0.065 A 
ATOM      4  N   UNL     1       9.193  -7.282  -2.347  1.00  0.00    -0.209 NA
ATOM      5  O   UNL     1      10.490  -5.598  -1.885  1.00  0.00    -0.436 OA
ATOM      6  C   UNL     1       7.353  -4.055  -0.614  1.00  0.00     0.063 A 
ATOM      7  C   UNL     1      10.424  -6.839  -2.402  1.00  0.00     0.227 A 
ATOM      8  C   UNL     1       8.410  -6.334  -1.789  1.00  0.00     0.110 A 
ATOM      9  C   UNL     1       9.247  -5.244  -1.490  1.00  0.00     0.156 A 
ENDROOT
BRANCH   6  10
ATOM     10  C   UNL     1       6.781  -2.847   0.007  1.00  0.00     0.335 C 
ATOM     11  O   UNL     1       5.611  -2.828   0.333  1.00  0.00    -0.246 OA
BRANCH  10  12
ATOM     12  O   UNL     1       7.555  -1.762   0.211  1.00  0.00    -0.478 OA
ATOM     13  H   UNL     1       7.699  -1.493   1.128  1.00  0.00     0.297 HD
ENDBRANCH  10  12
ENDBRANCH   6  10
BRANCH   7  14
ATOM     14  C   UNL     1      11.571  -7.593  -2.949  1.00  0.00     0.040 A 
ATOM     15  C   UNL     1      12.295  -8.461  -2.131  1.00  0.00     0.034 A 
ATOM     16  C   UNL     1      11.937  -7.437  -4.288  1.00  0.00     0.034 A 
ATOM     17  C   UNL     1      13.365  -9.163  -2.649  1.00  0.00     0.043 A 
ATOM     18  C   UNL     1      13.009  -8.144  -4.794  1.00  0.00     0.043 A 
ATOM     19  C   UNL     1      13.722  -9.004  -3.977  1.00  0.00     0.041 A 
ATOM     20  Cl  UNL     1      14.266 -10.245  -1.633  1.00  0.00    -0.084 Cl
ATOM     21  Cl  UNL     1      13.465  -7.952  -6.459  1.00  0.00    -0.084 Cl
ENDBRANCH   7  14
TORSDOF 3
ENDMDL
