MODEL 1
REMARK VINA RESULT:    -5.423      0.000      0.000
REMARK INTER + INTRA:          -8.101
REMARK INTER:                  -7.484
REMARK INTRA:                  -0.617
REMARK UNBOUND:                -0.617
REMARK SMILES Cc1n[nH]c(C)c1CCCOc1cc(C(=O)O)ccc1F
REMARK SMILES IDX 11 1 12 2 14 3 18 4 13 5 19 6 20 7 21 8 15 9 16 10 17 11
REMARK SMILES IDX 10 13 9 14 8 15 7 16 5 17 2 18 4 19 3 20 6 21 1 22
REMARK H PARENT 17 12 4 23
ROOT
ATOM      1  O   UNL     1       9.634  -3.787  -2.029  1.00  0.00    -0.490 OA
ENDROOT
BRANCH   1   2
ATOM      2  C   UNL     1       8.283  -3.878  -2.142  1.00  0.00     0.155 A 
ATOM      3  C   UNL     1       6.334  -4.636  -3.330  1.00  0.00     0.063 A 
ATOM      4  C   UNL     1       5.519  -4.063  -2.350  1.00  0.00     0.019 A 
ATOM      5  C   UNL     1       7.722  -4.539  -3.220  1.00  0.00     0.065 A 
ATOM      6  C   UNL     1       6.087  -3.411  -1.276  1.00  0.00     0.044 A 
ATOM      7  C   UNL     1       7.464  -3.321  -1.166  1.00  0.00     0.165 A 
ATOM      8  F   UNL     1       8.015  -2.681  -0.111  1.00  0.00    -0.203 F 
BRANCH   3   9
ATOM      9  C   UNL     1       5.729  -5.335  -4.481  1.00  0.00     0.335 C 
ATOM     10  O   UNL     1       6.340  -5.426  -5.525  1.00  0.00    -0.246 OA
BRANCH   9  11
ATOM     11  O   UNL     1       4.500  -5.877  -4.369  1.00  0.00    -0.478 OA
ATOM     12  H   UNL     1       4.427  -6.697  -3.862  1.00  0.00     0.297 HD
ENDBRANCH   9  11
ENDBRANCH   3   9
ENDBRANCH   1   2
BRANCH   1  13
ATOM     13  C   UNL     1      10.256  -4.582  -1.016  1.00  0.00     0.230 C 
BRANCH  13  14
ATOM     14  C   UNL     1      11.264  -5.533  -1.663  1.00  0.00     0.046 C 
BRANCH  14  15
ATOM     15  C   UNL     1      10.661  -6.937  -1.744  1.00  0.00     0.043 C 
BRANCH  15  16
ATOM     16  C   UNL     1      11.764  -7.962  -1.706  1.00  0.00    -0.004 A 
ATOM     17  C   UNL     1      12.424  -8.463  -2.776  1.00  0.00     0.036 A 
ATOM     18  C   UNL     1      12.293  -8.559  -0.556  1.00  0.00     0.063 A 
ATOM     19  N   UNL     1      13.333  -9.351  -2.321  1.00  0.00    -0.282 N 
ATOM     20  N   UNL     1      13.229  -9.397  -0.924  1.00  0.00    -0.181 NA
ATOM     21  C   UNL     1      12.185  -8.096  -4.217  1.00  0.00     0.066 C 
ATOM     22  C   UNL     1      11.853  -8.293   0.861  1.00  0.00     0.069 C 
ATOM     23  H   UNL     1      13.949  -9.867  -2.864  1.00  0.00     0.190 HD
ENDBRANCH  15  16
ENDBRANCH  14  15
ENDBRANCH  13  14
ENDBRANCH   1  13
TORSDOF 7
ENDMDL
MODEL 2
REMARK VINA RESULT:    -5.411      2.113      3.724
REMARK INTER + INTRA:          -8.085
REMARK INTER:                  -7.410
REMARK INTRA:                  -0.674
REMARK UNBOUND:                -0.617
REMARK SMILES Cc1n[nH]c(C)c1CCCOc1cc(C(=O)O)ccc1F
REMARK SMILES IDX 11 1 12 2 14 3 18 4 13 5 19 6 20 7 21 8 15 9 16 10 17 11
REMARK SMILES IDX 10 13 9 14 8 15 7 16 5 17 2 18 4 19 3 20 6 21 1 22
REMARK H PARENT 17 12 4 23
ROOT
ATOM      1  O   UNL     1       8.128  -6.412  -3.069  1.00  0.00    -0.490 OA
ENDROOT
BRANCH   1   2
ATOM      2  C   UNL     1       7.341  -5.380  -2.665  1.00  0.00     0.155 A 
ATOM      3  C   UNL     1       6.841  -3.623  -1.102  1.00  0.00     0.063 A 
ATOM      4  C   UNL     1       5.724  -3.269  -1.863  1.00  0.00     0.019 A 
ATOM      5  C   UNL     1       7.649  -4.686  -1.510  1.00  0.00     0.065 A 
ATOM      6  C   UNL     1       5.427  -3.964  -3.017  1.00  0.00     0.044 A 
ATOM      7  C   UNL     1       6.234  -5.014  -3.423  1.00  0.00     0.165 A 
ATOM      8  F   UNL     1       5.938  -5.691  -4.554  1.00  0.00    -0.203 F 
BRANCH   3   9
ATOM      9  C   UNL     1       7.161  -2.881   0.133  1.00  0.00     0.335 C 
ATOM     10  O   UNL     1       7.276  -3.474   1.186  1.00  0.00    -0.246 OA
BRANCH   9  11
ATOM     11  O   UNL     1       7.332  -1.545   0.091  1.00  0.00    -0.478 OA
ATOM     12  H   UNL     1       6.616  -1.023  -0.297  1.00  0.00     0.297 HD
ENDBRANCH   9  11
ENDBRANCH   3   9
ENDBRANCH   1   2
BRANCH   1  13
ATOM     13  C   UNL     1       8.006  -7.642  -2.349  1.00  0.00     0.230 C 
BRANCH  13  14
ATOM     14  C   UNL     1       9.335  -8.398  -2.403  1.00  0.00     0.046 C 
BRANCH  14  15
ATOM     15  C   UNL     1      10.487  -7.423  -2.147  1.00  0.00     0.043 C 
BRANCH  15  16
ATOM     16  C   UNL     1      11.768  -8.195  -1.965  1.00  0.00    -0.004 A 
ATOM     17  C   UNL     1      12.292  -8.600  -0.785  1.00  0.00     0.036 A 
ATOM     18  C   UNL     1      12.621  -8.626  -2.986  1.00  0.00     0.063 A 
ATOM     19  N   UNL     1      13.441  -9.257  -1.049  1.00  0.00    -0.282 N 
ATOM     20  N   UNL     1      13.628  -9.256  -2.438  1.00  0.00    -0.181 NA
ATOM     21  C   UNL     1      11.700  -8.359   0.579  1.00  0.00     0.066 C 
ATOM     22  C   UNL     1      12.422  -8.393  -4.462  1.00  0.00     0.069 C 
ATOM     23  H   UNL     1      14.033  -9.658  -0.394  1.00  0.00     0.190 HD
ENDBRANCH  15  16
ENDBRANCH  14  15
ENDBRANCH  13  14
ENDBRANCH   1  13
TORSDOF 7
ENDMDL
MODEL 3
REMARK VINA RESULT:    -5.303      2.222      3.377
REMARK INTER + INTRA:          -7.935
REMARK INTER:                  -7.270
REMARK INTRA:                  -0.665
REMARK UNBOUND:                -0.617
REMARK SMILES Cc1n[nH]c(C)c1CCCOc1cc(C(=O)O)ccc1F
REMARK SMILES IDX 11 1 12 2 14 3 18 4 13 5 19 6 20 7 21 8 15 9 16 10 17 11
REMARK SMILES IDX 10 13 9 14 8 15 7 16 5 17 2 18 4 19 3 20 6 21 1 22
REMARK H PARENT 17 12 4 23
ROOT
ATOM      1  O   UNL     1       7.131  -7.288  -2.094  1.00  0.00    -0.490 OA
ENDROOT
BRANCH   1   2
ATOM      2  C   UNL     1       6.765  -5.979  -2.078  1.00  0.00     0.155 A 
ATOM      3  C   UNL     1       6.749  -3.828  -1.002  1.00  0.00     0.063 A 
ATOM      4  C   UNL     1       6.017  -3.303  -2.071  1.00  0.00     0.019 A 
ATOM      5  C   UNL     1       7.122  -5.174  -1.012  1.00  0.00     0.065 A 
ATOM      6  C   UNL     1       5.672  -4.112  -3.133  1.00  0.00     0.044 A 
ATOM      7  C   UNL     1       6.047  -5.445  -3.143  1.00  0.00     0.165 A 
ATOM      8  F   UNL     1       5.705  -6.233  -4.186  1.00  0.00    -0.203 F 
BRANCH   3   9
ATOM      9  C   UNL     1       7.121  -2.965   0.136  1.00  0.00     0.335 C 
ATOM     10  O   UNL     1       7.254  -3.444   1.243  1.00  0.00    -0.246 OA
BRANCH   9  11
ATOM     11  O   UNL     1       7.320  -1.646  -0.057  1.00  0.00    -0.478 OA
ATOM     12  H   UNL     1       6.617  -1.049   0.236  1.00  0.00     0.297 HD
ENDBRANCH   9  11
ENDBRANCH   3   9
ENDBRANCH   1   2
BRANCH   1  13
ATOM     13  C   UNL     1       8.278  -7.632  -2.875  1.00  0.00     0.230 C 
BRANCH  13  14
ATOM     14  C   UNL     1       9.347  -8.244  -1.967  1.00  0.00     0.046 C 
BRANCH  14  15
ATOM     15  C   UNL     1      10.591  -7.354  -1.972  1.00  0.00     0.043 C 
BRANCH  15  16
ATOM     16  C   UNL     1      11.824  -8.211  -1.845  1.00  0.00    -0.004 A 
ATOM     17  C   UNL     1      12.579  -8.676  -2.868  1.00  0.00     0.036 A 
ATOM     18  C   UNL     1      12.394  -8.661  -0.650  1.00  0.00     0.063 A 
ATOM     19  N   UNL     1      13.587  -9.400  -2.339  1.00  0.00    -0.282 N 
ATOM     20  N   UNL     1      13.447  -9.380  -0.945  1.00  0.00    -0.181 NA
ATOM     21  C   UNL     1      12.337  -8.428  -4.334  1.00  0.00     0.066 C 
ATOM     22  C   UNL     1      11.877  -8.378   0.738  1.00  0.00     0.069 C 
ATOM     23  H   UNL     1      14.284  -9.855  -2.835  1.00  0.00     0.190 HD
ENDBRANCH  15  16
ENDBRANCH  14  15
ENDBRANCH  13  14
ENDBRANCH   1  13
TORSDOF 7
ENDMDL
MODEL 4
REMARK VINA RESULT:    -5.147      0.551      1.854
REMARK INTER + INTRA:          -7.719
REMARK INTER:                  -7.052
REMARK INTRA:                  -0.667
REMARK UNBOUND:                -0.617
REMARK SMILES Cc1n[nH]c(C)c1CCCOc1cc(C(=O)O)ccc1F
REMARK SMILES IDX 11 1 12 2 14 3 18 4 13 5 19 6 20 7 21 8 15 9 16 10 17 11
REMARK SMILES IDX 10 13 9 14 8 15 7 16 5 17 2 18 4 19 3 20 6 21 1 22
REMARK H PARENT 17 12 4 23
ROOT
ATOM      1  O   UNL     1       9.605  -3.816  -1.812  1.00  0.00    -0.490 OA
ENDROOT
BRANCH   1   2
ATOM      2  C   UNL     1       8.252  -3.821  -1.947  1.00  0.00     0.155 A 
ATOM      3  C   UNL     1       6.282  -4.383  -3.206  1.00  0.00     0.063 A 
ATOM      4  C   UNL     1       5.486  -3.829  -2.200  1.00  0.00     0.019 A 
ATOM      5  C   UNL     1       7.672  -4.375  -3.073  1.00  0.00     0.065 A 
ATOM      6  C   UNL     1       6.073  -3.284  -1.078  1.00  0.00     0.044 A 
ATOM      7  C   UNL     1       7.452  -3.282  -0.946  1.00  0.00     0.165 A 
ATOM      8  F   UNL     1       8.021  -2.746   0.156  1.00  0.00    -0.203 F 
BRANCH   3   9
ATOM      9  C   UNL     1       5.657  -4.968  -4.409  1.00  0.00     0.335 C 
ATOM     10  O   UNL     1       5.018  -4.265  -5.165  1.00  0.00    -0.246 OA
BRANCH   9  11
ATOM     11  O   UNL     1       5.800  -6.282  -4.670  1.00  0.00    -0.478 OA
ATOM     12  H   UNL     1       6.592  -6.549  -5.157  1.00  0.00     0.297 HD
ENDBRANCH   9  11
ENDBRANCH   3   9
ENDBRANCH   1   2
BRANCH   1  13
ATOM     13  C   UNL     1      10.188  -4.901  -1.086  1.00  0.00     0.230 C 
BRANCH  13  14
ATOM     14  C   UNL     1      11.031  -5.754  -2.035  1.00  0.00     0.046 C 
BRANCH  14  15
ATOM     15  C   UNL     1      10.585  -7.215  -1.940  1.00  0.00     0.043 C 
BRANCH  15  16
ATOM     16  C   UNL     1      11.796  -8.104  -1.821  1.00  0.00    -0.004 A 
ATOM     17  C   UNL     1      12.328  -8.574  -0.669  1.00  0.00     0.036 A 
ATOM     18  C   UNL     1      12.565  -8.594  -2.882  1.00  0.00     0.063 A 
ATOM     19  N   UNL     1      13.400  -9.330  -0.989  1.00  0.00    -0.282 N 
ATOM     20  N   UNL     1      13.530  -9.323  -2.384  1.00  0.00    -0.181 NA
ATOM     21  C   UNL     1      11.816  -8.304   0.721  1.00  0.00     0.066 C 
ATOM     22  C   UNL     1      12.329  -8.319  -4.345  1.00  0.00     0.069 C 
ATOM     23  H   UNL     1      13.978  -9.794  -0.364  1.00  0.00     0.190 HD
ENDBRANCH  15  16
ENDBRANCH  14  15
ENDBRANCH  13  14
ENDBRANCH   1  13
TORSDOF 7
ENDMDL
MODEL 5
REMARK VINA RESULT:    -4.370      4.217      7.122
REMARK INTER + INTRA:          -6.647
REMARK INTER:                  -6.108
REMARK INTRA:                  -0.539
REMARK UNBOUND:                -0.617
REMARK SMILES Cc1n[nH]c(C)c1CCCOc1cc(C(=O)O)ccc1F
REMARK SMILES IDX 11 1 12 2 14 3 18 4 13 5 19 6 20 7 21 8 15 9 16 10 17 11
REMARK SMILES IDX 10 13 9 14 8 15 7 16 5 17 2 18 4 19 3 20 6 21 1 22
REMARK H PARENT 17 12 4 23
ROOT
ATOM      1  O   UNL     1       9.938  -6.804  -1.014  1.00  0.00    -0.490 OA
ENDROOT
BRANCH   1   2
ATOM      2  C   UNL     1      11.020  -7.587  -1.268  1.00  0.00     0.155 A 
ATOM      3  C   UNL     1      12.562  -8.575  -2.826  1.00  0.00     0.063 A 
ATOM      4  C   UNL     1      13.240  -9.181  -1.765  1.00  0.00     0.019 A 
ATOM      5  C   UNL     1      11.447  -7.775  -2.569  1.00  0.00     0.065 A 
ATOM      6  C   UNL     1      12.810  -8.983  -0.470  1.00  0.00     0.044 A 
ATOM      7  C   UNL     1      11.707  -8.185  -0.217  1.00  0.00     0.165 A 
ATOM      8  F   UNL     1      11.292  -7.994   1.054  1.00  0.00    -0.203 F 
BRANCH   3   9
ATOM      9  C   UNL     1      13.019  -8.785  -4.214  1.00  0.00     0.335 C 
ATOM     10  O   UNL     1      13.290  -9.903  -4.602  1.00  0.00    -0.246 OA
BRANCH   9  11
ATOM     11  O   UNL     1      13.129  -7.736  -5.052  1.00  0.00    -0.478 OA
ATOM     12  H   UNL     1      13.435  -7.922  -5.951  1.00  0.00     0.297 HD
ENDBRANCH   9  11
ENDBRANCH   3   9
ENDBRANCH   1   2
BRANCH   1  13
ATOM     13  C   UNL     1       9.926  -5.502  -1.604  1.00  0.00     0.230 C 
BRANCH  13  14
ATOM     14  C   UNL     1       8.822  -5.431  -2.660  1.00  0.00     0.046 C 
BRANCH  14  15
ATOM     15  C   UNL     1       7.476  -5.771  -2.015  1.00  0.00     0.043 C 
BRANCH  15  16
ATOM     16  C   UNL     1       6.504  -4.646  -2.259  1.00  0.00    -0.004 A 
ATOM     17  C   UNL     1       5.682  -4.521  -3.327  1.00  0.00     0.036 A 
ATOM     18  C   UNL     1       6.286  -3.549  -1.419  1.00  0.00     0.063 A 
ATOM     19  N   UNL     1       4.974  -3.383  -3.171  1.00  0.00    -0.282 N 
ATOM     20  N   UNL     1       5.375  -2.788  -1.967  1.00  0.00    -0.181 NA
ATOM     21  C   UNL     1       5.576  -5.482  -4.483  1.00  0.00     0.066 C 
ATOM     22  C   UNL     1       6.990  -3.284  -0.112  1.00  0.00     0.069 C 
ATOM     23  H   UNL     1       4.307  -3.037  -3.784  1.00  0.00     0.190 HD
ENDBRANCH  15  16
ENDBRANCH  14  15
ENDBRANCH  13  14
ENDBRANCH   1  13
TORSDOF 7
ENDMDL
MODEL 6
REMARK VINA RESULT:    -4.367      4.213      7.288
REMARK INTER + INTRA:          -6.643
REMARK INTER:                  -6.126
REMARK INTRA:                  -0.517
REMARK UNBOUND:                -0.617
REMARK SMILES Cc1n[nH]c(C)c1CCCOc1cc(C(=O)O)ccc1F
REMARK SMILES IDX 11 1 12 2 14 3 18 4 13 5 19 6 20 7 21 8 15 9 16 10 17 11
REMARK SMILES IDX 10 13 9 14 8 15 7 16 5 17 2 18 4 19 3 20 6 21 1 22
REMARK H PARENT 17 12 4 23
ROOT
ATOM      1  O   UNL     1       9.958  -6.767  -0.978  1.00  0.00    -0.490 OA
ENDROOT
BRANCH   1   2
ATOM      2  C   UNL     1      11.028  -7.558  -1.253  1.00  0.00     0.155 A 
ATOM      3  C   UNL     1      12.533  -8.559  -2.840  1.00  0.00     0.063 A 
ATOM      4  C   UNL     1      13.225  -9.172  -1.792  1.00  0.00     0.019 A 
ATOM      5  C   UNL     1      11.429  -7.749  -2.562  1.00  0.00     0.065 A 
ATOM      6  C   UNL     1      12.821  -8.971  -0.489  1.00  0.00     0.044 A 
ATOM      7  C   UNL     1      11.729  -8.163  -0.215  1.00  0.00     0.165 A 
ATOM      8  F   UNL     1      11.338  -7.971   1.064  1.00  0.00    -0.203 F 
BRANCH   3   9
ATOM      9  C   UNL     1      12.963  -8.771  -4.236  1.00  0.00     0.335 C 
ATOM     10  O   UNL     1      13.341  -9.867  -4.595  1.00  0.00    -0.246 OA
BRANCH   9  11
ATOM     11  O   UNL     1      12.929  -7.749  -5.113  1.00  0.00    -0.478 OA
ATOM     12  H   UNL     1      12.642  -7.953  -6.015  1.00  0.00     0.297 HD
ENDBRANCH   9  11
ENDBRANCH   3   9
ENDBRANCH   1   2
BRANCH   1  13
ATOM     13  C   UNL     1       9.926  -5.480  -1.601  1.00  0.00     0.230 C 
BRANCH  13  14
ATOM     14  C   UNL     1       8.805  -5.445  -2.641  1.00  0.00     0.046 C 
BRANCH  14  15
ATOM     15  C   UNL     1       7.468  -5.746  -1.960  1.00  0.00     0.043 C 
BRANCH  15  16
ATOM     16  C   UNL     1       6.504  -4.618  -2.224  1.00  0.00    -0.004 A 
ATOM     17  C   UNL     1       6.295  -3.546  -1.425  1.00  0.00     0.036 A 
ATOM     18  C   UNL     1       5.672  -4.490  -3.341  1.00  0.00     0.063 A 
ATOM     19  N   UNL     1       5.359  -2.771  -2.012  1.00  0.00    -0.282 N 
ATOM     20  N   UNL     1       4.980  -3.387  -3.212  1.00  0.00    -0.181 NA
ATOM     21  C   UNL     1       6.984  -3.267  -0.115  1.00  0.00     0.066 C 
ATOM     22  C   UNL     1       5.579  -5.462  -4.489  1.00  0.00     0.069 C 
ATOM     23  H   UNL     1       5.010  -1.936  -1.665  1.00  0.00     0.190 HD
ENDBRANCH  15  16
ENDBRANCH  14  15
ENDBRANCH  13  14
ENDBRANCH   1  13
TORSDOF 7
ENDMDL
MODEL 7
REMARK VINA RESULT:    -4.356      4.883      7.968
REMARK INTER + INTRA:          -6.628
REMARK INTER:                  -5.939
REMARK INTRA:                  -0.689
REMARK UNBOUND:                -0.617
REMARK SMILES Cc1n[nH]c(C)c1CCCOc1cc(C(=O)O)ccc1F
REMARK SMILES IDX 11 1 12 2 14 3 18 4 13 5 19 6 20 7 21 8 15 9 16 10 17 11
REMARK SMILES IDX 10 13 9 14 8 15 7 16 5 17 2 18 4 19 3 20 6 21 1 22
REMARK H PARENT 17 12 4 23
ROOT
ATOM      1  O   UNL     1      11.632  -8.193  -3.397  1.00  0.00    -0.490 OA
ENDROOT
BRANCH   1   2
ATOM      2  C   UNL     1      12.782  -8.610  -3.990  1.00  0.00     0.155 A 
ATOM      3  C   UNL     1      14.622 -10.153  -4.122  1.00  0.00     0.063 A 
ATOM      4  C   UNL     1      15.125  -9.453  -5.223  1.00  0.00     0.019 A 
ATOM      5  C   UNL     1      13.444  -9.724  -3.507  1.00  0.00     0.065 A 
ATOM      6  C   UNL     1      14.454  -8.347  -5.701  1.00  0.00     0.044 A 
ATOM      7  C   UNL     1      13.283  -7.927  -5.093  1.00  0.00     0.165 A 
ATOM      8  F   UNL     1      12.631  -6.842  -5.566  1.00  0.00    -0.203 F 
BRANCH   3   9
ATOM      9  C   UNL     1      15.337 -11.337  -3.608  1.00  0.00     0.335 C 
ATOM     10  O   UNL     1      16.360 -11.710  -4.145  1.00  0.00    -0.246 OA
BRANCH   9  11
ATOM     11  O   UNL     1      14.858 -12.001  -2.538  1.00  0.00    -0.478 OA
ATOM     12  H   UNL     1      13.931 -11.849  -2.306  1.00  0.00     0.297 HD
ENDBRANCH   9  11
ENDBRANCH   3   9
ENDBRANCH   1   2
BRANCH   1  13
ATOM     13  C   UNL     1      11.717  -7.796  -2.026  1.00  0.00     0.230 C 
BRANCH  13  14
ATOM     14  C   UNL     1      10.351  -7.289  -1.558  1.00  0.00     0.046 C 
BRANCH  14  15
ATOM     15  C   UNL     1       9.722  -6.428  -2.655  1.00  0.00     0.043 C 
BRANCH  15  16
ATOM     16  C   UNL     1       8.528  -5.698  -2.100  1.00  0.00    -0.004 A 
ATOM     17  C   UNL     1       8.525  -4.441  -1.597  1.00  0.00     0.036 A 
ATOM     18  C   UNL     1       7.223  -6.196  -2.017  1.00  0.00     0.063 A 
ATOM     19  N   UNL     1       7.266  -4.157  -1.205  1.00  0.00    -0.282 N 
ATOM     20  N   UNL     1       6.467  -5.277  -1.475  1.00  0.00    -0.181 NA
ATOM     21  C   UNL     1       9.716  -3.524  -1.495  1.00  0.00     0.066 C 
ATOM     22  C   UNL     1       6.769  -7.563  -2.464  1.00  0.00     0.069 C 
ATOM     23  H   UNL     1       6.966  -3.326  -0.806  1.00  0.00     0.190 HD
ENDBRANCH  15  16
ENDBRANCH  14  15
ENDBRANCH  13  14
ENDBRANCH   1  13
TORSDOF 7
ENDMDL
MODEL 8
REMARK VINA RESULT:    -4.346      4.366      7.698
REMARK INTER + INTRA:          -6.614
REMARK INTER:                  -6.210
REMARK INTRA:                  -0.405
REMARK UNBOUND:                -0.617
REMARK SMILES Cc1n[nH]c(C)c1CCCOc1cc(C(=O)O)ccc1F
REMARK SMILES IDX 11 1 12 2 14 3 18 4 13 5 19 6 20 7 21 8 15 9 16 10 17 11
REMARK SMILES IDX 10 13 9 14 8 15 7 16 5 17 2 18 4 19 3 20 6 21 1 22
REMARK H PARENT 17 12 4 23
ROOT
ATOM      1  O   UNL     1       9.930  -6.924  -2.946  1.00  0.00    -0.490 OA
ENDROOT
BRANCH   1   2
ATOM      2  C   UNL     1      10.986  -7.631  -2.464  1.00  0.00     0.155 A 
ATOM      3  C   UNL     1      12.215  -8.546  -0.611  1.00  0.00     0.063 A 
ATOM      4  C   UNL     1      13.147  -9.087  -1.501  1.00  0.00     0.019 A 
ATOM      5  C   UNL     1      11.131  -7.815  -1.102  1.00  0.00     0.065 A 
ATOM      6  C   UNL     1      12.991  -8.902  -2.859  1.00  0.00     0.044 A 
ATOM      7  C   UNL     1      11.912  -8.181  -3.343  1.00  0.00     0.165 A 
ATOM      8  F   UNL     1      11.765  -8.004  -4.675  1.00  0.00    -0.203 F 
BRANCH   3   9
ATOM      9  C   UNL     1      12.379  -8.742   0.843  1.00  0.00     0.335 C 
ATOM     10  O   UNL     1      11.503  -8.390   1.606  1.00  0.00    -0.246 OA
BRANCH   9  11
ATOM     11  O   UNL     1      13.498  -9.318   1.322  1.00  0.00    -0.478 OA
ATOM     12  H   UNL     1      13.560 -10.281   1.257  1.00  0.00     0.297 HD
ENDBRANCH   9  11
ENDBRANCH   3   9
ENDBRANCH   1   2
BRANCH   1  13
ATOM     13  C   UNL     1       8.659  -7.160  -2.335  1.00  0.00     0.230 C 
BRANCH  13  14
ATOM     14  C   UNL     1       8.330  -6.009  -1.382  1.00  0.00     0.046 C 
BRANCH  14  15
ATOM     15  C   UNL     1       8.304  -4.693  -2.162  1.00  0.00     0.043 C 
BRANCH  15  16
ATOM     16  C   UNL     1       6.926  -4.089  -2.082  1.00  0.00    -0.004 A 
ATOM     17  C   UNL     1       6.468  -3.275  -1.102  1.00  0.00     0.036 A 
ATOM     18  C   UNL     1       5.895  -4.265  -3.012  1.00  0.00     0.063 A 
ATOM     19  N   UNL     1       5.191  -2.953  -1.398  1.00  0.00    -0.282 N 
ATOM     20  N   UNL     1       4.853  -3.590  -2.599  1.00  0.00    -0.181 NA
ATOM     21  C   UNL     1       7.245  -2.812   0.102  1.00  0.00     0.066 C 
ATOM     22  C   UNL     1       5.968  -5.098  -4.266  1.00  0.00     0.069 C 
ATOM     23  H   UNL     1       4.610  -2.382  -0.871  1.00  0.00     0.190 HD
ENDBRANCH  15  16
ENDBRANCH  14  15
ENDBRANCH  13  14
ENDBRANCH   1  13
TORSDOF 7
ENDMDL
MODEL 9
REMARK VINA RESULT:    -4.309      4.390      7.547
REMARK INTER + INTRA:          -6.564
REMARK INTER:                  -5.959
REMARK INTRA:                  -0.605
REMARK UNBOUND:                -0.617
REMARK SMILES Cc1n[nH]c(C)c1CCCOc1cc(C(=O)O)ccc1F
REMARK SMILES IDX 11 1 12 2 14 3 18 4 13 5 19 6 20 7 21 8 15 9 16 10 17 11
REMARK SMILES IDX 10 13 9 14 8 15 7 16 5 17 2 18 4 19 3 20 6 21 1 22
REMARK H PARENT 17 12 4 23
ROOT
ATOM      1  O   UNL     1       9.917  -6.903  -2.794  1.00  0.00    -0.490 OA
ENDROOT
BRANCH   1   2
ATOM      2  C   UNL     1      10.985  -7.622  -2.359  1.00  0.00     0.155 A 
ATOM      3  C   UNL     1      12.264  -8.581  -0.562  1.00  0.00     0.063 A 
ATOM      4  C   UNL     1      13.170  -9.101  -1.490  1.00  0.00     0.019 A 
ATOM      5  C   UNL     1      11.167  -7.838  -1.006  1.00  0.00     0.065 A 
ATOM      6  C   UNL     1      12.977  -8.885  -2.838  1.00  0.00     0.044 A 
ATOM      7  C   UNL     1      11.886  -8.152  -3.276  1.00  0.00     0.165 A 
ATOM      8  F   UNL     1      11.702  -7.944  -4.598  1.00  0.00    -0.203 F 
BRANCH   3   9
ATOM      9  C   UNL     1      12.467  -8.811   0.881  1.00  0.00     0.335 C 
ATOM     10  O   UNL     1      13.592  -8.906   1.329  1.00  0.00    -0.246 OA
BRANCH   9  11
ATOM     11  O   UNL     1      11.404  -8.910   1.704  1.00  0.00    -0.478 OA
ATOM     12  H   UNL     1      11.582  -9.151   2.624  1.00  0.00     0.297 HD
ENDBRANCH   9  11
ENDBRANCH   3   9
ENDBRANCH   1   2
BRANCH   1  13
ATOM     13  C   UNL     1       8.620  -7.390  -2.441  1.00  0.00     0.230 C 
BRANCH  13  14
ATOM     14  C   UNL     1       7.903  -6.351  -1.577  1.00  0.00     0.046 C 
BRANCH  14  15
ATOM     15  C   UNL     1       8.108  -4.959  -2.179  1.00  0.00     0.043 C 
BRANCH  15  16
ATOM     16  C   UNL     1       6.810  -4.195  -2.133  1.00  0.00    -0.004 A 
ATOM     17  C   UNL     1       5.816  -4.259  -3.049  1.00  0.00     0.036 A 
ATOM     18  C   UNL     1       6.417  -3.300  -1.133  1.00  0.00     0.063 A 
ATOM     19  N   UNL     1       4.832  -3.428  -2.647  1.00  0.00    -0.282 N 
ATOM     20  N   UNL     1       5.234  -2.834  -1.443  1.00  0.00    -0.181 NA
ATOM     21  C   UNL     1       5.810  -5.106  -4.295  1.00  0.00     0.066 C 
ATOM     22  C   UNL     1       7.222  -2.926   0.085  1.00  0.00     0.069 C 
ATOM     23  H   UNL     1       3.994  -3.269  -3.109  1.00  0.00     0.190 HD
ENDBRANCH  15  16
ENDBRANCH  14  15
ENDBRANCH  13  14
ENDBRANCH   1  13
TORSDOF 7
ENDMDL
