MODEL 1
REMARK VINA RESULT:    -4.396      0.000      0.000
REMARK INTER + INTRA:          -5.320
REMARK INTER:                  -5.038
REMARK INTRA:                  -0.282
REMARK UNBOUND:                -0.282
REMARK SMILES O=C(O)c1ccc2nc(-c3cc(Cl)cc(Cl)c3)oc2c1
REMARK SMILES IDX 5 1 6 2 20 3 8 4 18 5 4 6 9 7 7 8 19 9 2 10 1 11 3 12 10 14
REMARK SMILES IDX 11 15 17 16 12 17 15 18 14 19 13 20 16 21
REMARK H PARENT 3 13
ROOT
ATOM      1  C   UNL     1       4.433  -7.095  15.711  1.00  0.00     0.018 A 
ATOM      2  C   UNL     1       4.241  -5.746  15.691  1.00  0.00     0.033 A 
ATOM      3  C   UNL     1       4.862  -7.093  13.324  1.00  0.00     0.065 A 
ATOM      4  N   UNL     1       4.222  -3.736  14.160  1.00  0.00    -0.209 NA
ATOM      5  O   UNL     1       4.701  -4.793  12.320  1.00  0.00    -0.436 OA
ATOM      6  C   UNL     1       4.748  -7.784  14.531  1.00  0.00     0.063 A 
ATOM      7  C   UNL     1       4.430  -3.597  12.874  1.00  0.00     0.227 A 
ATOM      8  C   UNL     1       4.353  -5.040  14.487  1.00  0.00     0.110 A 
ATOM      9  C   UNL     1       4.663  -5.725  13.299  1.00  0.00     0.156 A 
ENDROOT
BRANCH   6  10
ATOM     10  C   UNL     1       4.959  -9.243  14.566  1.00  0.00     0.335 C 
ATOM     11  O   UNL     1       6.039  -9.692  14.895  1.00  0.00    -0.246 OA
BRANCH  10  12
ATOM     12  O   UNL     1       3.956 -10.078  14.232  1.00  0.00    -0.478 OA
ATOM     13  H   UNL     1       3.598 -10.638  14.934  1.00  0.00     0.297 HD
ENDBRANCH  10  12
ENDBRANCH   6  10
BRANCH   7  14
ATOM     14  C   UNL     1       4.375  -2.315  12.141  1.00  0.00     0.040 A 
ATOM     15  C   UNL     1       3.789  -2.256  10.876  1.00  0.00     0.034 A 
ATOM     16  C   UNL     1       4.909  -1.158  12.712  1.00  0.00     0.034 A 
ATOM     17  C   UNL     1       3.739  -1.054  10.197  1.00  0.00     0.043 A 
ATOM     18  C   UNL     1       4.854   0.037  12.023  1.00  0.00     0.043 A 
ATOM     19  C   UNL     1       4.271   0.089  10.768  1.00  0.00     0.041 A 
ATOM     20  Cl  UNL     1       3.010  -0.978   8.623  1.00  0.00    -0.084 Cl
ATOM     21  Cl  UNL     1       5.517   1.477  12.731  1.00  0.00    -0.084 Cl
ENDBRANCH   7  14
TORSDOF 3
ENDMDL
MODEL 2
REMARK VINA RESULT:    -4.391      0.020      2.020
REMARK INTER + INTRA:          -5.315
REMARK INTER:                  -5.033
REMARK INTRA:                  -0.283
REMARK UNBOUND:                -0.282
REMARK SMILES O=C(O)c1ccc2nc(-c3cc(Cl)cc(Cl)c3)oc2c1
REMARK SMILES IDX 5 1 6 2 20 3 8 4 18 5 4 6 9 7 7 8 19 9 2 10 1 11 3 12 10 14
REMARK SMILES IDX 11 15 17 16 12 17 15 18 14 19 13 20 16 21
REMARK H PARENT 3 13
ROOT
ATOM      1  C   UNL     1       4.454  -7.090  15.714  1.00  0.00     0.018 A 
ATOM      2  C   UNL     1       4.268  -5.741  15.695  1.00  0.00     0.033 A 
ATOM      3  C   UNL     1       4.852  -7.093  13.322  1.00  0.00     0.065 A 
ATOM      4  N   UNL     1       4.240  -3.733  14.163  1.00  0.00    -0.209 NA
ATOM      5  O   UNL     1       4.690  -4.794  12.318  1.00  0.00    -0.436 OA
ATOM      6  C   UNL     1       4.750  -7.783  14.532  1.00  0.00     0.063 A 
ATOM      7  C   UNL     1       4.432  -3.596  12.874  1.00  0.00     0.227 A 
ATOM      8  C   UNL     1       4.369  -5.036  14.489  1.00  0.00     0.110 A 
ATOM      9  C   UNL     1       4.660  -5.724  13.298  1.00  0.00     0.156 A 
ENDROOT
BRANCH   6  10
ATOM     10  C   UNL     1       4.955  -9.242  14.566  1.00  0.00     0.335 C 
ATOM     11  O   UNL     1       6.018  -9.698  14.937  1.00  0.00    -0.246 OA
BRANCH  10  12
ATOM     12  O   UNL     1       3.963 -10.071  14.183  1.00  0.00    -0.478 OA
ATOM     13  H   UNL     1       3.154  -9.663  13.847  1.00  0.00     0.297 HD
ENDBRANCH  10  12
ENDBRANCH   6  10
BRANCH   7  14
ATOM     14  C   UNL     1       4.374  -2.315  12.140  1.00  0.00     0.040 A 
ATOM     15  C   UNL     1       4.899  -1.155  12.711  1.00  0.00     0.034 A 
ATOM     16  C   UNL     1       3.791  -2.260  10.872  1.00  0.00     0.034 A 
ATOM     17  C   UNL     1       4.842   0.039  12.020  1.00  0.00     0.043 A 
ATOM     18  C   UNL     1       3.740  -1.060  10.191  1.00  0.00     0.043 A 
ATOM     19  C   UNL     1       4.263   0.087  10.763  1.00  0.00     0.041 A 
ATOM     20  Cl  UNL     1       5.495   1.483  12.728  1.00  0.00    -0.084 Cl
ATOM     21  Cl  UNL     1       3.017  -0.990   8.614  1.00  0.00    -0.084 Cl
ENDBRANCH   7  14
TORSDOF 3
ENDMDL
MODEL 3
REMARK VINA RESULT:    -4.386      5.480      8.266
REMARK INTER + INTRA:          -5.309
REMARK INTER:                  -5.027
REMARK INTRA:                  -0.282
REMARK UNBOUND:                -0.282
REMARK SMILES O=C(O)c1ccc2nc(-c3cc(Cl)cc(Cl)c3)oc2c1
REMARK SMILES IDX 5 1 6 2 20 3 8 4 18 5 4 6 9 7 7 8 19 9 2 10 1 11 3 12 10 14
REMARK SMILES IDX 11 15 17 16 12 17 15 18 14 19 13 20 16 21
REMARK H PARENT 3 13
ROOT
ATOM      1  C   UNL     1       7.303   2.276  17.514  1.00  0.00     0.018 A 
ATOM      2  C   UNL     1       7.283   1.135  16.770  1.00  0.00     0.033 A 
ATOM      3  C   UNL     1       5.765   3.338  15.969  1.00  0.00     0.065 A 
ATOM      4  N   UNL     1       6.288   0.103  14.690  1.00  0.00    -0.209 NA
ATOM      5  O   UNL     1       5.111   1.825  14.070  1.00  0.00    -0.436 OA
ATOM      6  C   UNL     1       6.545   3.390  17.126  1.00  0.00     0.063 A 
ATOM      7  C   UNL     1       5.460   0.558  13.781  1.00  0.00     0.227 A 
ATOM      8  C   UNL     1       6.505   1.069  15.608  1.00  0.00     0.110 A 
ATOM      9  C   UNL     1       5.745   2.183  15.209  1.00  0.00     0.156 A 
ENDROOT
BRANCH   6  10
ATOM     10  C   UNL     1       6.570   4.617  17.941  1.00  0.00     0.335 C 
ATOM     11  O   UNL     1       5.879   4.698  18.938  1.00  0.00    -0.246 OA
BRANCH  10  12
ATOM     12  O   UNL     1       7.358   5.650  17.582  1.00  0.00    -0.478 OA
ATOM     13  H   UNL     1       7.483   6.354  18.232  1.00  0.00     0.297 HD
ENDBRANCH  10  12
ENDBRANCH   6  10
BRANCH   7  14
ATOM     14  C   UNL     1       4.982  -0.209  12.612  1.00  0.00     0.040 A 
ATOM     15  C   UNL     1       4.619  -1.549  12.753  1.00  0.00     0.034 A 
ATOM     16  C   UNL     1       4.892   0.405  11.361  1.00  0.00     0.034 A 
ATOM     17  C   UNL     1       4.172  -2.259  11.656  1.00  0.00     0.043 A 
ATOM     18  C   UNL     1       4.443  -0.315  10.273  1.00  0.00     0.043 A 
ATOM     19  C   UNL     1       4.085  -1.644  10.419  1.00  0.00     0.041 A 
ATOM     20  Cl  UNL     1       3.720  -3.926  11.829  1.00  0.00    -0.084 Cl
ATOM     21  Cl  UNL     1       4.331   0.447   8.716  1.00  0.00    -0.084 Cl
ENDBRANCH   7  14
TORSDOF 3
ENDMDL
MODEL 4
REMARK VINA RESULT:    -4.377      5.496      8.274
REMARK INTER + INTRA:          -5.299
REMARK INTER:                  -5.017
REMARK INTRA:                  -0.282
REMARK UNBOUND:                -0.282
REMARK SMILES O=C(O)c1ccc2nc(-c3cc(Cl)cc(Cl)c3)oc2c1
REMARK SMILES IDX 5 1 6 2 20 3 8 4 18 5 4 6 9 7 7 8 19 9 2 10 1 11 3 12 10 14
REMARK SMILES IDX 11 15 17 16 12 17 15 18 14 19 13 20 16 21
REMARK H PARENT 3 13
ROOT
ATOM      1  C   UNL     1       7.309   2.290  17.534  1.00  0.00     0.018 A 
ATOM      2  C   UNL     1       7.288   1.147  16.792  1.00  0.00     0.033 A 
ATOM      3  C   UNL     1       5.775   3.353  15.986  1.00  0.00     0.065 A 
ATOM      4  N   UNL     1       6.295   0.116  14.710  1.00  0.00    -0.209 NA
ATOM      5  O   UNL     1       5.123   1.840  14.087  1.00  0.00    -0.436 OA
ATOM      6  C   UNL     1       6.553   3.404  17.144  1.00  0.00     0.063 A 
ATOM      7  C   UNL     1       5.470   0.571  13.800  1.00  0.00     0.227 A 
ATOM      8  C   UNL     1       6.512   1.082  15.628  1.00  0.00     0.110 A 
ATOM      9  C   UNL     1       5.755   2.197  15.227  1.00  0.00     0.156 A 
ENDROOT
BRANCH   6  10
ATOM     10  C   UNL     1       6.579   4.632  17.959  1.00  0.00     0.335 C 
ATOM     11  O   UNL     1       5.901   4.708  18.964  1.00  0.00    -0.246 OA
BRANCH  10  12
ATOM     12  O   UNL     1       7.353   5.671  17.589  1.00  0.00    -0.478 OA
ATOM     13  H   UNL     1       8.080   5.909  18.179  1.00  0.00     0.297 HD
ENDBRANCH  10  12
ENDBRANCH   6  10
BRANCH   7  14
ATOM     14  C   UNL     1       4.993  -0.195  12.630  1.00  0.00     0.040 A 
ATOM     15  C   UNL     1       4.892   0.420  11.382  1.00  0.00     0.034 A 
ATOM     16  C   UNL     1       4.639  -1.539  12.771  1.00  0.00     0.034 A 
ATOM     17  C   UNL     1       4.446  -0.302  10.293  1.00  0.00     0.043 A 
ATOM     18  C   UNL     1       4.194  -2.250  11.674  1.00  0.00     0.043 A 
ATOM     19  C   UNL     1       4.097  -1.634  10.439  1.00  0.00     0.041 A 
ATOM     20  Cl  UNL     1       4.322   0.461   8.739  1.00  0.00    -0.084 Cl
ATOM     21  Cl  UNL     1       3.754  -3.921  11.846  1.00  0.00    -0.084 Cl
ENDBRANCH   7  14
TORSDOF 3
ENDMDL
MODEL 5
REMARK VINA RESULT:    -3.995      3.849      7.601
REMARK INTER + INTRA:          -4.862
REMARK INTER:                  -4.582
REMARK INTRA:                  -0.280
REMARK UNBOUND:                -0.282
REMARK SMILES O=C(O)c1ccc2nc(-c3cc(Cl)cc(Cl)c3)oc2c1
REMARK SMILES IDX 5 1 6 2 20 3 8 4 18 5 4 6 9 7 7 8 19 9 2 10 1 11 3 12 10 14
REMARK SMILES IDX 11 15 17 16 12 17 15 18 14 19 13 20 16 21
REMARK H PARENT 3 13
ROOT
ATOM      1  C   UNL     1       4.719   0.177  11.247  1.00  0.00     0.018 A 
ATOM      2  C   UNL     1       5.060  -0.437  12.415  1.00  0.00     0.033 A 
ATOM      3  C   UNL     1       3.482  -1.788  10.547  1.00  0.00     0.065 A 
ATOM      4  N   UNL     1       4.793  -2.588  13.712  1.00  0.00    -0.209 NA
ATOM      5  O   UNL     1       3.569  -3.636  12.250  1.00  0.00    -0.436 OA
ATOM      6  C   UNL     1       3.926  -0.488  10.301  1.00  0.00     0.063 A 
ATOM      7  C   UNL     1       4.166  -3.709  13.455  1.00  0.00     0.227 A 
ATOM      8  C   UNL     1       4.622  -1.741  12.674  1.00  0.00     0.110 A 
ATOM      9  C   UNL     1       3.831  -2.417  11.729  1.00  0.00     0.156 A 
ENDROOT
BRANCH   6  10
ATOM     10  C   UNL     1       3.558   0.189   9.044  1.00  0.00     0.335 C 
ATOM     11  O   UNL     1       4.417   0.473   8.233  1.00  0.00    -0.246 OA
BRANCH  10  12
ATOM     12  O   UNL     1       2.269   0.493   8.794  1.00  0.00    -0.478 OA
ATOM     13  H   UNL     1       2.008   1.418   8.894  1.00  0.00     0.297 HD
ENDBRANCH  10  12
ENDBRANCH   6  10
BRANCH   7  14
ATOM     14  C   UNL     1       4.122  -4.880  14.354  1.00  0.00     0.040 A 
ATOM     15  C   UNL     1       3.515  -4.780  15.607  1.00  0.00     0.034 A 
ATOM     16  C   UNL     1       4.688  -6.092  13.954  1.00  0.00     0.034 A 
ATOM     17  C   UNL     1       3.476  -5.879  16.442  1.00  0.00     0.043 A 
ATOM     18  C   UNL     1       4.643  -7.184  14.798  1.00  0.00     0.043 A 
ATOM     19  C   UNL     1       4.039  -7.078  16.039  1.00  0.00     0.041 A 
ATOM     20  Cl  UNL     1       2.721  -5.757  18.000  1.00  0.00    -0.084 Cl
ATOM     21  Cl  UNL     1       5.346  -8.692  14.302  1.00  0.00    -0.084 Cl
ENDBRANCH   7  14
TORSDOF 3
ENDMDL
MODEL 6
REMARK VINA RESULT:    -3.995      5.733      7.467
REMARK INTER + INTRA:          -4.861
REMARK INTER:                  -4.581
REMARK INTRA:                  -0.280
REMARK UNBOUND:                -0.282
REMARK SMILES O=C(O)c1ccc2nc(-c3cc(Cl)cc(Cl)c3)oc2c1
REMARK SMILES IDX 5 1 6 2 20 3 8 4 18 5 4 6 9 7 7 8 19 9 2 10 1 11 3 12 10 14
REMARK SMILES IDX 11 15 17 16 12 17 15 18 14 19 13 20 16 21
REMARK H PARENT 3 13
ROOT
ATOM      1  C   UNL     1       3.847  -1.984  10.791  1.00  0.00     0.018 A 
ATOM      2  C   UNL     1       4.197  -2.053  12.106  1.00  0.00     0.033 A 
ATOM      3  C   UNL     1       4.845   0.220  10.617  1.00  0.00     0.065 A 
ATOM      4  N   UNL     1       5.344  -0.771  13.956  1.00  0.00    -0.209 NA
ATOM      5  O   UNL     1       5.840   0.998  12.791  1.00  0.00    -0.436 OA
ATOM      6  C   UNL     1       4.167  -0.850  10.030  1.00  0.00     0.063 A 
ATOM      7  C   UNL     1       5.914   0.408  13.998  1.00  0.00     0.227 A 
ATOM      8  C   UNL     1       4.878  -0.987  12.707  1.00  0.00     0.110 A 
ATOM      9  C   UNL     1       5.198   0.155  11.953  1.00  0.00     0.156 A 
ENDROOT
BRANCH   6  10
ATOM     10  C   UNL     1       3.788  -0.789   8.607  1.00  0.00     0.335 C 
ATOM     11  O   UNL     1       2.615  -0.768   8.291  1.00  0.00    -0.246 OA
BRANCH  10  12
ATOM     12  O   UNL     1       4.742  -0.757   7.656  1.00  0.00    -0.478 OA
ATOM     13  H   UNL     1       4.569  -0.211   6.878  1.00  0.00     0.297 HD
ENDBRANCH  10  12
ENDBRANCH   6  10
BRANCH   7  14
ATOM     14  C   UNL     1       6.544   1.001  15.196  1.00  0.00     0.040 A 
ATOM     15  C   UNL     1       7.670   0.404  15.765  1.00  0.00     0.034 A 
ATOM     16  C   UNL     1       6.015   2.162  15.763  1.00  0.00     0.034 A 
ATOM     17  C   UNL     1       8.254   0.964  16.884  1.00  0.00     0.043 A 
ATOM     18  C   UNL     1       6.608   2.713  16.882  1.00  0.00     0.043 A 
ATOM     19  C   UNL     1       7.724   2.115  17.441  1.00  0.00     0.041 A 
ATOM     20  Cl  UNL     1       9.655   0.223  17.593  1.00  0.00    -0.084 Cl
ATOM     21  Cl  UNL     1       5.951   4.157  17.589  1.00  0.00    -0.084 Cl
ENDBRANCH   7  14
TORSDOF 3
ENDMDL
MODEL 7
REMARK VINA RESULT:    -3.994      3.848      7.455
REMARK INTER + INTRA:          -4.860
REMARK INTER:                  -4.580
REMARK INTRA:                  -0.280
REMARK UNBOUND:                -0.282
REMARK SMILES O=C(O)c1ccc2nc(-c3cc(Cl)cc(Cl)c3)oc2c1
REMARK SMILES IDX 5 1 6 2 20 3 8 4 18 5 4 6 9 7 7 8 19 9 2 10 1 11 3 12 10 14
REMARK SMILES IDX 11 15 17 16 12 17 15 18 14 19 13 20 16 21
REMARK H PARENT 3 13
ROOT
ATOM      1  C   UNL     1       4.716   0.179  11.246  1.00  0.00     0.018 A 
ATOM      2  C   UNL     1       5.063  -0.437  12.411  1.00  0.00     0.033 A 
ATOM      3  C   UNL     1       3.470  -1.782  10.553  1.00  0.00     0.065 A 
ATOM      4  N   UNL     1       4.799  -2.588  13.709  1.00  0.00    -0.209 NA
ATOM      5  O   UNL     1       3.562  -3.631  12.254  1.00  0.00    -0.436 OA
ATOM      6  C   UNL     1       3.915  -0.483  10.305  1.00  0.00     0.063 A 
ATOM      7  C   UNL     1       4.167  -3.707  13.454  1.00  0.00     0.227 A 
ATOM      8  C   UNL     1       4.623  -1.740  12.673  1.00  0.00     0.110 A 
ATOM      9  C   UNL     1       3.824  -2.412  11.731  1.00  0.00     0.156 A 
ENDROOT
BRANCH   6  10
ATOM     10  C   UNL     1       3.541   0.196   9.051  1.00  0.00     0.335 C 
ATOM     11  O   UNL     1       4.397   0.489   8.240  1.00  0.00    -0.246 OA
BRANCH  10  12
ATOM     12  O   UNL     1       2.250   0.492   8.803  1.00  0.00    -0.478 OA
ATOM     13  H   UNL     1       1.918   0.304   7.915  1.00  0.00     0.297 HD
ENDBRANCH  10  12
ENDBRANCH   6  10
BRANCH   7  14
ATOM     14  C   UNL     1       4.125  -4.879  14.353  1.00  0.00     0.040 A 
ATOM     15  C   UNL     1       4.685  -6.092  13.950  1.00  0.00     0.034 A 
ATOM     16  C   UNL     1       3.524  -4.777  15.609  1.00  0.00     0.034 A 
ATOM     17  C   UNL     1       4.644  -7.183  14.795  1.00  0.00     0.043 A 
ATOM     18  C   UNL     1       3.489  -5.876  16.445  1.00  0.00     0.043 A 
ATOM     19  C   UNL     1       4.046  -7.076  16.039  1.00  0.00     0.041 A 
ATOM     20  Cl  UNL     1       5.341  -8.693  14.296  1.00  0.00    -0.084 Cl
ATOM     21  Cl  UNL     1       2.741  -5.751  18.008  1.00  0.00    -0.084 Cl
ENDBRANCH   7  14
TORSDOF 3
ENDMDL
MODEL 8
REMARK VINA RESULT:    -3.989      5.731      7.471
REMARK INTER + INTRA:          -4.854
REMARK INTER:                  -4.574
REMARK INTRA:                  -0.280
REMARK UNBOUND:                -0.282
REMARK SMILES O=C(O)c1ccc2nc(-c3cc(Cl)cc(Cl)c3)oc2c1
REMARK SMILES IDX 5 1 6 2 20 3 8 4 18 5 4 6 9 7 7 8 19 9 2 10 1 11 3 12 10 14
REMARK SMILES IDX 11 15 17 16 12 17 15 18 14 19 13 20 16 21
REMARK H PARENT 3 13
ROOT
ATOM      1  C   UNL     1       3.846  -1.984  10.791  1.00  0.00     0.018 A 
ATOM      2  C   UNL     1       4.198  -2.054  12.106  1.00  0.00     0.033 A 
ATOM      3  C   UNL     1       4.843   0.220  10.619  1.00  0.00     0.065 A 
ATOM      4  N   UNL     1       5.346  -0.773  13.956  1.00  0.00    -0.209 NA
ATOM      5  O   UNL     1       5.840   0.997  12.792  1.00  0.00    -0.436 OA
ATOM      6  C   UNL     1       4.165  -0.850  10.032  1.00  0.00     0.063 A 
ATOM      7  C   UNL     1       5.915   0.406  13.999  1.00  0.00     0.227 A 
ATOM      8  C   UNL     1       4.878  -0.989  12.708  1.00  0.00     0.110 A 
ATOM      9  C   UNL     1       5.197   0.154  11.954  1.00  0.00     0.156 A 
ENDROOT
BRANCH   6  10
ATOM     10  C   UNL     1       3.785  -0.787   8.609  1.00  0.00     0.335 C 
ATOM     11  O   UNL     1       2.612  -0.795   8.293  1.00  0.00    -0.246 OA
BRANCH  10  12
ATOM     12  O   UNL     1       4.739  -0.722   7.658  1.00  0.00    -0.478 OA
ATOM     13  H   UNL     1       4.484  -0.981   6.762  1.00  0.00     0.297 HD
ENDBRANCH  10  12
ENDBRANCH   6  10
BRANCH   7  14
ATOM     14  C   UNL     1       6.546   0.999  15.197  1.00  0.00     0.040 A 
ATOM     15  C   UNL     1       6.019   2.159  15.765  1.00  0.00     0.034 A 
ATOM     16  C   UNL     1       7.673   0.400  15.763  1.00  0.00     0.034 A 
ATOM     17  C   UNL     1       6.613   2.707  16.885  1.00  0.00     0.043 A 
ATOM     18  C   UNL     1       8.258   0.958  16.883  1.00  0.00     0.043 A 
ATOM     19  C   UNL     1       7.730   2.109  17.442  1.00  0.00     0.041 A 
ATOM     20  Cl  UNL     1       5.958   4.150  17.594  1.00  0.00    -0.084 Cl
ATOM     21  Cl  UNL     1       9.659   0.215  17.589  1.00  0.00    -0.084 Cl
ENDBRANCH   7  14
TORSDOF 3
ENDMDL
MODEL 9
REMARK VINA RESULT:    -3.747      5.309      9.101
REMARK INTER + INTRA:          -4.577
REMARK INTER:                  -4.279
REMARK INTRA:                  -0.298
REMARK UNBOUND:                -0.282
REMARK SMILES O=C(O)c1ccc2nc(-c3cc(Cl)cc(Cl)c3)oc2c1
REMARK SMILES IDX 5 1 6 2 20 3 8 4 18 5 4 6 9 7 7 8 19 9 2 10 1 11 3 12 10 14
REMARK SMILES IDX 11 15 17 16 12 17 15 18 14 19 13 20 16 21
REMARK H PARENT 3 13
ROOT
ATOM      1  C   UNL     1       2.141  -0.239   5.574  1.00  0.00     0.018 A 
ATOM      2  C   UNL     1       2.146  -1.079   6.647  1.00  0.00     0.033 A 
ATOM      3  C   UNL     1       3.579   1.317   6.754  1.00  0.00     0.065 A 
ATOM      4  N   UNL     1       3.057  -1.350   8.988  1.00  0.00    -0.209 NA
ATOM      5  O   UNL     1       4.166   0.520   9.065  1.00  0.00    -0.436 OA
ATOM      6  C   UNL     1       2.857   0.966   5.612  1.00  0.00     0.063 A 
ATOM      7  C   UNL     1       3.828  -0.598   9.734  1.00  0.00     0.227 A 
ATOM      8  C   UNL     1       2.867  -0.739   7.799  1.00  0.00     0.110 A 
ATOM      9  C   UNL     1       3.583   0.470   7.847  1.00  0.00     0.156 A 
ENDROOT
BRANCH   6  10
ATOM     10  C   UNL     1       2.848   1.864   4.443  1.00  0.00     0.335 C 
ATOM     11  O   UNL     1       2.121   1.625   3.499  1.00  0.00    -0.246 OA
BRANCH  10  12
ATOM     12  O   UNL     1       3.648   2.949   4.420  1.00  0.00    -0.478 OA
ATOM     13  H   UNL     1       3.241   3.789   4.169  1.00  0.00     0.297 HD
ENDBRANCH  10  12
ENDBRANCH   6  10
BRANCH   7  14
ATOM     14  C   UNL     1       4.262  -0.930  11.107  1.00  0.00     0.040 A 
ATOM     15  C   UNL     1       4.913   0.027  11.887  1.00  0.00     0.034 A 
ATOM     16  C   UNL     1       4.023  -2.203  11.629  1.00  0.00     0.034 A 
ATOM     17  C   UNL     1       5.316  -0.289  13.169  1.00  0.00     0.043 A 
ATOM     18  C   UNL     1       4.430  -2.507  12.912  1.00  0.00     0.043 A 
ATOM     19  C   UNL     1       5.076  -1.554  13.681  1.00  0.00     0.041 A 
ATOM     20  Cl  UNL     1       6.125   0.899  14.142  1.00  0.00    -0.084 Cl
ATOM     21  Cl  UNL     1       4.134  -4.089  13.563  1.00  0.00    -0.084 Cl
ENDBRANCH   7  14
TORSDOF 3
ENDMDL
