MODEL 1
REMARK VINA RESULT:    -5.716      0.000      0.000
REMARK INTER + INTRA:          -8.359
REMARK INTER:                  -7.888
REMARK INTRA:                  -0.471
REMARK UNBOUND:                -0.471
REMARK SMILES Cc1n[nH]c(C)c1CCCOc1cc(C(=O)O)ccc1F
REMARK SMILES IDX 11 1 12 2 14 3 18 4 13 5 19 6 20 7 21 8 15 9 16 10 17 11
REMARK SMILES IDX 10 13 9 14 8 15 7 16 5 17 2 18 4 19 3 20 6 21 1 22
REMARK H PARENT 17 12 4 23
ROOT
ATOM      1  O   UNL     1       5.413  -1.128   7.416  1.00  0.00    -0.490 OA
ENDROOT
BRANCH   1   2
ATOM      2  C   UNL     1       4.355  -0.529   6.806  1.00  0.00     0.155 A 
ATOM      3  C   UNL     1       2.012  -0.474   6.269  1.00  0.00     0.063 A 
ATOM      4  C   UNL     1       2.206   0.715   5.560  1.00  0.00     0.019 A 
ATOM      5  C   UNL     1       3.097  -1.094   6.893  1.00  0.00     0.065 A 
ATOM      6  C   UNL     1       3.465   1.274   5.484  1.00  0.00     0.044 A 
ATOM      7  C   UNL     1       4.538   0.659   6.107  1.00  0.00     0.165 A 
ATOM      8  F   UNL     1       5.768   1.212   6.028  1.00  0.00    -0.203 F 
BRANCH   3   9
ATOM      9  C   UNL     1       0.666  -1.074   6.354  1.00  0.00     0.335 C 
ATOM     10  O   UNL     1       0.543  -2.257   6.599  1.00  0.00    -0.246 OA
BRANCH   9  11
ATOM     11  O   UNL     1      -0.426  -0.308   6.164  1.00  0.00    -0.478 OA
ATOM     12  H   UNL     1      -0.309   0.506   5.654  1.00  0.00     0.297 HD
ENDBRANCH   9  11
ENDBRANCH   3   9
ENDBRANCH   1   2
BRANCH   1  13
ATOM     13  C   UNL     1       6.069  -0.388   8.449  1.00  0.00     0.230 C 
BRANCH  13  14
ATOM     14  C   UNL     1       5.960  -1.152   9.769  1.00  0.00     0.046 C 
BRANCH  14  15
ATOM     15  C   UNL     1       4.711  -0.691  10.524  1.00  0.00     0.043 C 
BRANCH  15  16
ATOM     16  C   UNL     1       4.847  -1.042  11.983  1.00  0.00    -0.004 A 
ATOM     17  C   UNL     1       4.495  -2.216  12.555  1.00  0.00     0.036 A 
ATOM     18  C   UNL     1       5.364  -0.213  12.984  1.00  0.00     0.063 A 
ATOM     19  N   UNL     1       4.774  -2.132  13.873  1.00  0.00    -0.282 N 
ATOM     20  N   UNL     1       5.315  -0.863  14.119  1.00  0.00    -0.181 NA
ATOM     21  C   UNL     1       3.899  -3.406  11.848  1.00  0.00     0.066 C 
ATOM     22  C   UNL     1       5.879   1.191  12.791  1.00  0.00     0.069 C 
ATOM     23  H   UNL     1       4.625  -2.826  14.534  1.00  0.00     0.190 HD
ENDBRANCH  15  16
ENDBRANCH  14  15
ENDBRANCH  13  14
ENDBRANCH   1  13
TORSDOF 7
ENDMDL
MODEL 2
REMARK VINA RESULT:    -5.701      2.331      3.948
REMARK INTER + INTRA:          -8.338
REMARK INTER:                  -7.935
REMARK INTRA:                  -0.404
REMARK UNBOUND:                -0.471
REMARK SMILES Cc1n[nH]c(C)c1CCCOc1cc(C(=O)O)ccc1F
REMARK SMILES IDX 11 1 12 2 14 3 18 4 13 5 19 6 20 7 21 8 15 9 16 10 17 11
REMARK SMILES IDX 10 13 9 14 8 15 7 16 5 17 2 18 4 19 3 20 6 21 1 22
REMARK H PARENT 17 12 4 23
ROOT
ATOM      1  O   UNL     1       1.558   0.898   9.034  1.00  0.00    -0.490 OA
ENDROOT
BRANCH   1   2
ATOM      2  C   UNL     1       2.100   0.783   7.793  1.00  0.00     0.155 A 
ATOM      3  C   UNL     1       3.859   1.276   6.229  1.00  0.00     0.063 A 
ATOM      4  C   UNL     1       3.196   0.527   5.253  1.00  0.00     0.019 A 
ATOM      5  C   UNL     1       3.303   1.400   7.504  1.00  0.00     0.065 A 
ATOM      6  C   UNL     1       2.000  -0.090   5.552  1.00  0.00     0.044 A 
ATOM      7  C   UNL     1       1.453   0.031   6.819  1.00  0.00     0.165 A 
ATOM      8  F   UNL     1       0.280  -0.576   7.106  1.00  0.00    -0.203 F 
BRANCH   3   9
ATOM      9  C   UNL     1       5.140   1.937   5.912  1.00  0.00     0.335 C 
ATOM     10  O   UNL     1       5.533   2.860   6.596  1.00  0.00    -0.246 OA
BRANCH   9  11
ATOM     11  O   UNL     1       5.877   1.512   4.867  1.00  0.00    -0.478 OA
ATOM     12  H   UNL     1       5.636   0.659   4.478  1.00  0.00     0.297 HD
ENDBRANCH   9  11
ENDBRANCH   3   9
ENDBRANCH   1   2
BRANCH   1  13
ATOM     13  C   UNL     1       1.346  -0.313   9.764  1.00  0.00     0.230 C 
BRANCH  13  14
ATOM     14  C   UNL     1       2.219  -0.310  11.020  1.00  0.00     0.046 C 
BRANCH  14  15
ATOM     15  C   UNL     1       3.548  -1.007  10.720  1.00  0.00     0.043 C 
BRANCH  15  16
ATOM     16  C   UNL     1       4.217  -1.392  12.014  1.00  0.00    -0.004 A 
ATOM     17  C   UNL     1       4.971  -0.580  12.792  1.00  0.00     0.036 A 
ATOM     18  C   UNL     1       4.165  -2.648  12.627  1.00  0.00     0.063 A 
ATOM     19  N   UNL     1       5.386  -1.300  13.856  1.00  0.00    -0.282 N 
ATOM     20  N   UNL     1       4.871  -2.596  13.727  1.00  0.00    -0.181 NA
ATOM     21  C   UNL     1       5.289   0.867  12.520  1.00  0.00     0.066 C 
ATOM     22  C   UNL     1       3.433  -3.857  12.103  1.00  0.00     0.069 C 
ATOM     23  H   UNL     1       5.944  -0.977  14.581  1.00  0.00     0.190 HD
ENDBRANCH  15  16
ENDBRANCH  14  15
ENDBRANCH  13  14
ENDBRANCH   1  13
TORSDOF 7
ENDMDL
MODEL 3
REMARK VINA RESULT:    -5.626      0.155      1.772
REMARK INTER + INTRA:          -8.236
REMARK INTER:                  -7.679
REMARK INTRA:                  -0.557
REMARK UNBOUND:                -0.471
REMARK SMILES Cc1n[nH]c(C)c1CCCOc1cc(C(=O)O)ccc1F
REMARK SMILES IDX 11 1 12 2 14 3 18 4 13 5 19 6 20 7 21 8 15 9 16 10 17 11
REMARK SMILES IDX 10 13 9 14 8 15 7 16 5 17 2 18 4 19 3 20 6 21 1 22
REMARK H PARENT 17 12 4 23
ROOT
ATOM      1  O   UNL     1       5.439  -1.058   7.421  1.00  0.00    -0.490 OA
ENDROOT
BRANCH   1   2
ATOM      2  C   UNL     1       4.375  -0.476   6.806  1.00  0.00     0.155 A 
ATOM      3  C   UNL     1       2.032  -0.451   6.268  1.00  0.00     0.063 A 
ATOM      4  C   UNL     1       2.213   0.735   5.551  1.00  0.00     0.019 A 
ATOM      5  C   UNL     1       3.123  -1.055   6.897  1.00  0.00     0.065 A 
ATOM      6  C   UNL     1       3.465   1.308   5.472  1.00  0.00     0.044 A 
ATOM      7  C   UNL     1       4.545   0.710   6.100  1.00  0.00     0.165 A 
ATOM      8  F   UNL     1       5.769   1.276   6.019  1.00  0.00    -0.203 F 
BRANCH   3   9
ATOM      9  C   UNL     1       0.693  -1.066   6.356  1.00  0.00     0.335 C 
ATOM     10  O   UNL     1       0.583  -2.247   6.614  1.00  0.00    -0.246 OA
BRANCH   9  11
ATOM     11  O   UNL     1      -0.408  -0.315   6.154  1.00  0.00    -0.478 OA
ATOM     12  H   UNL     1      -0.974  -0.151   6.922  1.00  0.00     0.297 HD
ENDBRANCH   9  11
ENDBRANCH   3   9
ENDBRANCH   1   2
BRANCH   1  13
ATOM     13  C   UNL     1       6.007  -0.361   8.532  1.00  0.00     0.230 C 
BRANCH  13  14
ATOM     14  C   UNL     1       5.827  -1.194   9.802  1.00  0.00     0.046 C 
BRANCH  14  15
ATOM     15  C   UNL     1       4.664  -0.630  10.622  1.00  0.00     0.043 C 
BRANCH  15  16
ATOM     16  C   UNL     1       4.901  -0.903  12.084  1.00  0.00    -0.004 A 
ATOM     17  C   UNL     1       5.427  -0.037  12.981  1.00  0.00     0.036 A 
ATOM     18  C   UNL     1       4.608  -2.094  12.758  1.00  0.00     0.063 A 
ATOM     19  N   UNL     1       5.473  -0.660  14.177  1.00  0.00    -0.282 N 
ATOM     20  N   UNL     1       4.957  -1.952  14.010  1.00  0.00    -0.181 NA
ATOM     21  C   UNL     1       5.881   1.371  12.695  1.00  0.00     0.066 C 
ATOM     22  C   UNL     1       4.006  -3.332  12.143  1.00  0.00     0.069 C 
ATOM     23  H   UNL     1       5.805  -0.281  15.006  1.00  0.00     0.190 HD
ENDBRANCH  15  16
ENDBRANCH  14  15
ENDBRANCH  13  14
ENDBRANCH   1  13
TORSDOF 7
ENDMDL
MODEL 4
REMARK VINA RESULT:    -5.516      2.198      3.372
REMARK INTER + INTRA:          -8.083
REMARK INTER:                  -7.441
REMARK INTRA:                  -0.642
REMARK UNBOUND:                -0.471
REMARK SMILES Cc1n[nH]c(C)c1CCCOc1cc(C(=O)O)ccc1F
REMARK SMILES IDX 11 1 12 2 14 3 18 4 13 5 19 6 20 7 21 8 15 9 16 10 17 11
REMARK SMILES IDX 10 13 9 14 8 15 7 16 5 17 2 18 4 19 3 20 6 21 1 22
REMARK H PARENT 17 12 4 23
ROOT
ATOM      1  O   UNL     1       2.327  -0.859   8.672  1.00  0.00    -0.490 OA
ENDROOT
BRANCH   1   2
ATOM      2  C   UNL     1       2.560  -0.253   7.477  1.00  0.00     0.155 A 
ATOM      3  C   UNL     1       3.949   1.107   6.062  1.00  0.00     0.063 A 
ATOM      4  C   UNL     1       3.022   0.969   5.026  1.00  0.00     0.019 A 
ATOM      5  C   UNL     1       3.711   0.491   7.292  1.00  0.00     0.065 A 
ATOM      6  C   UNL     1       1.880   0.221   5.218  1.00  0.00     0.044 A 
ATOM      7  C   UNL     1       1.648  -0.394   6.437  1.00  0.00     0.165 A 
ATOM      8  F   UNL     1       0.527  -1.126   6.619  1.00  0.00    -0.203 F 
BRANCH   3   9
ATOM      9  C   UNL     1       5.173   1.907   5.859  1.00  0.00     0.335 C 
ATOM     10  O   UNL     1       5.455   2.794   6.639  1.00  0.00    -0.246 OA
BRANCH   9  11
ATOM     11  O   UNL     1       5.980   1.649   4.812  1.00  0.00    -0.478 OA
ATOM     12  H   UNL     1       6.602   2.344   4.554  1.00  0.00     0.297 HD
ENDBRANCH   9  11
ENDBRANCH   3   9
ENDBRANCH   1   2
BRANCH   1  13
ATOM     13  C   UNL     1       1.743  -0.058   9.703  1.00  0.00     0.230 C 
BRANCH  13  14
ATOM     14  C   UNL     1       2.329  -0.463  11.056  1.00  0.00     0.046 C 
BRANCH  14  15
ATOM     15  C   UNL     1       3.672  -1.165  10.841  1.00  0.00     0.043 C 
BRANCH  15  16
ATOM     16  C   UNL     1       4.229  -1.603  12.170  1.00  0.00    -0.004 A 
ATOM     17  C   UNL     1       4.085  -2.827  12.730  1.00  0.00     0.036 A 
ATOM     18  C   UNL     1       4.993  -0.819  13.042  1.00  0.00     0.063 A 
ATOM     19  N   UNL     1       4.729  -2.815  13.916  1.00  0.00    -0.282 N 
ATOM     20  N   UNL     1       5.287  -1.542  14.091  1.00  0.00    -0.181 NA
ATOM     21  C   UNL     1       3.340  -3.993  12.136  1.00  0.00     0.066 C 
ATOM     22  C   UNL     1       5.397   0.616  12.815  1.00  0.00     0.069 C 
ATOM     23  H   UNL     1       4.793  -3.556  14.538  1.00  0.00     0.190 HD
ENDBRANCH  15  16
ENDBRANCH  14  15
ENDBRANCH  13  14
ENDBRANCH   1  13
TORSDOF 7
ENDMDL
MODEL 5
REMARK VINA RESULT:    -4.789      3.738      5.676
REMARK INTER + INTRA:          -7.080
REMARK INTER:                  -6.496
REMARK INTRA:                  -0.584
REMARK UNBOUND:                -0.471
REMARK SMILES Cc1n[nH]c(C)c1CCCOc1cc(C(=O)O)ccc1F
REMARK SMILES IDX 11 1 12 2 14 3 18 4 13 5 19 6 20 7 21 8 15 9 16 10 17 11
REMARK SMILES IDX 10 13 9 14 8 15 7 16 5 17 2 18 4 19 3 20 6 21 1 22
REMARK H PARENT 17 12 4 23
ROOT
ATOM      1  O   UNL     1       4.995  -0.496  12.619  1.00  0.00    -0.490 OA
ENDROOT
BRANCH   1   2
ATOM      2  C   UNL     1       4.678  -0.564  11.299  1.00  0.00     0.155 A 
ATOM      3  C   UNL     1       5.352  -0.714   8.995  1.00  0.00     0.063 A 
ATOM      4  C   UNL     1       4.009  -0.712   8.607  1.00  0.00     0.019 A 
ATOM      5  C   UNL     1       5.681  -0.639  10.350  1.00  0.00     0.065 A 
ATOM      6  C   UNL     1       3.016  -0.642   9.561  1.00  0.00     0.044 A 
ATOM      7  C   UNL     1       3.345  -0.573  10.904  1.00  0.00     0.165 A 
ATOM      8  F   UNL     1       2.367  -0.505  11.834  1.00  0.00    -0.203 F 
BRANCH   3   9
ATOM      9  C   UNL     1       6.417  -0.789   7.977  1.00  0.00     0.335 C 
ATOM     10  O   UNL     1       6.134  -0.748   6.797  1.00  0.00    -0.246 OA
BRANCH   9  11
ATOM     11  O   UNL     1       7.706  -0.896   8.357  1.00  0.00    -0.478 OA
ATOM     12  H   UNL     1       8.164  -0.077   8.592  1.00  0.00     0.297 HD
ENDBRANCH   9  11
ENDBRANCH   3   9
ENDBRANCH   1   2
BRANCH   1  13
ATOM     13  C   UNL     1       5.207   0.807  13.169  1.00  0.00     0.230 C 
BRANCH  13  14
ATOM     14  C   UNL     1       6.576   0.856  13.851  1.00  0.00     0.046 C 
BRANCH  14  15
ATOM     15  C   UNL     1       6.442   0.382  15.299  1.00  0.00     0.043 C 
BRANCH  15  16
ATOM     16  C   UNL     1       7.102   1.378  16.217  1.00  0.00    -0.004 A 
ATOM     17  C   UNL     1       6.547   2.521  16.682  1.00  0.00     0.036 A 
ATOM     18  C   UNL     1       8.394   1.281  16.745  1.00  0.00     0.063 A 
ATOM     19  N   UNL     1       7.459   3.129  17.471  1.00  0.00    -0.282 N 
ATOM     20  N   UNL     1       8.611   2.333  17.491  1.00  0.00    -0.181 NA
ATOM     21  C   UNL     1       5.161   3.025  16.375  1.00  0.00     0.066 C 
ATOM     22  C   UNL     1       9.371   0.162  16.488  1.00  0.00     0.069 C 
ATOM     23  H   UNL     1       7.337   3.970  17.940  1.00  0.00     0.190 HD
ENDBRANCH  15  16
ENDBRANCH  14  15
ENDBRANCH  13  14
ENDBRANCH   1  13
TORSDOF 7
ENDMDL
MODEL 6
REMARK VINA RESULT:    -4.732      3.277      4.568
REMARK INTER + INTRA:          -7.001
REMARK INTER:                  -6.428
REMARK INTRA:                  -0.573
REMARK UNBOUND:                -0.471
REMARK SMILES Cc1n[nH]c(C)c1CCCOc1cc(C(=O)O)ccc1F
REMARK SMILES IDX 11 1 12 2 14 3 18 4 13 5 19 6 20 7 21 8 15 9 16 10 17 11
REMARK SMILES IDX 10 13 9 14 8 15 7 16 5 17 2 18 4 19 3 20 6 21 1 22
REMARK H PARENT 17 12 4 23
ROOT
ATOM      1  O   UNL     1       5.277  -0.580  11.894  1.00  0.00    -0.490 OA
ENDROOT
BRANCH   1   2
ATOM      2  C   UNL     1       4.727  -0.540  10.652  1.00  0.00     0.155 A 
ATOM      3  C   UNL     1       2.817  -0.237   9.223  1.00  0.00     0.063 A 
ATOM      4  C   UNL     1       3.625  -0.450   8.103  1.00  0.00     0.019 A 
ATOM      5  C   UNL     1       3.377  -0.283  10.502  1.00  0.00     0.065 A 
ATOM      6  C   UNL     1       4.972  -0.700   8.263  1.00  0.00     0.044 A 
ATOM      7  C   UNL     1       5.526  -0.740   9.531  1.00  0.00     0.165 A 
ATOM      8  F   UNL     1       6.847  -0.985   9.681  1.00  0.00    -0.203 F 
BRANCH   3   9
ATOM      9  C   UNL     1       1.375   0.031   9.056  1.00  0.00     0.335 C 
ATOM     10  O   UNL     1       0.877   0.010   7.949  1.00  0.00    -0.246 OA
BRANCH   9  11
ATOM     11  O   UNL     1       0.609   0.292  10.134  1.00  0.00    -0.478 OA
ATOM     12  H   UNL     1      -0.349   0.299  10.001  1.00  0.00     0.297 HD
ENDBRANCH   9  11
ENDBRANCH   3   9
ENDBRANCH   1   2
BRANCH   1  13
ATOM     13  C   UNL     1       5.095   0.571  12.723  1.00  0.00     0.230 C 
BRANCH  13  14
ATOM     14  C   UNL     1       6.389   0.860  13.484  1.00  0.00     0.046 C 
BRANCH  14  15
ATOM     15  C   UNL     1       6.271   0.326  14.913  1.00  0.00     0.043 C 
BRANCH  15  16
ATOM     16  C   UNL     1       6.903   1.303  15.870  1.00  0.00    -0.004 A 
ATOM     17  C   UNL     1       8.132   1.193  16.425  1.00  0.00     0.036 A 
ATOM     18  C   UNL     1       6.325   2.488  16.337  1.00  0.00     0.063 A 
ATOM     19  N   UNL     1       8.322   2.267  17.220  1.00  0.00    -0.282 N 
ATOM     20  N   UNL     1       7.172   3.063  17.152  1.00  0.00    -0.181 NA
ATOM     21  C   UNL     1       9.113   0.073  16.196  1.00  0.00     0.066 C 
ATOM     22  C   UNL     1       4.956   3.007  15.975  1.00  0.00     0.069 C 
ATOM     23  H   UNL     1       9.115   2.454  17.746  1.00  0.00     0.190 HD
ENDBRANCH  15  16
ENDBRANCH  14  15
ENDBRANCH  13  14
ENDBRANCH   1  13
TORSDOF 7
ENDMDL
MODEL 7
REMARK VINA RESULT:    -4.726      8.986     11.074
REMARK INTER + INTRA:          -6.994
REMARK INTER:                  -5.087
REMARK INTRA:                  -1.907
REMARK UNBOUND:                -0.471
REMARK SMILES Cc1n[nH]c(C)c1CCCOc1cc(C(=O)O)ccc1F
REMARK SMILES IDX 11 1 12 2 14 3 18 4 13 5 19 6 20 7 21 8 15 9 16 10 17 11
REMARK SMILES IDX 10 13 9 14 8 15 7 16 5 17 2 18 4 19 3 20 6 21 1 22
REMARK H PARENT 17 12 4 23
ROOT
ATOM      1  O   UNL     1       4.008  -8.944  15.643  1.00  0.00    -0.490 OA
ENDROOT
BRANCH   1   2
ATOM      2  C   UNL     1       4.403  -7.883  16.397  1.00  0.00     0.155 A 
ATOM      3  C   UNL     1       4.647  -5.510  16.697  1.00  0.00     0.063 A 
ATOM      4  C   UNL     1       5.207  -5.731  17.958  1.00  0.00     0.019 A 
ATOM      5  C   UNL     1       4.245  -6.597  15.917  1.00  0.00     0.065 A 
ATOM      6  C   UNL     1       5.355  -7.017  18.431  1.00  0.00     0.044 A 
ATOM      7  C   UNL     1       4.951  -8.093  17.658  1.00  0.00     0.165 A 
ATOM      8  F   UNL     1       5.098  -9.352  18.127  1.00  0.00    -0.203 F 
BRANCH   3   9
ATOM      9  C   UNL     1       4.487  -4.134  16.187  1.00  0.00     0.335 C 
ATOM     10  O   UNL     1       4.788  -3.871  15.041  1.00  0.00    -0.246 OA
BRANCH   9  11
ATOM     11  O   UNL     1       4.000  -3.170  16.994  1.00  0.00    -0.478 OA
ATOM     12  H   UNL     1       3.517  -3.459  17.781  1.00  0.00     0.297 HD
ENDBRANCH   9  11
ENDBRANCH   3   9
ENDBRANCH   1   2
BRANCH   1  13
ATOM     13  C   UNL     1       4.827  -9.282  14.521  1.00  0.00     0.230 C 
BRANCH  13  14
ATOM     14  C   UNL     1       5.910 -10.269  14.959  1.00  0.00     0.046 C 
BRANCH  14  15
ATOM     15  C   UNL     1       7.237  -9.900  14.292  1.00  0.00     0.043 C 
BRANCH  15  16
ATOM     16  C   UNL     1       7.745  -8.604  14.868  1.00  0.00    -0.004 A 
ATOM     17  C   UNL     1       8.300  -8.440  16.092  1.00  0.00     0.036 A 
ATOM     18  C   UNL     1       7.735  -7.359  14.230  1.00  0.00     0.063 A 
ATOM     19  N   UNL     1       8.622  -7.136  16.225  1.00  0.00    -0.282 N 
ATOM     20  N   UNL     1       8.253  -6.477  15.045  1.00  0.00    -0.181 NA
ATOM     21  C   UNL     1       8.518  -9.519  17.120  1.00  0.00     0.066 C 
ATOM     22  C   UNL     1       7.205  -7.080  12.846  1.00  0.00     0.069 C 
ATOM     23  H   UNL     1       9.035  -6.727  17.002  1.00  0.00     0.190 HD
ENDBRANCH  15  16
ENDBRANCH  14  15
ENDBRANCH  13  14
ENDBRANCH   1  13
TORSDOF 7
ENDMDL
MODEL 8
REMARK VINA RESULT:    -4.724      3.666      5.528
REMARK INTER + INTRA:          -6.990
REMARK INTER:                  -6.390
REMARK INTRA:                  -0.600
REMARK UNBOUND:                -0.471
REMARK SMILES Cc1n[nH]c(C)c1CCCOc1cc(C(=O)O)ccc1F
REMARK SMILES IDX 11 1 12 2 14 3 18 4 13 5 19 6 20 7 21 8 15 9 16 10 17 11
REMARK SMILES IDX 10 13 9 14 8 15 7 16 5 17 2 18 4 19 3 20 6 21 1 22
REMARK H PARENT 17 12 4 23
ROOT
ATOM      1  O   UNL     1       4.916  -0.422  12.564  1.00  0.00    -0.490 OA
ENDROOT
BRANCH   1   2
ATOM      2  C   UNL     1       4.544  -0.503  11.259  1.00  0.00     0.155 A 
ATOM      3  C   UNL     1       5.121  -0.649   8.929  1.00  0.00     0.063 A 
ATOM      4  C   UNL     1       3.763  -0.677   8.599  1.00  0.00     0.019 A 
ATOM      5  C   UNL     1       5.507  -0.561  10.268  1.00  0.00     0.065 A 
ATOM      6  C   UNL     1       2.811  -0.624   9.594  1.00  0.00     0.044 A 
ATOM      7  C   UNL     1       3.196  -0.542  10.922  1.00  0.00     0.165 A 
ATOM      8  F   UNL     1       2.257  -0.491  11.893  1.00  0.00    -0.203 F 
BRANCH   3   9
ATOM      9  C   UNL     1       6.143  -0.705   7.866  1.00  0.00     0.335 C 
ATOM     10  O   UNL     1       5.825  -0.534   6.707  1.00  0.00    -0.246 OA
BRANCH   9  11
ATOM     11  O   UNL     1       7.431  -0.941   8.182  1.00  0.00    -0.478 OA
ATOM     12  H   UNL     1       7.608  -1.303   9.062  1.00  0.00     0.297 HD
ENDBRANCH   9  11
ENDBRANCH   3   9
ENDBRANCH   1   2
BRANCH   1  13
ATOM     13  C   UNL     1       5.209   0.880  13.076  1.00  0.00     0.230 C 
BRANCH  13  14
ATOM     14  C   UNL     1       6.576   0.862  13.761  1.00  0.00     0.046 C 
BRANCH  14  15
ATOM     15  C   UNL     1       6.418   0.378  15.204  1.00  0.00     0.043 C 
BRANCH  15  16
ATOM     16  C   UNL     1       7.066   1.364  16.141  1.00  0.00    -0.004 A 
ATOM     17  C   UNL     1       8.308   1.263  16.668  1.00  0.00     0.036 A 
ATOM     18  C   UNL     1       6.493   2.549  16.613  1.00  0.00     0.063 A 
ATOM     19  N   UNL     1       8.511   2.343  17.452  1.00  0.00    -0.282 N 
ATOM     20  N   UNL     1       7.355   3.133  17.405  1.00  0.00    -0.181 NA
ATOM     21  C   UNL     1       9.288   0.146  16.424  1.00  0.00     0.066 C 
ATOM     22  C   UNL     1       5.114   3.060  16.278  1.00  0.00     0.069 C 
ATOM     23  H   UNL     1       9.314   2.537  17.960  1.00  0.00     0.190 HD
ENDBRANCH  15  16
ENDBRANCH  14  15
ENDBRANCH  13  14
ENDBRANCH   1  13
TORSDOF 7
ENDMDL
MODEL 9
REMARK VINA RESULT:    -4.698      3.778      5.207
REMARK INTER + INTRA:          -6.955
REMARK INTER:                  -6.365
REMARK INTRA:                  -0.590
REMARK UNBOUND:                -0.471
REMARK SMILES Cc1n[nH]c(C)c1CCCOc1cc(C(=O)O)ccc1F
REMARK SMILES IDX 11 1 12 2 14 3 18 4 13 5 19 6 20 7 21 8 15 9 16 10 17 11
REMARK SMILES IDX 10 13 9 14 8 15 7 16 5 17 2 18 4 19 3 20 6 21 1 22
REMARK H PARENT 17 12 4 23
ROOT
ATOM      1  O   UNL     1       4.435  -2.080  12.275  1.00  0.00    -0.490 OA
ENDROOT
BRANCH   1   2
ATOM      2  C   UNL     1       4.115  -1.356  11.170  1.00  0.00     0.155 A 
ATOM      3  C   UNL     1       2.480  -0.239   9.806  1.00  0.00     0.063 A 
ATOM      4  C   UNL     1       3.486   0.132   8.910  1.00  0.00     0.019 A 
ATOM      5  C   UNL     1       2.803  -0.987  10.940  1.00  0.00     0.065 A 
ATOM      6  C   UNL     1       4.793  -0.234   9.151  1.00  0.00     0.044 A 
ATOM      7  C   UNL     1       5.112  -0.972  10.279  1.00  0.00     0.165 A 
ATOM      8  F   UNL     1       6.395  -1.328  10.509  1.00  0.00    -0.203 F 
BRANCH   3   9
ATOM      9  C   UNL     1       1.080   0.152   9.551  1.00  0.00     0.335 C 
ATOM     10  O   UNL     1       0.751   0.555   8.454  1.00  0.00    -0.246 OA
BRANCH   9  11
ATOM     11  O   UNL     1       0.164   0.055  10.535  1.00  0.00    -0.478 OA
ATOM     12  H   UNL     1       0.044  -0.815  10.939  1.00  0.00     0.297 HD
ENDBRANCH   9  11
ENDBRANCH   3   9
ENDBRANCH   1   2
BRANCH   1  13
ATOM     13  C   UNL     1       4.313  -3.501  12.177  1.00  0.00     0.230 C 
BRANCH  13  14
ATOM     14  C   UNL     1       3.452  -4.019  13.331  1.00  0.00     0.046 C 
BRANCH  14  15
ATOM     15  C   UNL     1       4.336  -4.265  14.556  1.00  0.00     0.043 C 
BRANCH  15  16
ATOM     16  C   UNL     1       4.070  -5.645  15.098  1.00  0.00    -0.004 A 
ATOM     17  C   UNL     1       3.267  -5.948  16.145  1.00  0.00     0.036 A 
ATOM     18  C   UNL     1       4.603  -6.841  14.606  1.00  0.00     0.063 A 
ATOM     19  N   UNL     1       3.297  -7.287  16.313  1.00  0.00    -0.282 N 
ATOM     20  N   UNL     1       4.147  -7.825  15.337  1.00  0.00    -0.181 NA
ATOM     21  C   UNL     1       2.481  -4.967  16.974  1.00  0.00     0.066 C 
ATOM     22  C   UNL     1       5.551  -6.972  13.441  1.00  0.00     0.069 C 
ATOM     23  H   UNL     1       2.817  -7.789  16.990  1.00  0.00     0.190 HD
ENDBRANCH  15  16
ENDBRANCH  14  15
ENDBRANCH  13  14
ENDBRANCH   1  13
TORSDOF 7
ENDMDL
