MODEL 1
REMARK VINA RESULT:    -5.757      0.000      0.000
REMARK INTER + INTRA:          -8.609
REMARK INTER:                  -7.945
REMARK INTRA:                  -0.664
REMARK UNBOUND:                -0.664
REMARK SMILES Cc1n[nH]c(C)c1CCCOc1cc(C(=O)O)ccc1F
REMARK SMILES IDX 11 1 12 2 14 3 18 4 13 5 19 6 20 7 21 8 15 9 16 10 17 11
REMARK SMILES IDX 10 13 9 14 8 15 7 16 5 17 2 18 4 19 3 20 6 21 1 22
REMARK H PARENT 17 12 4 23
ROOT
ATOM      1  O   UNL     1      -5.154  -7.552  -0.528  1.00  0.00    -0.490 OA
ENDROOT
BRANCH   1   2
ATOM      2  C   UNL     1      -4.566  -6.342  -0.729  1.00  0.00     0.155 A 
ATOM      3  C   UNL     1      -4.492  -4.217  -1.851  1.00  0.00     0.063 A 
ATOM      4  C   UNL     1      -3.354  -3.873  -1.116  1.00  0.00     0.019 A 
ATOM      5  C   UNL     1      -5.096  -5.460  -1.652  1.00  0.00     0.065 A 
ATOM      6  C   UNL     1      -2.836  -4.757  -0.193  1.00  0.00     0.044 A 
ATOM      7  C   UNL     1      -3.440  -5.987   0.006  1.00  0.00     0.165 A 
ATOM      8  F   UNL     1      -2.928  -6.849   0.912  1.00  0.00    -0.203 F 
BRANCH   3   9
ATOM      9  C   UNL     1      -5.049  -3.273  -2.839  1.00  0.00     0.335 C 
ATOM     10  O   UNL     1      -5.161  -3.605  -4.001  1.00  0.00    -0.246 OA
BRANCH   9  11
ATOM     11  O   UNL     1      -5.440  -2.043  -2.449  1.00  0.00    -0.478 OA
ATOM     12  H   UNL     1      -6.387  -1.909  -2.303  1.00  0.00     0.297 HD
ENDBRANCH   9  11
ENDBRANCH   3   9
ENDBRANCH   1   2
BRANCH   1  13
ATOM     13  C   UNL     1      -4.720  -8.630  -1.360  1.00  0.00     0.230 C 
BRANCH  13  14
ATOM     14  C   UNL     1      -5.858  -9.638  -1.523  1.00  0.00     0.046 C 
BRANCH  14  15
ATOM     15  C   UNL     1      -7.201  -8.917  -1.391  1.00  0.00     0.043 C 
BRANCH  15  16
ATOM     16  C   UNL     1      -8.319  -9.865  -1.740  1.00  0.00    -0.004 A 
ATOM     17  C   UNL     1      -8.847 -10.053  -2.972  1.00  0.00     0.036 A 
ATOM     18  C   UNL     1      -8.989 -10.712  -0.851  1.00  0.00     0.063 A 
ATOM     19  N   UNL     1      -9.822 -10.981  -2.864  1.00  0.00    -0.282 N 
ATOM     20  N   UNL     1      -9.894 -11.376  -1.522  1.00  0.00    -0.181 NA
ATOM     21  C   UNL     1      -8.423  -9.353  -4.236  1.00  0.00     0.066 C 
ATOM     22  C   UNL     1      -8.722 -10.829   0.628  1.00  0.00     0.069 C 
ATOM     23  H   UNL     1     -10.375 -11.314  -3.588  1.00  0.00     0.190 HD
ENDBRANCH  15  16
ENDBRANCH  14  15
ENDBRANCH  13  14
ENDBRANCH   1  13
TORSDOF 7
ENDMDL
MODEL 2
REMARK VINA RESULT:    -5.705      2.006      3.698
REMARK INTER + INTRA:          -8.538
REMARK INTER:                  -7.868
REMARK INTRA:                  -0.669
REMARK UNBOUND:                -0.664
REMARK SMILES Cc1n[nH]c(C)c1CCCOc1cc(C(=O)O)ccc1F
REMARK SMILES IDX 11 1 12 2 14 3 18 4 13 5 19 6 20 7 21 8 15 9 16 10 17 11
REMARK SMILES IDX 10 13 9 14 8 15 7 16 5 17 2 18 4 19 3 20 6 21 1 22
REMARK H PARENT 17 12 4 23
ROOT
ATOM      1  O   UNL     1      -6.250  -5.805  -2.150  1.00  0.00    -0.490 OA
ENDROOT
BRANCH   1   2
ATOM      2  C   UNL     1      -5.104  -5.320  -1.601  1.00  0.00     0.155 A 
ATOM      3  C   UNL     1      -3.246  -5.562  -0.094  1.00  0.00     0.063 A 
ATOM      4  C   UNL     1      -2.760  -4.316  -0.500  1.00  0.00     0.019 A 
ATOM      5  C   UNL     1      -4.425  -6.061  -0.652  1.00  0.00     0.065 A 
ATOM      6  C   UNL     1      -3.442  -3.587  -1.451  1.00  0.00     0.044 A 
ATOM      7  C   UNL     1      -4.608  -4.086  -2.007  1.00  0.00     0.165 A 
ATOM      8  F   UNL     1      -5.271  -3.367  -2.939  1.00  0.00    -0.203 F 
BRANCH   3   9
ATOM      9  C   UNL     1      -2.519  -6.345   0.924  1.00  0.00     0.335 C 
ATOM     10  O   UNL     1      -3.098  -6.739   1.915  1.00  0.00    -0.246 OA
BRANCH   9  11
ATOM     11  O   UNL     1      -1.213  -6.628   0.749  1.00  0.00    -0.478 OA
ATOM     12  H   UNL     1      -0.616  -5.880   0.612  1.00  0.00     0.297 HD
ENDBRANCH   9  11
ENDBRANCH   3   9
ENDBRANCH   1   2
BRANCH   1  13
ATOM     13  C   UNL     1      -7.412  -5.822  -1.317  1.00  0.00     0.230 C 
BRANCH  13  14
ATOM     14  C   UNL     1      -8.307  -6.997  -1.715  1.00  0.00     0.046 C 
BRANCH  14  15
ATOM     15  C   UNL     1      -7.442  -8.234  -1.968  1.00  0.00     0.043 C 
BRANCH  15  16
ATOM     16  C   UNL     1      -8.328  -9.439  -2.145  1.00  0.00    -0.004 A 
ATOM     17  C   UNL     1      -8.762 -10.260  -1.160  1.00  0.00     0.036 A 
ATOM     18  C   UNL     1      -8.853  -9.905  -3.355  1.00  0.00     0.063 A 
ATOM     19  N   UNL     1      -9.528 -11.215  -1.728  1.00  0.00    -0.282 N 
ATOM     20  N   UNL     1      -9.567 -10.973  -3.107  1.00  0.00    -0.181 NA
ATOM     21  C   UNL     1      -8.445 -10.131   0.307  1.00  0.00     0.066 C 
ATOM     22  C   UNL     1      -8.626  -9.289  -4.712  1.00  0.00     0.069 C 
ATOM     23  H   UNL     1      -9.973 -11.941  -1.263  1.00  0.00     0.190 HD
ENDBRANCH  15  16
ENDBRANCH  14  15
ENDBRANCH  13  14
ENDBRANCH   1  13
TORSDOF 7
ENDMDL
MODEL 3
REMARK VINA RESULT:    -5.687      2.136      3.290
REMARK INTER + INTRA:          -8.512
REMARK INTER:                  -7.962
REMARK INTRA:                  -0.550
REMARK UNBOUND:                -0.664
REMARK SMILES Cc1n[nH]c(C)c1CCCOc1cc(C(=O)O)ccc1F
REMARK SMILES IDX 11 1 12 2 14 3 18 4 13 5 19 6 20 7 21 8 15 9 16 10 17 11
REMARK SMILES IDX 10 13 9 14 8 15 7 16 5 17 2 18 4 19 3 20 6 21 1 22
REMARK H PARENT 17 12 4 23
ROOT
ATOM      1  O   UNL     1      -7.025  -5.129  -0.737  1.00  0.00    -0.490 OA
ENDROOT
BRANCH   1   2
ATOM      2  C   UNL     1      -5.676  -4.963  -0.765  1.00  0.00     0.155 A 
ATOM      3  C   UNL     1      -3.484  -5.535   0.044  1.00  0.00     0.063 A 
ATOM      4  C   UNL     1      -2.921  -4.615  -0.844  1.00  0.00     0.019 A 
ATOM      5  C   UNL     1      -4.870  -5.705   0.078  1.00  0.00     0.065 A 
ATOM      6  C   UNL     1      -3.732  -3.883  -1.686  1.00  0.00     0.044 A 
ATOM      7  C   UNL     1      -5.105  -4.057  -1.653  1.00  0.00     0.165 A 
ATOM      8  F   UNL     1      -5.895  -3.337  -2.480  1.00  0.00    -0.203 F 
BRANCH   3   9
ATOM      9  C   UNL     1      -2.619  -6.320   0.946  1.00  0.00     0.335 C 
ATOM     10  O   UNL     1      -3.071  -6.777   1.975  1.00  0.00    -0.246 OA
BRANCH   9  11
ATOM     11  O   UNL     1      -1.329  -6.535   0.622  1.00  0.00    -0.478 OA
ATOM     12  H   UNL     1      -1.021  -6.173  -0.221  1.00  0.00     0.297 HD
ENDBRANCH   9  11
ENDBRANCH   3   9
ENDBRANCH   1   2
BRANCH   1  13
ATOM     13  C   UNL     1      -7.621  -5.777  -1.864  1.00  0.00     0.230 C 
BRANCH  13  14
ATOM     14  C   UNL     1      -8.241  -7.103  -1.419  1.00  0.00     0.046 C 
BRANCH  14  15
ATOM     15  C   UNL     1      -7.433  -8.264  -2.002  1.00  0.00     0.043 C 
BRANCH  15  16
ATOM     16  C   UNL     1      -8.353  -9.421  -2.293  1.00  0.00    -0.004 A 
ATOM     17  C   UNL     1      -8.832  -9.772  -3.509  1.00  0.00     0.036 A 
ATOM     18  C   UNL     1      -8.858 -10.328  -1.354  1.00  0.00     0.063 A 
ATOM     19  N   UNL     1      -9.618 -10.857  -3.345  1.00  0.00    -0.282 N 
ATOM     20  N   UNL     1      -9.622 -11.184  -1.982  1.00  0.00    -0.181 NA
ATOM     21  C   UNL     1      -8.540  -9.075  -4.812  1.00  0.00     0.066 C 
ATOM     22  C   UNL     1      -8.580 -10.312   0.128  1.00  0.00     0.069 C 
ATOM     23  H   UNL     1     -10.096 -11.326  -4.045  1.00  0.00     0.190 HD
ENDBRANCH  15  16
ENDBRANCH  14  15
ENDBRANCH  13  14
ENDBRANCH   1  13
TORSDOF 7
ENDMDL
MODEL 4
REMARK VINA RESULT:    -5.663      0.331      1.789
REMARK INTER + INTRA:          -8.480
REMARK INTER:                  -7.803
REMARK INTRA:                  -0.677
REMARK UNBOUND:                -0.664
REMARK SMILES Cc1n[nH]c(C)c1CCCOc1cc(C(=O)O)ccc1F
REMARK SMILES IDX 11 1 12 2 14 3 18 4 13 5 19 6 20 7 21 8 15 9 16 10 17 11
REMARK SMILES IDX 10 13 9 14 8 15 7 16 5 17 2 18 4 19 3 20 6 21 1 22
REMARK H PARENT 17 12 4 23
ROOT
ATOM      1  O   UNL     1      -5.007  -7.539  -0.496  1.00  0.00    -0.490 OA
ENDROOT
BRANCH   1   2
ATOM      2  C   UNL     1      -4.459  -6.312  -0.709  1.00  0.00     0.155 A 
ATOM      3  C   UNL     1      -4.458  -4.196  -1.851  1.00  0.00     0.063 A 
ATOM      4  C   UNL     1      -3.332  -3.807  -1.121  1.00  0.00     0.019 A 
ATOM      5  C   UNL     1      -5.020  -5.457  -1.639  1.00  0.00     0.065 A 
ATOM      6  C   UNL     1      -2.783  -4.665  -0.192  1.00  0.00     0.044 A 
ATOM      7  C   UNL     1      -3.345  -5.913   0.020  1.00  0.00     0.165 A 
ATOM      8  F   UNL     1      -2.802  -6.749   0.933  1.00  0.00    -0.203 F 
BRANCH   3   9
ATOM      9  C   UNL     1      -5.048  -3.280  -2.847  1.00  0.00     0.335 C 
ATOM     10  O   UNL     1      -5.176  -3.637  -4.000  1.00  0.00    -0.246 OA
BRANCH   9  11
ATOM     11  O   UNL     1      -5.452  -2.050  -2.474  1.00  0.00    -0.478 OA
ATOM     12  H   UNL     1      -5.030  -1.298  -2.912  1.00  0.00     0.297 HD
ENDBRANCH   9  11
ENDBRANCH   3   9
ENDBRANCH   1   2
BRANCH   1  13
ATOM     13  C   UNL     1      -4.687  -8.564  -1.440  1.00  0.00     0.230 C 
BRANCH  13  14
ATOM     14  C   UNL     1      -5.803  -9.610  -1.453  1.00  0.00     0.046 C 
BRANCH  14  15
ATOM     15  C   UNL     1      -7.149  -8.923  -1.216  1.00  0.00     0.043 C 
BRANCH  15  16
ATOM     16  C   UNL     1      -8.260  -9.931  -1.356  1.00  0.00    -0.004 A 
ATOM     17  C   UNL     1      -8.807 -10.657  -0.354  1.00  0.00     0.036 A 
ATOM     18  C   UNL     1      -8.913 -10.277  -2.544  1.00  0.00     0.063 A 
ATOM     19  N   UNL     1      -9.768 -11.440  -0.889  1.00  0.00    -0.282 N 
ATOM     20  N   UNL     1      -9.812 -11.186  -2.267  1.00  0.00    -0.181 NA
ATOM     21  C   UNL     1      -8.415 -10.601   1.100  1.00  0.00     0.066 C 
ATOM     22  C   UNL     1      -8.622  -9.710  -3.910  1.00  0.00     0.069 C 
ATOM     23  H   UNL     1     -10.327 -12.067  -0.407  1.00  0.00     0.190 HD
ENDBRANCH  15  16
ENDBRANCH  14  15
ENDBRANCH  13  14
ENDBRANCH   1  13
TORSDOF 7
ENDMDL
MODEL 5
REMARK VINA RESULT:    -4.920      1.539      1.918
REMARK INTER + INTRA:          -7.453
REMARK INTER:                  -6.857
REMARK INTRA:                  -0.596
REMARK UNBOUND:                -0.664
REMARK SMILES Cc1n[nH]c(C)c1CCCOc1cc(C(=O)O)ccc1F
REMARK SMILES IDX 11 1 12 2 14 3 18 4 13 5 19 6 20 7 21 8 15 9 16 10 17 11
REMARK SMILES IDX 10 13 9 14 8 15 7 16 5 17 2 18 4 19 3 20 6 21 1 22
REMARK H PARENT 17 12 4 23
ROOT
ATOM      1  O   UNL     1      -7.269  -5.663  -0.425  1.00  0.00    -0.490 OA
ENDROOT
BRANCH   1   2
ATOM      2  C   UNL     1      -6.022  -5.180  -0.673  1.00  0.00     0.155 A 
ATOM      3  C   UNL     1      -4.522  -3.860  -2.011  1.00  0.00     0.063 A 
ATOM      4  C   UNL     1      -3.469  -4.198  -1.157  1.00  0.00     0.019 A 
ATOM      5  C   UNL     1      -5.803  -4.358  -1.763  1.00  0.00     0.065 A 
ATOM      6  C   UNL     1      -3.699  -5.014  -0.070  1.00  0.00     0.044 A 
ATOM      7  C   UNL     1      -4.971  -5.502   0.178  1.00  0.00     0.165 A 
ATOM      8  F   UNL     1      -5.189  -6.302   1.245  1.00  0.00    -0.203 F 
BRANCH   3   9
ATOM      9  C   UNL     1      -4.281  -2.986  -3.176  1.00  0.00     0.335 C 
ATOM     10  O   UNL     1      -3.188  -2.485  -3.343  1.00  0.00    -0.246 OA
BRANCH   9  11
ATOM     11  O   UNL     1      -5.272  -2.750  -4.058  1.00  0.00    -0.478 OA
ATOM     12  H   UNL     1      -5.635  -3.515  -4.526  1.00  0.00     0.297 HD
ENDBRANCH   9  11
ENDBRANCH   3   9
ENDBRANCH   1   2
BRANCH   1  13
ATOM     13  C   UNL     1      -8.264  -5.435  -1.426  1.00  0.00     0.230 C 
BRANCH  13  14
ATOM     14  C   UNL     1      -8.915  -6.765  -1.810  1.00  0.00     0.046 C 
BRANCH  14  15
ATOM     15  C   UNL     1      -7.840  -7.849  -1.906  1.00  0.00     0.043 C 
BRANCH  15  16
ATOM     16  C   UNL     1      -8.497  -9.199  -2.038  1.00  0.00    -0.004 A 
ATOM     17  C   UNL     1      -8.939  -9.760  -3.187  1.00  0.00     0.036 A 
ATOM     18  C   UNL     1      -8.752 -10.096  -0.995  1.00  0.00     0.063 A 
ATOM     19  N   UNL     1      -9.462 -10.966  -2.881  1.00  0.00    -0.282 N 
ATOM     20  N   UNL     1      -9.337 -11.152  -1.498  1.00  0.00    -0.181 NA
ATOM     21  C   UNL     1      -8.862  -9.148  -4.561  1.00  0.00     0.066 C 
ATOM     22  C   UNL     1      -8.422  -9.877   0.460  1.00  0.00     0.069 C 
ATOM     23  H   UNL     1      -9.855 -11.593  -3.508  1.00  0.00     0.190 HD
ENDBRANCH  15  16
ENDBRANCH  14  15
ENDBRANCH  13  14
ENDBRANCH   1  13
TORSDOF 7
ENDMDL
MODEL 6
REMARK VINA RESULT:    -4.765      8.321     10.420
REMARK INTER + INTRA:          -7.240
REMARK INTER:                  -5.150
REMARK INTRA:                  -2.089
REMARK UNBOUND:                -0.664
REMARK SMILES Cc1n[nH]c(C)c1CCCOc1cc(C(=O)O)ccc1F
REMARK SMILES IDX 11 1 12 2 14 3 18 4 13 5 19 6 20 7 21 8 15 9 16 10 17 11
REMARK SMILES IDX 10 13 9 14 8 15 7 16 5 17 2 18 4 19 3 20 6 21 1 22
REMARK H PARENT 17 12 4 23
ROOT
ATOM      1  O   UNL     1     -11.781 -13.139  -8.968  1.00  0.00    -0.490 OA
ENDROOT
BRANCH   1   2
ATOM      2  C   UNL     1     -11.118 -12.593  -7.913  1.00  0.00     0.155 A 
ATOM      3  C   UNL     1     -11.052 -11.944  -5.599  1.00  0.00     0.063 A 
ATOM      4  C   UNL     1      -9.744 -11.483  -5.769  1.00  0.00     0.019 A 
ATOM      5  C   UNL     1     -11.737 -12.501  -6.681  1.00  0.00     0.065 A 
ATOM      6  C   UNL     1      -9.133 -11.585  -7.001  1.00  0.00     0.044 A 
ATOM      7  C   UNL     1      -9.812 -12.142  -8.072  1.00  0.00     0.165 A 
ATOM      8  F   UNL     1      -9.208 -12.239  -9.276  1.00  0.00    -0.203 F 
BRANCH   3   9
ATOM      9  C   UNL     1     -11.709 -11.837  -4.282  1.00  0.00     0.335 C 
ATOM     10  O   UNL     1     -11.072 -12.032  -3.267  1.00  0.00    -0.246 OA
BRANCH   9  11
ATOM     11  O   UNL     1     -13.016 -11.516  -4.205  1.00  0.00    -0.478 OA
ATOM     12  H   UNL     1     -13.296 -10.706  -4.655  1.00  0.00     0.297 HD
ENDBRANCH   9  11
ENDBRANCH   3   9
ENDBRANCH   1   2
BRANCH   1  13
ATOM     13  C   UNL     1     -12.297 -14.461  -8.795  1.00  0.00     0.230 C 
BRANCH  13  14
ATOM     14  C   UNL     1     -11.454 -15.447  -9.606  1.00  0.00     0.046 C 
BRANCH  14  15
ATOM     15  C   UNL     1     -10.946 -16.560  -8.687  1.00  0.00     0.043 C 
BRANCH  15  16
ATOM     16  C   UNL     1      -9.820 -16.034  -7.835  1.00  0.00    -0.004 A 
ATOM     17  C   UNL     1      -8.601 -15.645  -8.276  1.00  0.00     0.036 A 
ATOM     18  C   UNL     1      -9.852 -15.854  -6.448  1.00  0.00     0.063 A 
ATOM     19  N   UNL     1      -7.885 -15.241  -7.206  1.00  0.00    -0.282 N 
ATOM     20  N   UNL     1      -8.691 -15.385  -6.069  1.00  0.00    -0.181 NA
ATOM     21  C   UNL     1      -8.128 -15.662  -9.706  1.00  0.00     0.066 C 
ATOM     22  C   UNL     1     -11.020 -16.159  -5.544  1.00  0.00     0.069 C 
ATOM     23  H   UNL     1      -6.974 -14.910  -7.221  1.00  0.00     0.190 HD
ENDBRANCH  15  16
ENDBRANCH  14  15
ENDBRANCH  13  14
ENDBRANCH   1  13
TORSDOF 7
ENDMDL
MODEL 7
REMARK VINA RESULT:    -4.758      3.792      7.155
REMARK INTER + INTRA:          -7.231
REMARK INTER:                  -6.400
REMARK INTRA:                  -0.831
REMARK UNBOUND:                -0.664
REMARK SMILES Cc1n[nH]c(C)c1CCCOc1cc(C(=O)O)ccc1F
REMARK SMILES IDX 11 1 12 2 14 3 18 4 13 5 19 6 20 7 21 8 15 9 16 10 17 11
REMARK SMILES IDX 10 13 9 14 8 15 7 16 5 17 2 18 4 19 3 20 6 21 1 22
REMARK H PARENT 17 12 4 23
ROOT
ATOM      1  O   UNL     1      -6.647  -7.225  -2.424  1.00  0.00    -0.490 OA
ENDROOT
BRANCH   1   2
ATOM      2  C   UNL     1      -7.425  -8.314  -2.184  1.00  0.00     0.155 A 
ATOM      3  C   UNL     1      -8.412  -9.876  -0.645  1.00  0.00     0.063 A 
ATOM      4  C   UNL     1      -9.026 -10.535  -1.714  1.00  0.00     0.019 A 
ATOM      5  C   UNL     1      -7.609  -8.760  -0.888  1.00  0.00     0.065 A 
ATOM      6  C   UNL     1      -8.842 -10.079  -3.002  1.00  0.00     0.044 A 
ATOM      7  C   UNL     1      -8.049  -8.969  -3.240  1.00  0.00     0.165 A 
ATOM      8  F   UNL     1      -7.872  -8.527  -4.505  1.00  0.00    -0.203 F 
BRANCH   3   9
ATOM      9  C   UNL     1      -8.607 -10.362   0.735  1.00  0.00     0.335 C 
ATOM     10  O   UNL     1      -7.814 -11.140   1.223  1.00  0.00    -0.246 OA
BRANCH   9  11
ATOM     11  O   UNL     1      -9.663  -9.935   1.455  1.00  0.00    -0.478 OA
ATOM     12  H   UNL     1      -9.623  -9.033   1.802  1.00  0.00     0.297 HD
ENDBRANCH   9  11
ENDBRANCH   3   9
ENDBRANCH   1   2
BRANCH   1  13
ATOM     13  C   UNL     1      -6.797  -6.113  -1.539  1.00  0.00     0.230 C 
BRANCH  13  14
ATOM     14  C   UNL     1      -5.721  -5.070  -1.844  1.00  0.00     0.046 C 
BRANCH  14  15
ATOM     15  C   UNL     1      -4.460  -5.772  -2.353  1.00  0.00     0.043 C 
BRANCH  15  16
ATOM     16  C   UNL     1      -3.547  -6.069  -1.193  1.00  0.00    -0.004 A 
ATOM     17  C   UNL     1      -2.889  -5.155  -0.443  1.00  0.00     0.036 A 
ATOM     18  C   UNL     1      -3.233  -7.339  -0.696  1.00  0.00     0.063 A 
ATOM     19  N   UNL     1      -2.179  -5.823   0.491  1.00  0.00    -0.282 N 
ATOM     20  N   UNL     1      -2.408  -7.193   0.308  1.00  0.00    -0.181 NA
ATOM     21  C   UNL     1      -2.940  -3.660  -0.618  1.00  0.00     0.066 C 
ATOM     22  C   UNL     1      -3.747  -8.650  -1.234  1.00  0.00     0.069 C 
ATOM     23  H   UNL     1      -1.610  -5.425   1.168  1.00  0.00     0.190 HD
ENDBRANCH  15  16
ENDBRANCH  14  15
ENDBRANCH  13  14
ENDBRANCH   1  13
TORSDOF 7
ENDMDL
MODEL 8
REMARK VINA RESULT:    -4.724      3.707      6.624
REMARK INTER + INTRA:          -7.183
REMARK INTER:                  -6.326
REMARK INTRA:                  -0.858
REMARK UNBOUND:                -0.664
REMARK SMILES Cc1n[nH]c(C)c1CCCOc1cc(C(=O)O)ccc1F
REMARK SMILES IDX 11 1 12 2 14 3 18 4 13 5 19 6 20 7 21 8 15 9 16 10 17 11
REMARK SMILES IDX 10 13 9 14 8 15 7 16 5 17 2 18 4 19 3 20 6 21 1 22
REMARK H PARENT 17 12 4 23
ROOT
ATOM      1  O   UNL     1      -6.087  -8.131  -0.433  1.00  0.00    -0.490 OA
ENDROOT
BRANCH   1   2
ATOM      2  C   UNL     1      -7.070  -8.871  -1.012  1.00  0.00     0.155 A 
ATOM      3  C   UNL     1      -8.261  -9.589  -2.974  1.00  0.00     0.063 A 
ATOM      4  C   UNL     1      -9.077 -10.398  -2.177  1.00  0.00     0.019 A 
ATOM      5  C   UNL     1      -7.254  -8.824  -2.382  1.00  0.00     0.065 A 
ATOM      6  C   UNL     1      -8.882 -10.442  -0.813  1.00  0.00     0.044 A 
ATOM      7  C   UNL     1      -7.879  -9.686  -0.229  1.00  0.00     0.165 A 
ATOM      8  F   UNL     1      -7.693  -9.733   1.109  1.00  0.00    -0.203 F 
BRANCH   3   9
ATOM      9  C   UNL     1      -8.466  -9.540  -4.434  1.00  0.00     0.335 C 
ATOM     10  O   UNL     1      -7.881 -10.320  -5.157  1.00  0.00    -0.246 OA
BRANCH   9  11
ATOM     11  O   UNL     1      -9.310  -8.633  -4.965  1.00  0.00    -0.478 OA
ATOM     12  H   UNL     1     -10.256  -8.826  -4.908  1.00  0.00     0.297 HD
ENDBRANCH   9  11
ENDBRANCH   3   9
ENDBRANCH   1   2
BRANCH   1  13
ATOM     13  C   UNL     1      -4.905  -7.903  -1.206  1.00  0.00     0.230 C 
BRANCH  13  14
ATOM     14  C   UNL     1      -4.009  -6.897  -0.481  1.00  0.00     0.046 C 
BRANCH  14  15
ATOM     15  C   UNL     1      -4.870  -5.776   0.105  1.00  0.00     0.043 C 
BRANCH  15  16
ATOM     16  C   UNL     1      -5.048  -4.689  -0.922  1.00  0.00    -0.004 A 
ATOM     17  C   UNL     1      -4.085  -3.849  -1.368  1.00  0.00     0.036 A 
ATOM     18  C   UNL     1      -6.237  -4.372  -1.588  1.00  0.00     0.063 A 
ATOM     19  N   UNL     1      -4.645  -3.026  -2.279  1.00  0.00    -0.282 N 
ATOM     20  N   UNL     1      -5.998  -3.371  -2.396  1.00  0.00    -0.181 NA
ATOM     21  C   UNL     1      -2.644  -3.836  -0.926  1.00  0.00     0.066 C 
ATOM     22  C   UNL     1      -7.566  -5.057  -1.398  1.00  0.00     0.069 C 
ATOM     23  H   UNL     1      -4.192  -2.320  -2.765  1.00  0.00     0.190 HD
ENDBRANCH  15  16
ENDBRANCH  14  15
ENDBRANCH  13  14
ENDBRANCH   1  13
TORSDOF 7
ENDMDL
MODEL 9
REMARK VINA RESULT:    -4.488      4.865      8.100
REMARK INTER + INTRA:          -6.858
REMARK INTER:                  -6.179
REMARK INTRA:                  -0.679
REMARK UNBOUND:                -0.664
REMARK SMILES Cc1n[nH]c(C)c1CCCOc1cc(C(=O)O)ccc1F
REMARK SMILES IDX 11 1 12 2 14 3 18 4 13 5 19 6 20 7 21 8 15 9 16 10 17 11
REMARK SMILES IDX 10 13 9 14 8 15 7 16 5 17 2 18 4 19 3 20 6 21 1 22
REMARK H PARENT 17 12 4 23
ROOT
ATOM      1  O   UNL     1      -8.614  -9.103  -3.506  1.00  0.00    -0.490 OA
ENDROOT
BRANCH   1   2
ATOM      2  C   UNL     1      -9.150  -9.984  -4.392  1.00  0.00     0.155 A 
ATOM      3  C   UNL     1     -10.919 -11.478  -5.040  1.00  0.00     0.063 A 
ATOM      4  C   UNL     1     -10.233 -11.772  -6.221  1.00  0.00     0.019 A 
ATOM      5  C   UNL     1     -10.369 -10.578  -4.125  1.00  0.00     0.065 A 
ATOM      6  C   UNL     1      -9.021 -11.170  -6.482  1.00  0.00     0.044 A 
ATOM      7  C   UNL     1      -8.480 -10.273  -5.575  1.00  0.00     0.165 A 
ATOM      8  F   UNL     1      -7.291  -9.686  -5.837  1.00  0.00    -0.203 F 
BRANCH   3   9
ATOM      9  C   UNL     1     -12.218 -12.121  -4.757  1.00  0.00     0.335 C 
ATOM     10  O   UNL     1     -12.681 -12.924  -5.541  1.00  0.00    -0.246 OA
BRANCH   9  11
ATOM     11  O   UNL     1     -12.886 -11.821  -3.626  1.00  0.00    -0.478 OA
ATOM     12  H   UNL     1     -13.599 -12.420  -3.365  1.00  0.00     0.297 HD
ENDBRANCH   9  11
ENDBRANCH   3   9
ENDBRANCH   1   2
BRANCH   1  13
ATOM     13  C   UNL     1      -7.929  -9.654  -2.378  1.00  0.00     0.230 C 
BRANCH  13  14
ATOM     14  C   UNL     1      -7.406  -8.519  -1.496  1.00  0.00     0.046 C 
BRANCH  14  15
ATOM     15  C   UNL     1      -6.477  -7.622  -2.317  1.00  0.00     0.043 C 
BRANCH  15  16
ATOM     16  C   UNL     1      -5.644  -6.776  -1.389  1.00  0.00    -0.004 A 
ATOM     17  C   UNL     1      -4.407  -7.079  -0.930  1.00  0.00     0.036 A 
ATOM     18  C   UNL     1      -6.009  -5.536  -0.854  1.00  0.00     0.063 A 
ATOM     19  N   UNL     1      -4.008  -6.070  -0.128  1.00  0.00    -0.282 N 
ATOM     20  N   UNL     1      -5.032  -5.115  -0.093  1.00  0.00    -0.181 NA
ATOM     21  C   UNL     1      -3.619  -8.321  -1.256  1.00  0.00     0.066 C 
ATOM     22  C   UNL     1      -7.310  -4.815  -1.103  1.00  0.00     0.069 C 
ATOM     23  H   UNL     1      -3.161  -6.016   0.342  1.00  0.00     0.190 HD
ENDBRANCH  15  16
ENDBRANCH  14  15
ENDBRANCH  13  14
ENDBRANCH   1  13
TORSDOF 7
ENDMDL
