MODEL 1
REMARK VINA RESULT:    -4.573      0.000      0.000
REMARK INTER + INTRA:          -5.524
REMARK INTER:                  -5.241
REMARK INTRA:                  -0.283
REMARK UNBOUND:                -0.283
REMARK SMILES O=C(O)c1ccc2nc(-c3cc(Cl)cc(Cl)c3)oc2c1
REMARK SMILES IDX 5 1 6 2 20 3 8 4 18 5 4 6 9 7 7 8 19 9 2 10 1 11 3 12 10 14
REMARK SMILES IDX 11 15 17 16 12 17 15 18 14 19 13 20 16 21
REMARK H PARENT 3 13
ROOT
ATOM      1  C   UNL     1     -11.038 -12.474  -7.401  1.00  0.00     0.018 A 
ATOM      2  C   UNL     1     -11.198 -12.068  -6.110  1.00  0.00     0.033 A 
ATOM      3  C   UNL     1      -8.796 -11.550  -7.438  1.00  0.00     0.065 A 
ATOM      4  N   UNL     1     -10.028 -10.880  -4.212  1.00  0.00    -0.209 NA
ATOM      5  O   UNL     1      -8.162 -10.476  -5.255  1.00  0.00    -0.436 OA
ATOM      6  C   UNL     1      -9.837 -12.223  -8.080  1.00  0.00     0.063 A 
ATOM      7  C   UNL     1      -8.840 -10.339  -4.100  1.00  0.00     0.227 A 
ATOM      8  C   UNL     1     -10.162 -11.392  -5.454  1.00  0.00     0.110 A 
ATOM      9  C   UNL     1      -8.957 -11.132  -6.130  1.00  0.00     0.156 A 
ENDROOT
BRANCH   6  10
ATOM     10  C   UNL     1      -9.673 -12.672  -9.474  1.00  0.00     0.335 C 
ATOM     11  O   UNL     1      -9.255 -13.788  -9.707  1.00  0.00    -0.246 OA
BRANCH  10  12
ATOM     12  O   UNL     1      -9.987 -11.844 -10.491  1.00  0.00    -0.478 OA
ATOM     13  H   UNL     1     -10.336 -10.974 -10.257  1.00  0.00     0.297 HD
ENDBRANCH  10  12
ENDBRANCH   6  10
BRANCH   7  14
ATOM     14  C   UNL     1      -8.323  -9.676  -2.885  1.00  0.00     0.040 A 
ATOM     15  C   UNL     1      -8.644 -10.176  -1.623  1.00  0.00     0.034 A 
ATOM     16  C   UNL     1      -7.510  -8.545  -2.997  1.00  0.00     0.034 A 
ATOM     17  C   UNL     1      -8.156  -9.552  -0.492  1.00  0.00     0.043 A 
ATOM     18  C   UNL     1      -7.029  -7.930  -1.859  1.00  0.00     0.043 A 
ATOM     19  C   UNL     1      -7.351  -8.431  -0.609  1.00  0.00     0.041 A 
ATOM     20  Cl  UNL     1      -8.553 -10.172   1.080  1.00  0.00    -0.084 Cl
ATOM     21  Cl  UNL     1      -6.019  -6.525  -1.995  1.00  0.00    -0.084 Cl
ENDBRANCH   7  14
TORSDOF 3
ENDMDL
MODEL 2
REMARK VINA RESULT:    -4.569      0.010      2.019
REMARK INTER + INTRA:          -5.520
REMARK INTER:                  -5.237
REMARK INTRA:                  -0.283
REMARK UNBOUND:                -0.283
REMARK SMILES O=C(O)c1ccc2nc(-c3cc(Cl)cc(Cl)c3)oc2c1
REMARK SMILES IDX 5 1 6 2 20 3 8 4 18 5 4 6 9 7 7 8 19 9 2 10 1 11 3 12 10 14
REMARK SMILES IDX 11 15 17 16 12 17 15 18 14 19 13 20 16 21
REMARK H PARENT 3 13
ROOT
ATOM      1  C   UNL     1     -11.037 -12.474  -7.405  1.00  0.00     0.018 A 
ATOM      2  C   UNL     1     -11.197 -12.067  -6.114  1.00  0.00     0.033 A 
ATOM      3  C   UNL     1      -8.793 -11.556  -7.442  1.00  0.00     0.065 A 
ATOM      4  N   UNL     1     -10.026 -10.880  -4.217  1.00  0.00    -0.209 NA
ATOM      5  O   UNL     1      -8.158 -10.481  -5.259  1.00  0.00    -0.436 OA
ATOM      6  C   UNL     1      -9.836 -12.227  -8.083  1.00  0.00     0.063 A 
ATOM      7  C   UNL     1      -8.837 -10.342  -4.105  1.00  0.00     0.227 A 
ATOM      8  C   UNL     1     -10.160 -11.393  -5.459  1.00  0.00     0.110 A 
ATOM      9  C   UNL     1      -8.954 -11.136  -6.134  1.00  0.00     0.156 A 
ENDROOT
BRANCH   6  10
ATOM     10  C   UNL     1      -9.672 -12.678  -9.477  1.00  0.00     0.335 C 
ATOM     11  O   UNL     1      -9.260 -13.797  -9.709  1.00  0.00    -0.246 OA
BRANCH  10  12
ATOM     12  O   UNL     1      -9.978 -11.849 -10.495  1.00  0.00    -0.478 OA
ATOM     13  H   UNL     1     -10.693 -12.122 -11.084  1.00  0.00     0.297 HD
ENDBRANCH  10  12
ENDBRANCH   6  10
BRANCH   7  14
ATOM     14  C   UNL     1      -8.318  -9.678  -2.891  1.00  0.00     0.040 A 
ATOM     15  C   UNL     1      -7.499  -8.554  -3.001  1.00  0.00     0.034 A 
ATOM     16  C   UNL     1      -8.645 -10.175  -1.627  1.00  0.00     0.034 A 
ATOM     17  C   UNL     1      -7.018  -7.938  -1.863  1.00  0.00     0.043 A 
ATOM     18  C   UNL     1      -8.158  -9.551  -0.496  1.00  0.00     0.043 A 
ATOM     19  C   UNL     1      -7.346  -8.436  -0.613  1.00  0.00     0.041 A 
ATOM     20  Cl  UNL     1      -6.000  -6.539  -1.998  1.00  0.00    -0.084 Cl
ATOM     21  Cl  UNL     1      -8.564 -10.167   1.076  1.00  0.00    -0.084 Cl
ENDBRANCH   7  14
TORSDOF 3
ENDMDL
MODEL 3
REMARK VINA RESULT:    -4.451      5.416      8.287
REMARK INTER + INTRA:          -5.385
REMARK INTER:                  -5.098
REMARK INTRA:                  -0.287
REMARK UNBOUND:                -0.283
REMARK SMILES O=C(O)c1ccc2nc(-c3cc(Cl)cc(Cl)c3)oc2c1
REMARK SMILES IDX 5 1 6 2 20 3 8 4 18 5 4 6 9 7 7 8 19 9 2 10 1 11 3 12 10 14
REMARK SMILES IDX 11 15 17 16 12 17 15 18 14 19 13 20 16 21
REMARK H PARENT 3 13
ROOT
ATOM      1  C   UNL     1     -11.847 -13.667   2.465  1.00  0.00     0.018 A 
ATOM      2  C   UNL     1     -11.221 -13.531   1.262  1.00  0.00     0.033 A 
ATOM      3  C   UNL     1     -11.108 -11.455   3.128  1.00  0.00     0.065 A 
ATOM      4  N   UNL     1      -9.822 -11.937  -0.111  1.00  0.00    -0.209 NA
ATOM      5  O   UNL     1      -9.734 -10.327   1.350  1.00  0.00    -0.436 OA
ATOM      6  C   UNL     1     -11.800 -12.634   3.411  1.00  0.00     0.063 A 
ATOM      7  C   UNL     1      -9.358 -10.735   0.123  1.00  0.00     0.227 A 
ATOM      8  C   UNL     1     -10.522 -12.354   0.966  1.00  0.00     0.110 A 
ATOM      9  C   UNL     1     -10.467 -11.314   1.911  1.00  0.00     0.156 A 
ENDROOT
BRANCH   6  10
ATOM     10  C   UNL     1     -12.486 -12.790   4.706  1.00  0.00     0.335 C 
ATOM     11  O   UNL     1     -13.320 -11.978   5.054  1.00  0.00    -0.246 OA
BRANCH  10  12
ATOM     12  O   UNL     1     -12.188 -13.834   5.505  1.00  0.00    -0.478 OA
ATOM     13  H   UNL     1     -11.971 -13.634   6.426  1.00  0.00     0.297 HD
ENDBRANCH  10  12
ENDBRANCH   6  10
BRANCH   7  14
ATOM     14  C   UNL     1      -8.541  -9.944  -0.820  1.00  0.00     0.040 A 
ATOM     15  C   UNL     1      -8.788 -10.014  -2.192  1.00  0.00     0.034 A 
ATOM     16  C   UNL     1      -7.517  -9.123  -0.343  1.00  0.00     0.034 A 
ATOM     17  C   UNL     1      -8.022  -9.271  -3.068  1.00  0.00     0.043 A 
ATOM     18  C   UNL     1      -6.758  -8.385  -1.229  1.00  0.00     0.043 A 
ATOM     19  C   UNL     1      -7.008  -8.460  -2.588  1.00  0.00     0.041 A 
ATOM     20  Cl  UNL     1      -8.329  -9.357  -4.774  1.00  0.00    -0.084 Cl
ATOM     21  Cl  UNL     1      -5.484  -7.364  -0.637  1.00  0.00    -0.084 Cl
ENDBRANCH   7  14
TORSDOF 3
ENDMDL
MODEL 4
REMARK VINA RESULT:    -4.442      5.100      6.735
REMARK INTER + INTRA:          -5.374
REMARK INTER:                  -5.078
REMARK INTRA:                  -0.296
REMARK UNBOUND:                -0.283
REMARK SMILES O=C(O)c1ccc2nc(-c3cc(Cl)cc(Cl)c3)oc2c1
REMARK SMILES IDX 5 1 6 2 20 3 8 4 18 5 4 6 9 7 7 8 19 9 2 10 1 11 3 12 10 14
REMARK SMILES IDX 11 15 17 16 12 17 15 18 14 19 13 20 16 21
REMARK H PARENT 3 13
ROOT
ATOM      1  C   UNL     1      -9.246 -10.703  -2.121  1.00  0.00     0.018 A 
ATOM      2  C   UNL     1      -8.570  -9.686  -2.727  1.00  0.00     0.033 A 
ATOM      3  C   UNL     1      -8.249 -10.125   0.013  1.00  0.00     0.065 A 
ATOM      4  N   UNL     1      -6.936  -7.811  -2.288  1.00  0.00    -0.209 NA
ATOM      5  O   UNL     1      -6.687  -8.162  -0.156  1.00  0.00    -0.436 OA
ATOM      6  C   UNL     1      -9.096 -10.934  -0.746  1.00  0.00     0.063 A 
ATOM      7  C   UNL     1      -6.329  -7.397  -1.204  1.00  0.00     0.227 A 
ATOM      8  C   UNL     1      -7.717  -8.867  -1.977  1.00  0.00     0.110 A 
ATOM      9  C   UNL     1      -7.558  -9.095  -0.599  1.00  0.00     0.156 A 
ENDROOT
BRANCH   6  10
ATOM     10  C   UNL     1      -9.836 -12.033  -0.100  1.00  0.00     0.335 C 
ATOM     11  O   UNL     1      -9.635 -12.297   1.068  1.00  0.00    -0.246 OA
BRANCH  10  12
ATOM     12  O   UNL     1     -10.736 -12.747  -0.806  1.00  0.00    -0.478 OA
ATOM     13  H   UNL     1     -10.465 -13.051  -1.683  1.00  0.00     0.297 HD
ENDBRANCH  10  12
ENDBRANCH   6  10
BRANCH   7  14
ATOM     14  C   UNL     1      -5.388  -6.259  -1.141  1.00  0.00     0.040 A 
ATOM     15  C   UNL     1      -5.495  -5.210  -2.055  1.00  0.00     0.034 A 
ATOM     16  C   UNL     1      -4.387  -6.231  -0.168  1.00  0.00     0.034 A 
ATOM     17  C   UNL     1      -4.614  -4.149  -1.991  1.00  0.00     0.043 A 
ATOM     18  C   UNL     1      -3.512  -5.165  -0.114  1.00  0.00     0.043 A 
ATOM     19  C   UNL     1      -3.623  -4.126  -1.023  1.00  0.00     0.041 A 
ATOM     20  Cl  UNL     1      -4.746  -2.842  -3.125  1.00  0.00    -0.084 Cl
ATOM     21  Cl  UNL     1      -2.266  -5.127   1.095  1.00  0.00    -0.084 Cl
ENDBRANCH   7  14
TORSDOF 3
ENDMDL
MODEL 5
REMARK VINA RESULT:    -4.438      5.104      6.569
REMARK INTER + INTRA:          -5.370
REMARK INTER:                  -5.074
REMARK INTRA:                  -0.296
REMARK UNBOUND:                -0.283
REMARK SMILES O=C(O)c1ccc2nc(-c3cc(Cl)cc(Cl)c3)oc2c1
REMARK SMILES IDX 5 1 6 2 20 3 8 4 18 5 4 6 9 7 7 8 19 9 2 10 1 11 3 12 10 14
REMARK SMILES IDX 11 15 17 16 12 17 15 18 14 19 13 20 16 21
REMARK H PARENT 3 13
ROOT
ATOM      1  C   UNL     1      -9.260 -10.725  -2.107  1.00  0.00     0.018 A 
ATOM      2  C   UNL     1      -8.591  -9.704  -2.714  1.00  0.00     0.033 A 
ATOM      3  C   UNL     1      -8.249 -10.155   0.022  1.00  0.00     0.065 A 
ATOM      4  N   UNL     1      -6.957  -7.828  -2.278  1.00  0.00    -0.209 NA
ATOM      5  O   UNL     1      -6.692  -8.189  -0.149  1.00  0.00    -0.436 OA
ATOM      6  C   UNL     1      -9.100 -10.962  -0.735  1.00  0.00     0.063 A 
ATOM      7  C   UNL     1      -6.342  -7.418  -1.196  1.00  0.00     0.227 A 
ATOM      8  C   UNL     1      -7.734  -8.887  -1.966  1.00  0.00     0.110 A 
ATOM      9  C   UNL     1      -7.564  -9.121  -0.591  1.00  0.00     0.156 A 
ENDROOT
BRANCH   6  10
ATOM     10  C   UNL     1      -9.834 -12.065  -0.089  1.00  0.00     0.335 C 
ATOM     11  O   UNL     1      -9.610 -12.347   1.071  1.00  0.00    -0.246 OA
BRANCH  10  12
ATOM     12  O   UNL     1     -10.754 -12.762  -0.785  1.00  0.00    -0.478 OA
ATOM     13  H   UNL     1     -10.785 -13.717  -0.639  1.00  0.00     0.297 HD
ENDBRANCH  10  12
ENDBRANCH   6  10
BRANCH   7  14
ATOM     14  C   UNL     1      -5.403  -6.279  -1.136  1.00  0.00     0.040 A 
ATOM     15  C   UNL     1      -4.404  -6.245  -0.161  1.00  0.00     0.034 A 
ATOM     16  C   UNL     1      -5.511  -5.232  -2.053  1.00  0.00     0.034 A 
ATOM     17  C   UNL     1      -3.529  -5.178  -0.110  1.00  0.00     0.043 A 
ATOM     18  C   UNL     1      -4.630  -4.171  -1.992  1.00  0.00     0.043 A 
ATOM     19  C   UNL     1      -3.642  -4.143  -1.023  1.00  0.00     0.041 A 
ATOM     20  Cl  UNL     1      -2.286  -5.134   1.100  1.00  0.00    -0.084 Cl
ATOM     21  Cl  UNL     1      -4.763  -2.868  -3.132  1.00  0.00    -0.084 Cl
ENDBRANCH   7  14
TORSDOF 3
ENDMDL
MODEL 6
REMARK VINA RESULT:    -4.432      5.420      8.295
REMARK INTER + INTRA:          -5.363
REMARK INTER:                  -5.076
REMARK INTRA:                  -0.287
REMARK UNBOUND:                -0.283
REMARK SMILES O=C(O)c1ccc2nc(-c3cc(Cl)cc(Cl)c3)oc2c1
REMARK SMILES IDX 5 1 6 2 20 3 8 4 18 5 4 6 9 7 7 8 19 9 2 10 1 11 3 12 10 14
REMARK SMILES IDX 11 15 17 16 12 17 15 18 14 19 13 20 16 21
REMARK H PARENT 3 13
ROOT
ATOM      1  C   UNL     1     -11.894 -13.672   2.442  1.00  0.00     0.018 A 
ATOM      2  C   UNL     1     -11.274 -13.537   1.236  1.00  0.00     0.033 A 
ATOM      3  C   UNL     1     -11.097 -11.485   3.123  1.00  0.00     0.065 A 
ATOM      4  N   UNL     1      -9.849 -11.962  -0.132  1.00  0.00    -0.209 NA
ATOM      5  O   UNL     1      -9.711 -10.371   1.345  1.00  0.00    -0.436 OA
ATOM      6  C   UNL     1     -11.815 -12.650   3.398  1.00  0.00     0.063 A 
ATOM      7  C   UNL     1      -9.354 -10.774   0.111  1.00  0.00     0.227 A 
ATOM      8  C   UNL     1     -10.550 -12.374   0.946  1.00  0.00     0.110 A 
ATOM      9  C   UNL     1     -10.463 -11.346   1.902  1.00  0.00     0.156 A 
ENDROOT
BRANCH   6  10
ATOM     10  C   UNL     1     -12.495 -12.804   4.697  1.00  0.00     0.335 C 
ATOM     11  O   UNL     1     -13.318 -11.985   5.053  1.00  0.00    -0.246 OA
BRANCH  10  12
ATOM     12  O   UNL     1     -12.201 -13.853   5.491  1.00  0.00    -0.478 OA
ATOM     13  H   UNL     1     -11.284 -13.940   5.783  1.00  0.00     0.297 HD
ENDBRANCH  10  12
ENDBRANCH   6  10
BRANCH   7  14
ATOM     14  C   UNL     1      -8.526  -9.992  -0.830  1.00  0.00     0.040 A 
ATOM     15  C   UNL     1      -7.502  -9.175  -0.351  1.00  0.00     0.034 A 
ATOM     16  C   UNL     1      -8.766 -10.069  -2.204  1.00  0.00     0.034 A 
ATOM     17  C   UNL     1      -6.731  -8.448  -1.237  1.00  0.00     0.043 A 
ATOM     18  C   UNL     1      -7.989  -9.337  -3.079  1.00  0.00     0.043 A 
ATOM     19  C   UNL     1      -6.974  -8.528  -2.597  1.00  0.00     0.041 A 
ATOM     20  Cl  UNL     1      -5.456  -7.430  -0.643  1.00  0.00    -0.084 Cl
ATOM     21  Cl  UNL     1      -8.286  -9.431  -4.787  1.00  0.00    -0.084 Cl
ENDBRANCH   7  14
TORSDOF 3
ENDMDL
MODEL 7
REMARK VINA RESULT:    -4.366      3.779      5.824
REMARK INTER + INTRA:          -5.287
REMARK INTER:                  -4.991
REMARK INTRA:                  -0.296
REMARK UNBOUND:                -0.283
REMARK SMILES O=C(O)c1ccc2nc(-c3cc(Cl)cc(Cl)c3)oc2c1
REMARK SMILES IDX 5 1 6 2 20 3 8 4 18 5 4 6 9 7 7 8 19 9 2 10 1 11 3 12 10 14
REMARK SMILES IDX 11 15 17 16 12 17 15 18 14 19 13 20 16 21
REMARK H PARENT 3 13
ROOT
ATOM      1  C   UNL     1      -9.211 -10.716  -1.557  1.00  0.00     0.018 A 
ATOM      2  C   UNL     1      -8.351 -10.083  -0.710  1.00  0.00     0.033 A 
ATOM      3  C   UNL     1      -8.461  -9.324  -3.396  1.00  0.00     0.065 A 
ATOM      4  N   UNL     1      -6.601  -8.264  -0.605  1.00  0.00    -0.209 NA
ATOM      5  O   UNL     1      -6.696  -7.676  -2.697  1.00  0.00    -0.436 OA
ATOM      6  C   UNL     1      -9.276 -10.347  -2.908  1.00  0.00     0.063 A 
ATOM      7  C   UNL     1      -6.111  -7.449  -1.506  1.00  0.00     0.227 A 
ATOM      8  C   UNL     1      -7.528  -9.055  -1.186  1.00  0.00     0.110 A 
ATOM      9  C   UNL     1      -7.591  -8.677  -2.539  1.00  0.00     0.156 A 
ENDROOT
BRANCH   6  10
ATOM     10  C   UNL     1     -10.205 -11.043  -3.816  1.00  0.00     0.335 C 
ATOM     11  O   UNL     1     -10.200 -10.787  -5.004  1.00  0.00    -0.246 OA
BRANCH  10  12
ATOM     12  O   UNL     1     -11.062 -11.963  -3.329  1.00  0.00    -0.478 OA
ATOM     13  H   UNL     1     -10.707 -12.604  -2.699  1.00  0.00     0.297 HD
ENDBRANCH  10  12
ENDBRANCH   6  10
BRANCH   7  14
ATOM     14  C   UNL     1      -5.071  -6.431  -1.251  1.00  0.00     0.040 A 
ATOM     15  C   UNL     1      -4.974  -5.307  -2.073  1.00  0.00     0.034 A 
ATOM     16  C   UNL     1      -4.181  -6.590  -0.187  1.00  0.00     0.034 A 
ATOM     17  C   UNL     1      -4.000  -4.359  -1.829  1.00  0.00     0.043 A 
ATOM     18  C   UNL     1      -3.212  -5.635   0.047  1.00  0.00     0.043 A 
ATOM     19  C   UNL     1      -3.121  -4.523  -0.772  1.00  0.00     0.041 A 
ATOM     20  Cl  UNL     1      -3.878  -2.960  -2.849  1.00  0.00    -0.084 Cl
ATOM     21  Cl  UNL     1      -2.104  -5.831   1.370  1.00  0.00    -0.084 Cl
ENDBRANCH   7  14
TORSDOF 3
ENDMDL
MODEL 8
REMARK VINA RESULT:    -4.365      3.780      5.593
REMARK INTER + INTRA:          -5.286
REMARK INTER:                  -4.990
REMARK INTRA:                  -0.296
REMARK UNBOUND:                -0.283
REMARK SMILES O=C(O)c1ccc2nc(-c3cc(Cl)cc(Cl)c3)oc2c1
REMARK SMILES IDX 5 1 6 2 20 3 8 4 18 5 4 6 9 7 7 8 19 9 2 10 1 11 3 12 10 14
REMARK SMILES IDX 11 15 17 16 12 17 15 18 14 19 13 20 16 21
REMARK H PARENT 3 13
ROOT
ATOM      1  C   UNL     1      -9.209 -10.719  -1.556  1.00  0.00     0.018 A 
ATOM      2  C   UNL     1      -8.348 -10.087  -0.709  1.00  0.00     0.033 A 
ATOM      3  C   UNL     1      -8.462  -9.324  -3.393  1.00  0.00     0.065 A 
ATOM      4  N   UNL     1      -6.599  -8.268  -0.603  1.00  0.00    -0.209 NA
ATOM      5  O   UNL     1      -6.697  -7.676  -2.694  1.00  0.00    -0.436 OA
ATOM      6  C   UNL     1      -9.276 -10.348  -2.906  1.00  0.00     0.063 A 
ATOM      7  C   UNL     1      -6.111  -7.451  -1.503  1.00  0.00     0.227 A 
ATOM      8  C   UNL     1      -7.526  -9.058  -1.184  1.00  0.00     0.110 A 
ATOM      9  C   UNL     1      -7.591  -8.677  -2.536  1.00  0.00     0.156 A 
ENDROOT
BRANCH   6  10
ATOM     10  C   UNL     1     -10.207 -11.043  -3.814  1.00  0.00     0.335 C 
ATOM     11  O   UNL     1     -10.204 -10.784  -5.001  1.00  0.00    -0.246 OA
BRANCH  10  12
ATOM     12  O   UNL     1     -11.062 -11.964  -3.328  1.00  0.00    -0.478 OA
ATOM     13  H   UNL     1     -10.944 -12.875  -3.628  1.00  0.00     0.297 HD
ENDBRANCH  10  12
ENDBRANCH   6  10
BRANCH   7  14
ATOM     14  C   UNL     1      -5.071  -6.433  -1.248  1.00  0.00     0.040 A 
ATOM     15  C   UNL     1      -4.182  -6.590  -0.185  1.00  0.00     0.034 A 
ATOM     16  C   UNL     1      -4.975  -5.309  -2.071  1.00  0.00     0.034 A 
ATOM     17  C   UNL     1      -3.211  -5.636   0.048  1.00  0.00     0.043 A 
ATOM     18  C   UNL     1      -4.001  -4.361  -1.828  1.00  0.00     0.043 A 
ATOM     19  C   UNL     1      -3.121  -4.523  -0.772  1.00  0.00     0.041 A 
ATOM     20  Cl  UNL     1      -2.103  -5.829   1.370  1.00  0.00    -0.084 Cl
ATOM     21  Cl  UNL     1      -3.880  -2.962  -2.850  1.00  0.00    -0.084 Cl
ENDBRANCH   7  14
TORSDOF 3
ENDMDL
MODEL 9
REMARK VINA RESULT:    -4.308      4.949      8.739
REMARK INTER + INTRA:          -5.221
REMARK INTER:                  -4.923
REMARK INTRA:                  -0.298
REMARK UNBOUND:                -0.283
REMARK SMILES O=C(O)c1ccc2nc(-c3cc(Cl)cc(Cl)c3)oc2c1
REMARK SMILES IDX 5 1 6 2 20 3 8 4 18 5 4 6 9 7 7 8 19 9 2 10 1 11 3 12 10 14
REMARK SMILES IDX 11 15 17 16 12 17 15 18 14 19 13 20 16 21
REMARK H PARENT 3 13
ROOT
ATOM      1  C   UNL     1      -3.379  -4.939   0.085  1.00  0.00     0.018 A 
ATOM      2  C   UNL     1      -4.128  -5.999   0.501  1.00  0.00     0.033 A 
ATOM      3  C   UNL     1      -4.391  -5.055  -2.115  1.00  0.00     0.065 A 
ATOM      4  N   UNL     1      -5.879  -7.651  -0.265  1.00  0.00    -0.209 NA
ATOM      5  O   UNL     1      -6.075  -6.913  -2.302  1.00  0.00    -0.436 OA
ATOM      6  C   UNL     1      -3.501  -4.453  -1.224  1.00  0.00     0.063 A 
ATOM      7  C   UNL     1      -6.499  -7.824  -1.406  1.00  0.00     0.227 A 
ATOM      8  C   UNL     1      -5.025  -6.612  -0.383  1.00  0.00     0.110 A 
ATOM      9  C   UNL     1      -5.150  -6.134  -1.699  1.00  0.00     0.156 A 
ENDROOT
BRANCH   6  10
ATOM     10  C   UNL     1      -2.689  -3.303  -1.661  1.00  0.00     0.335 C 
ATOM     11  O   UNL     1      -1.816  -2.866  -0.937  1.00  0.00    -0.246 OA
BRANCH  10  12
ATOM     12  O   UNL     1      -2.916  -2.734  -2.861  1.00  0.00    -0.478 OA
ATOM     13  H   UNL     1      -2.141  -2.491  -3.385  1.00  0.00     0.297 HD
ENDBRANCH  10  12
ENDBRANCH   6  10
BRANCH   7  14
ATOM     14  C   UNL     1      -7.513  -8.866  -1.670  1.00  0.00     0.040 A 
ATOM     15  C   UNL     1      -7.960  -9.096  -2.971  1.00  0.00     0.034 A 
ATOM     16  C   UNL     1      -8.028  -9.624  -0.616  1.00  0.00     0.034 A 
ATOM     17  C   UNL     1      -8.906 -10.072  -3.211  1.00  0.00     0.043 A 
ATOM     18  C   UNL     1      -8.975 -10.597  -0.869  1.00  0.00     0.043 A 
ATOM     19  C   UNL     1      -9.414 -10.820  -2.163  1.00  0.00     0.041 A 
ATOM     20  Cl  UNL     1      -9.463 -10.360  -4.830  1.00  0.00    -0.084 Cl
ATOM     21  Cl  UNL     1      -9.617 -11.541   0.439  1.00  0.00    -0.084 Cl
ENDBRANCH   7  14
TORSDOF 3
ENDMDL
