MODEL 1
REMARK VINA RESULT:    -5.780      0.000      0.000
REMARK INTER + INTRA:          -8.614
REMARK INTER:                  -7.976
REMARK INTRA:                  -0.638
REMARK UNBOUND:                -0.638
REMARK SMILES Cc1n[nH]c(C)c1CCCOc1cc(C(=O)O)ccc1F
REMARK SMILES IDX 11 1 12 2 14 3 18 4 13 5 19 6 20 7 21 8 15 9 16 10 17 11
REMARK SMILES IDX 10 13 9 14 8 15 7 16 5 17 2 18 4 19 3 20 6 21 1 22
REMARK H PARENT 17 12 4 23
ROOT
ATOM      1  O   UNL     1       4.315  -6.119  -5.771  1.00  0.00    -0.490 OA
ENDROOT
BRANCH   1   2
ATOM      2  C   UNL     1       3.747  -5.004  -5.240  1.00  0.00     0.155 A 
ATOM      3  C   UNL     1       2.483  -2.976  -5.507  1.00  0.00     0.063 A 
ATOM      4  C   UNL     1       2.583  -2.737  -4.134  1.00  0.00     0.019 A 
ATOM      5  C   UNL     1       3.070  -4.118  -6.057  1.00  0.00     0.065 A 
ATOM      6  C   UNL     1       3.255  -3.631  -3.327  1.00  0.00     0.044 A 
ATOM      7  C   UNL     1       3.832  -4.765  -3.873  1.00  0.00     0.165 A 
ATOM      8  F   UNL     1       4.489  -5.636  -3.077  1.00  0.00    -0.203 F 
BRANCH   3   9
ATOM      9  C   UNL     1       1.764  -2.022  -6.375  1.00  0.00     0.335 C 
ATOM     10  O   UNL     1       2.312  -1.560  -7.354  1.00  0.00    -0.246 OA
BRANCH   9  11
ATOM     11  O   UNL     1       0.496  -1.671  -6.082  1.00  0.00    -0.478 OA
ATOM     12  H   UNL     1       0.137  -1.982  -5.240  1.00  0.00     0.297 HD
ENDBRANCH   9  11
ENDBRANCH   3   9
ENDBRANCH   1   2
BRANCH   1  13
ATOM     13  C   UNL     1       5.655  -5.997  -6.256  1.00  0.00     0.230 C 
BRANCH  13  14
ATOM     14  C   UNL     1       5.883  -7.005  -7.383  1.00  0.00     0.046 C 
BRANCH  14  15
ATOM     15  C   UNL     1       4.622  -7.102  -8.244  1.00  0.00     0.043 C 
BRANCH  15  16
ATOM     16  C   UNL     1       4.924  -7.888  -9.493  1.00  0.00    -0.004 A 
ATOM     17  C   UNL     1       5.200  -7.370 -10.713  1.00  0.00     0.036 A 
ATOM     18  C   UNL     1       4.977  -9.282  -9.596  1.00  0.00     0.063 A 
ATOM     19  N   UNL     1       5.412  -8.400 -11.559  1.00  0.00    -0.282 N 
ATOM     20  N   UNL     1       5.262  -9.590 -10.835  1.00  0.00    -0.181 NA
ATOM     21  C   UNL     1       5.259  -5.906 -11.063  1.00  0.00     0.066 C 
ATOM     22  C   UNL     1       4.733 -10.260  -8.475  1.00  0.00     0.069 C 
ATOM     23  H   UNL     1       5.629  -8.329 -12.501  1.00  0.00     0.190 HD
ENDBRANCH  15  16
ENDBRANCH  14  15
ENDBRANCH  13  14
ENDBRANCH   1  13
TORSDOF 7
ENDMDL
MODEL 2
REMARK VINA RESULT:    -5.742      1.990      3.661
REMARK INTER + INTRA:          -8.561
REMARK INTER:                  -7.901
REMARK INTRA:                  -0.660
REMARK UNBOUND:                -0.638
REMARK SMILES Cc1n[nH]c(C)c1CCCOc1cc(C(=O)O)ccc1F
REMARK SMILES IDX 11 1 12 2 14 3 18 4 13 5 19 6 20 7 21 8 15 9 16 10 17 11
REMARK SMILES IDX 10 13 9 14 8 15 7 16 5 17 2 18 4 19 3 20 6 21 1 22
REMARK H PARENT 17 12 4 23
ROOT
ATOM      1  O   UNL     1       3.201  -4.649  -7.352  1.00  0.00    -0.490 OA
ENDROOT
BRANCH   1   2
ATOM      2  C   UNL     1       3.156  -4.160  -6.084  1.00  0.00     0.155 A 
ATOM      3  C   UNL     1       3.723  -4.344  -3.754  1.00  0.00     0.063 A 
ATOM      4  C   UNL     1       3.062  -3.139  -3.502  1.00  0.00     0.019 A 
ATOM      5  C   UNL     1       3.767  -4.852  -5.054  1.00  0.00     0.065 A 
ATOM      6  C   UNL     1       2.461  -2.453  -4.536  1.00  0.00     0.044 A 
ATOM      7  C   UNL     1       2.510  -2.956  -5.826  1.00  0.00     0.165 A 
ATOM      8  F   UNL     1       1.920  -2.279  -6.835  1.00  0.00    -0.203 F 
BRANCH   3   9
ATOM      9  C   UNL     1       4.367  -5.081  -2.649  1.00  0.00     0.335 C 
ATOM     10  O   UNL     1       4.079  -6.242  -2.444  1.00  0.00    -0.246 OA
BRANCH   9  11
ATOM     11  O   UNL     1       5.280  -4.465  -1.872  1.00  0.00    -0.478 OA
ATOM     12  H   UNL     1       5.131  -3.529  -1.676  1.00  0.00     0.297 HD
ENDBRANCH   9  11
ENDBRANCH   3   9
ENDBRANCH   1   2
BRANCH   1  13
ATOM     13  C   UNL     1       2.160  -5.550  -7.737  1.00  0.00     0.230 C 
BRANCH  13  14
ATOM     14  C   UNL     1       2.703  -6.548  -8.761  1.00  0.00     0.046 C 
BRANCH  14  15
ATOM     15  C   UNL     1       4.200  -6.760  -8.523  1.00  0.00     0.043 C 
BRANCH  15  16
ATOM     16  C   UNL     1       4.708  -7.837  -9.445  1.00  0.00    -0.004 A 
ATOM     17  C   UNL     1       4.789  -9.158  -9.160  1.00  0.00     0.036 A 
ATOM     18  C   UNL     1       5.174  -7.651 -10.751  1.00  0.00     0.063 A 
ATOM     19  N   UNL     1       5.294  -9.783 -10.243  1.00  0.00    -0.282 N 
ATOM     20  N   UNL     1       5.532  -8.815 -11.228  1.00  0.00    -0.181 NA
ATOM     21  C   UNL     1       4.386  -9.812  -7.864  1.00  0.00     0.066 C 
ATOM     22  C   UNL     1       5.261  -6.333 -11.478  1.00  0.00     0.069 C 
ATOM     23  H   UNL     1       5.464 -10.734 -10.326  1.00  0.00     0.190 HD
ENDBRANCH  15  16
ENDBRANCH  14  15
ENDBRANCH  13  14
ENDBRANCH   1  13
TORSDOF 7
ENDMDL
MODEL 3
REMARK VINA RESULT:    -5.652      1.986      3.206
REMARK INTER + INTRA:          -8.437
REMARK INTER:                  -7.809
REMARK INTRA:                  -0.628
REMARK UNBOUND:                -0.638
REMARK SMILES Cc1n[nH]c(C)c1CCCOc1cc(C(=O)O)ccc1F
REMARK SMILES IDX 11 1 12 2 14 3 18 4 13 5 19 6 20 7 21 8 15 9 16 10 17 11
REMARK SMILES IDX 10 13 9 14 8 15 7 16 5 17 2 18 4 19 3 20 6 21 1 22
REMARK H PARENT 17 12 4 23
ROOT
ATOM      1  O   UNL     1       3.380  -4.811  -7.399  1.00  0.00    -0.490 OA
ENDROOT
BRANCH   1   2
ATOM      2  C   UNL     1       3.289  -4.286  -6.149  1.00  0.00     0.155 A 
ATOM      3  C   UNL     1       3.786  -4.390  -3.799  1.00  0.00     0.063 A 
ATOM      4  C   UNL     1       3.099  -3.189  -3.604  1.00  0.00     0.019 A 
ATOM      5  C   UNL     1       3.878  -4.936  -5.081  1.00  0.00     0.065 A 
ATOM      6  C   UNL     1       2.520  -2.544  -4.676  1.00  0.00     0.044 A 
ATOM      7  C   UNL     1       2.617  -3.085  -5.948  1.00  0.00     0.165 A 
ATOM      8  F   UNL     1       2.047  -2.448  -6.995  1.00  0.00    -0.203 F 
BRANCH   3   9
ATOM      9  C   UNL     1       4.408  -5.083  -2.653  1.00  0.00     0.335 C 
ATOM     10  O   UNL     1       4.079  -6.219  -2.379  1.00  0.00    -0.246 OA
BRANCH   9  11
ATOM     11  O   UNL     1       5.345  -4.456  -1.915  1.00  0.00    -0.478 OA
ATOM     12  H   UNL     1       6.194  -4.907  -1.807  1.00  0.00     0.297 HD
ENDBRANCH   9  11
ENDBRANCH   3   9
ENDBRANCH   1   2
BRANCH   1  13
ATOM     13  C   UNL     1       2.277  -5.599  -7.854  1.00  0.00     0.230 C 
BRANCH  13  14
ATOM     14  C   UNL     1       2.772  -6.630  -8.870  1.00  0.00     0.046 C 
BRANCH  14  15
ATOM     15  C   UNL     1       4.284  -6.813  -8.717  1.00  0.00     0.043 C 
BRANCH  15  16
ATOM     16  C   UNL     1       4.780  -7.790  -9.751  1.00  0.00    -0.004 A 
ATOM     17  C   UNL     1       5.183  -7.485 -11.006  1.00  0.00     0.036 A 
ATOM     18  C   UNL     1       4.911  -9.172  -9.581  1.00  0.00     0.063 A 
ATOM     19  N   UNL     1       5.550  -8.634 -11.611  1.00  0.00    -0.282 N 
ATOM     20  N   UNL     1       5.366  -9.680 -10.697  1.00  0.00    -0.181 NA
ATOM     21  C   UNL     1       5.217  -6.109 -11.618  1.00  0.00     0.066 C 
ATOM     22  C   UNL     1       4.574  -9.945  -8.331  1.00  0.00     0.069 C 
ATOM     23  H   UNL     1       5.882  -8.721 -12.518  1.00  0.00     0.190 HD
ENDBRANCH  15  16
ENDBRANCH  14  15
ENDBRANCH  13  14
ENDBRANCH   1  13
TORSDOF 7
ENDMDL
MODEL 4
REMARK VINA RESULT:    -5.414      0.565      1.869
REMARK INTER + INTRA:          -8.109
REMARK INTER:                  -7.422
REMARK INTRA:                  -0.688
REMARK UNBOUND:                -0.638
REMARK SMILES Cc1n[nH]c(C)c1CCCOc1cc(C(=O)O)ccc1F
REMARK SMILES IDX 11 1 12 2 14 3 18 4 13 5 19 6 20 7 21 8 15 9 16 10 17 11
REMARK SMILES IDX 10 13 9 14 8 15 7 16 5 17 2 18 4 19 3 20 6 21 1 22
REMARK H PARENT 17 12 4 23
ROOT
ATOM      1  O   UNL     1       4.297  -6.030  -5.719  1.00  0.00    -0.490 OA
ENDROOT
BRANCH   1   2
ATOM      2  C   UNL     1       3.749  -4.948  -5.106  1.00  0.00     0.155 A 
ATOM      3  C   UNL     1       2.582  -2.849  -5.226  1.00  0.00     0.063 A 
ATOM      4  C   UNL     1       2.626  -2.749  -3.833  1.00  0.00     0.019 A 
ATOM      5  C   UNL     1       3.148  -3.957  -5.860  1.00  0.00     0.065 A 
ATOM      6  C   UNL     1       3.222  -3.745  -3.089  1.00  0.00     0.044 A 
ATOM      7  C   UNL     1       3.779  -4.846  -3.719  1.00  0.00     0.165 A 
ATOM      8  F   UNL     1       4.362  -5.819  -2.985  1.00  0.00    -0.203 F 
BRANCH   3   9
ATOM      9  C   UNL     1       1.944  -1.784  -6.025  1.00  0.00     0.335 C 
ATOM     10  O   UNL     1       2.001  -0.630  -5.654  1.00  0.00    -0.246 OA
BRANCH   9  11
ATOM     11  O   UNL     1       1.303  -2.094  -7.169  1.00  0.00    -0.478 OA
ATOM     12  H   UNL     1       1.757  -1.883  -7.997  1.00  0.00     0.297 HD
ENDBRANCH   9  11
ENDBRANCH   3   9
ENDBRANCH   1   2
BRANCH   1  13
ATOM     13  C   UNL     1       5.637  -5.894  -6.201  1.00  0.00     0.230 C 
BRANCH  13  14
ATOM     14  C   UNL     1       5.909  -6.964  -7.260  1.00  0.00     0.046 C 
BRANCH  14  15
ATOM     15  C   UNL     1       4.604  -7.312  -7.980  1.00  0.00     0.043 C 
BRANCH  15  16
ATOM     16  C   UNL     1       4.910  -8.137  -9.203  1.00  0.00    -0.004 A 
ATOM     17  C   UNL     1       4.945  -9.489  -9.263  1.00  0.00     0.036 A 
ATOM     18  C   UNL     1       5.200  -7.643 -10.478  1.00  0.00     0.063 A 
ATOM     19  N   UNL     1       5.254  -9.837 -10.530  1.00  0.00    -0.282 N 
ATOM     20  N   UNL     1       5.413  -8.660 -11.273  1.00  0.00    -0.181 NA
ATOM     21  C   UNL     1       4.686 -10.435  -8.120  1.00  0.00     0.066 C 
ATOM     22  C   UNL     1       5.268  -6.188 -10.868  1.00  0.00     0.069 C 
ATOM     23  H   UNL     1       5.349 -10.741 -10.866  1.00  0.00     0.190 HD
ENDBRANCH  15  16
ENDBRANCH  14  15
ENDBRANCH  13  14
ENDBRANCH   1  13
TORSDOF 7
ENDMDL
MODEL 5
REMARK VINA RESULT:    -4.902     10.067     11.221
REMARK INTER + INTRA:          -7.402
REMARK INTER:                  -7.056
REMARK INTRA:                  -0.346
REMARK UNBOUND:                -0.638
REMARK SMILES Cc1n[nH]c(C)c1CCCOc1cc(C(=O)O)ccc1F
REMARK SMILES IDX 11 1 12 2 14 3 18 4 13 5 19 6 20 7 21 8 15 9 16 10 17 11
REMARK SMILES IDX 10 13 9 14 8 15 7 16 5 17 2 18 4 19 3 20 6 21 1 22
REMARK H PARENT 17 12 4 23
ROOT
ATOM      1  O   UNL     1       2.392   0.158  -1.049  1.00  0.00    -0.490 OA
ENDROOT
BRANCH   1   2
ATOM      2  C   UNL     1       3.217   1.221  -1.240  1.00  0.00     0.155 A 
ATOM      3  C   UNL     1       5.328   2.317  -0.887  1.00  0.00     0.063 A 
ATOM      4  C   UNL     1       4.890   3.400  -1.653  1.00  0.00     0.019 A 
ATOM      5  C   UNL     1       4.482   1.224  -0.684  1.00  0.00     0.065 A 
ATOM      6  C   UNL     1       3.629   3.386  -2.209  1.00  0.00     0.044 A 
ATOM      7  C   UNL     1       2.793   2.299  -2.010  1.00  0.00     0.165 A 
ATOM      8  F   UNL     1       1.558   2.291  -2.558  1.00  0.00    -0.203 F 
BRANCH   3   9
ATOM      9  C   UNL     1       6.678   2.329  -0.290  1.00  0.00     0.335 C 
ATOM     10  O   UNL     1       7.093   3.331   0.254  1.00  0.00    -0.246 OA
BRANCH   9  11
ATOM     11  O   UNL     1       7.448   1.224  -0.344  1.00  0.00    -0.478 OA
ATOM     12  H   UNL     1       7.377   0.603   0.394  1.00  0.00     0.297 HD
ENDBRANCH   9  11
ENDBRANCH   3   9
ENDBRANCH   1   2
BRANCH   1  13
ATOM     13  C   UNL     1       1.358   0.306  -0.073  1.00  0.00     0.230 C 
BRANCH  13  14
ATOM     14  C   UNL     1       0.411  -0.892  -0.148  1.00  0.00     0.046 C 
BRANCH  14  15
ATOM     15  C   UNL     1      -0.988  -0.466   0.303  1.00  0.00     0.043 C 
BRANCH  15  16
ATOM     16  C   UNL     1      -1.767  -1.680   0.740  1.00  0.00    -0.004 A 
ATOM     17  C   UNL     1      -2.801  -2.244   0.074  1.00  0.00     0.036 A 
ATOM     18  C   UNL     1      -1.545  -2.426   1.903  1.00  0.00     0.063 A 
ATOM     19  N   UNL     1      -3.223  -3.306   0.793  1.00  0.00    -0.282 N 
ATOM     20  N   UNL     1      -2.422  -3.396   1.939  1.00  0.00    -0.181 NA
ATOM     21  C   UNL     1      -3.378  -1.773  -1.235  1.00  0.00     0.066 C 
ATOM     22  C   UNL     1      -0.487  -2.151   2.941  1.00  0.00     0.069 C 
ATOM     23  H   UNL     1      -3.952  -3.900   0.559  1.00  0.00     0.190 HD
ENDBRANCH  15  16
ENDBRANCH  14  15
ENDBRANCH  13  14
ENDBRANCH   1  13
TORSDOF 7
ENDMDL
MODEL 6
REMARK VINA RESULT:    -4.721      3.729      6.668
REMARK INTER + INTRA:          -7.153
REMARK INTER:                  -6.309
REMARK INTRA:                  -0.844
REMARK UNBOUND:                -0.638
REMARK SMILES Cc1n[nH]c(C)c1CCCOc1cc(C(=O)O)ccc1F
REMARK SMILES IDX 11 1 12 2 14 3 18 4 13 5 19 6 20 7 21 8 15 9 16 10 17 11
REMARK SMILES IDX 10 13 9 14 8 15 7 16 5 17 2 18 4 19 3 20 6 21 1 22
REMARK H PARENT 17 12 4 23
ROOT
ATOM      1  O   UNL     1       4.183  -6.859  -6.578  1.00  0.00    -0.490 OA
ENDROOT
BRANCH   1   2
ATOM      2  C   UNL     1       4.473  -7.368  -7.805  1.00  0.00     0.155 A 
ATOM      3  C   UNL     1       5.060  -7.044 -10.114  1.00  0.00     0.063 A 
ATOM      4  C   UNL     1       5.073  -8.429 -10.301  1.00  0.00     0.019 A 
ATOM      5  C   UNL     1       4.758  -6.517  -8.857  1.00  0.00     0.065 A 
ATOM      6  C   UNL     1       4.794  -9.270  -9.245  1.00  0.00     0.044 A 
ATOM      7  C   UNL     1       4.499  -8.745  -7.997  1.00  0.00     0.165 A 
ATOM      8  F   UNL     1       4.227  -9.575  -6.966  1.00  0.00    -0.203 F 
BRANCH   3   9
ATOM      9  C   UNL     1       5.359  -6.141 -11.243  1.00  0.00     0.335 C 
ATOM     10  O   UNL     1       5.388  -4.940 -11.069  1.00  0.00    -0.246 OA
BRANCH   9  11
ATOM     11  O   UNL     1       5.606  -6.651 -12.466  1.00  0.00    -0.478 OA
ATOM     12  H   UNL     1       6.198  -7.414 -12.512  1.00  0.00     0.297 HD
ENDBRANCH   9  11
ENDBRANCH   3   9
ENDBRANCH   1   2
BRANCH   1  13
ATOM     13  C   UNL     1       4.871  -5.667  -6.191  1.00  0.00     0.230 C 
BRANCH  13  14
ATOM     14  C   UNL     1       4.363  -5.207  -4.824  1.00  0.00     0.046 C 
BRANCH  14  15
ATOM     15  C   UNL     1       2.836  -5.300  -4.789  1.00  0.00     0.043 C 
BRANCH  15  16
ATOM     16  C   UNL     1       2.242  -4.045  -5.373  1.00  0.00    -0.004 A 
ATOM     17  C   UNL     1       2.259  -2.816  -4.806  1.00  0.00     0.036 A 
ATOM     18  C   UNL     1       1.580  -3.942  -6.602  1.00  0.00     0.063 A 
ATOM     19  N   UNL     1       1.625  -1.968  -5.642  1.00  0.00    -0.282 N 
ATOM     20  N   UNL     1       1.204  -2.699  -6.760  1.00  0.00    -0.181 NA
ATOM     21  C   UNL     1       2.876  -2.461  -3.478  1.00  0.00     0.066 C 
ATOM     22  C   UNL     1       1.332  -5.070  -7.569  1.00  0.00     0.069 C 
ATOM     23  H   UNL     1       1.485  -1.020  -5.494  1.00  0.00     0.190 HD
ENDBRANCH  15  16
ENDBRANCH  14  15
ENDBRANCH  13  14
ENDBRANCH   1  13
TORSDOF 7
ENDMDL
MODEL 7
REMARK VINA RESULT:    -4.561      4.236      7.769
REMARK INTER + INTRA:          -6.932
REMARK INTER:                  -6.380
REMARK INTRA:                  -0.552
REMARK UNBOUND:                -0.638
REMARK SMILES Cc1n[nH]c(C)c1CCCOc1cc(C(=O)O)ccc1F
REMARK SMILES IDX 11 1 12 2 14 3 18 4 13 5 19 6 20 7 21 8 15 9 16 10 17 11
REMARK SMILES IDX 10 13 9 14 8 15 7 16 5 17 2 18 4 19 3 20 6 21 1 22
REMARK H PARENT 17 12 4 23
ROOT
ATOM      1  O   UNL     1       4.237  -5.523  -8.403  1.00  0.00    -0.490 OA
ENDROOT
BRANCH   1   2
ATOM      2  C   UNL     1       4.594  -6.544  -9.226  1.00  0.00     0.155 A 
ATOM      3  C   UNL     1       4.905  -8.895  -9.623  1.00  0.00     0.063 A 
ATOM      4  C   UNL     1       5.317  -8.617 -10.929  1.00  0.00     0.019 A 
ATOM      5  C   UNL     1       4.542  -7.849  -8.772  1.00  0.00     0.065 A 
ATOM      6  C   UNL     1       5.359  -7.312 -11.375  1.00  0.00     0.044 A 
ATOM      7  C   UNL     1       4.995  -6.276 -10.531  1.00  0.00     0.165 A 
ATOM      8  F   UNL     1       5.038  -5.001 -10.974  1.00  0.00    -0.203 F 
BRANCH   3   9
ATOM      9  C   UNL     1       4.858 -10.290  -9.143  1.00  0.00     0.335 C 
ATOM     10  O   UNL     1       5.093 -11.204  -9.906  1.00  0.00    -0.246 OA
BRANCH   9  11
ATOM     11  O   UNL     1       4.560 -10.549  -7.854  1.00  0.00    -0.478 OA
ATOM     12  H   UNL     1       5.095 -10.105  -7.182  1.00  0.00     0.297 HD
ENDBRANCH   9  11
ENDBRANCH   3   9
ENDBRANCH   1   2
BRANCH   1  13
ATOM     13  C   UNL     1       3.041  -5.694  -7.638  1.00  0.00     0.230 C 
BRANCH  13  14
ATOM     14  C   UNL     1       3.395  -5.794  -6.154  1.00  0.00     0.046 C 
BRANCH  14  15
ATOM     15  C   UNL     1       4.216  -4.571  -5.741  1.00  0.00     0.043 C 
BRANCH  15  16
ATOM     16  C   UNL     1       3.493  -3.824  -4.651  1.00  0.00    -0.004 A 
ATOM     17  C   UNL     1       3.603  -4.052  -3.321  1.00  0.00     0.036 A 
ATOM     18  C   UNL     1       2.594  -2.768  -4.833  1.00  0.00     0.063 A 
ATOM     19  N   UNL     1       2.797  -3.176  -2.685  1.00  0.00    -0.282 N 
ATOM     20  N   UNL     1       2.171  -2.383  -3.656  1.00  0.00    -0.181 NA
ATOM     21  C   UNL     1       4.471  -5.096  -2.668  1.00  0.00     0.066 C 
ATOM     22  C   UNL     1       2.175  -2.183  -6.158  1.00  0.00     0.069 C 
ATOM     23  H   UNL     1       2.673  -3.107  -1.726  1.00  0.00     0.190 HD
ENDBRANCH  15  16
ENDBRANCH  14  15
ENDBRANCH  13  14
ENDBRANCH   1  13
TORSDOF 7
ENDMDL
MODEL 8
REMARK VINA RESULT:    -4.506      4.737      7.967
REMARK INTER + INTRA:          -6.856
REMARK INTER:                  -6.146
REMARK INTRA:                  -0.710
REMARK UNBOUND:                -0.638
REMARK SMILES Cc1n[nH]c(C)c1CCCOc1cc(C(=O)O)ccc1F
REMARK SMILES IDX 11 1 12 2 14 3 18 4 13 5 19 6 20 7 21 8 15 9 16 10 17 11
REMARK SMILES IDX 10 13 9 14 8 15 7 16 5 17 2 18 4 19 3 20 6 21 1 22
REMARK H PARENT 17 12 4 23
ROOT
ATOM      1  O   UNL     1       4.643  -6.608 -10.235  1.00  0.00    -0.490 OA
ENDROOT
BRANCH   1   2
ATOM      2  C   UNL     1       5.321  -6.742 -11.405  1.00  0.00     0.155 A 
ATOM      3  C   UNL     1       5.874  -8.023 -13.363  1.00  0.00     0.063 A 
ATOM      4  C   UNL     1       6.709  -6.991 -13.799  1.00  0.00     0.019 A 
ATOM      5  C   UNL     1       5.179  -7.892 -12.159  1.00  0.00     0.065 A 
ATOM      6  C   UNL     1       6.840  -5.845 -13.043  1.00  0.00     0.044 A 
ATOM      7  C   UNL     1       6.146  -5.715 -11.851  1.00  0.00     0.165 A 
ATOM      8  F   UNL     1       6.279  -4.589 -11.115  1.00  0.00    -0.203 F 
BRANCH   3   9
ATOM      9  C   UNL     1       5.731  -9.251 -14.170  1.00  0.00     0.335 C 
ATOM     10  O   UNL     1       6.642  -9.618 -14.885  1.00  0.00    -0.246 OA
BRANCH   9  11
ATOM     11  O   UNL     1       4.593  -9.969 -14.108  1.00  0.00    -0.478 OA
ATOM     12  H   UNL     1       4.146 -10.157 -14.946  1.00  0.00     0.297 HD
ENDBRANCH   9  11
ENDBRANCH   3   9
ENDBRANCH   1   2
BRANCH   1  13
ATOM     13  C   UNL     1       4.944  -7.546  -9.199  1.00  0.00     0.230 C 
BRANCH  13  14
ATOM     14  C   UNL     1       4.238  -7.126  -7.909  1.00  0.00     0.046 C 
BRANCH  14  15
ATOM     15  C   UNL     1       4.200  -5.598  -7.823  1.00  0.00     0.043 C 
BRANCH  15  16
ATOM     16  C   UNL     1       3.697  -5.183  -6.465  1.00  0.00    -0.004 A 
ATOM     17  C   UNL     1       2.409  -4.926  -6.137  1.00  0.00     0.036 A 
ATOM     18  C   UNL     1       4.477  -5.002  -5.318  1.00  0.00     0.063 A 
ATOM     19  N   UNL     1       2.377  -4.588  -4.831  1.00  0.00    -0.282 N 
ATOM     20  N   UNL     1       3.688  -4.638  -4.340  1.00  0.00    -0.181 NA
ATOM     21  C   UNL     1       1.225  -5.004  -7.064  1.00  0.00     0.066 C 
ATOM     22  C   UNL     1       5.971  -5.182  -5.228  1.00  0.00     0.069 C 
ATOM     23  H   UNL     1       1.586  -4.350  -4.322  1.00  0.00     0.190 HD
ENDBRANCH  15  16
ENDBRANCH  14  15
ENDBRANCH  13  14
ENDBRANCH   1  13
TORSDOF 7
ENDMDL
MODEL 9
REMARK VINA RESULT:    -4.501      4.367      8.085
REMARK INTER + INTRA:          -6.850
REMARK INTER:                  -6.130
REMARK INTRA:                  -0.720
REMARK UNBOUND:                -0.638
REMARK SMILES Cc1n[nH]c(C)c1CCCOc1cc(C(=O)O)ccc1F
REMARK SMILES IDX 11 1 12 2 14 3 18 4 13 5 19 6 20 7 21 8 15 9 16 10 17 11
REMARK SMILES IDX 10 13 9 14 8 15 7 16 5 17 2 18 4 19 3 20 6 21 1 22
REMARK H PARENT 17 12 4 23
ROOT
ATOM      1  O   UNL     1       4.812  -8.930  -8.106  1.00  0.00    -0.490 OA
ENDROOT
BRANCH   1   2
ATOM      2  C   UNL     1       4.693 -10.223  -8.507  1.00  0.00     0.155 A 
ATOM      3  C   UNL     1       5.371 -12.038  -9.932  1.00  0.00     0.063 A 
ATOM      4  C   UNL     1       4.440 -12.872  -9.307  1.00  0.00     0.019 A 
ATOM      5  C   UNL     1       5.493 -10.708  -9.525  1.00  0.00     0.065 A 
ATOM      6  C   UNL     1       3.650 -12.381  -8.289  1.00  0.00     0.044 A 
ATOM      7  C   UNL     1       3.776 -11.063  -7.884  1.00  0.00     0.165 A 
ATOM      8  F   UNL     1       2.999 -10.588  -6.885  1.00  0.00    -0.203 F 
BRANCH   3   9
ATOM      9  C   UNL     1       6.219 -12.560 -11.021  1.00  0.00     0.335 C 
ATOM     10  O   UNL     1       5.981 -13.646 -11.510  1.00  0.00    -0.246 OA
BRANCH   9  11
ATOM     11  O   UNL     1       7.254 -11.829 -11.479  1.00  0.00    -0.478 OA
ATOM     12  H   UNL     1       7.765 -11.333 -10.823  1.00  0.00     0.297 HD
ENDBRANCH   9  11
ENDBRANCH   3   9
ENDBRANCH   1   2
BRANCH   1  13
ATOM     13  C   UNL     1       4.539  -7.920  -9.080  1.00  0.00     0.230 C 
BRANCH  13  14
ATOM     14  C   UNL     1       4.490  -6.553  -8.396  1.00  0.00     0.046 C 
BRANCH  14  15
ATOM     15  C   UNL     1       3.927  -6.709  -6.982  1.00  0.00     0.043 C 
BRANCH  15  16
ATOM     16  C   UNL     1       3.758  -5.350  -6.354  1.00  0.00    -0.004 A 
ATOM     17  C   UNL     1       2.647  -4.580  -6.409  1.00  0.00     0.036 A 
ATOM     18  C   UNL     1       4.721  -4.663  -5.606  1.00  0.00     0.063 A 
ATOM     19  N   UNL     1       2.899  -3.444  -5.726  1.00  0.00    -0.282 N 
ATOM     20  N   UNL     1       4.209  -3.518  -5.235  1.00  0.00    -0.181 NA
ATOM     21  C   UNL     1       1.358  -4.930  -7.108  1.00  0.00     0.066 C 
ATOM     22  C   UNL     1       6.111  -5.153  -5.293  1.00  0.00     0.069 C 
ATOM     23  H   UNL     1       2.282  -2.706  -5.598  1.00  0.00     0.190 HD
ENDBRANCH  15  16
ENDBRANCH  14  15
ENDBRANCH  13  14
ENDBRANCH   1  13
TORSDOF 7
ENDMDL
