MODEL 1
REMARK VINA RESULT:    -5.095      0.000      0.000
REMARK INTER + INTRA:          -6.137
REMARK INTER:                  -5.840
REMARK INTRA:                  -0.297
REMARK UNBOUND:                -0.297
REMARK SMILES O=C(O)c1ccc2nc(-c3cc(Cl)cc(Cl)c3)oc2c1
REMARK SMILES IDX 5 1 6 2 20 3 8 4 18 5 4 6 9 7 7 8 19 9 2 10 1 11 3 12 10 14
REMARK SMILES IDX 11 15 17 16 12 17 15 18 14 19 13 20 16 21
REMARK H PARENT 3 13
ROOT
ATOM      1  C   UNL     1       4.885   2.238  -0.176  1.00  0.00     0.018 A 
ATOM      2  C   UNL     1       4.236   1.337   0.614  1.00  0.00     0.033 A 
ATOM      3  C   UNL     1       2.986   2.322  -1.682  1.00  0.00     0.065 A 
ATOM      4  N   UNL     1       2.076   0.047   0.843  1.00  0.00    -0.209 NA
ATOM      5  O   UNL     1       1.112   0.815  -0.950  1.00  0.00    -0.436 OA
ATOM      6  C   UNL     1       4.270   2.742  -1.331  1.00  0.00     0.063 A 
ATOM      7  C   UNL     1       0.989  -0.002   0.113  1.00  0.00     0.227 A 
ATOM      8  C   UNL     1       2.948   0.907   0.274  1.00  0.00     0.110 A 
ATOM      9  C   UNL     1       2.326   1.404  -0.885  1.00  0.00     0.156 A 
ENDROOT
BRANCH   6  10
ATOM     10  C   UNL     1       4.980   3.720  -2.175  1.00  0.00     0.335 C 
ATOM     11  O   UNL     1       4.355   4.436  -2.931  1.00  0.00    -0.246 OA
BRANCH  10  12
ATOM     12  O   UNL     1       6.322   3.820  -2.108  1.00  0.00    -0.478 OA
ATOM     13  H   UNL     1       6.814   3.692  -2.930  1.00  0.00     0.297 HD
ENDBRANCH  10  12
ENDBRANCH   6  10
BRANCH   7  14
ATOM     14  C   UNL     1      -0.195  -0.834   0.413  1.00  0.00     0.040 A 
ATOM     15  C   UNL     1      -0.278  -1.526   1.621  1.00  0.00     0.034 A 
ATOM     16  C   UNL     1      -1.235  -0.930  -0.514  1.00  0.00     0.034 A 
ATOM     17  C   UNL     1      -1.388  -2.300   1.896  1.00  0.00     0.043 A 
ATOM     18  C   UNL     1      -2.340  -1.708  -0.228  1.00  0.00     0.043 A 
ATOM     19  C   UNL     1      -2.416  -2.392   0.973  1.00  0.00     0.041 A 
ATOM     20  Cl  UNL     1      -1.494  -3.161   3.399  1.00  0.00    -0.084 Cl
ATOM     21  Cl  UNL     1      -3.634  -1.830  -1.379  1.00  0.00    -0.084 Cl
ENDBRANCH   7  14
TORSDOF 3
ENDMDL
MODEL 2
REMARK VINA RESULT:    -4.468     11.151     11.581
REMARK INTER + INTRA:          -5.418
REMARK INTER:                  -5.123
REMARK INTRA:                  -0.295
REMARK UNBOUND:                -0.297
REMARK SMILES O=C(O)c1ccc2nc(-c3cc(Cl)cc(Cl)c3)oc2c1
REMARK SMILES IDX 5 1 6 2 20 3 8 4 18 5 4 6 9 7 7 8 19 9 2 10 1 11 3 12 10 14
REMARK SMILES IDX 11 15 17 16 12 17 15 18 14 19 13 20 16 21
REMARK H PARENT 3 13
ROOT
ATOM      1  C   UNL     1       5.130  -8.834 -10.446  1.00  0.00     0.018 A 
ATOM      2  C   UNL     1       4.821  -8.728  -9.123  1.00  0.00     0.033 A 
ATOM      3  C   UNL     1       5.016  -6.424 -10.691  1.00  0.00     0.065 A 
ATOM      4  N   UNL     1       4.288  -7.054  -7.308  1.00  0.00    -0.209 NA
ATOM      5  O   UNL     1       4.437  -5.265  -8.537  1.00  0.00    -0.436 OA
ATOM      6  C   UNL     1       5.233  -7.687 -11.246  1.00  0.00     0.063 A 
ATOM      7  C   UNL     1       4.193  -5.747  -7.304  1.00  0.00     0.227 A 
ATOM      8  C   UNL     1       4.601  -7.467  -8.554  1.00  0.00     0.110 A 
ATOM      9  C   UNL     1       4.698  -6.312  -9.350  1.00  0.00     0.156 A 
ENDROOT
BRANCH   6  10
ATOM     10  C   UNL     1       5.573  -7.814 -12.674  1.00  0.00     0.335 C 
ATOM     11  O   UNL     1       5.535  -6.838 -13.397  1.00  0.00    -0.246 OA
BRANCH  10  12
ATOM     12  O   UNL     1       5.925  -9.013 -13.180  1.00  0.00    -0.478 OA
ATOM     13  H   UNL     1       6.027  -9.072 -14.139  1.00  0.00     0.297 HD
ENDBRANCH  10  12
ENDBRANCH   6  10
BRANCH   7  14
ATOM     14  C   UNL     1       3.865  -4.925  -6.121  1.00  0.00     0.040 A 
ATOM     15  C   UNL     1       4.220  -5.362  -4.844  1.00  0.00     0.034 A 
ATOM     16  C   UNL     1       3.197  -3.709  -6.276  1.00  0.00     0.034 A 
ATOM     17  C   UNL     1       3.911  -4.588  -3.742  1.00  0.00     0.043 A 
ATOM     18  C   UNL     1       2.894  -2.945  -5.167  1.00  0.00     0.043 A 
ATOM     19  C   UNL     1       3.249  -3.383  -3.903  1.00  0.00     0.041 A 
ATOM     20  Cl  UNL     1       4.352  -5.129  -2.153  1.00  0.00    -0.084 Cl
ATOM     21  Cl  UNL     1       2.064  -1.432  -5.359  1.00  0.00    -0.084 Cl
ENDBRANCH   7  14
TORSDOF 3
ENDMDL
MODEL 3
REMARK VINA RESULT:    -4.467     14.386     14.849
REMARK INTER + INTRA:          -5.416
REMARK INTER:                  -5.133
REMARK INTRA:                  -0.284
REMARK UNBOUND:                -0.297
REMARK SMILES O=C(O)c1ccc2nc(-c3cc(Cl)cc(Cl)c3)oc2c1
REMARK SMILES IDX 5 1 6 2 20 3 8 4 18 5 4 6 9 7 7 8 19 9 2 10 1 11 3 12 10 14
REMARK SMILES IDX 11 15 17 16 12 17 15 18 14 19 13 20 16 21
REMARK H PARENT 3 13
ROOT
ATOM      1  C   UNL     1       7.342  -7.153 -15.518  1.00  0.00     0.018 A 
ATOM      2  C   UNL     1       6.550  -7.861 -14.664  1.00  0.00     0.033 A 
ATOM      3  C   UNL     1       7.725  -5.475 -13.809  1.00  0.00     0.065 A 
ATOM      4  N   UNL     1       5.609  -7.858 -12.319  1.00  0.00    -0.209 NA
ATOM      5  O   UNL     1       6.524  -5.996 -11.663  1.00  0.00    -0.436 OA
ATOM      6  C   UNL     1       7.940  -5.955 -15.102  1.00  0.00     0.063 A 
ATOM      7  C   UNL     1       5.732  -7.027 -11.314  1.00  0.00     0.227 A 
ATOM      8  C   UNL     1       6.326  -7.391 -13.364  1.00  0.00     0.110 A 
ATOM      9  C   UNL     1       6.918  -6.187 -12.942  1.00  0.00     0.156 A 
ENDROOT
BRANCH   6  10
ATOM     10  C   UNL     1       8.799  -5.201 -16.033  1.00  0.00     0.335 C 
ATOM     11  O   UNL     1       9.972  -5.496 -16.151  1.00  0.00    -0.246 OA
BRANCH  10  12
ATOM     12  O   UNL     1       8.285  -4.183 -16.751  1.00  0.00    -0.478 OA
ATOM     13  H   UNL     1       8.010  -4.380 -17.657  1.00  0.00     0.297 HD
ENDBRANCH  10  12
ENDBRANCH   6  10
BRANCH   7  14
ATOM     14  C   UNL     1       5.093  -7.197  -9.992  1.00  0.00     0.040 A 
ATOM     15  C   UNL     1       4.923  -8.473  -9.454  1.00  0.00     0.034 A 
ATOM     16  C   UNL     1       4.656  -6.080  -9.277  1.00  0.00     0.034 A 
ATOM     17  C   UNL     1       4.326  -8.625  -8.218  1.00  0.00     0.043 A 
ATOM     18  C   UNL     1       4.061  -6.245  -8.042  1.00  0.00     0.043 A 
ATOM     19  C   UNL     1       3.895  -7.513  -7.514  1.00  0.00     0.041 A 
ATOM     20  Cl  UNL     1       4.114 -10.211  -7.547  1.00  0.00    -0.084 Cl
ATOM     21  Cl  UNL     1       3.517  -4.857  -7.151  1.00  0.00    -0.084 Cl
ENDBRANCH   7  14
TORSDOF 3
ENDMDL
MODEL 4
REMARK VINA RESULT:    -4.466     11.126     12.004
REMARK INTER + INTRA:          -5.416
REMARK INTER:                  -5.120
REMARK INTRA:                  -0.296
REMARK UNBOUND:                -0.297
REMARK SMILES O=C(O)c1ccc2nc(-c3cc(Cl)cc(Cl)c3)oc2c1
REMARK SMILES IDX 5 1 6 2 20 3 8 4 18 5 4 6 9 7 7 8 19 9 2 10 1 11 3 12 10 14
REMARK SMILES IDX 11 15 17 16 12 17 15 18 14 19 13 20 16 21
REMARK H PARENT 3 13
ROOT
ATOM      1  C   UNL     1       5.175  -8.741 -10.382  1.00  0.00     0.018 A 
ATOM      2  C   UNL     1       4.907  -7.431 -10.118  1.00  0.00     0.033 A 
ATOM      3  C   UNL     1       4.609  -9.340  -8.101  1.00  0.00     0.065 A 
ATOM      4  N   UNL     1       4.155  -5.857  -8.291  1.00  0.00    -0.209 NA
ATOM      5  O   UNL     1       3.930  -7.349  -6.724  1.00  0.00    -0.436 OA
ATOM      6  C   UNL     1       5.028  -9.711  -9.380  1.00  0.00     0.063 A 
ATOM      7  C   UNL     1       3.826  -6.044  -7.037  1.00  0.00     0.227 A 
ATOM      8  C   UNL     1       4.486  -7.045  -8.839  1.00  0.00     0.110 A 
ATOM      9  C   UNL     1       4.341  -8.011  -7.828  1.00  0.00     0.156 A 
ENDROOT
BRANCH   6  10
ATOM     10  C   UNL     1       5.315 -11.125  -9.679  1.00  0.00     0.335 C 
ATOM     11  O   UNL     1       5.320 -11.946  -8.783  1.00  0.00    -0.246 OA
BRANCH  10  12
ATOM     12  O   UNL     1       5.574 -11.508 -10.945  1.00  0.00    -0.478 OA
ATOM     13  H   UNL     1       5.411 -12.435 -11.165  1.00  0.00     0.297 HD
ENDBRANCH  10  12
ENDBRANCH   6  10
BRANCH   7  14
ATOM     14  C   UNL     1       3.403  -4.979  -6.104  1.00  0.00     0.040 A 
ATOM     15  C   UNL     1       2.781  -3.828  -6.589  1.00  0.00     0.034 A 
ATOM     16  C   UNL     1       3.626  -5.120  -4.732  1.00  0.00     0.034 A 
ATOM     17  C   UNL     1       2.388  -2.837  -5.711  1.00  0.00     0.043 A 
ATOM     18  C   UNL     1       3.229  -4.122  -3.865  1.00  0.00     0.043 A 
ATOM     19  C   UNL     1       2.612  -2.983  -4.353  1.00  0.00     0.041 A 
ATOM     20  Cl  UNL     1       1.613  -1.405  -6.313  1.00  0.00    -0.084 Cl
ATOM     21  Cl  UNL     1       3.504  -4.296  -2.160  1.00  0.00    -0.084 Cl
ENDBRANCH   7  14
TORSDOF 3
ENDMDL
MODEL 5
REMARK VINA RESULT:    -4.463     11.135     11.848
REMARK INTER + INTRA:          -5.413
REMARK INTER:                  -5.117
REMARK INTRA:                  -0.296
REMARK UNBOUND:                -0.297
REMARK SMILES O=C(O)c1ccc2nc(-c3cc(Cl)cc(Cl)c3)oc2c1
REMARK SMILES IDX 5 1 6 2 20 3 8 4 18 5 4 6 9 7 7 8 19 9 2 10 1 11 3 12 10 14
REMARK SMILES IDX 11 15 17 16 12 17 15 18 14 19 13 20 16 21
REMARK H PARENT 3 13
ROOT
ATOM      1  C   UNL     1       5.183  -8.748 -10.382  1.00  0.00     0.018 A 
ATOM      2  C   UNL     1       4.915  -7.439 -10.113  1.00  0.00     0.033 A 
ATOM      3  C   UNL     1       4.617  -9.357  -8.104  1.00  0.00     0.065 A 
ATOM      4  N   UNL     1       4.161  -5.873  -8.280  1.00  0.00    -0.209 NA
ATOM      5  O   UNL     1       3.937  -7.372  -6.719  1.00  0.00    -0.436 OA
ATOM      6  C   UNL     1       5.036  -9.722  -9.384  1.00  0.00     0.063 A 
ATOM      7  C   UNL     1       3.832  -6.066  -7.026  1.00  0.00     0.227 A 
ATOM      8  C   UNL     1       4.493  -7.059  -8.833  1.00  0.00     0.110 A 
ATOM      9  C   UNL     1       4.348  -8.029  -7.826  1.00  0.00     0.156 A 
ENDROOT
BRANCH   6  10
ATOM     10  C   UNL     1       5.324 -11.135  -9.689  1.00  0.00     0.335 C 
ATOM     11  O   UNL     1       5.320 -11.961  -8.798  1.00  0.00    -0.246 OA
BRANCH  10  12
ATOM     12  O   UNL     1       5.593 -11.511 -10.955  1.00  0.00    -0.478 OA
ATOM     13  H   UNL     1       5.927 -12.409 -11.085  1.00  0.00     0.297 HD
ENDBRANCH  10  12
ENDBRANCH   6  10
BRANCH   7  14
ATOM     14  C   UNL     1       3.409  -5.004  -6.089  1.00  0.00     0.040 A 
ATOM     15  C   UNL     1       3.635  -5.147  -4.720  1.00  0.00     0.034 A 
ATOM     16  C   UNL     1       2.780  -3.855  -6.571  1.00  0.00     0.034 A 
ATOM     17  C   UNL     1       3.238  -4.152  -3.849  1.00  0.00     0.043 A 
ATOM     18  C   UNL     1       2.388  -2.866  -5.691  1.00  0.00     0.043 A 
ATOM     19  C   UNL     1       2.615  -3.014  -4.333  1.00  0.00     0.041 A 
ATOM     20  Cl  UNL     1       3.520  -4.327  -2.145  1.00  0.00    -0.084 Cl
ATOM     21  Cl  UNL     1       1.606  -1.435  -6.287  1.00  0.00    -0.084 Cl
ENDBRANCH   7  14
TORSDOF 3
ENDMDL
MODEL 6
REMARK VINA RESULT:    -4.462     11.152     11.733
REMARK INTER + INTRA:          -5.412
REMARK INTER:                  -5.116
REMARK INTRA:                  -0.295
REMARK UNBOUND:                -0.297
REMARK SMILES O=C(O)c1ccc2nc(-c3cc(Cl)cc(Cl)c3)oc2c1
REMARK SMILES IDX 5 1 6 2 20 3 8 4 18 5 4 6 9 7 7 8 19 9 2 10 1 11 3 12 10 14
REMARK SMILES IDX 11 15 17 16 12 17 15 18 14 19 13 20 16 21
REMARK H PARENT 3 13
ROOT
ATOM      1  C   UNL     1       5.126  -8.826 -10.458  1.00  0.00     0.018 A 
ATOM      2  C   UNL     1       4.816  -8.723  -9.136  1.00  0.00     0.033 A 
ATOM      3  C   UNL     1       5.025  -6.415 -10.695  1.00  0.00     0.065 A 
ATOM      4  N   UNL     1       4.287  -7.053  -7.315  1.00  0.00    -0.209 NA
ATOM      5  O   UNL     1       4.447  -5.261  -8.538  1.00  0.00    -0.436 OA
ATOM      6  C   UNL     1       5.237  -7.677 -11.253  1.00  0.00     0.063 A 
ATOM      7  C   UNL     1       4.198  -5.746  -7.307  1.00  0.00     0.227 A 
ATOM      8  C   UNL     1       4.601  -7.464  -8.563  1.00  0.00     0.110 A 
ATOM      9  C   UNL     1       4.705  -6.306  -9.354  1.00  0.00     0.156 A 
ENDROOT
BRANCH   6  10
ATOM     10  C   UNL     1       5.579  -7.801 -12.682  1.00  0.00     0.335 C 
ATOM     11  O   UNL     1       5.544  -6.823 -13.402  1.00  0.00    -0.246 OA
BRANCH  10  12
ATOM     12  O   UNL     1       5.930  -8.999 -13.190  1.00  0.00    -0.478 OA
ATOM     13  H   UNL     1       6.669  -9.455 -12.768  1.00  0.00     0.297 HD
ENDBRANCH  10  12
ENDBRANCH   6  10
BRANCH   7  14
ATOM     14  C   UNL     1       3.872  -4.927  -6.121  1.00  0.00     0.040 A 
ATOM     15  C   UNL     1       3.203  -3.712  -6.272  1.00  0.00     0.034 A 
ATOM     16  C   UNL     1       4.232  -5.366  -4.846  1.00  0.00     0.034 A 
ATOM     17  C   UNL     1       2.899  -2.951  -5.160  1.00  0.00     0.043 A 
ATOM     18  C   UNL     1       3.924  -4.597  -3.742  1.00  0.00     0.043 A 
ATOM     19  C   UNL     1       3.260  -3.392  -3.898  1.00  0.00     0.041 A 
ATOM     20  Cl  UNL     1       2.067  -1.440  -5.344  1.00  0.00    -0.084 Cl
ATOM     21  Cl  UNL     1       4.371  -5.141  -2.155  1.00  0.00    -0.084 Cl
ENDBRANCH   7  14
TORSDOF 3
ENDMDL
MODEL 7
REMARK VINA RESULT:    -4.460     14.379     14.874
REMARK INTER + INTRA:          -5.409
REMARK INTER:                  -5.125
REMARK INTRA:                  -0.283
REMARK UNBOUND:                -0.297
REMARK SMILES O=C(O)c1ccc2nc(-c3cc(Cl)cc(Cl)c3)oc2c1
REMARK SMILES IDX 5 1 6 2 20 3 8 4 18 5 4 6 9 7 7 8 19 9 2 10 1 11 3 12 10 14
REMARK SMILES IDX 11 15 17 16 12 17 15 18 14 19 13 20 16 21
REMARK H PARENT 3 13
ROOT
ATOM      1  C   UNL     1       7.321  -7.122 -15.525  1.00  0.00     0.018 A 
ATOM      2  C   UNL     1       6.521  -7.826 -14.675  1.00  0.00     0.033 A 
ATOM      3  C   UNL     1       7.740  -5.470 -13.800  1.00  0.00     0.065 A 
ATOM      4  N   UNL     1       5.591  -7.834 -12.326  1.00  0.00    -0.209 NA
ATOM      5  O   UNL     1       6.540  -5.995 -11.654  1.00  0.00    -0.436 OA
ATOM      6  C   UNL     1       7.941  -5.939 -15.099  1.00  0.00     0.063 A 
ATOM      7  C   UNL     1       5.732  -7.016 -11.312  1.00  0.00     0.227 A 
ATOM      8  C   UNL     1       6.311  -7.367 -13.369  1.00  0.00     0.110 A 
ATOM      9  C   UNL     1       6.925  -6.179 -12.936  1.00  0.00     0.156 A 
ENDROOT
BRANCH   6  10
ATOM     10  C   UNL     1       8.809  -5.190 -16.026  1.00  0.00     0.335 C 
ATOM     11  O   UNL     1       9.988  -5.469 -16.113  1.00  0.00    -0.246 OA
BRANCH  10  12
ATOM     12  O   UNL     1       8.295  -4.194 -16.775  1.00  0.00    -0.478 OA
ATOM     13  H   UNL     1       7.993  -3.404 -16.308  1.00  0.00     0.297 HD
ENDBRANCH  10  12
ENDBRANCH   6  10
BRANCH   7  14
ATOM     14  C   UNL     1       5.097  -7.190  -9.990  1.00  0.00     0.040 A 
ATOM     15  C   UNL     1       4.666  -6.076  -9.267  1.00  0.00     0.034 A 
ATOM     16  C   UNL     1       4.926  -8.469  -9.457  1.00  0.00     0.034 A 
ATOM     17  C   UNL     1       4.072  -6.245  -8.032  1.00  0.00     0.043 A 
ATOM     18  C   UNL     1       4.330  -8.625  -8.222  1.00  0.00     0.043 A 
ATOM     19  C   UNL     1       3.905  -7.517  -7.510  1.00  0.00     0.041 A 
ATOM     20  Cl  UNL     1       3.535  -4.862  -7.132  1.00  0.00    -0.084 Cl
ATOM     21  Cl  UNL     1       4.116 -10.216  -7.558  1.00  0.00    -0.084 Cl
ENDBRANCH   7  14
TORSDOF 3
ENDMDL
MODEL 8
REMARK VINA RESULT:    -4.313     10.340     11.126
REMARK INTER + INTRA:          -5.241
REMARK INTER:                  -4.943
REMARK INTRA:                  -0.298
REMARK UNBOUND:                -0.297
REMARK SMILES O=C(O)c1ccc2nc(-c3cc(Cl)cc(Cl)c3)oc2c1
REMARK SMILES IDX 5 1 6 2 20 3 8 4 18 5 4 6 9 7 7 8 19 9 2 10 1 11 3 12 10 14
REMARK SMILES IDX 11 15 17 16 12 17 15 18 14 19 13 20 16 21
REMARK H PARENT 3 13
ROOT
ATOM      1  C   UNL     1       3.016  -4.188  -3.709  1.00  0.00     0.018 A 
ATOM      2  C   UNL     1       3.342  -5.421  -4.187  1.00  0.00     0.033 A 
ATOM      3  C   UNL     1       3.265  -3.236  -5.925  1.00  0.00     0.065 A 
ATOM      4  N   UNL     1       3.987  -6.659  -6.293  1.00  0.00    -0.209 NA
ATOM      5  O   UNL     1       3.930  -4.951  -7.639  1.00  0.00    -0.436 OA
ATOM      6  C   UNL     1       2.971  -3.082  -4.569  1.00  0.00     0.063 A 
ATOM      7  C   UNL     1       4.157  -6.274  -7.533  1.00  0.00     0.227 A 
ATOM      8  C   UNL     1       3.639  -5.590  -5.545  1.00  0.00     0.110 A 
ATOM      9  C   UNL     1       3.601  -4.485  -6.414  1.00  0.00     0.156 A 
ENDROOT
BRANCH   6  10
ATOM     10  C   UNL     1       2.611  -1.753  -4.042  1.00  0.00     0.335 C 
ATOM     11  O   UNL     1       2.493  -1.587  -2.844  1.00  0.00    -0.246 OA
BRANCH  10  12
ATOM     12  O   UNL     1       2.410  -0.723  -4.887  1.00  0.00    -0.478 OA
ATOM     13  H   UNL     1       3.054  -0.003  -4.863  1.00  0.00     0.297 HD
ENDBRANCH  10  12
ENDBRANCH   6  10
BRANCH   7  14
ATOM     14  C   UNL     1       4.543  -7.160  -8.650  1.00  0.00     0.040 A 
ATOM     15  C   UNL     1       4.849  -6.621  -9.900  1.00  0.00     0.034 A 
ATOM     16  C   UNL     1       4.602  -8.542  -8.459  1.00  0.00     0.034 A 
ATOM     17  C   UNL     1       5.210  -7.455 -10.940  1.00  0.00     0.043 A 
ATOM     18  C   UNL     1       4.964  -9.366  -9.506  1.00  0.00     0.043 A 
ATOM     19  C   UNL     1       5.267  -8.824 -10.744  1.00  0.00     0.041 A 
ATOM     20  Cl  UNL     1       5.592  -6.786 -12.495  1.00  0.00    -0.084 Cl
ATOM     21  Cl  UNL     1       5.039 -11.085  -9.271  1.00  0.00    -0.084 Cl
ENDBRANCH   7  14
TORSDOF 3
ENDMDL
