MODEL 1
REMARK VINA RESULT:    -5.275      0.000      0.000
REMARK INTER + INTRA:          -7.833
REMARK INTER:                  -7.280
REMARK INTRA:                  -0.554
REMARK UNBOUND:                -0.554
REMARK SMILES Cc1n[nH]c(C)c1CCCOc1cc(C(=O)O)ccc1F
REMARK SMILES IDX 11 1 12 2 14 3 18 4 13 5 19 6 20 7 21 8 15 9 16 10 17 11
REMARK SMILES IDX 10 13 9 14 8 15 7 16 5 17 2 18 4 19 3 20 6 21 1 22
REMARK H PARENT 17 12 4 23
ROOT
ATOM      1  O   UNL     1       0.247   7.673  -5.072  1.00  0.00    -0.490 OA
ENDROOT
BRANCH   1   2
ATOM      2  C   UNL     1       0.831   6.455  -4.919  1.00  0.00     0.155 A 
ATOM      3  C   UNL     1       1.154   4.188  -5.651  1.00  0.00     0.063 A 
ATOM      4  C   UNL     1       2.044   3.977  -4.595  1.00  0.00     0.019 A 
ATOM      5  C   UNL     1       0.547   5.436  -5.808  1.00  0.00     0.065 A 
ATOM      6  C   UNL     1       2.325   5.002  -3.716  1.00  0.00     0.044 A 
ATOM      7  C   UNL     1       1.727   6.240  -3.877  1.00  0.00     0.165 A 
ATOM      8  F   UNL     1       2.007   7.240  -3.012  1.00  0.00    -0.203 F 
BRANCH   3   9
ATOM      9  C   UNL     1       0.850   3.093  -6.594  1.00  0.00     0.335 C 
ATOM     10  O   UNL     1      -0.158   3.134  -7.268  1.00  0.00    -0.246 OA
BRANCH   9  11
ATOM     11  O   UNL     1       1.698   2.052  -6.711  1.00  0.00    -0.478 OA
ATOM     12  H   UNL     1       1.353   1.177  -6.481  1.00  0.00     0.297 HD
ENDBRANCH   9  11
ENDBRANCH   3   9
ENDBRANCH   1   2
BRANCH   1  13
ATOM     13  C   UNL     1       1.095   8.755  -5.464  1.00  0.00     0.230 C 
BRANCH  13  14
ATOM     14  C   UNL     1       0.725   9.205  -6.879  1.00  0.00     0.046 C 
BRANCH  14  15
ATOM     15  C   UNL     1       1.705   8.592  -7.882  1.00  0.00     0.043 C 
BRANCH  15  16
ATOM     16  C   UNL     1       1.798   9.476  -9.098  1.00  0.00    -0.004 A 
ATOM     17  C   UNL     1       0.952   9.468 -10.155  1.00  0.00     0.036 A 
ATOM     18  C   UNL     1       2.769  10.455  -9.333  1.00  0.00     0.063 A 
ATOM     19  N   UNL     1       1.378  10.404 -11.030  1.00  0.00    -0.282 N 
ATOM     20  N   UNL     1       2.523  11.007 -10.493  1.00  0.00    -0.181 NA
ATOM     21  C   UNL     1      -0.249   8.575 -10.324  1.00  0.00     0.066 C 
ATOM     22  C   UNL     1       3.911  10.805  -8.413  1.00  0.00     0.069 C 
ATOM     23  H   UNL     1       0.964  10.619 -11.880  1.00  0.00     0.190 HD
ENDBRANCH  15  16
ENDBRANCH  14  15
ENDBRANCH  13  14
ENDBRANCH   1  13
TORSDOF 7
ENDMDL
MODEL 2
REMARK VINA RESULT:    -5.275      2.313      3.947
REMARK INTER + INTRA:          -7.833
REMARK INTER:                  -7.393
REMARK INTRA:                  -0.440
REMARK UNBOUND:                -0.554
REMARK SMILES Cc1n[nH]c(C)c1CCCOc1cc(C(=O)O)ccc1F
REMARK SMILES IDX 11 1 12 2 14 3 18 4 13 5 19 6 20 7 21 8 15 9 16 10 17 11
REMARK SMILES IDX 10 13 9 14 8 15 7 16 5 17 2 18 4 19 3 20 6 21 1 22
REMARK H PARENT 17 12 4 23
ROOT
ATOM      1  O   UNL     1       3.307   5.090  -7.708  1.00  0.00    -0.490 OA
ENDROOT
BRANCH   1   2
ATOM      2  C   UNL     1       2.708   4.947  -6.495  1.00  0.00     0.155 A 
ATOM      3  C   UNL     1       2.366   5.693  -4.235  1.00  0.00     0.063 A 
ATOM      4  C   UNL     1       1.466   4.643  -4.029  1.00  0.00     0.019 A 
ATOM      5  C   UNL     1       2.986   5.840  -5.478  1.00  0.00     0.065 A 
ATOM      6  C   UNL     1       1.190   3.761  -5.052  1.00  0.00     0.044 A 
ATOM      7  C   UNL     1       1.804   3.912  -6.285  1.00  0.00     0.165 A 
ATOM      8  F   UNL     1       1.529   3.044  -7.284  1.00  0.00    -0.203 F 
BRANCH   3   9
ATOM      9  C   UNL     1       2.663   6.639  -3.142  1.00  0.00     0.335 C 
ATOM     10  O   UNL     1       3.642   7.354  -3.207  1.00  0.00    -0.246 OA
BRANCH   9  11
ATOM     11  O   UNL     1       1.844   6.714  -2.075  1.00  0.00    -0.478 OA
ATOM     12  H   UNL     1       1.633   7.598  -1.744  1.00  0.00     0.297 HD
ENDBRANCH   9  11
ENDBRANCH   3   9
ENDBRANCH   1   2
BRANCH   1  13
ATOM     13  C   UNL     1       2.451   5.316  -8.831  1.00  0.00     0.230 C 
BRANCH  13  14
ATOM     14  C   UNL     1       2.692   6.724  -9.378  1.00  0.00     0.046 C 
BRANCH  14  15
ATOM     15  C   UNL     1       1.734   7.706  -8.701  1.00  0.00     0.043 C 
BRANCH  15  16
ATOM     16  C   UNL     1       1.594   8.941  -9.551  1.00  0.00    -0.004 A 
ATOM     17  C   UNL     1       2.416  10.017  -9.535  1.00  0.00     0.036 A 
ATOM     18  C   UNL     1       0.596   9.178 -10.503  1.00  0.00     0.063 A 
ATOM     19  N   UNL     1       1.950  10.904 -10.439  1.00  0.00    -0.282 N 
ATOM     20  N   UNL     1       0.804  10.356 -11.030  1.00  0.00    -0.181 NA
ATOM     21  C   UNL     1       3.632  10.191  -8.664  1.00  0.00     0.066 C 
ATOM     22  C   UNL     1      -0.532   8.241 -10.851  1.00  0.00     0.069 C 
ATOM     23  H   UNL     1       2.339  11.769 -10.642  1.00  0.00     0.190 HD
ENDBRANCH  15  16
ENDBRANCH  14  15
ENDBRANCH  13  14
ENDBRANCH   1  13
TORSDOF 7
ENDMDL
MODEL 3
REMARK VINA RESULT:    -4.706     10.169     11.232
REMARK INTER + INTRA:          -7.048
REMARK INTER:                  -6.825
REMARK INTRA:                  -0.223
REMARK UNBOUND:                -0.554
REMARK SMILES Cc1n[nH]c(C)c1CCCOc1cc(C(=O)O)ccc1F
REMARK SMILES IDX 11 1 12 2 14 3 18 4 13 5 19 6 20 7 21 8 15 9 16 10 17 11
REMARK SMILES IDX 10 13 9 14 8 15 7 16 5 17 2 18 4 19 3 20 6 21 1 22
REMARK H PARENT 17 12 4 23
ROOT
ATOM      1  O   UNL     1       2.602  -0.175   0.187  1.00  0.00    -0.490 OA
ENDROOT
BRANCH   1   2
ATOM      2  C   UNL     1       3.825  -0.288  -0.396  1.00  0.00     0.155 A 
ATOM      3  C   UNL     1       6.167   0.253  -0.456  1.00  0.00     0.063 A 
ATOM      4  C   UNL     1       6.318  -0.540  -1.597  1.00  0.00     0.019 A 
ATOM      5  C   UNL     1       4.912   0.376   0.142  1.00  0.00     0.065 A 
ATOM      6  C   UNL     1       5.229  -1.203  -2.123  1.00  0.00     0.044 A 
ATOM      7  C   UNL     1       3.986  -1.084  -1.525  1.00  0.00     0.165 A 
ATOM      8  F   UNL     1       2.923  -1.737  -2.046  1.00  0.00    -0.203 F 
BRANCH   3   9
ATOM      9  C   UNL     1       7.330   0.964   0.110  1.00  0.00     0.335 C 
ATOM     10  O   UNL     1       8.064   1.603  -0.615  1.00  0.00    -0.246 OA
BRANCH   9  11
ATOM     11  O   UNL     1       7.573   0.909   1.435  1.00  0.00    -0.478 OA
ATOM     12  H   UNL     1       8.424   1.254   1.740  1.00  0.00     0.297 HD
ENDBRANCH   9  11
ENDBRANCH   3   9
ENDBRANCH   1   2
BRANCH   1  13
ATOM     13  C   UNL     1       1.636   0.637  -0.485  1.00  0.00     0.230 C 
BRANCH  13  14
ATOM     14  C   UNL     1       0.284   0.506   0.217  1.00  0.00     0.046 C 
BRANCH  14  15
ATOM     15  C   UNL     1      -0.841   0.711  -0.799  1.00  0.00     0.043 C 
BRANCH  15  16
ATOM     16  C   UNL     1      -2.121   1.041  -0.075  1.00  0.00    -0.004 A 
ATOM     17  C   UNL     1      -3.227   0.263  -0.020  1.00  0.00     0.036 A 
ATOM     18  C   UNL     1      -2.372   2.200   0.665  1.00  0.00     0.063 A 
ATOM     19  N   UNL     1      -4.149   0.912   0.723  1.00  0.00    -0.282 N 
ATOM     20  N   UNL     1      -3.590   2.128   1.138  1.00  0.00    -0.181 NA
ATOM     21  C   UNL     1      -3.399  -1.084  -0.671  1.00  0.00     0.066 C 
ATOM     22  C   UNL     1      -1.411   3.343   0.872  1.00  0.00     0.069 C 
ATOM     23  H   UNL     1      -5.040   0.593   0.932  1.00  0.00     0.190 HD
ENDBRANCH  15  16
ENDBRANCH  14  15
ENDBRANCH  13  14
ENDBRANCH   1  13
TORSDOF 7
ENDMDL
MODEL 4
REMARK VINA RESULT:    -4.672      9.618     10.614
REMARK INTER + INTRA:          -7.001
REMARK INTER:                  -6.749
REMARK INTRA:                  -0.252
REMARK UNBOUND:                -0.554
REMARK SMILES Cc1n[nH]c(C)c1CCCOc1cc(C(=O)O)ccc1F
REMARK SMILES IDX 11 1 12 2 14 3 18 4 13 5 19 6 20 7 21 8 15 9 16 10 17 11
REMARK SMILES IDX 10 13 9 14 8 15 7 16 5 17 2 18 4 19 3 20 6 21 1 22
REMARK H PARENT 17 12 4 23
ROOT
ATOM      1  O   UNL     1       2.581   1.105  -1.429  1.00  0.00    -0.490 OA
ENDROOT
BRANCH   1   2
ATOM      2  C   UNL     1       3.902   0.849  -1.235  1.00  0.00     0.155 A 
ATOM      3  C   UNL     1       5.911  -0.328  -1.837  1.00  0.00     0.063 A 
ATOM      4  C   UNL     1       6.604   0.349  -0.829  1.00  0.00     0.019 A 
ATOM      5  C   UNL     1       4.553  -0.071  -2.036  1.00  0.00     0.065 A 
ATOM      6  C   UNL     1       5.948   1.270  -0.040  1.00  0.00     0.044 A 
ATOM      7  C   UNL     1       4.602   1.525  -0.242  1.00  0.00     0.165 A 
ATOM      8  F   UNL     1       3.965   2.429   0.535  1.00  0.00    -0.203 F 
BRANCH   3   9
ATOM      9  C   UNL     1       6.611  -1.313  -2.684  1.00  0.00     0.335 C 
ATOM     10  O   UNL     1       7.365  -2.121  -2.180  1.00  0.00    -0.246 OA
BRANCH   9  11
ATOM     11  O   UNL     1       6.408  -1.321  -4.016  1.00  0.00    -0.478 OA
ATOM     12  H   UNL     1       6.975  -1.900  -4.543  1.00  0.00     0.297 HD
ENDBRANCH   9  11
ENDBRANCH   3   9
ENDBRANCH   1   2
BRANCH   1  13
ATOM     13  C   UNL     1       1.668   0.558  -0.475  1.00  0.00     0.230 C 
BRANCH  13  14
ATOM     14  C   UNL     1       0.266   1.110  -0.737  1.00  0.00     0.046 C 
BRANCH  14  15
ATOM     15  C   UNL     1      -0.543   1.089   0.562  1.00  0.00     0.043 C 
BRANCH  15  16
ATOM     16  C   UNL     1      -2.013   1.154   0.241  1.00  0.00    -0.004 A 
ATOM     17  C   UNL     1      -2.747   0.173  -0.333  1.00  0.00     0.036 A 
ATOM     18  C   UNL     1      -2.863   2.237   0.490  1.00  0.00     0.063 A 
ATOM     19  N   UNL     1      -4.015   0.622  -0.450  1.00  0.00    -0.282 N 
ATOM     20  N   UNL     1      -4.061   1.922   0.070  1.00  0.00    -0.181 NA
ATOM     21  C   UNL     1      -2.240  -1.179  -0.765  1.00  0.00     0.066 C 
ATOM     22  C   UNL     1      -2.464   3.547   1.121  1.00  0.00     0.069 C 
ATOM     23  H   UNL     1      -4.761   0.131  -0.828  1.00  0.00     0.190 HD
ENDBRANCH  15  16
ENDBRANCH  14  15
ENDBRANCH  13  14
ENDBRANCH   1  13
TORSDOF 7
ENDMDL
MODEL 5
REMARK VINA RESULT:    -4.650     10.123     10.928
REMARK INTER + INTRA:          -6.971
REMARK INTER:                  -6.755
REMARK INTRA:                  -0.216
REMARK UNBOUND:                -0.554
REMARK SMILES Cc1n[nH]c(C)c1CCCOc1cc(C(=O)O)ccc1F
REMARK SMILES IDX 11 1 12 2 14 3 18 4 13 5 19 6 20 7 21 8 15 9 16 10 17 11
REMARK SMILES IDX 10 13 9 14 8 15 7 16 5 17 2 18 4 19 3 20 6 21 1 22
REMARK H PARENT 17 12 4 23
ROOT
ATOM      1  O   UNL     1       0.993  -0.184   0.113  1.00  0.00    -0.490 OA
ENDROOT
BRANCH   1   2
ATOM      2  C   UNL     1      -0.222   0.399   0.291  1.00  0.00     0.155 A 
ATOM      3  C   UNL     1      -2.586   0.473  -0.146  1.00  0.00     0.063 A 
ATOM      4  C   UNL     1      -2.698   1.599   0.674  1.00  0.00     0.019 A 
ATOM      5  C   UNL     1      -1.338  -0.125  -0.334  1.00  0.00     0.065 A 
ATOM      6  C   UNL     1      -1.580   2.111   1.298  1.00  0.00     0.044 A 
ATOM      7  C   UNL     1      -0.345   1.513   1.114  1.00  0.00     0.165 A 
ATOM      8  F   UNL     1       0.747   2.020   1.728  1.00  0.00    -0.203 F 
BRANCH   3   9
ATOM      9  C   UNL     1      -3.780  -0.078  -0.815  1.00  0.00     0.335 C 
ATOM     10  O   UNL     1      -4.518   0.654  -1.442  1.00  0.00    -0.246 OA
BRANCH   9  11
ATOM     11  O   UNL     1      -4.048  -1.397  -0.736  1.00  0.00    -0.478 OA
ATOM     12  H   UNL     1      -3.498  -1.921  -0.137  1.00  0.00     0.297 HD
ENDBRANCH   9  11
ENDBRANCH   3   9
ENDBRANCH   1   2
BRANCH   1  13
ATOM     13  C   UNL     1       1.987   0.583  -0.571  1.00  0.00     0.230 C 
BRANCH  13  14
ATOM     14  C   UNL     1       3.355  -0.075  -0.386  1.00  0.00     0.046 C 
BRANCH  14  15
ATOM     15  C   UNL     1       4.455   0.927  -0.743  1.00  0.00     0.043 C 
BRANCH  15  16
ATOM     16  C   UNL     1       5.729   0.186  -1.056  1.00  0.00    -0.004 A 
ATOM     17  C   UNL     1       6.837   0.145  -0.280  1.00  0.00     0.036 A 
ATOM     18  C   UNL     1       5.973  -0.588  -2.195  1.00  0.00     0.063 A 
ATOM     19  N   UNL     1       7.752  -0.622  -0.910  1.00  0.00    -0.282 N 
ATOM     20  N   UNL     1       7.188  -1.067  -2.112  1.00  0.00    -0.181 NA
ATOM     21  C   UNL     1       7.017   0.832   1.049  1.00  0.00     0.066 C 
ATOM     22  C   UNL     1       5.008  -0.820  -3.329  1.00  0.00     0.069 C 
ATOM     23  H   UNL     1       8.644  -0.827  -0.587  1.00  0.00     0.190 HD
ENDBRANCH  15  16
ENDBRANCH  14  15
ENDBRANCH  13  14
ENDBRANCH   1  13
TORSDOF 7
ENDMDL
MODEL 6
REMARK VINA RESULT:    -4.627      2.174      3.211
REMARK INTER + INTRA:          -6.940
REMARK INTER:                  -6.325
REMARK INTRA:                  -0.615
REMARK UNBOUND:                -0.554
REMARK SMILES Cc1n[nH]c(C)c1CCCOc1cc(C(=O)O)ccc1F
REMARK SMILES IDX 11 1 12 2 14 3 18 4 13 5 19 6 20 7 21 8 15 9 16 10 17 11
REMARK SMILES IDX 10 13 9 14 8 15 7 16 5 17 2 18 4 19 3 20 6 21 1 22
REMARK H PARENT 17 12 4 23
ROOT
ATOM      1  O   UNL     1       1.053   5.889  -7.567  1.00  0.00    -0.490 OA
ENDROOT
BRANCH   1   2
ATOM      2  C   UNL     1       1.273   5.309  -6.357  1.00  0.00     0.155 A 
ATOM      3  C   UNL     1       1.972   5.466  -4.062  1.00  0.00     0.063 A 
ATOM      4  C   UNL     1       1.707   4.105  -3.892  1.00  0.00     0.019 A 
ATOM      5  C   UNL     1       1.752   6.065  -5.304  1.00  0.00     0.065 A 
ATOM      6  C   UNL     1       1.225   3.359  -4.947  1.00  0.00     0.044 A 
ATOM      7  C   UNL     1       1.002   3.957  -6.176  1.00  0.00     0.165 A 
ATOM      8  F   UNL     1       0.529   3.221  -7.206  1.00  0.00    -0.203 F 
BRANCH   3   9
ATOM      9  C   UNL     1       2.488   6.267  -2.935  1.00  0.00     0.335 C 
ATOM     10  O   UNL     1       2.060   7.386  -2.738  1.00  0.00    -0.246 OA
BRANCH   9  11
ATOM     11  O   UNL     1       3.430   5.753  -2.119  1.00  0.00    -0.478 OA
ATOM     12  H   UNL     1       3.237   5.752  -1.171  1.00  0.00     0.297 HD
ENDBRANCH   9  11
ENDBRANCH   3   9
ENDBRANCH   1   2
BRANCH   1  13
ATOM     13  C   UNL     1       2.099   5.787  -8.536  1.00  0.00     0.230 C 
BRANCH  13  14
ATOM     14  C   UNL     1       2.562   7.189  -8.936  1.00  0.00     0.046 C 
BRANCH  14  15
ATOM     15  C   UNL     1       1.479   8.207  -8.570  1.00  0.00     0.043 C 
BRANCH  15  16
ATOM     16  C   UNL     1       1.377   9.245  -9.658  1.00  0.00    -0.004 A 
ATOM     17  C   UNL     1       0.435   9.292 -10.628  1.00  0.00     0.036 A 
ATOM     18  C   UNL     1       2.236  10.334  -9.839  1.00  0.00     0.063 A 
ATOM     19  N   UNL     1       0.692  10.369 -11.400  1.00  0.00    -0.282 N 
ATOM     20  N   UNL     1       1.830  11.004 -10.887  1.00  0.00    -0.181 NA
ATOM     21  C   UNL     1      -0.699   8.317 -10.812  1.00  0.00     0.066 C 
ATOM     22  C   UNL     1       3.430  10.671  -8.983  1.00  0.00     0.069 C 
ATOM     23  H   UNL     1       0.180  10.652 -12.173  1.00  0.00     0.190 HD
ENDBRANCH  15  16
ENDBRANCH  14  15
ENDBRANCH  13  14
ENDBRANCH   1  13
TORSDOF 7
ENDMDL
MODEL 7
REMARK VINA RESULT:    -4.484      9.161     11.536
REMARK INTER + INTRA:          -6.741
REMARK INTER:                  -4.776
REMARK INTRA:                  -1.965
REMARK UNBOUND:                -0.554
REMARK SMILES Cc1n[nH]c(C)c1CCCOc1cc(C(=O)O)ccc1F
REMARK SMILES IDX 11 1 12 2 14 3 18 4 13 5 19 6 20 7 21 8 15 9 16 10 17 11
REMARK SMILES IDX 10 13 9 14 8 15 7 16 5 17 2 18 4 19 3 20 6 21 1 22
REMARK H PARENT 17 12 4 23
ROOT
ATOM      1  O   UNL     1       6.558  16.554 -12.902  1.00  0.00    -0.490 OA
ENDROOT
BRANCH   1   2
ATOM      2  C   UNL     1       5.621  15.732 -13.445  1.00  0.00     0.155 A 
ATOM      3  C   UNL     1       3.604  14.440 -13.236  1.00  0.00     0.063 A 
ATOM      4  C   UNL     1       3.711  14.063 -14.577  1.00  0.00     0.019 A 
ATOM      5  C   UNL     1       4.568  15.279 -12.673  1.00  0.00     0.065 A 
ATOM      6  C   UNL     1       4.762  14.525 -15.342  1.00  0.00     0.044 A 
ATOM      7  C   UNL     1       5.714  15.361 -14.782  1.00  0.00     0.165 A 
ATOM      8  F   UNL     1       6.741  15.811 -15.537  1.00  0.00    -0.203 F 
BRANCH   3   9
ATOM      9  C   UNL     1       2.481  13.947 -12.415  1.00  0.00     0.335 C 
ATOM     10  O   UNL     1       1.911  12.919 -12.719  1.00  0.00    -0.246 OA
BRANCH   9  11
ATOM     11  O   UNL     1       2.091  14.636 -11.325  1.00  0.00    -0.478 OA
ATOM     12  H   UNL     1       2.308  15.579 -11.300  1.00  0.00     0.297 HD
ENDBRANCH   9  11
ENDBRANCH   3   9
ENDBRANCH   1   2
BRANCH   1  13
ATOM     13  C   UNL     1       7.264  16.066 -11.759  1.00  0.00     0.230 C 
BRANCH  13  14
ATOM     14  C   UNL     1       8.614  15.496 -12.199  1.00  0.00     0.046 C 
BRANCH  14  15
ATOM     15  C   UNL     1       8.822  14.123 -11.556  1.00  0.00     0.043 C 
BRANCH  15  16
ATOM     16  C   UNL     1       8.048  13.085 -12.326  1.00  0.00    -0.004 A 
ATOM     17  C   UNL     1       8.216  12.772 -13.632  1.00  0.00     0.036 A 
ATOM     18  C   UNL     1       7.033  12.269 -11.816  1.00  0.00     0.063 A 
ATOM     19  N   UNL     1       7.334  11.798 -13.939  1.00  0.00    -0.282 N 
ATOM     20  N   UNL     1       6.599  11.502 -12.783  1.00  0.00    -0.181 NA
ATOM     21  C   UNL     1       9.210  13.399 -14.574  1.00  0.00     0.066 C 
ATOM     22  C   UNL     1       6.518  12.280 -10.399  1.00  0.00     0.069 C 
ATOM     23  H   UNL     1       7.227  11.377 -14.806  1.00  0.00     0.190 HD
ENDBRANCH  15  16
ENDBRANCH  14  15
ENDBRANCH  13  14
ENDBRANCH   1  13
TORSDOF 7
ENDMDL
MODEL 8
REMARK VINA RESULT:    -4.324      9.121     11.581
REMARK INTER + INTRA:          -6.521
REMARK INTER:                  -4.432
REMARK INTRA:                  -2.090
REMARK UNBOUND:                -0.554
REMARK SMILES Cc1n[nH]c(C)c1CCCOc1cc(C(=O)O)ccc1F
REMARK SMILES IDX 11 1 12 2 14 3 18 4 13 5 19 6 20 7 21 8 15 9 16 10 17 11
REMARK SMILES IDX 10 13 9 14 8 15 7 16 5 17 2 18 4 19 3 20 6 21 1 22
REMARK H PARENT 17 12 4 23
ROOT
ATOM      1  O   UNL     1       6.528  13.607 -15.239  1.00  0.00    -0.490 OA
ENDROOT
BRANCH   1   2
ATOM      2  C   UNL     1       5.642  14.384 -14.561  1.00  0.00     0.155 A 
ATOM      3  C   UNL     1       3.721  14.599 -13.131  1.00  0.00     0.063 A 
ATOM      4  C   UNL     1       3.848  15.990 -13.176  1.00  0.00     0.019 A 
ATOM      5  C   UNL     1       4.626  13.798 -13.830  1.00  0.00     0.065 A 
ATOM      6  C   UNL     1       4.868  16.566 -13.903  1.00  0.00     0.044 A 
ATOM      7  C   UNL     1       5.768  15.769 -14.592  1.00  0.00     0.165 A 
ATOM      8  F   UNL     1       6.765  16.339 -15.302  1.00  0.00    -0.203 F 
BRANCH   3   9
ATOM      9  C   UNL     1       2.630  13.980 -12.353  1.00  0.00     0.335 C 
ATOM     10  O   UNL     1       2.883  13.131 -11.523  1.00  0.00    -0.246 OA
BRANCH   9  11
ATOM     11  O   UNL     1       1.355  14.361 -12.561  1.00  0.00    -0.478 OA
ATOM     12  H   UNL     1       1.022  14.309 -13.468  1.00  0.00     0.297 HD
ENDBRANCH   9  11
ENDBRANCH   3   9
ENDBRANCH   1   2
BRANCH   1  13
ATOM     13  C   UNL     1       7.199  12.588 -14.494  1.00  0.00     0.230 C 
BRANCH  13  14
ATOM     14  C   UNL     1       8.612  13.060 -14.144  1.00  0.00     0.046 C 
BRANCH  14  15
ATOM     15  C   UNL     1       8.885  12.795 -12.662  1.00  0.00     0.043 C 
BRANCH  15  16
ATOM     16  C   UNL     1       7.960  13.636 -11.821  1.00  0.00    -0.004 A 
ATOM     17  C   UNL     1       6.940  13.178 -11.058  1.00  0.00     0.036 A 
ATOM     18  C   UNL     1       8.006  15.028 -11.687  1.00  0.00     0.063 A 
ATOM     19  N   UNL     1       6.358  14.242 -10.467  1.00  0.00    -0.282 N 
ATOM     20  N   UNL     1       7.042  15.393 -10.881  1.00  0.00    -0.181 NA
ATOM     21  C   UNL     1       6.530  11.737 -10.897  1.00  0.00     0.066 C 
ATOM     22  C   UNL     1       8.988  15.949 -12.364  1.00  0.00     0.069 C 
ATOM     23  H   UNL     1       5.600  14.216  -9.863  1.00  0.00     0.190 HD
ENDBRANCH  15  16
ENDBRANCH  14  15
ENDBRANCH  13  14
ENDBRANCH   1  13
TORSDOF 7
ENDMDL
MODEL 9
REMARK VINA RESULT:    -4.178      9.230     11.688
REMARK INTER + INTRA:          -6.319
REMARK INTER:                  -4.320
REMARK INTRA:                  -1.999
REMARK UNBOUND:                -0.554
REMARK SMILES Cc1n[nH]c(C)c1CCCOc1cc(C(=O)O)ccc1F
REMARK SMILES IDX 11 1 12 2 14 3 18 4 13 5 19 6 20 7 21 8 15 9 16 10 17 11
REMARK SMILES IDX 10 13 9 14 8 15 7 16 5 17 2 18 4 19 3 20 6 21 1 22
REMARK H PARENT 17 12 4 23
ROOT
ATOM      1  O   UNL     1      -3.321  15.294 -14.140  1.00  0.00    -0.490 OA
ENDROOT
BRANCH   1   2
ATOM      2  C   UNL     1      -2.456  14.499 -14.823  1.00  0.00     0.155 A 
ATOM      3  C   UNL     1      -0.641  12.921 -14.844  1.00  0.00     0.063 A 
ATOM      4  C   UNL     1      -0.703  12.874 -16.239  1.00  0.00     0.019 A 
ATOM      5  C   UNL     1      -1.525  13.741 -14.138  1.00  0.00     0.065 A 
ATOM      6  C   UNL     1      -1.639  13.629 -16.913  1.00  0.00     0.044 A 
ATOM      7  C   UNL     1      -2.518  14.437 -16.211  1.00  0.00     0.165 A 
ATOM      8  F   UNL     1      -3.433  15.175 -16.878  1.00  0.00    -0.203 F 
BRANCH   3   9
ATOM      9  C   UNL     1       0.359  12.114 -14.119  1.00  0.00     0.335 C 
ATOM     10  O   UNL     1       0.011  11.389 -13.209  1.00  0.00    -0.246 OA
BRANCH   9  11
ATOM     11  O   UNL     1       1.658  12.176 -14.472  1.00  0.00    -0.478 OA
ATOM     12  H   UNL     1       2.005  11.444 -15.002  1.00  0.00     0.297 HD
ENDBRANCH   9  11
ENDBRANCH   3   9
ENDBRANCH   1   2
BRANCH   1  13
ATOM     13  C   UNL     1      -4.696  14.903 -14.136  1.00  0.00     0.230 C 
BRANCH  13  14
ATOM     14  C   UNL     1      -4.975  14.033 -12.908  1.00  0.00     0.046 C 
BRANCH  14  15
ATOM     15  C   UNL     1      -5.757  12.788 -13.332  1.00  0.00     0.043 C 
BRANCH  15  16
ATOM     16  C   UNL     1      -4.823  11.811 -13.998  1.00  0.00    -0.004 A 
ATOM     17  C   UNL     1      -3.864  11.080 -13.383  1.00  0.00     0.036 A 
ATOM     18  C   UNL     1      -4.800  11.493 -15.360  1.00  0.00     0.063 A 
ATOM     19  N   UNL     1      -3.250  10.332 -14.324  1.00  0.00    -0.282 N 
ATOM     20  N   UNL     1      -3.853  10.612 -15.558  1.00  0.00    -0.181 NA
ATOM     21  C   UNL     1      -3.539  11.099 -11.913  1.00  0.00     0.066 C 
ATOM     22  C   UNL     1      -5.701  12.074 -16.419  1.00  0.00     0.069 C 
ATOM     23  H   UNL     1      -2.521   9.711 -14.173  1.00  0.00     0.190 HD
ENDBRANCH  15  16
ENDBRANCH  14  15
ENDBRANCH  13  14
ENDBRANCH   1  13
TORSDOF 7
ENDMDL
