MODEL 1
REMARK VINA RESULT:    -4.864      0.000      0.000
REMARK INTER + INTRA:          -5.870
REMARK INTER:                  -5.575
REMARK INTRA:                  -0.295
REMARK UNBOUND:                -0.295
REMARK SMILES O=C(O)c1ccc2nc(-c3cc(Cl)cc(Cl)c3)oc2c1
REMARK SMILES IDX 5 1 6 2 20 3 8 4 18 5 4 6 9 7 7 8 19 9 2 10 1 11 3 12 10 14
REMARK SMILES IDX 11 15 17 16 12 17 15 18 14 19 13 20 16 21
REMARK H PARENT 3 13
ROOT
ATOM      1  C   UNL     1       5.606   0.974  -0.748  1.00  0.00     0.018 A 
ATOM      2  C   UNL     1       4.545   1.693  -0.285  1.00  0.00     0.033 A 
ATOM      3  C   UNL     1       4.119  -0.798  -1.474  1.00  0.00     0.065 A 
ATOM      4  N   UNL     1       2.030   1.648  -0.050  1.00  0.00    -0.209 NA
ATOM      5  O   UNL     1       1.707  -0.295  -0.973  1.00  0.00    -0.436 OA
ATOM      6  C   UNL     1       5.408  -0.277  -1.349  1.00  0.00     0.063 A 
ATOM      7  C   UNL     1       1.121   0.768  -0.391  1.00  0.00     0.227 A 
ATOM      8  C   UNL     1       3.247   1.182  -0.404  1.00  0.00     0.110 A 
ATOM      9  C   UNL     1       3.040  -0.074  -1.002  1.00  0.00     0.156 A 
ENDROOT
BRANCH   6  10
ATOM     10  C   UNL     1       6.563  -1.043  -1.851  1.00  0.00     0.335 C 
ATOM     11  O   UNL     1       6.435  -1.772  -2.814  1.00  0.00    -0.246 OA
BRANCH  10  12
ATOM     12  O   UNL     1       7.760  -0.935  -1.242  1.00  0.00    -0.478 OA
ATOM     13  H   UNL     1       7.769  -1.000  -0.277  1.00  0.00     0.297 HD
ENDBRANCH  10  12
ENDBRANCH   6  10
BRANCH   7  14
ATOM     14  C   UNL     1      -0.331   0.920  -0.167  1.00  0.00     0.040 A 
ATOM     15  C   UNL     1      -1.211  -0.088  -0.564  1.00  0.00     0.034 A 
ATOM     16  C   UNL     1      -0.829   2.074   0.442  1.00  0.00     0.034 A 
ATOM     17  C   UNL     1      -2.567   0.060  -0.351  1.00  0.00     0.043 A 
ATOM     18  C   UNL     1      -2.187   2.210   0.649  1.00  0.00     0.043 A 
ATOM     19  C   UNL     1      -3.055   1.207   0.253  1.00  0.00     0.041 A 
ATOM     20  Cl  UNL     1      -3.664  -1.192  -0.844  1.00  0.00    -0.084 Cl
ATOM     21  Cl  UNL     1      -2.808   3.644   1.406  1.00  0.00    -0.084 Cl
ENDBRANCH   7  14
TORSDOF 3
ENDMDL
MODEL 2
REMARK VINA RESULT:    -4.858      0.006      2.019
REMARK INTER + INTRA:          -5.863
REMARK INTER:                  -5.568
REMARK INTRA:                  -0.295
REMARK UNBOUND:                -0.295
REMARK SMILES O=C(O)c1ccc2nc(-c3cc(Cl)cc(Cl)c3)oc2c1
REMARK SMILES IDX 5 1 6 2 20 3 8 4 18 5 4 6 9 7 7 8 19 9 2 10 1 11 3 12 10 14
REMARK SMILES IDX 11 15 17 16 12 17 15 18 14 19 13 20 16 21
REMARK H PARENT 3 13
ROOT
ATOM      1  C   UNL     1       5.606   0.971  -0.749  1.00  0.00     0.018 A 
ATOM      2  C   UNL     1       4.545   1.692  -0.289  1.00  0.00     0.033 A 
ATOM      3  C   UNL     1       4.119  -0.804  -1.468  1.00  0.00     0.065 A 
ATOM      4  N   UNL     1       2.030   1.648  -0.054  1.00  0.00    -0.209 NA
ATOM      5  O   UNL     1       1.707  -0.299  -0.969  1.00  0.00    -0.436 OA
ATOM      6  C   UNL     1       5.408  -0.283  -1.345  1.00  0.00     0.063 A 
ATOM      7  C   UNL     1       1.122   0.767  -0.391  1.00  0.00     0.227 A 
ATOM      8  C   UNL     1       3.247   1.180  -0.407  1.00  0.00     0.110 A 
ATOM      9  C   UNL     1       3.040  -0.078  -0.998  1.00  0.00     0.156 A 
ENDROOT
BRANCH   6  10
ATOM     10  C   UNL     1       6.563  -1.051  -1.844  1.00  0.00     0.335 C 
ATOM     11  O   UNL     1       6.436  -1.783  -2.805  1.00  0.00    -0.246 OA
BRANCH  10  12
ATOM     12  O   UNL     1       7.759  -0.942  -1.233  1.00  0.00    -0.478 OA
ATOM     13  H   UNL     1       7.753  -0.785  -0.280  1.00  0.00     0.297 HD
ENDBRANCH  10  12
ENDBRANCH   6  10
BRANCH   7  14
ATOM     14  C   UNL     1      -0.331   0.920  -0.169  1.00  0.00     0.040 A 
ATOM     15  C   UNL     1      -0.829   2.072   0.440  1.00  0.00     0.034 A 
ATOM     16  C   UNL     1      -1.211  -0.089  -0.566  1.00  0.00     0.034 A 
ATOM     17  C   UNL     1      -2.188   2.210   0.644  1.00  0.00     0.043 A 
ATOM     18  C   UNL     1      -2.567   0.060  -0.356  1.00  0.00     0.043 A 
ATOM     19  C   UNL     1      -3.055   1.206   0.248  1.00  0.00     0.041 A 
ATOM     20  Cl  UNL     1      -2.810   3.643   1.400  1.00  0.00    -0.084 Cl
ATOM     21  Cl  UNL     1      -3.663  -1.194  -0.849  1.00  0.00    -0.084 Cl
ENDBRANCH   7  14
TORSDOF 3
ENDMDL
MODEL 3
REMARK VINA RESULT:    -4.801      3.882      7.423
REMARK INTER + INTRA:          -5.798
REMARK INTER:                  -5.502
REMARK INTRA:                  -0.296
REMARK UNBOUND:                -0.295
REMARK SMILES O=C(O)c1ccc2nc(-c3cc(Cl)cc(Cl)c3)oc2c1
REMARK SMILES IDX 5 1 6 2 20 3 8 4 18 5 4 6 9 7 7 8 19 9 2 10 1 11 3 12 10 14
REMARK SMILES IDX 11 15 17 16 12 17 15 18 14 19 13 20 16 21
REMARK H PARENT 3 13
ROOT
ATOM      1  C   UNL     1      -1.670   1.470   0.931  1.00  0.00     0.018 A 
ATOM      2  C   UNL     1      -0.362   1.617   1.285  1.00  0.00     0.033 A 
ATOM      3  C   UNL     1      -1.015   0.289  -1.084  1.00  0.00     0.065 A 
ATOM      4  N   UNL     1       1.997   1.097   0.544  1.00  0.00    -0.209 NA
ATOM      5  O   UNL     1       1.479   0.068  -1.302  1.00  0.00    -0.436 OA
ATOM      6  C   UNL     1      -2.013   0.804  -0.254  1.00  0.00     0.063 A 
ATOM      7  C   UNL     1       2.483   0.479  -0.504  1.00  0.00     0.227 A 
ATOM      8  C   UNL     1       0.649   1.106   0.462  1.00  0.00     0.110 A 
ATOM      9  C   UNL     1       0.313   0.441  -0.731  1.00  0.00     0.156 A 
ENDROOT
BRANCH   6  10
ATOM     10  C   UNL     1      -3.431   0.645  -0.624  1.00  0.00     0.335 C 
ATOM     11  O   UNL     1      -4.251   1.462  -0.253  1.00  0.00    -0.246 OA
BRANCH  10  12
ATOM     12  O   UNL     1      -3.819  -0.406  -1.373  1.00  0.00    -0.478 OA
ATOM     13  H   UNL     1      -4.561  -0.265  -1.976  1.00  0.00     0.297 HD
ENDBRANCH  10  12
ENDBRANCH   6  10
BRANCH   7  14
ATOM     14  C   UNL     1       3.921   0.268  -0.771  1.00  0.00     0.040 A 
ATOM     15  C   UNL     1       4.331  -0.343  -1.957  1.00  0.00     0.034 A 
ATOM     16  C   UNL     1       4.874   0.677   0.163  1.00  0.00     0.034 A 
ATOM     17  C   UNL     1       5.676  -0.537  -2.201  1.00  0.00     0.043 A 
ATOM     18  C   UNL     1       6.216   0.477  -0.092  1.00  0.00     0.043 A 
ATOM     19  C   UNL     1       6.617  -0.129  -1.270  1.00  0.00     0.041 A 
ATOM     20  Cl  UNL     1       6.189  -1.296  -3.675  1.00  0.00    -0.084 Cl
ATOM     21  Cl  UNL     1       7.403   0.986   1.069  1.00  0.00    -0.084 Cl
ENDBRANCH   7  14
TORSDOF 3
ENDMDL
MODEL 4
REMARK VINA RESULT:    -4.799      3.881      7.634
REMARK INTER + INTRA:          -5.795
REMARK INTER:                  -5.500
REMARK INTRA:                  -0.296
REMARK UNBOUND:                -0.295
REMARK SMILES O=C(O)c1ccc2nc(-c3cc(Cl)cc(Cl)c3)oc2c1
REMARK SMILES IDX 5 1 6 2 20 3 8 4 18 5 4 6 9 7 7 8 19 9 2 10 1 11 3 12 10 14
REMARK SMILES IDX 11 15 17 16 12 17 15 18 14 19 13 20 16 21
REMARK H PARENT 3 13
ROOT
ATOM      1  C   UNL     1      -1.672   1.459   0.948  1.00  0.00     0.018 A 
ATOM      2  C   UNL     1      -0.364   1.605   1.301  1.00  0.00     0.033 A 
ATOM      3  C   UNL     1      -1.021   0.279  -1.068  1.00  0.00     0.065 A 
ATOM      4  N   UNL     1       1.993   1.083   0.557  1.00  0.00    -0.209 NA
ATOM      5  O   UNL     1       1.473   0.056  -1.289  1.00  0.00    -0.436 OA
ATOM      6  C   UNL     1      -2.018   0.794  -0.237  1.00  0.00     0.063 A 
ATOM      7  C   UNL     1       2.478   0.466  -0.493  1.00  0.00     0.227 A 
ATOM      8  C   UNL     1       0.645   1.093   0.476  1.00  0.00     0.110 A 
ATOM      9  C   UNL     1       0.307   0.430  -0.717  1.00  0.00     0.156 A 
ENDROOT
BRANCH   6  10
ATOM     10  C   UNL     1      -3.436   0.637  -0.605  1.00  0.00     0.335 C 
ATOM     11  O   UNL     1      -4.253   1.459  -0.240  1.00  0.00    -0.246 OA
BRANCH  10  12
ATOM     12  O   UNL     1      -3.828  -0.419  -1.345  1.00  0.00    -0.478 OA
ATOM     13  H   UNL     1      -3.852  -1.279  -0.905  1.00  0.00     0.297 HD
ENDBRANCH  10  12
ENDBRANCH   6  10
BRANCH   7  14
ATOM     14  C   UNL     1       3.915   0.253  -0.761  1.00  0.00     0.040 A 
ATOM     15  C   UNL     1       4.871   0.667   0.167  1.00  0.00     0.034 A 
ATOM     16  C   UNL     1       4.322  -0.362  -1.947  1.00  0.00     0.034 A 
ATOM     17  C   UNL     1       6.212   0.464  -0.090  1.00  0.00     0.043 A 
ATOM     18  C   UNL     1       5.666  -0.559  -2.192  1.00  0.00     0.043 A 
ATOM     19  C   UNL     1       6.609  -0.147  -1.267  1.00  0.00     0.041 A 
ATOM     20  Cl  UNL     1       7.403   0.977   1.065  1.00  0.00    -0.084 Cl
ATOM     21  Cl  UNL     1       6.174  -1.324  -3.666  1.00  0.00    -0.084 Cl
ENDBRANCH   7  14
TORSDOF 3
ENDMDL
MODEL 5
REMARK VINA RESULT:    -3.699     14.257     14.836
REMARK INTER + INTRA:          -4.534
REMARK INTER:                  -4.251
REMARK INTRA:                  -0.284
REMARK UNBOUND:                -0.295
REMARK SMILES O=C(O)c1ccc2nc(-c3cc(Cl)cc(Cl)c3)oc2c1
REMARK SMILES IDX 5 1 6 2 20 3 8 4 18 5 4 6 9 7 7 8 19 9 2 10 1 11 3 12 10 14
REMARK SMILES IDX 11 15 17 16 12 17 15 18 14 19 13 20 16 21
REMARK H PARENT 3 13
ROOT
ATOM      1  C   UNL     1       6.072  14.310 -11.375  1.00  0.00     0.018 A 
ATOM      2  C   UNL     1       4.781  13.895 -11.241  1.00  0.00     0.033 A 
ATOM      3  C   UNL     1       6.859  12.301 -10.269  1.00  0.00     0.065 A 
ATOM      4  N   UNL     1       3.354  12.013 -10.344  1.00  0.00    -0.209 NA
ATOM      5  O   UNL     1       4.978  10.780  -9.585  1.00  0.00    -0.436 OA
ATOM      6  C   UNL     1       7.126  13.521 -10.894  1.00  0.00     0.063 A 
ATOM      7  C   UNL     1       3.644  10.891  -9.733  1.00  0.00     0.227 A 
ATOM      8  C   UNL     1       4.500  12.674 -10.617  1.00  0.00     0.110 A 
ATOM      9  C   UNL     1       5.551  11.878 -10.127  1.00  0.00     0.156 A 
ENDROOT
BRANCH   6  10
ATOM     10  C   UNL     1       8.518  13.978 -11.051  1.00  0.00     0.335 C 
ATOM     11  O   UNL     1       9.072  13.881 -12.127  1.00  0.00    -0.246 OA
BRANCH  10  12
ATOM     12  O   UNL     1       9.178  14.503  -9.999  1.00  0.00    -0.478 OA
ATOM     13  H   UNL     1       9.697  15.302 -10.160  1.00  0.00     0.297 HD
ENDBRANCH  10  12
ENDBRANCH   6  10
BRANCH   7  14
ATOM     14  C   UNL     1       2.654   9.896  -9.274  1.00  0.00     0.040 A 
ATOM     15  C   UNL     1       2.865   9.193  -8.087  1.00  0.00     0.034 A 
ATOM     16  C   UNL     1       1.503   9.655 -10.026  1.00  0.00     0.034 A 
ATOM     17  C   UNL     1       1.934   8.265  -7.662  1.00  0.00     0.043 A 
ATOM     18  C   UNL     1       0.580   8.724  -9.592  1.00  0.00     0.043 A 
ATOM     19  C   UNL     1       0.795   8.030  -8.413  1.00  0.00     0.041 A 
ATOM     20  Cl  UNL     1       2.194   7.390  -6.186  1.00  0.00    -0.084 Cl
ATOM     21  Cl  UNL     1      -0.852   8.423 -10.526  1.00  0.00    -0.084 Cl
ENDBRANCH   7  14
TORSDOF 3
ENDMDL
MODEL 6
REMARK VINA RESULT:    -3.689     14.252     14.796
REMARK INTER + INTRA:          -4.523
REMARK INTER:                  -4.240
REMARK INTRA:                  -0.284
REMARK UNBOUND:                -0.295
REMARK SMILES O=C(O)c1ccc2nc(-c3cc(Cl)cc(Cl)c3)oc2c1
REMARK SMILES IDX 5 1 6 2 20 3 8 4 18 5 4 6 9 7 7 8 19 9 2 10 1 11 3 12 10 14
REMARK SMILES IDX 11 15 17 16 12 17 15 18 14 19 13 20 16 21
REMARK H PARENT 3 13
ROOT
ATOM      1  C   UNL     1       6.069  14.304 -11.375  1.00  0.00     0.018 A 
ATOM      2  C   UNL     1       4.778  13.888 -11.241  1.00  0.00     0.033 A 
ATOM      3  C   UNL     1       6.857  12.296 -10.269  1.00  0.00     0.065 A 
ATOM      4  N   UNL     1       3.351  12.007 -10.343  1.00  0.00    -0.209 NA
ATOM      5  O   UNL     1       4.976  10.774  -9.584  1.00  0.00    -0.436 OA
ATOM      6  C   UNL     1       7.123  13.515 -10.894  1.00  0.00     0.063 A 
ATOM      7  C   UNL     1       3.642  10.885  -9.732  1.00  0.00     0.227 A 
ATOM      8  C   UNL     1       4.497  12.667 -10.616  1.00  0.00     0.110 A 
ATOM      9  C   UNL     1       5.548  11.872 -10.126  1.00  0.00     0.156 A 
ENDROOT
BRANCH   6  10
ATOM     10  C   UNL     1       8.515  13.973 -11.050  1.00  0.00     0.335 C 
ATOM     11  O   UNL     1       9.089  13.820 -12.110  1.00  0.00    -0.246 OA
BRANCH  10  12
ATOM     12  O   UNL     1       9.152  14.560 -10.018  1.00  0.00    -0.478 OA
ATOM     13  H   UNL     1       9.628  13.980  -9.409  1.00  0.00     0.297 HD
ENDBRANCH  10  12
ENDBRANCH   6  10
BRANCH   7  14
ATOM     14  C   UNL     1       2.652   9.890  -9.272  1.00  0.00     0.040 A 
ATOM     15  C   UNL     1       1.500   9.649 -10.022  1.00  0.00     0.034 A 
ATOM     16  C   UNL     1       2.865   9.186  -8.085  1.00  0.00     0.034 A 
ATOM     17  C   UNL     1       0.578   8.717  -9.587  1.00  0.00     0.043 A 
ATOM     18  C   UNL     1       1.937   8.257  -7.661  1.00  0.00     0.043 A 
ATOM     19  C   UNL     1       0.796   8.023  -8.409  1.00  0.00     0.041 A 
ATOM     20  Cl  UNL     1      -0.855   8.415 -10.518  1.00  0.00    -0.084 Cl
ATOM     21  Cl  UNL     1       2.200   7.381  -6.185  1.00  0.00    -0.084 Cl
ENDBRANCH   7  14
TORSDOF 3
ENDMDL
MODEL 7
REMARK VINA RESULT:    -3.604     14.565     15.920
REMARK INTER + INTRA:          -4.426
REMARK INTER:                  -4.142
REMARK INTRA:                  -0.284
REMARK UNBOUND:                -0.295
REMARK SMILES O=C(O)c1ccc2nc(-c3cc(Cl)cc(Cl)c3)oc2c1
REMARK SMILES IDX 5 1 6 2 20 3 8 4 18 5 4 6 9 7 7 8 19 9 2 10 1 11 3 12 10 14
REMARK SMILES IDX 11 15 17 16 12 17 15 18 14 19 13 20 16 21
REMARK H PARENT 3 13
ROOT
ATOM      1  C   UNL     1      -2.743  11.159 -14.263  1.00  0.00     0.018 A 
ATOM      2  C   UNL     1      -1.444  11.054 -13.863  1.00  0.00     0.033 A 
ATOM      3  C   UNL     1      -3.480  10.041 -12.241  1.00  0.00     0.065 A 
ATOM      4  N   UNL     1       0.026  10.192 -11.999  1.00  0.00    -0.209 NA
ATOM      5  O   UNL     1      -1.565   9.401 -10.743  1.00  0.00    -0.436 OA
ATOM      6  C   UNL     1      -3.776  10.657 -13.458  1.00  0.00     0.063 A 
ATOM      7  C   UNL     1      -0.237   9.577 -10.872  1.00  0.00     0.227 A 
ATOM      8  C   UNL     1      -1.134  10.438 -12.645  1.00  0.00     0.110 A 
ATOM      9  C   UNL     1      -2.163   9.928 -11.835  1.00  0.00     0.156 A 
ENDROOT
BRANCH   6  10
ATOM     10  C   UNL     1      -5.177  10.782 -13.898  1.00  0.00     0.335 C 
ATOM     11  O   UNL     1      -5.781  11.820 -13.716  1.00  0.00    -0.246 OA
BRANCH  10  12
ATOM     12  O   UNL     1      -5.790   9.744 -14.501  1.00  0.00    -0.478 OA
ATOM     13  H   UNL     1      -6.118   9.889 -15.398  1.00  0.00     0.297 HD
ENDBRANCH  10  12
ENDBRANCH   6  10
BRANCH   7  14
ATOM     14  C   UNL     1       0.777   9.142  -9.889  1.00  0.00     0.040 A 
ATOM     15  C   UNL     1       1.912   9.920  -9.660  1.00  0.00     0.034 A 
ATOM     16  C   UNL     1       0.602   7.948  -9.185  1.00  0.00     0.034 A 
ATOM     17  C   UNL     1       2.855   9.508  -8.739  1.00  0.00     0.043 A 
ATOM     18  C   UNL     1       1.551   7.547  -8.267  1.00  0.00     0.043 A 
ATOM     19  C   UNL     1       2.675   8.323  -8.045  1.00  0.00     0.041 A 
ATOM     20  Cl  UNL     1       4.267  10.475  -8.452  1.00  0.00    -0.084 Cl
ATOM     21  Cl  UNL     1       1.336   6.063  -7.390  1.00  0.00    -0.084 Cl
ENDBRANCH   7  14
TORSDOF 3
ENDMDL
MODEL 8
REMARK VINA RESULT:    -3.601     14.575     15.835
REMARK INTER + INTRA:          -4.423
REMARK INTER:                  -4.139
REMARK INTRA:                  -0.283
REMARK UNBOUND:                -0.295
REMARK SMILES O=C(O)c1ccc2nc(-c3cc(Cl)cc(Cl)c3)oc2c1
REMARK SMILES IDX 5 1 6 2 20 3 8 4 18 5 4 6 9 7 7 8 19 9 2 10 1 11 3 12 10 14
REMARK SMILES IDX 11 15 17 16 12 17 15 18 14 19 13 20 16 21
REMARK H PARENT 3 13
ROOT
ATOM      1  C   UNL     1      -2.747  11.177 -14.266  1.00  0.00     0.018 A 
ATOM      2  C   UNL     1      -1.450  11.076 -13.863  1.00  0.00     0.033 A 
ATOM      3  C   UNL     1      -3.487  10.045 -12.253  1.00  0.00     0.065 A 
ATOM      4  N   UNL     1       0.018  10.210 -11.997  1.00  0.00    -0.209 NA
ATOM      5  O   UNL     1      -1.574   9.406 -10.751  1.00  0.00    -0.436 OA
ATOM      6  C   UNL     1      -3.781  10.666 -13.468  1.00  0.00     0.063 A 
ATOM      7  C   UNL     1      -0.246   9.589 -10.874  1.00  0.00     0.227 A 
ATOM      8  C   UNL     1      -1.141  10.455 -12.646  1.00  0.00     0.110 A 
ATOM      9  C   UNL     1      -2.171   9.936 -11.842  1.00  0.00     0.156 A 
ENDROOT
BRANCH   6  10
ATOM     10  C   UNL     1      -5.181  10.787 -13.913  1.00  0.00     0.335 C 
ATOM     11  O   UNL     1      -5.787  11.825 -13.735  1.00  0.00    -0.246 OA
BRANCH  10  12
ATOM     12  O   UNL     1      -5.790   9.746 -14.514  1.00  0.00    -0.478 OA
ATOM     13  H   UNL     1      -6.684   9.530 -14.219  1.00  0.00     0.297 HD
ENDBRANCH  10  12
ENDBRANCH   6  10
BRANCH   7  14
ATOM     14  C   UNL     1       0.765   9.153  -9.889  1.00  0.00     0.040 A 
ATOM     15  C   UNL     1       0.588   7.962  -9.183  1.00  0.00     0.034 A 
ATOM     16  C   UNL     1       1.902   9.932  -9.661  1.00  0.00     0.034 A 
ATOM     17  C   UNL     1       1.538   7.560  -8.265  1.00  0.00     0.043 A 
ATOM     18  C   UNL     1       2.844   9.518  -8.740  1.00  0.00     0.043 A 
ATOM     19  C   UNL     1       2.662   8.336  -8.043  1.00  0.00     0.041 A 
ATOM     20  Cl  UNL     1       1.320   6.079  -7.386  1.00  0.00    -0.084 Cl
ATOM     21  Cl  UNL     1       4.258  10.485  -8.455  1.00  0.00    -0.084 Cl
ENDBRANCH   7  14
TORSDOF 3
ENDMDL
MODEL 9
REMARK VINA RESULT:    -3.380     10.887     11.508
REMARK INTER + INTRA:          -4.170
REMARK INTER:                  -3.873
REMARK INTRA:                  -0.297
REMARK UNBOUND:                -0.295
REMARK SMILES O=C(O)c1ccc2nc(-c3cc(Cl)cc(Cl)c3)oc2c1
REMARK SMILES IDX 5 1 6 2 20 3 8 4 18 5 4 6 9 7 7 8 19 9 2 10 1 11 3 12 10 14
REMARK SMILES IDX 11 15 17 16 12 17 15 18 14 19 13 20 16 21
REMARK H PARENT 3 13
ROOT
ATOM      1  C   UNL     1       1.453  10.329 -10.589  1.00  0.00     0.018 A 
ATOM      2  C   UNL     1       0.907   9.163 -10.141  1.00  0.00     0.033 A 
ATOM      3  C   UNL     1       3.042  10.317  -8.758  1.00  0.00     0.065 A 
ATOM      4  N   UNL     1       1.093   7.421  -8.321  1.00  0.00    -0.209 NA
ATOM      5  O   UNL     1       2.753   8.329  -7.246  1.00  0.00    -0.436 OA
ATOM      6  C   UNL     1       2.526  10.919  -9.906  1.00  0.00     0.063 A 
ATOM      7  C   UNL     1       1.890   7.296  -7.289  1.00  0.00     0.227 A 
ATOM      8  C   UNL     1       1.416   8.549  -8.990  1.00  0.00     0.110 A 
ATOM      9  C   UNL     1       2.489   9.137  -8.297  1.00  0.00     0.156 A 
ENDROOT
BRANCH   6  10
ATOM     10  C   UNL     1       3.112  12.177 -10.404  1.00  0.00     0.335 C 
ATOM     11  O   UNL     1       4.128  12.614  -9.901  1.00  0.00    -0.246 OA
BRANCH  10  12
ATOM     12  O   UNL     1       2.520  12.843 -11.415  1.00  0.00    -0.478 OA
ATOM     13  H   UNL     1       2.430  13.800 -11.317  1.00  0.00     0.297 HD
ENDBRANCH  10  12
ENDBRANCH   6  10
BRANCH   7  14
ATOM     14  C   UNL     1       1.847   6.186  -6.315  1.00  0.00     0.040 A 
ATOM     15  C   UNL     1       1.292   4.958  -6.676  1.00  0.00     0.034 A 
ATOM     16  C   UNL     1       2.360   6.363  -5.028  1.00  0.00     0.034 A 
ATOM     17  C   UNL     1       1.255   3.924  -5.761  1.00  0.00     0.043 A 
ATOM     18  C   UNL     1       2.318   5.321  -4.123  1.00  0.00     0.043 A 
ATOM     19  C   UNL     1       1.766   4.105  -4.487  1.00  0.00     0.041 A 
ATOM     20  Cl  UNL     1       0.567   2.395  -6.209  1.00  0.00    -0.084 Cl
ATOM     21  Cl  UNL     1       2.956   5.539  -2.522  1.00  0.00    -0.084 Cl
ENDBRANCH   7  14
TORSDOF 3
ENDMDL
