MODEL 1
REMARK VINA RESULT:    -5.558      0.000      0.000
REMARK INTER + INTRA:          -8.213
REMARK INTER:                  -7.670
REMARK INTRA:                  -0.543
REMARK UNBOUND:                -0.543
REMARK SMILES Cc1n[nH]c(C)c1CCCOc1cc(C(=O)O)ccc1F
REMARK SMILES IDX 11 1 12 2 14 3 18 4 13 5 19 6 20 7 21 8 15 9 16 10 17 11
REMARK SMILES IDX 10 13 9 14 8 15 7 16 5 17 2 18 4 19 3 20 6 21 1 22
REMARK H PARENT 17 12 4 23
ROOT
ATOM      1  O   UNL     1      -7.001   6.282  -3.122  1.00  0.00    -0.490 OA
ENDROOT
BRANCH   1   2
ATOM      2  C   UNL     1      -5.752   5.750  -3.035  1.00  0.00     0.155 A 
ATOM      3  C   UNL     1      -3.773   4.886  -4.092  1.00  0.00     0.063 A 
ATOM      4  C   UNL     1      -3.199   4.675  -2.835  1.00  0.00     0.019 A 
ATOM      5  C   UNL     1      -5.057   5.427  -4.185  1.00  0.00     0.065 A 
ATOM      6  C   UNL     1      -3.898   5.006  -1.694  1.00  0.00     0.044 A 
ATOM      7  C   UNL     1      -5.169   5.547  -1.789  1.00  0.00     0.165 A 
ATOM      8  F   UNL     1      -5.849   5.869  -0.667  1.00  0.00    -0.203 F 
BRANCH   3   9
ATOM      9  C   UNL     1      -3.027   4.534  -5.316  1.00  0.00     0.335 C 
ATOM     10  O   UNL     1      -3.610   4.435  -6.376  1.00  0.00    -0.246 OA
BRANCH   9  11
ATOM     11  O   UNL     1      -1.696   4.327  -5.257  1.00  0.00    -0.478 OA
ATOM     12  H   UNL     1      -1.283   3.908  -6.025  1.00  0.00     0.297 HD
ENDBRANCH   9  11
ENDBRANCH   3   9
ENDBRANCH   1   2
BRANCH   1  13
ATOM     13  C   UNL     1      -7.162   7.634  -2.687  1.00  0.00     0.230 C 
BRANCH  13  14
ATOM     14  C   UNL     1      -7.520   8.515  -3.884  1.00  0.00     0.046 C 
BRANCH  14  15
ATOM     15  C   UNL     1      -6.250   9.161  -4.441  1.00  0.00     0.043 C 
BRANCH  15  16
ATOM     16  C   UNL     1      -6.603  10.450  -5.136  1.00  0.00    -0.004 A 
ATOM     17  C   UNL     1      -6.944  10.585  -6.439  1.00  0.00     0.036 A 
ATOM     18  C   UNL     1      -6.644  11.718  -4.548  1.00  0.00     0.063 A 
ATOM     19  N   UNL     1      -7.184  11.893  -6.668  1.00  0.00    -0.282 N 
ATOM     20  N   UNL     1      -6.985  12.585  -5.466  1.00  0.00    -0.181 NA
ATOM     21  C   UNL     1      -7.037   9.474  -7.452  1.00  0.00     0.066 C 
ATOM     22  C   UNL     1      -6.335  12.034  -3.106  1.00  0.00     0.069 C 
ATOM     23  H   UNL     1      -7.448  12.285  -7.515  1.00  0.00     0.190 HD
ENDBRANCH  15  16
ENDBRANCH  14  15
ENDBRANCH  13  14
ENDBRANCH   1  13
TORSDOF 7
ENDMDL
MODEL 2
REMARK VINA RESULT:    -5.536      2.151      3.789
REMARK INTER + INTRA:          -8.183
REMARK INTER:                  -7.558
REMARK INTRA:                  -0.625
REMARK UNBOUND:                -0.543
REMARK SMILES Cc1n[nH]c(C)c1CCCOc1cc(C(=O)O)ccc1F
REMARK SMILES IDX 11 1 12 2 14 3 18 4 13 5 19 6 20 7 21 8 15 9 16 10 17 11
REMARK SMILES IDX 10 13 9 14 8 15 7 16 5 17 2 18 4 19 3 20 6 21 1 22
REMARK H PARENT 17 12 4 23
ROOT
ATOM      1  O   UNL     1      -4.229   6.947  -5.155  1.00  0.00    -0.490 OA
ENDROOT
BRANCH   1   2
ATOM      2  C   UNL     1      -4.070   6.065  -4.133  1.00  0.00     0.155 A 
ATOM      3  C   UNL     1      -4.468   5.419  -1.851  1.00  0.00     0.063 A 
ATOM      4  C   UNL     1      -3.741   4.244  -2.061  1.00  0.00     0.019 A 
ATOM      5  C   UNL     1      -4.630   6.330  -2.897  1.00  0.00     0.065 A 
ATOM      6  C   UNL     1      -3.191   3.986  -3.298  1.00  0.00     0.044 A 
ATOM      7  C   UNL     1      -3.356   4.888  -4.336  1.00  0.00     0.165 A 
ATOM      8  F   UNL     1      -2.815   4.629  -5.546  1.00  0.00    -0.203 F 
BRANCH   3   9
ATOM      9  C   UNL     1      -5.059   5.699  -0.528  1.00  0.00     0.335 C 
ATOM     10  O   UNL     1      -4.814   6.745   0.038  1.00  0.00    -0.246 OA
BRANCH   9  11
ATOM     11  O   UNL     1      -5.875   4.795   0.050  1.00  0.00    -0.478 OA
ATOM     12  H   UNL     1      -6.629   5.140   0.548  1.00  0.00     0.297 HD
ENDBRANCH   9  11
ENDBRANCH   3   9
ENDBRANCH   1   2
BRANCH   1  13
ATOM     13  C   UNL     1      -3.357   8.079  -5.177  1.00  0.00     0.230 C 
BRANCH  13  14
ATOM     14  C   UNL     1      -4.126   9.306  -5.671  1.00  0.00     0.046 C 
BRANCH  14  15
ATOM     15  C   UNL     1      -5.597   9.182  -5.266  1.00  0.00     0.043 C 
BRANCH  15  16
ATOM     16  C   UNL     1      -6.342  10.420  -5.693  1.00  0.00    -0.004 A 
ATOM     17  C   UNL     1      -6.516  11.539  -4.952  1.00  0.00     0.036 A 
ATOM     18  C   UNL     1      -6.970  10.619  -6.927  1.00  0.00     0.063 A 
ATOM     19  N   UNL     1      -7.235  12.412  -5.689  1.00  0.00    -0.282 N 
ATOM     20  N   UNL     1      -7.511  11.810  -6.923  1.00  0.00    -0.181 NA
ATOM     21  C   UNL     1      -6.001  11.769  -3.555  1.00  0.00     0.066 C 
ATOM     22  C   UNL     1      -7.024   9.628  -8.061  1.00  0.00     0.069 C 
ATOM     23  H   UNL     1      -7.512  13.300  -5.412  1.00  0.00     0.190 HD
ENDBRANCH  15  16
ENDBRANCH  14  15
ENDBRANCH  13  14
ENDBRANCH   1  13
TORSDOF 7
ENDMDL
MODEL 3
REMARK VINA RESULT:    -5.471      2.168      3.362
REMARK INTER + INTRA:          -8.093
REMARK INTER:                  -7.451
REMARK INTRA:                  -0.643
REMARK UNBOUND:                -0.543
REMARK SMILES Cc1n[nH]c(C)c1CCCOc1cc(C(=O)O)ccc1F
REMARK SMILES IDX 11 1 12 2 14 3 18 4 13 5 19 6 20 7 21 8 15 9 16 10 17 11
REMARK SMILES IDX 10 13 9 14 8 15 7 16 5 17 2 18 4 19 3 20 6 21 1 22
REMARK H PARENT 17 12 4 23
ROOT
ATOM      1  O   UNL     1      -4.308   6.983  -5.154  1.00  0.00    -0.490 OA
ENDROOT
BRANCH   1   2
ATOM      2  C   UNL     1      -4.127   6.097  -4.139  1.00  0.00     0.155 A 
ATOM      3  C   UNL     1      -4.491   5.434  -1.856  1.00  0.00     0.063 A 
ATOM      4  C   UNL     1      -3.755   4.268  -2.081  1.00  0.00     0.019 A 
ATOM      5  C   UNL     1      -4.674   6.350  -2.895  1.00  0.00     0.065 A 
ATOM      6  C   UNL     1      -3.217   4.022  -3.327  1.00  0.00     0.044 A 
ATOM      7  C   UNL     1      -3.405   4.929  -4.357  1.00  0.00     0.165 A 
ATOM      8  F   UNL     1      -2.876   4.681  -5.576  1.00  0.00    -0.203 F 
BRANCH   3   9
ATOM      9  C   UNL     1      -5.067   5.701  -0.524  1.00  0.00     0.335 C 
ATOM     10  O   UNL     1      -4.814   6.739   0.052  1.00  0.00    -0.246 OA
BRANCH   9  11
ATOM     11  O   UNL     1      -5.881   4.794   0.052  1.00  0.00    -0.478 OA
ATOM     12  H   UNL     1      -6.825   4.859  -0.151  1.00  0.00     0.297 HD
ENDBRANCH   9  11
ENDBRANCH   3   9
ENDBRANCH   1   2
BRANCH   1  13
ATOM     13  C   UNL     1      -3.400   8.085  -5.222  1.00  0.00     0.230 C 
BRANCH  13  14
ATOM     14  C   UNL     1      -4.148   9.334  -5.692  1.00  0.00     0.046 C 
BRANCH  14  15
ATOM     15  C   UNL     1      -5.641   9.176  -5.395  1.00  0.00     0.043 C 
BRANCH  15  16
ATOM     16  C   UNL     1      -6.387  10.378  -5.911  1.00  0.00    -0.004 A 
ATOM     17  C   UNL     1      -6.971  10.491  -7.127  1.00  0.00     0.036 A 
ATOM     18  C   UNL     1      -6.603  11.574  -5.218  1.00  0.00     0.063 A 
ATOM     19  N   UNL     1      -7.532  11.716  -7.202  1.00  0.00    -0.282 N 
ATOM     20  N   UNL     1      -7.284  12.379  -5.992  1.00  0.00    -0.181 NA
ATOM     21  C   UNL     1      -6.992   9.437  -8.203  1.00  0.00     0.066 C 
ATOM     22  C   UNL     1      -6.125  11.885  -3.822  1.00  0.00     0.069 C 
ATOM     23  H   UNL     1      -8.020  12.075  -7.959  1.00  0.00     0.190 HD
ENDBRANCH  15  16
ENDBRANCH  14  15
ENDBRANCH  13  14
ENDBRANCH   1  13
TORSDOF 7
ENDMDL
MODEL 4
REMARK VINA RESULT:    -4.668      3.928      6.974
REMARK INTER + INTRA:          -6.985
REMARK INTER:                  -6.151
REMARK INTRA:                  -0.834
REMARK UNBOUND:                -0.543
REMARK SMILES Cc1n[nH]c(C)c1CCCOc1cc(C(=O)O)ccc1F
REMARK SMILES IDX 11 1 12 2 14 3 18 4 13 5 19 6 20 7 21 8 15 9 16 10 17 11
REMARK SMILES IDX 10 13 9 14 8 15 7 16 5 17 2 18 4 19 3 20 6 21 1 22
REMARK H PARENT 17 12 4 23
ROOT
ATOM      1  O   UNL     1      -5.339   7.889  -5.416  1.00  0.00    -0.490 OA
ENDROOT
BRANCH   1   2
ATOM      2  C   UNL     1      -5.862   9.142  -5.477  1.00  0.00     0.155 A 
ATOM      3  C   UNL     1      -6.230  11.302  -4.486  1.00  0.00     0.063 A 
ATOM      4  C   UNL     1      -6.930  11.702  -5.627  1.00  0.00     0.019 A 
ATOM      5  C   UNL     1      -5.696  10.013  -4.417  1.00  0.00     0.065 A 
ATOM      6  C   UNL     1      -7.085  10.828  -6.682  1.00  0.00     0.044 A 
ATOM      7  C   UNL     1      -6.550   9.553  -6.614  1.00  0.00     0.165 A 
ATOM      8  F   UNL     1      -6.706   8.701  -7.651  1.00  0.00    -0.203 F 
BRANCH   3   9
ATOM      9  C   UNL     1      -6.061  12.235  -3.355  1.00  0.00     0.335 C 
ATOM     10  O   UNL     1      -6.914  12.306  -2.493  1.00  0.00    -0.246 OA
BRANCH   9  11
ATOM     11  O   UNL     1      -4.957  13.003  -3.275  1.00  0.00    -0.478 OA
ATOM     12  H   UNL     1      -5.065  13.948  -3.455  1.00  0.00     0.297 HD
ENDBRANCH   9  11
ENDBRANCH   3   9
ENDBRANCH   1   2
BRANCH   1  13
ATOM     13  C   UNL     1      -4.060   7.749  -4.791  1.00  0.00     0.230 C 
BRANCH  13  14
ATOM     14  C   UNL     1      -3.719   6.265  -4.655  1.00  0.00     0.046 C 
BRANCH  14  15
ATOM     15  C   UNL     1      -4.986   5.480  -4.308  1.00  0.00     0.043 C 
BRANCH  15  16
ATOM     16  C   UNL     1      -5.167   5.452  -2.812  1.00  0.00    -0.004 A 
ATOM     17  C   UNL     1      -4.377   4.803  -1.926  1.00  0.00     0.036 A 
ATOM     18  C   UNL     1      -6.178   6.099  -2.093  1.00  0.00     0.063 A 
ATOM     19  N   UNL     1      -4.874   5.025  -0.691  1.00  0.00    -0.282 N 
ATOM     20  N   UNL     1      -6.008   5.838  -0.823  1.00  0.00    -0.181 NA
ATOM     21  C   UNL     1      -3.160   3.980  -2.259  1.00  0.00     0.066 C 
ATOM     22  C   UNL     1      -7.282   6.941  -2.682  1.00  0.00     0.069 C 
ATOM     23  H   UNL     1      -4.511   4.682   0.140  1.00  0.00     0.190 HD
ENDBRANCH  15  16
ENDBRANCH  14  15
ENDBRANCH  13  14
ENDBRANCH   1  13
TORSDOF 7
ENDMDL
MODEL 5
REMARK VINA RESULT:    -4.623      3.757      6.434
REMARK INTER + INTRA:          -6.924
REMARK INTER:                  -6.091
REMARK INTRA:                  -0.833
REMARK UNBOUND:                -0.543
REMARK SMILES Cc1n[nH]c(C)c1CCCOc1cc(C(=O)O)ccc1F
REMARK SMILES IDX 11 1 12 2 14 3 18 4 13 5 19 6 20 7 21 8 15 9 16 10 17 11
REMARK SMILES IDX 10 13 9 14 8 15 7 16 5 17 2 18 4 19 3 20 6 21 1 22
REMARK H PARENT 17 12 4 23
ROOT
ATOM      1  O   UNL     1      -5.536   8.721  -3.332  1.00  0.00    -0.490 OA
ENDROOT
BRANCH   1   2
ATOM      2  C   UNL     1      -5.991   9.607  -4.257  1.00  0.00     0.155 A 
ATOM      3  C   UNL     1      -6.814  10.083  -6.466  1.00  0.00     0.063 A 
ATOM      4  C   UNL     1      -6.928  11.434  -6.129  1.00  0.00     0.019 A 
ATOM      5  C   UNL     1      -6.342   9.170  -5.521  1.00  0.00     0.065 A 
ATOM      6  C   UNL     1      -6.581  11.860  -4.864  1.00  0.00     0.044 A 
ATOM      7  C   UNL     1      -6.118  10.952  -3.926  1.00  0.00     0.165 A 
ATOM      8  F   UNL     1      -5.780  11.376  -2.689  1.00  0.00    -0.203 F 
BRANCH   3   9
ATOM      9  C   UNL     1      -7.185   9.623  -7.819  1.00  0.00     0.335 C 
ATOM     10  O   UNL     1      -8.285   9.150  -8.020  1.00  0.00    -0.246 OA
BRANCH   9  11
ATOM     11  O   UNL     1      -6.304   9.734  -8.833  1.00  0.00    -0.478 OA
ATOM     12  H   UNL     1      -6.612   9.475  -9.712  1.00  0.00     0.297 HD
ENDBRANCH   9  11
ENDBRANCH   3   9
ENDBRANCH   1   2
BRANCH   1  13
ATOM     13  C   UNL     1      -6.181   7.446  -3.284  1.00  0.00     0.230 C 
BRANCH  13  14
ATOM     14  C   UNL     1      -5.382   6.505  -2.380  1.00  0.00     0.046 C 
BRANCH  14  15
ATOM     15  C   UNL     1      -3.889   6.810  -2.519  1.00  0.00     0.043 C 
BRANCH  15  16
ATOM     16  C   UNL     1      -3.301   5.962  -3.617  1.00  0.00    -0.004 A 
ATOM     17  C   UNL     1      -3.173   4.615  -3.600  1.00  0.00     0.036 A 
ATOM     18  C   UNL     1      -2.798   6.427  -4.836  1.00  0.00     0.063 A 
ATOM     19  N   UNL     1      -2.603   4.241  -4.764  1.00  0.00    -0.282 N 
ATOM     20  N   UNL     1      -2.373   5.397  -5.522  1.00  0.00    -0.181 NA
ATOM     21  C   UNL     1      -3.592   3.697  -2.481  1.00  0.00     0.066 C 
ATOM     22  C   UNL     1      -2.744   7.867  -5.279  1.00  0.00     0.069 C 
ATOM     23  H   UNL     1      -2.389   3.333  -5.030  1.00  0.00     0.190 HD
ENDBRANCH  15  16
ENDBRANCH  14  15
ENDBRANCH  13  14
ENDBRANCH   1  13
TORSDOF 7
ENDMDL
MODEL 6
REMARK VINA RESULT:    -4.457      4.789      8.208
REMARK INTER + INTRA:          -6.694
REMARK INTER:                  -6.038
REMARK INTRA:                  -0.656
REMARK UNBOUND:                -0.543
REMARK SMILES Cc1n[nH]c(C)c1CCCOc1cc(C(=O)O)ccc1F
REMARK SMILES IDX 11 1 12 2 14 3 18 4 13 5 19 6 20 7 21 8 15 9 16 10 17 11
REMARK SMILES IDX 10 13 9 14 8 15 7 16 5 17 2 18 4 19 3 20 6 21 1 22
REMARK H PARENT 17 12 4 23
ROOT
ATOM      1  O   UNL     1      -6.481  11.472  -3.731  1.00  0.00    -0.490 OA
ENDROOT
BRANCH   1   2
ATOM      2  C   UNL     1      -6.529  12.830  -3.686  1.00  0.00     0.155 A 
ATOM      3  C   UNL     1      -7.659  14.897  -4.171  1.00  0.00     0.063 A 
ATOM      4  C   UNL     1      -6.612  15.605  -3.574  1.00  0.00     0.019 A 
ATOM      5  C   UNL     1      -7.611  13.502  -4.224  1.00  0.00     0.065 A 
ATOM      6  C   UNL     1      -5.540  14.926  -3.035  1.00  0.00     0.044 A 
ATOM      7  C   UNL     1      -5.497  13.542  -3.084  1.00  0.00     0.165 A 
ATOM      8  F   UNL     1      -4.444  12.883  -2.553  1.00  0.00    -0.203 F 
BRANCH   3   9
ATOM      9  C   UNL     1      -8.808  15.621  -4.748  1.00  0.00     0.335 C 
ATOM     10  O   UNL     1      -9.009  16.780  -4.449  1.00  0.00    -0.246 OA
BRANCH   9  11
ATOM     11  O   UNL     1      -9.631  14.996  -5.613  1.00  0.00    -0.478 OA
ATOM     12  H   UNL     1     -10.503  14.737  -5.282  1.00  0.00     0.297 HD
ENDBRANCH   9  11
ENDBRANCH   3   9
ENDBRANCH   1   2
BRANCH   1  13
ATOM     13  C   UNL     1      -6.159  10.876  -4.990  1.00  0.00     0.230 C 
BRANCH  13  14
ATOM     14  C   UNL     1      -6.239   9.354  -4.868  1.00  0.00     0.046 C 
BRANCH  14  15
ATOM     15  C   UNL     1      -5.357   8.888  -3.708  1.00  0.00     0.043 C 
BRANCH  15  16
ATOM     16  C   UNL     1      -5.031   7.427  -3.878  1.00  0.00    -0.004 A 
ATOM     17  C   UNL     1      -5.791   6.387  -3.461  1.00  0.00     0.036 A 
ATOM     18  C   UNL     1      -3.893   6.904  -4.501  1.00  0.00     0.063 A 
ATOM     19  N   UNL     1      -5.153   5.248  -3.802  1.00  0.00    -0.282 N 
ATOM     20  N   UNL     1      -3.962   5.599  -4.450  1.00  0.00    -0.181 NA
ATOM     21  C   UNL     1      -7.113   6.485  -2.745  1.00  0.00     0.066 C 
ATOM     22  C   UNL     1      -2.774   7.707  -5.115  1.00  0.00     0.069 C 
ATOM     23  H   UNL     1      -5.464   4.346  -3.629  1.00  0.00     0.190 HD
ENDBRANCH  15  16
ENDBRANCH  14  15
ENDBRANCH  13  14
ENDBRANCH   1  13
TORSDOF 7
ENDMDL
MODEL 7
REMARK VINA RESULT:    -4.454      5.022      7.942
REMARK INTER + INTRA:          -6.690
REMARK INTER:                  -6.002
REMARK INTRA:                  -0.688
REMARK UNBOUND:                -0.543
REMARK SMILES Cc1n[nH]c(C)c1CCCOc1cc(C(=O)O)ccc1F
REMARK SMILES IDX 11 1 12 2 14 3 18 4 13 5 19 6 20 7 21 8 15 9 16 10 17 11
REMARK SMILES IDX 10 13 9 14 8 15 7 16 5 17 2 18 4 19 3 20 6 21 1 22
REMARK H PARENT 17 12 4 23
ROOT
ATOM      1  O   UNL     1      -6.571   9.876  -7.113  1.00  0.00    -0.490 OA
ENDROOT
BRANCH   1   2
ATOM      2  C   UNL     1      -7.402  10.393  -8.057  1.00  0.00     0.155 A 
ATOM      3  C   UNL     1      -8.137  12.245  -9.403  1.00  0.00     0.063 A 
ATOM      4  C   UNL     1      -9.101  11.426  -9.996  1.00  0.00     0.019 A 
ATOM      5  C   UNL     1      -7.286  11.719  -8.429  1.00  0.00     0.065 A 
ATOM      6  C   UNL     1      -9.206  10.103  -9.624  1.00  0.00     0.044 A 
ATOM      7  C   UNL     1      -8.357   9.582  -8.661  1.00  0.00     0.165 A 
ATOM      8  F   UNL     1      -8.464   8.284  -8.300  1.00  0.00    -0.203 F 
BRANCH   3   9
ATOM      9  C   UNL     1      -8.022  13.662  -9.799  1.00  0.00     0.335 C 
ATOM     10  O   UNL     1      -8.712  14.099 -10.698  1.00  0.00    -0.246 OA
BRANCH   9  11
ATOM     11  O   UNL     1      -7.157  14.473  -9.159  1.00  0.00    -0.478 OA
ATOM     12  H   UNL     1      -6.799  15.218  -9.662  1.00  0.00     0.297 HD
ENDBRANCH   9  11
ENDBRANCH   3   9
ENDBRANCH   1   2
BRANCH   1  13
ATOM     13  C   UNL     1      -6.689  10.401  -5.788  1.00  0.00     0.230 C 
BRANCH  13  14
ATOM     14  C   UNL     1      -5.720   9.666  -4.861  1.00  0.00     0.046 C 
BRANCH  14  15
ATOM     15  C   UNL     1      -5.734   8.171  -5.190  1.00  0.00     0.043 C 
BRANCH  15  16
ATOM     16  C   UNL     1      -5.034   7.409  -4.095  1.00  0.00    -0.004 A 
ATOM     17  C   UNL     1      -5.627   6.810  -3.036  1.00  0.00     0.036 A 
ATOM     18  C   UNL     1      -3.656   7.188  -3.997  1.00  0.00     0.063 A 
ATOM     19  N   UNL     1      -4.659   6.237  -2.291  1.00  0.00    -0.282 N 
ATOM     20  N   UNL     1      -3.429   6.492  -2.913  1.00  0.00    -0.181 NA
ATOM     21  C   UNL     1      -7.105   6.788  -2.742  1.00  0.00     0.066 C 
ATOM     22  C   UNL     1      -2.611   7.678  -4.967  1.00  0.00     0.069 C 
ATOM     23  H   UNL     1      -4.791   5.739  -1.470  1.00  0.00     0.190 HD
ENDBRANCH  15  16
ENDBRANCH  14  15
ENDBRANCH  13  14
ENDBRANCH   1  13
TORSDOF 7
ENDMDL
MODEL 8
REMARK VINA RESULT:    -4.431      3.470      5.386
REMARK INTER + INTRA:          -6.658
REMARK INTER:                  -5.993
REMARK INTRA:                  -0.664
REMARK UNBOUND:                -0.543
REMARK SMILES Cc1n[nH]c(C)c1CCCOc1cc(C(=O)O)ccc1F
REMARK SMILES IDX 11 1 12 2 14 3 18 4 13 5 19 6 20 7 21 8 15 9 16 10 17 11
REMARK SMILES IDX 10 13 9 14 8 15 7 16 5 17 2 18 4 19 3 20 6 21 1 22
REMARK H PARENT 17 12 4 23
ROOT
ATOM      1  O   UNL     1      -6.344  11.147  -4.865  1.00  0.00    -0.490 OA
ENDROOT
BRANCH   1   2
ATOM      2  C   UNL     1      -6.036   9.848  -4.605  1.00  0.00     0.155 A 
ATOM      3  C   UNL     1      -6.540   7.758  -3.528  1.00  0.00     0.063 A 
ATOM      4  C   UNL     1      -5.394   7.194  -4.096  1.00  0.00     0.019 A 
ATOM      5  C   UNL     1      -6.857   9.093  -3.788  1.00  0.00     0.065 A 
ATOM      6  C   UNL     1      -4.585   7.953  -4.914  1.00  0.00     0.044 A 
ATOM      7  C   UNL     1      -4.904   9.276  -5.175  1.00  0.00     0.165 A 
ATOM      8  F   UNL     1      -4.107  10.014  -5.977  1.00  0.00    -0.203 F 
BRANCH   3   9
ATOM      9  C   UNL     1      -7.409   6.948  -2.652  1.00  0.00     0.335 C 
ATOM     10  O   UNL     1      -7.021   5.876  -2.235  1.00  0.00    -0.246 OA
BRANCH   9  11
ATOM     11  O   UNL     1      -8.631   7.402  -2.310  1.00  0.00    -0.478 OA
ATOM     12  H   UNL     1      -8.728   7.776  -1.423  1.00  0.00     0.297 HD
ENDBRANCH   9  11
ENDBRANCH   3   9
ENDBRANCH   1   2
BRANCH   1  13
ATOM     13  C   UNL     1      -6.509  12.012  -3.738  1.00  0.00     0.230 C 
BRANCH  13  14
ATOM     14  C   UNL     1      -5.343  13.000  -3.679  1.00  0.00     0.046 C 
BRANCH  14  15
ATOM     15  C   UNL     1      -5.676  14.124  -2.696  1.00  0.00     0.043 C 
BRANCH  15  16
ATOM     16  C   UNL     1      -5.891  15.408  -3.455  1.00  0.00    -0.004 A 
ATOM     17  C   UNL     1      -7.086  15.912  -3.843  1.00  0.00     0.036 A 
ATOM     18  C   UNL     1      -4.893  16.293  -3.876  1.00  0.00     0.063 A 
ATOM     19  N   UNL     1      -6.851  17.072  -4.494  1.00  0.00    -0.282 N 
ATOM     20  N   UNL     1      -5.466  17.287  -4.505  1.00  0.00    -0.181 NA
ATOM     21  C   UNL     1      -8.435  15.291  -3.594  1.00  0.00     0.066 C 
ATOM     22  C   UNL     1      -3.412  16.124  -3.655  1.00  0.00     0.069 C 
ATOM     23  H   UNL     1      -7.522  17.653  -4.884  1.00  0.00     0.190 HD
ENDBRANCH  15  16
ENDBRANCH  14  15
ENDBRANCH  13  14
ENDBRANCH   1  13
TORSDOF 7
ENDMDL
MODEL 9
REMARK VINA RESULT:    -4.422      3.497      4.831
REMARK INTER + INTRA:          -6.646
REMARK INTER:                  -5.994
REMARK INTRA:                  -0.652
REMARK UNBOUND:                -0.543
REMARK SMILES Cc1n[nH]c(C)c1CCCOc1cc(C(=O)O)ccc1F
REMARK SMILES IDX 11 1 12 2 14 3 18 4 13 5 19 6 20 7 21 8 15 9 16 10 17 11
REMARK SMILES IDX 10 13 9 14 8 15 7 16 5 17 2 18 4 19 3 20 6 21 1 22
REMARK H PARENT 17 12 4 23
ROOT
ATOM      1  O   UNL     1      -6.879  10.351  -6.011  1.00  0.00    -0.490 OA
ENDROOT
BRANCH   1   2
ATOM      2  C   UNL     1      -6.197   9.421  -5.290  1.00  0.00     0.155 A 
ATOM      3  C   UNL     1      -4.195   8.155  -4.879  1.00  0.00     0.063 A 
ATOM      4  C   UNL     1      -4.819   7.527  -3.797  1.00  0.00     0.019 A 
ATOM      5  C   UNL     1      -4.894   9.106  -5.625  1.00  0.00     0.065 A 
ATOM      6  C   UNL     1      -6.118   7.853  -3.467  1.00  0.00     0.044 A 
ATOM      7  C   UNL     1      -6.807   8.800  -4.206  1.00  0.00     0.165 A 
ATOM      8  F   UNL     1      -8.079   9.115  -3.877  1.00  0.00    -0.203 F 
BRANCH   3   9
ATOM      9  C   UNL     1      -2.805   7.809  -5.235  1.00  0.00     0.335 C 
ATOM     10  O   UNL     1      -2.339   6.741  -4.896  1.00  0.00    -0.246 OA
BRANCH   9  11
ATOM     11  O   UNL     1      -2.055   8.677  -5.942  1.00  0.00    -0.478 OA
ATOM     12  H   UNL     1      -1.566   8.322  -6.697  1.00  0.00     0.297 HD
ENDBRANCH   9  11
ENDBRANCH   3   9
ENDBRANCH   1   2
BRANCH   1  13
ATOM     13  C   UNL     1      -6.934  10.160  -7.427  1.00  0.00     0.230 C 
BRANCH  13  14
ATOM     14  C   UNL     1      -8.329   9.670  -7.821  1.00  0.00     0.046 C 
BRANCH  14  15
ATOM     15  C   UNL     1      -8.472   9.709  -9.344  1.00  0.00     0.043 C 
BRANCH  15  16
ATOM     16  C   UNL     1      -9.385  10.842  -9.735  1.00  0.00    -0.004 A 
ATOM     17  C   UNL     1     -10.738  10.811  -9.737  1.00  0.00     0.036 A 
ATOM     18  C   UNL     1      -8.983  12.115 -10.154  1.00  0.00     0.063 A 
ATOM     19  N   UNL     1     -11.176  12.019 -10.149  1.00  0.00    -0.282 N 
ATOM     20  N   UNL     1     -10.056  12.819 -10.409  1.00  0.00    -0.181 NA
ATOM     21  C   UNL     1     -11.599   9.638  -9.348  1.00  0.00     0.066 C 
ATOM     22  C   UNL     1      -7.560  12.590 -10.299  1.00  0.00     0.069 C 
ATOM     23  H   UNL     1     -12.103  12.286 -10.249  1.00  0.00     0.190 HD
ENDBRANCH  15  16
ENDBRANCH  14  15
ENDBRANCH  13  14
ENDBRANCH   1  13
TORSDOF 7
ENDMDL
