MODEL 1
REMARK VINA RESULT:    -5.985      0.000      0.000
REMARK INTER + INTRA:          -8.938
REMARK INTER:                  -8.259
REMARK INTRA:                  -0.679
REMARK UNBOUND:                -0.679
REMARK SMILES Cc1n[nH]c(C)c1CCCOc1cc(C(=O)O)ccc1F
REMARK SMILES IDX 11 1 12 2 14 3 18 4 13 5 19 6 20 7 21 8 15 9 16 10 17 11
REMARK SMILES IDX 10 13 9 14 8 15 7 16 5 17 2 18 4 19 3 20 6 21 1 22
REMARK H PARENT 17 12 4 23
ROOT
ATOM      1  O   UNL     1       8.305   3.784   2.072  1.00  0.00    -0.490 OA
ENDROOT
BRANCH   1   2
ATOM      2  C   UNL     1       7.143   3.121   1.831  1.00  0.00     0.155 A 
ATOM      3  C   UNL     1       5.847   1.096   1.869  1.00  0.00     0.063 A 
ATOM      4  C   UNL     1       4.755   1.789   1.340  1.00  0.00     0.019 A 
ATOM      5  C   UNL     1       7.044   1.772   2.114  1.00  0.00     0.065 A 
ATOM      6  C   UNL     1       4.861   3.137   1.067  1.00  0.00     0.044 A 
ATOM      7  C   UNL     1       6.048   3.806   1.315  1.00  0.00     0.165 A 
ATOM      8  F   UNL     1       6.145   5.126   1.045  1.00  0.00    -0.203 F 
BRANCH   3   9
ATOM      9  C   UNL     1       5.737  -0.346   2.163  1.00  0.00     0.335 C 
ATOM     10  O   UNL     1       6.524  -1.128   1.670  1.00  0.00    -0.246 OA
BRANCH   9  11
ATOM     11  O   UNL     1       4.767  -0.794   2.984  1.00  0.00    -0.478 OA
ATOM     12  H   UNL     1       5.046  -1.161   3.835  1.00  0.00     0.297 HD
ENDBRANCH   9  11
ENDBRANCH   3   9
ENDBRANCH   1   2
BRANCH   1  13
ATOM     13  C   UNL     1       9.292   3.760   1.038  1.00  0.00     0.230 C 
BRANCH  13  14
ATOM     14  C   UNL     1      10.678   3.972   1.650  1.00  0.00     0.046 C 
BRANCH  14  15
ATOM     15  C   UNL     1      10.726   3.328   3.038  1.00  0.00     0.043 C 
BRANCH  15  16
ATOM     16  C   UNL     1      12.157   3.233   3.499  1.00  0.00    -0.004 A 
ATOM     17  C   UNL     1      12.989   2.184   3.303  1.00  0.00     0.036 A 
ATOM     18  C   UNL     1      12.863   4.216   4.200  1.00  0.00     0.063 A 
ATOM     19  N   UNL     1      14.177   2.490   3.866  1.00  0.00    -0.282 N 
ATOM     20  N   UNL     1      14.071   3.770   4.426  1.00  0.00    -0.181 NA
ATOM     21  C   UNL     1      12.650   0.904   2.585  1.00  0.00     0.066 C 
ATOM     22  C   UNL     1      12.320   5.555   4.631  1.00  0.00     0.069 C 
ATOM     23  H   UNL     1      14.964   1.924   3.881  1.00  0.00     0.190 HD
ENDBRANCH  15  16
ENDBRANCH  14  15
ENDBRANCH  13  14
ENDBRANCH   1  13
TORSDOF 7
ENDMDL
MODEL 2
REMARK VINA RESULT:    -5.911      0.686      1.866
REMARK INTER + INTRA:          -8.835
REMARK INTER:                  -8.167
REMARK INTRA:                  -0.668
REMARK UNBOUND:                -0.679
REMARK SMILES Cc1n[nH]c(C)c1CCCOc1cc(C(=O)O)ccc1F
REMARK SMILES IDX 11 1 12 2 14 3 18 4 13 5 19 6 20 7 21 8 15 9 16 10 17 11
REMARK SMILES IDX 10 13 9 14 8 15 7 16 5 17 2 18 4 19 3 20 6 21 1 22
REMARK H PARENT 17 12 4 23
ROOT
ATOM      1  O   UNL     1       8.436   3.381   0.378  1.00  0.00    -0.490 OA
ENDROOT
BRANCH   1   2
ATOM      2  C   UNL     1       7.230   2.889   0.768  1.00  0.00     0.155 A 
ATOM      3  C   UNL     1       5.884   1.079   1.602  1.00  0.00     0.063 A 
ATOM      4  C   UNL     1       4.758   1.906   1.568  1.00  0.00     0.019 A 
ATOM      5  C   UNL     1       7.124   1.580   1.198  1.00  0.00     0.065 A 
ATOM      6  C   UNL     1       4.874   3.212   1.143  1.00  0.00     0.044 A 
ATOM      7  C   UNL     1       6.106   3.708   0.747  1.00  0.00     0.165 A 
ATOM      8  F   UNL     1       6.213   4.989   0.331  1.00  0.00    -0.203 F 
BRANCH   3   9
ATOM      9  C   UNL     1       5.763  -0.320   2.058  1.00  0.00     0.335 C 
ATOM     10  O   UNL     1       6.575  -1.148   1.699  1.00  0.00    -0.246 OA
BRANCH   9  11
ATOM     11  O   UNL     1       4.755  -0.676   2.878  1.00  0.00    -0.478 OA
ATOM     12  H   UNL     1       4.297  -1.504   2.678  1.00  0.00     0.297 HD
ENDBRANCH   9  11
ENDBRANCH   3   9
ENDBRANCH   1   2
BRANCH   1  13
ATOM     13  C   UNL     1       9.165   4.147   1.341  1.00  0.00     0.230 C 
BRANCH  13  14
ATOM     14  C   UNL     1      10.508   3.469   1.618  1.00  0.00     0.046 C 
BRANCH  14  15
ATOM     15  C   UNL     1      10.599   3.103   3.101  1.00  0.00     0.043 C 
BRANCH  15  16
ATOM     16  C   UNL     1      11.976   3.430   3.617  1.00  0.00    -0.004 A 
ATOM     17  C   UNL     1      12.337   4.567   4.256  1.00  0.00     0.036 A 
ATOM     18  C   UNL     1      13.105   2.610   3.526  1.00  0.00     0.063 A 
ATOM     19  N   UNL     1      13.651   4.472   4.553  1.00  0.00    -0.282 N 
ATOM     20  N   UNL     1      14.111   3.236   4.080  1.00  0.00    -0.181 NA
ATOM     21  C   UNL     1      11.435   5.729   4.579  1.00  0.00     0.066 C 
ATOM     22  C   UNL     1      13.158   1.245   2.888  1.00  0.00     0.069 C 
ATOM     23  H   UNL     1      14.182   5.141   5.012  1.00  0.00     0.190 HD
ENDBRANCH  15  16
ENDBRANCH  14  15
ENDBRANCH  13  14
ENDBRANCH   1  13
TORSDOF 7
ENDMDL
MODEL 3
REMARK VINA RESULT:    -5.895      2.018      3.670
REMARK INTER + INTRA:          -8.814
REMARK INTER:                  -8.137
REMARK INTRA:                  -0.677
REMARK UNBOUND:                -0.679
REMARK SMILES Cc1n[nH]c(C)c1CCCOc1cc(C(=O)O)ccc1F
REMARK SMILES IDX 11 1 12 2 14 3 18 4 13 5 19 6 20 7 21 8 15 9 16 10 17 11
REMARK SMILES IDX 10 13 9 14 8 15 7 16 5 17 2 18 4 19 3 20 6 21 1 22
REMARK H PARENT 17 12 4 23
ROOT
ATOM      1  O   UNL     1       8.079   1.213   2.722  1.00  0.00    -0.490 OA
ENDROOT
BRANCH   1   2
ATOM      2  C   UNL     1       6.929   1.662   2.153  1.00  0.00     0.155 A 
ATOM      3  C   UNL     1       5.637   3.444   1.186  1.00  0.00     0.063 A 
ATOM      4  C   UNL     1       4.575   2.559   0.982  1.00  0.00     0.019 A 
ATOM      5  C   UNL     1       6.817   2.987   1.775  1.00  0.00     0.065 A 
ATOM      6  C   UNL     1       4.698   1.237   1.357  1.00  0.00     0.044 A 
ATOM      7  C   UNL     1       5.872   0.785   1.937  1.00  0.00     0.165 A 
ATOM      8  F   UNL     1       5.987  -0.511   2.302  1.00  0.00    -0.203 F 
BRANCH   3   9
ATOM      9  C   UNL     1       5.508   4.859   0.785  1.00  0.00     0.335 C 
ATOM     10  O   UNL     1       5.764   5.741   1.579  1.00  0.00    -0.246 OA
BRANCH   9  11
ATOM     11  O   UNL     1       5.113   5.172  -0.465  1.00  0.00    -0.478 OA
ATOM     12  H   UNL     1       5.502   4.662  -1.189  1.00  0.00     0.297 HD
ENDBRANCH   9  11
ENDBRANCH   3   9
ENDBRANCH   1   2
BRANCH   1  13
ATOM     13  C   UNL     1       8.353   1.643   4.058  1.00  0.00     0.230 C 
BRANCH  13  14
ATOM     14  C   UNL     1       9.866   1.716   4.269  1.00  0.00     0.046 C 
BRANCH  14  15
ATOM     15  C   UNL     1      10.506   2.492   3.115  1.00  0.00     0.043 C 
BRANCH  15  16
ATOM     16  C   UNL     1      11.949   2.776   3.439  1.00  0.00    -0.004 A 
ATOM     17  C   UNL     1      12.426   3.893   4.038  1.00  0.00     0.036 A 
ATOM     18  C   UNL     1      13.033   1.931   3.180  1.00  0.00     0.063 A 
ATOM     19  N   UNL     1      13.765   3.761   4.148  1.00  0.00    -0.282 N 
ATOM     20  N   UNL     1      14.122   2.523   3.598  1.00  0.00    -0.181 NA
ATOM     21  C   UNL     1      11.608   5.071   4.500  1.00  0.00     0.066 C 
ATOM     22  C   UNL     1      12.960   0.577   2.522  1.00  0.00     0.069 C 
ATOM     23  H   UNL     1      14.372   4.409   4.537  1.00  0.00     0.190 HD
ENDBRANCH  15  16
ENDBRANCH  14  15
ENDBRANCH  13  14
ENDBRANCH   1  13
TORSDOF 7
ENDMDL
MODEL 4
REMARK VINA RESULT:    -5.890      2.042      3.185
REMARK INTER + INTRA:          -8.807
REMARK INTER:                  -8.108
REMARK INTRA:                  -0.698
REMARK UNBOUND:                -0.679
REMARK SMILES Cc1n[nH]c(C)c1CCCOc1cc(C(=O)O)ccc1F
REMARK SMILES IDX 11 1 12 2 14 3 18 4 13 5 19 6 20 7 21 8 15 9 16 10 17 11
REMARK SMILES IDX 10 13 9 14 8 15 7 16 5 17 2 18 4 19 3 20 6 21 1 22
REMARK H PARENT 17 12 4 23
ROOT
ATOM      1  O   UNL     1       7.624   1.698   3.950  1.00  0.00    -0.490 OA
ENDROOT
BRANCH   1   2
ATOM      2  C   UNL     1       6.729   1.952   2.959  1.00  0.00     0.155 A 
ATOM      3  C   UNL     1       5.685   3.489   1.432  1.00  0.00     0.063 A 
ATOM      4  C   UNL     1       4.900   2.448   0.928  1.00  0.00     0.019 A 
ATOM      5  C   UNL     1       6.602   3.233   2.453  1.00  0.00     0.065 A 
ATOM      6  C   UNL     1       5.038   1.173   1.434  1.00  0.00     0.044 A 
ATOM      7  C   UNL     1       5.952   0.921   2.444  1.00  0.00     0.165 A 
ATOM      8  F   UNL     1       6.082  -0.331   2.936  1.00  0.00    -0.203 F 
BRANCH   3   9
ATOM      9  C   UNL     1       5.540   4.855   0.892  1.00  0.00     0.335 C 
ATOM     10  O   UNL     1       5.805   5.814   1.586  1.00  0.00    -0.246 OA
BRANCH   9  11
ATOM     11  O   UNL     1       5.120   5.036  -0.376  1.00  0.00    -0.478 OA
ATOM     12  H   UNL     1       4.446   5.714  -0.522  1.00  0.00     0.297 HD
ENDBRANCH   9  11
ENDBRANCH   3   9
ENDBRANCH   1   2
BRANCH   1  13
ATOM     13  C   UNL     1       8.951   1.344   3.550  1.00  0.00     0.230 C 
BRANCH  13  14
ATOM     14  C   UNL     1       9.942   2.361   4.118  1.00  0.00     0.046 C 
BRANCH  14  15
ATOM     15  C   UNL     1      10.811   2.913   2.986  1.00  0.00     0.043 C 
BRANCH  15  16
ATOM     16  C   UNL     1      12.263   2.829   3.380  1.00  0.00    -0.004 A 
ATOM     17  C   UNL     1      13.093   1.787   3.143  1.00  0.00     0.036 A 
ATOM     18  C   UNL     1      12.994   3.817   4.048  1.00  0.00     0.063 A 
ATOM     19  N   UNL     1      14.304   2.102   3.650  1.00  0.00    -0.282 N 
ATOM     20  N   UNL     1      14.215   3.380   4.217  1.00  0.00    -0.181 NA
ATOM     21  C   UNL     1      12.731   0.505   2.440  1.00  0.00     0.066 C 
ATOM     22  C   UNL     1      12.462   5.152   4.506  1.00  0.00     0.069 C 
ATOM     23  H   UNL     1      15.095   1.542   3.627  1.00  0.00     0.190 HD
ENDBRANCH  15  16
ENDBRANCH  14  15
ENDBRANCH  13  14
ENDBRANCH   1  13
TORSDOF 7
ENDMDL
MODEL 5
REMARK VINA RESULT:    -4.930      3.818      7.225
REMARK INTER + INTRA:          -7.482
REMARK INTER:                  -6.637
REMARK INTRA:                  -0.845
REMARK UNBOUND:                -0.679
REMARK SMILES Cc1n[nH]c(C)c1CCCOc1cc(C(=O)O)ccc1F
REMARK SMILES IDX 11 1 12 2 14 3 18 4 13 5 19 6 20 7 21 8 15 9 16 10 17 11
REMARK SMILES IDX 10 13 9 14 8 15 7 16 5 17 2 18 4 19 3 20 6 21 1 22
REMARK H PARENT 17 12 4 23
ROOT
ATOM      1  O   UNL     1       9.581   1.567   2.426  1.00  0.00    -0.490 OA
ENDROOT
BRANCH   1   2
ATOM      2  C   UNL     1      10.699   2.180   2.898  1.00  0.00     0.155 A 
ATOM      3  C   UNL     1      11.752   4.038   4.002  1.00  0.00     0.063 A 
ATOM      4  C   UNL     1      12.994   3.411   3.865  1.00  0.00     0.019 A 
ATOM      5  C   UNL     1      10.603   3.414   3.514  1.00  0.00     0.065 A 
ATOM      6  C   UNL     1      13.079   2.178   3.254  1.00  0.00     0.044 A 
ATOM      7  C   UNL     1      11.936   1.558   2.775  1.00  0.00     0.165 A 
ATOM      8  F   UNL     1      12.027   0.350   2.178  1.00  0.00    -0.203 F 
BRANCH   3   9
ATOM      9  C   UNL     1      11.657   5.358   4.656  1.00  0.00     0.335 C 
ATOM     10  O   UNL     1      11.711   6.371   3.989  1.00  0.00    -0.246 OA
BRANCH   9  11
ATOM     11  O   UNL     1      11.505   5.438   5.992  1.00  0.00    -0.478 OA
ATOM     12  H   UNL     1      12.037   4.837   6.532  1.00  0.00     0.297 HD
ENDBRANCH   9  11
ENDBRANCH   3   9
ENDBRANCH   1   2
BRANCH   1  13
ATOM     13  C   UNL     1       8.370   1.773   3.157  1.00  0.00     0.230 C 
BRANCH  13  14
ATOM     14  C   UNL     1       7.207   1.115   2.413  1.00  0.00     0.046 C 
BRANCH  14  15
ATOM     15  C   UNL     1       7.259   1.508   0.935  1.00  0.00     0.043 C 
BRANCH  15  16
ATOM     16  C   UNL     1       6.597   2.848   0.748  1.00  0.00    -0.004 A 
ATOM     17  C   UNL     1       7.219   4.004   0.415  1.00  0.00     0.036 A 
ATOM     18  C   UNL     1       5.231   3.117   0.879  1.00  0.00     0.063 A 
ATOM     19  N   UNL     1       6.280   4.971   0.347  1.00  0.00    -0.282 N 
ATOM     20  N   UNL     1       5.040   4.390   0.646  1.00  0.00    -0.181 NA
ATOM     21  C   UNL     1       8.694   4.179   0.167  1.00  0.00     0.066 C 
ATOM     22  C   UNL     1       4.163   2.116   1.241  1.00  0.00     0.069 C 
ATOM     23  H   UNL     1       6.436   5.903   0.129  1.00  0.00     0.190 HD
ENDBRANCH  15  16
ENDBRANCH  14  15
ENDBRANCH  13  14
ENDBRANCH   1  13
TORSDOF 7
ENDMDL
MODEL 6
REMARK VINA RESULT:    -4.929      3.717      6.694
REMARK INTER + INTRA:          -7.481
REMARK INTER:                  -6.623
REMARK INTRA:                  -0.857
REMARK UNBOUND:                -0.679
REMARK SMILES Cc1n[nH]c(C)c1CCCOc1cc(C(=O)O)ccc1F
REMARK SMILES IDX 11 1 12 2 14 3 18 4 13 5 19 6 20 7 21 8 15 9 16 10 17 11
REMARK SMILES IDX 10 13 9 14 8 15 7 16 5 17 2 18 4 19 3 20 6 21 1 22
REMARK H PARENT 17 12 4 23
ROOT
ATOM      1  O   UNL     1       9.145   3.889   2.801  1.00  0.00    -0.490 OA
ENDROOT
BRANCH   1   2
ATOM      2  C   UNL     1      10.435   3.583   3.102  1.00  0.00     0.155 A 
ATOM      3  C   UNL     1      12.321   2.099   2.939  1.00  0.00     0.063 A 
ATOM      4  C   UNL     1      13.076   2.979   3.719  1.00  0.00     0.019 A 
ATOM      5  C   UNL     1      10.994   2.409   2.632  1.00  0.00     0.065 A 
ATOM      6  C   UNL     1      12.511   4.151   4.178  1.00  0.00     0.044 A 
ATOM      7  C   UNL     1      11.197   4.458   3.868  1.00  0.00     0.165 A 
ATOM      8  F   UNL     1      10.650   5.608   4.321  1.00  0.00    -0.203 F 
BRANCH   3   9
ATOM      9  C   UNL     1      12.922   0.845   2.446  1.00  0.00     0.335 C 
ATOM     10  O   UNL     1      12.856  -0.165   3.116  1.00  0.00    -0.246 OA
BRANCH   9  11
ATOM     11  O   UNL     1      13.538   0.819   1.247  1.00  0.00    -0.478 OA
ATOM     12  H   UNL     1      13.586   1.654   0.760  1.00  0.00     0.297 HD
ENDBRANCH   9  11
ENDBRANCH   3   9
ENDBRANCH   1   2
BRANCH   1  13
ATOM     13  C   UNL     1       8.662   3.477   1.520  1.00  0.00     0.230 C 
BRANCH  13  14
ATOM     14  C   UNL     1       7.165   3.774   1.421  1.00  0.00     0.046 C 
BRANCH  14  15
ATOM     15  C   UNL     1       6.470   3.328   2.710  1.00  0.00     0.043 C 
BRANCH  15  16
ATOM     16  C   UNL     1       6.123   1.865   2.614  1.00  0.00    -0.004 A 
ATOM     17  C   UNL     1       6.688   0.864   3.329  1.00  0.00     0.036 A 
ATOM     18  C   UNL     1       5.156   1.301   1.774  1.00  0.00     0.063 A 
ATOM     19  N   UNL     1       6.103  -0.292   2.951  1.00  0.00    -0.282 N 
ATOM     20  N   UNL     1       5.148   0.008   1.970  1.00  0.00    -0.181 NA
ATOM     21  C   UNL     1       7.773   1.014   4.362  1.00  0.00     0.066 C 
ATOM     22  C   UNL     1       4.283   2.053   0.802  1.00  0.00     0.069 C 
ATOM     23  H   UNL     1       6.309  -1.175   3.295  1.00  0.00     0.190 HD
ENDBRANCH  15  16
ENDBRANCH  14  15
ENDBRANCH  13  14
ENDBRANCH   1  13
TORSDOF 7
ENDMDL
MODEL 7
REMARK VINA RESULT:    -4.928      3.746      6.691
REMARK INTER + INTRA:          -7.479
REMARK INTER:                  -6.641
REMARK INTRA:                  -0.838
REMARK UNBOUND:                -0.679
REMARK SMILES Cc1n[nH]c(C)c1CCCOc1cc(C(=O)O)ccc1F
REMARK SMILES IDX 11 1 12 2 14 3 18 4 13 5 19 6 20 7 21 8 15 9 16 10 17 11
REMARK SMILES IDX 10 13 9 14 8 15 7 16 5 17 2 18 4 19 3 20 6 21 1 22
REMARK H PARENT 17 12 4 23
ROOT
ATOM      1  O   UNL     1       9.219   3.697   2.844  1.00  0.00    -0.490 OA
ENDROOT
BRANCH   1   2
ATOM      2  C   UNL     1      10.521   3.448   3.148  1.00  0.00     0.155 A 
ATOM      3  C   UNL     1      12.446   2.010   3.067  1.00  0.00     0.063 A 
ATOM      4  C   UNL     1      13.185   2.965   3.770  1.00  0.00     0.019 A 
ATOM      5  C   UNL     1      11.107   2.259   2.758  1.00  0.00     0.065 A 
ATOM      6  C   UNL     1      12.593   4.151   4.150  1.00  0.00     0.044 A 
ATOM      7  C   UNL     1      11.266   4.398   3.838  1.00  0.00     0.165 A 
ATOM      8  F   UNL     1      10.692   5.562   4.213  1.00  0.00    -0.203 F 
BRANCH   3   9
ATOM      9  C   UNL     1      13.076   0.739   2.658  1.00  0.00     0.335 C 
ATOM     10  O   UNL     1      14.093   0.363   3.203  1.00  0.00    -0.246 OA
BRANCH   9  11
ATOM     11  O   UNL     1      12.518  -0.006   1.684  1.00  0.00    -0.478 OA
ATOM     12  H   UNL     1      11.678  -0.439   1.889  1.00  0.00     0.297 HD
ENDBRANCH   9  11
ENDBRANCH   3   9
ENDBRANCH   1   2
BRANCH   1  13
ATOM     13  C   UNL     1       8.793   3.388   1.515  1.00  0.00     0.230 C 
BRANCH  13  14
ATOM     14  C   UNL     1       7.302   3.701   1.372  1.00  0.00     0.046 C 
BRANCH  14  15
ATOM     15  C   UNL     1       6.579   3.342   2.672  1.00  0.00     0.043 C 
BRANCH  15  16
ATOM     16  C   UNL     1       6.155   1.897   2.630  1.00  0.00    -0.004 A 
ATOM     17  C   UNL     1       5.194   1.372   1.834  1.00  0.00     0.036 A 
ATOM     18  C   UNL     1       6.689   0.860   3.401  1.00  0.00     0.063 A 
ATOM     19  N   UNL     1       5.119   0.051   2.097  1.00  0.00    -0.282 N 
ATOM     20  N   UNL     1       6.064  -0.246   3.088  1.00  0.00    -0.181 NA
ATOM     21  C   UNL     1       4.360   2.128   0.833  1.00  0.00     0.066 C 
ATOM     22  C   UNL     1       7.786   0.995   4.426  1.00  0.00     0.069 C 
ATOM     23  H   UNL     1       4.516  -0.581   1.676  1.00  0.00     0.190 HD
ENDBRANCH  15  16
ENDBRANCH  14  15
ENDBRANCH  13  14
ENDBRANCH   1  13
TORSDOF 7
ENDMDL
MODEL 8
REMARK VINA RESULT:    -4.707      4.210      7.661
REMARK INTER + INTRA:          -7.174
REMARK INTER:                  -6.678
REMARK INTRA:                  -0.496
REMARK UNBOUND:                -0.679
REMARK SMILES Cc1n[nH]c(C)c1CCCOc1cc(C(=O)O)ccc1F
REMARK SMILES IDX 11 1 12 2 14 3 18 4 13 5 19 6 20 7 21 8 15 9 16 10 17 11
REMARK SMILES IDX 10 13 9 14 8 15 7 16 5 17 2 18 4 19 3 20 6 21 1 22
REMARK H PARENT 17 12 4 23
ROOT
ATOM      1  O   UNL     1       9.836   1.873   2.985  1.00  0.00    -0.490 OA
ENDROOT
BRANCH   1   2
ATOM      2  C   UNL     1      11.036   2.422   3.312  1.00  0.00     0.155 A 
ATOM      3  C   UNL     1      12.324   4.241   4.214  1.00  0.00     0.063 A 
ATOM      4  C   UNL     1      13.498   3.519   3.983  1.00  0.00     0.019 A 
ATOM      5  C   UNL     1      11.090   3.684   3.874  1.00  0.00     0.065 A 
ATOM      6  C   UNL     1      13.434   2.259   3.428  1.00  0.00     0.044 A 
ATOM      7  C   UNL     1      12.209   1.706   3.096  1.00  0.00     0.165 A 
ATOM      8  F   UNL     1      12.153   0.470   2.552  1.00  0.00    -0.203 F 
BRANCH   3   9
ATOM      9  C   UNL     1      12.389   5.591   4.808  1.00  0.00     0.335 C 
ATOM     10  O   UNL     1      11.498   5.977   5.537  1.00  0.00    -0.246 OA
BRANCH   9  11
ATOM     11  O   UNL     1      13.440   6.392   4.547  1.00  0.00    -0.478 OA
ATOM     12  H   UNL     1      14.060   6.553   5.271  1.00  0.00     0.297 HD
ENDBRANCH   9  11
ENDBRANCH   3   9
ENDBRANCH   1   2
BRANCH   1  13
ATOM     13  C   UNL     1       8.922   1.626   4.056  1.00  0.00     0.230 C 
BRANCH  13  14
ATOM     14  C   UNL     1       7.502   1.974   3.605  1.00  0.00     0.046 C 
BRANCH  14  15
ATOM     15  C   UNL     1       7.479   2.153   2.086  1.00  0.00     0.043 C 
BRANCH  15  16
ATOM     16  C   UNL     1       6.053   2.144   1.600  1.00  0.00    -0.004 A 
ATOM     17  C   UNL     1       5.234   1.068   1.554  1.00  0.00     0.036 A 
ATOM     18  C   UNL     1       5.339   3.248   1.122  1.00  0.00     0.063 A 
ATOM     19  N   UNL     1       4.047   1.475   1.058  1.00  0.00    -0.282 N 
ATOM     20  N   UNL     1       4.139   2.847   0.791  1.00  0.00    -0.181 NA
ATOM     21  C   UNL     1       5.586  -0.334   1.979  1.00  0.00     0.066 C 
ATOM     22  C   UNL     1       5.866   4.655   0.998  1.00  0.00     0.069 C 
ATOM     23  H   UNL     1       3.268   0.916   0.912  1.00  0.00     0.190 HD
ENDBRANCH  15  16
ENDBRANCH  14  15
ENDBRANCH  13  14
ENDBRANCH   1  13
TORSDOF 7
ENDMDL
MODEL 9
REMARK VINA RESULT:    -4.694      3.908      6.960
REMARK INTER + INTRA:          -7.157
REMARK INTER:                  -6.572
REMARK INTRA:                  -0.585
REMARK UNBOUND:                -0.679
REMARK SMILES Cc1n[nH]c(C)c1CCCOc1cc(C(=O)O)ccc1F
REMARK SMILES IDX 11 1 12 2 14 3 18 4 13 5 19 6 20 7 21 8 15 9 16 10 17 11
REMARK SMILES IDX 10 13 9 14 8 15 7 16 5 17 2 18 4 19 3 20 6 21 1 22
REMARK H PARENT 17 12 4 23
ROOT
ATOM      1  O   UNL     1       9.356   1.683   2.400  1.00  0.00    -0.490 OA
ENDROOT
BRANCH   1   2
ATOM      2  C   UNL     1      10.515   2.227   2.860  1.00  0.00     0.155 A 
ATOM      3  C   UNL     1      12.875   2.059   3.287  1.00  0.00     0.063 A 
ATOM      4  C   UNL     1      12.872   3.361   3.795  1.00  0.00     0.019 A 
ATOM      5  C   UNL     1      11.687   1.495   2.818  1.00  0.00     0.065 A 
ATOM      6  C   UNL     1      11.699   4.085   3.827  1.00  0.00     0.044 A 
ATOM      7  C   UNL     1      10.522   3.526   3.357  1.00  0.00     0.165 A 
ATOM      8  F   UNL     1       9.377   4.241   3.391  1.00  0.00    -0.203 F 
BRANCH   3   9
ATOM      9  C   UNL     1      14.129   1.281   3.251  1.00  0.00     0.335 C 
ATOM     10  O   UNL     1      14.122   0.136   2.847  1.00  0.00    -0.246 OA
BRANCH   9  11
ATOM     11  O   UNL     1      15.282   1.844   3.660  1.00  0.00    -0.478 OA
ATOM     12  H   UNL     1      16.055   1.728   3.089  1.00  0.00     0.297 HD
ENDBRANCH   9  11
ENDBRANCH   3   9
ENDBRANCH   1   2
BRANCH   1  13
ATOM     13  C   UNL     1       8.252   1.645   3.307  1.00  0.00     0.230 C 
BRANCH  13  14
ATOM     14  C   UNL     1       6.999   1.177   2.565  1.00  0.00     0.046 C 
BRANCH  14  15
ATOM     15  C   UNL     1       7.142   1.491   1.074  1.00  0.00     0.043 C 
BRANCH  15  16
ATOM     16  C   UNL     1       6.488   2.815   0.774  1.00  0.00    -0.004 A 
ATOM     17  C   UNL     1       5.166   3.089   0.864  1.00  0.00     0.036 A 
ATOM     18  C   UNL     1       7.142   3.980   0.359  1.00  0.00     0.063 A 
ATOM     19  N   UNL     1       4.988   4.380   0.512  1.00  0.00    -0.282 N 
ATOM     20  N   UNL     1       6.243   4.917   0.195  1.00  0.00    -0.181 NA
ATOM     21  C   UNL     1       4.086   2.126   1.283  1.00  0.00     0.066 C 
ATOM     22  C   UNL     1       8.624   4.128   0.128  1.00  0.00     0.069 C 
ATOM     23  H   UNL     1       4.142   4.852   0.483  1.00  0.00     0.190 HD
ENDBRANCH  15  16
ENDBRANCH  14  15
ENDBRANCH  13  14
ENDBRANCH   1  13
TORSDOF 7
ENDMDL
