MODEL 1
REMARK VINA RESULT:    -4.939      0.000      0.000
REMARK INTER + INTRA:          -5.956
REMARK INTER:                  -5.661
REMARK INTRA:                  -0.296
REMARK UNBOUND:                -0.296
REMARK SMILES O=C(O)c1ccc2nc(-c3cc(Cl)cc(Cl)c3)oc2c1
REMARK SMILES IDX 5 1 6 2 20 3 8 4 18 5 4 6 9 7 7 8 19 9 2 10 1 11 3 12 10 14
REMARK SMILES IDX 11 15 17 16 12 17 15 18 14 19 13 20 16 21
REMARK H PARENT 3 13
ROOT
ATOM      1  C   UNL     1      13.385   3.112   3.791  1.00  0.00     0.018 A 
ATOM      2  C   UNL     1      12.483   2.239   3.260  1.00  0.00     0.033 A 
ATOM      3  C   UNL     1      11.646   4.778   4.069  1.00  0.00     0.065 A 
ATOM      4  N   UNL     1      10.046   1.988   2.643  1.00  0.00    -0.209 NA
ATOM      5  O   UNL     1       9.403   3.970   3.271  1.00  0.00    -0.436 OA
ATOM      6  C   UNL     1      12.980   4.389   4.203  1.00  0.00     0.063 A 
ATOM      7  C   UNL     1       9.019   2.796   2.736  1.00  0.00     0.227 A 
ATOM      8  C   UNL     1      11.142   2.617   3.120  1.00  0.00     0.110 A 
ATOM      9  C   UNL     1      10.728   3.897   3.527  1.00  0.00     0.156 A 
ENDROOT
BRANCH   6  10
ATOM     10  C   UNL     1      13.963   5.322   4.781  1.00  0.00     0.335 C 
ATOM     11  O   UNL     1      13.653   6.477   4.993  1.00  0.00    -0.246 OA
BRANCH  10  12
ATOM     12  O   UNL     1      15.208   4.894   5.074  1.00  0.00    -0.478 OA
ATOM     13  H   UNL     1      15.385   3.950   4.964  1.00  0.00     0.297 HD
ENDBRANCH  10  12
ENDBRANCH   6  10
BRANCH   7  14
ATOM     14  C   UNL     1       7.641   2.466   2.314  1.00  0.00     0.040 A 
ATOM     15  C   UNL     1       6.777   3.476   1.890  1.00  0.00     0.034 A 
ATOM     16  C   UNL     1       7.200   1.141   2.339  1.00  0.00     0.034 A 
ATOM     17  C   UNL     1       5.492   3.161   1.496  1.00  0.00     0.043 A 
ATOM     18  C   UNL     1       5.912   0.839   1.943  1.00  0.00     0.043 A 
ATOM     19  C   UNL     1       5.060   1.845   1.523  1.00  0.00     0.041 A 
ATOM     20  Cl  UNL     1       4.415   4.415   0.968  1.00  0.00    -0.084 Cl
ATOM     21  Cl  UNL     1       5.361  -0.808   1.973  1.00  0.00    -0.084 Cl
ENDBRANCH   7  14
TORSDOF 3
ENDMDL
MODEL 2
REMARK VINA RESULT:    -4.929      0.005      2.019
REMARK INTER + INTRA:          -5.945
REMARK INTER:                  -5.650
REMARK INTRA:                  -0.296
REMARK UNBOUND:                -0.296
REMARK SMILES O=C(O)c1ccc2nc(-c3cc(Cl)cc(Cl)c3)oc2c1
REMARK SMILES IDX 5 1 6 2 20 3 8 4 18 5 4 6 9 7 7 8 19 9 2 10 1 11 3 12 10 14
REMARK SMILES IDX 11 15 17 16 12 17 15 18 14 19 13 20 16 21
REMARK H PARENT 3 13
ROOT
ATOM      1  C   UNL     1      13.383   3.107   3.794  1.00  0.00     0.018 A 
ATOM      2  C   UNL     1      12.481   2.234   3.264  1.00  0.00     0.033 A 
ATOM      3  C   UNL     1      11.644   4.775   4.068  1.00  0.00     0.065 A 
ATOM      4  N   UNL     1      10.044   1.983   2.646  1.00  0.00    -0.209 NA
ATOM      5  O   UNL     1       9.402   3.966   3.269  1.00  0.00    -0.436 OA
ATOM      6  C   UNL     1      12.978   4.385   4.203  1.00  0.00     0.063 A 
ATOM      7  C   UNL     1       9.017   2.791   2.736  1.00  0.00     0.227 A 
ATOM      8  C   UNL     1      11.140   2.612   3.123  1.00  0.00     0.110 A 
ATOM      9  C   UNL     1      10.727   3.894   3.526  1.00  0.00     0.156 A 
ENDROOT
BRANCH   6  10
ATOM     10  C   UNL     1      13.962   5.319   4.780  1.00  0.00     0.335 C 
ATOM     11  O   UNL     1      13.649   6.473   4.998  1.00  0.00    -0.246 OA
BRANCH  10  12
ATOM     12  O   UNL     1      15.209   4.894   5.065  1.00  0.00    -0.478 OA
ATOM     13  H   UNL     1      15.615   5.235   5.873  1.00  0.00     0.297 HD
ENDBRANCH  10  12
ENDBRANCH   6  10
BRANCH   7  14
ATOM     14  C   UNL     1       7.640   2.461   2.314  1.00  0.00     0.040 A 
ATOM     15  C   UNL     1       7.198   1.138   2.337  1.00  0.00     0.034 A 
ATOM     16  C   UNL     1       6.777   3.473   1.889  1.00  0.00     0.034 A 
ATOM     17  C   UNL     1       5.910   0.836   1.942  1.00  0.00     0.043 A 
ATOM     18  C   UNL     1       5.491   3.159   1.497  1.00  0.00     0.043 A 
ATOM     19  C   UNL     1       5.058   1.844   1.522  1.00  0.00     0.041 A 
ATOM     20  Cl  UNL     1       5.357  -0.809   1.970  1.00  0.00    -0.084 Cl
ATOM     21  Cl  UNL     1       4.415   4.415   0.968  1.00  0.00    -0.084 Cl
ENDBRANCH   7  14
TORSDOF 3
ENDMDL
MODEL 3
REMARK VINA RESULT:    -4.929      1.708      2.391
REMARK INTER + INTRA:          -5.945
REMARK INTER:                  -5.649
REMARK INTRA:                  -0.295
REMARK UNBOUND:                -0.296
REMARK SMILES O=C(O)c1ccc2nc(-c3cc(Cl)cc(Cl)c3)oc2c1
REMARK SMILES IDX 5 1 6 2 20 3 8 4 18 5 4 6 9 7 7 8 19 9 2 10 1 11 3 12 10 14
REMARK SMILES IDX 11 15 17 16 12 17 15 18 14 19 13 20 16 21
REMARK H PARENT 3 13
ROOT
ATOM      1  C   UNL     1      13.348   3.323   3.978  1.00  0.00     0.018 A 
ATOM      2  C   UNL     1      12.131   3.924   3.856  1.00  0.00     0.033 A 
ATOM      3  C   UNL     1      12.504   1.335   2.876  1.00  0.00     0.065 A 
ATOM      4  N   UNL     1       9.787   3.567   2.984  1.00  0.00    -0.209 NA
ATOM      5  O   UNL     1      10.085   1.549   2.227  1.00  0.00    -0.436 OA
ATOM      6  C   UNL     1      13.551   2.025   3.489  1.00  0.00     0.063 A 
ATOM      7  C   UNL     1       9.207   2.559   2.381  1.00  0.00     0.227 A 
ATOM      8  C   UNL     1      11.072   3.243   3.243  1.00  0.00     0.110 A 
ATOM      9  C   UNL     1      11.266   1.939   2.754  1.00  0.00     0.156 A 
ENDROOT
BRANCH   6  10
ATOM     10  C   UNL     1      14.874   1.388   3.621  1.00  0.00     0.335 C 
ATOM     11  O   UNL     1      15.009   0.210   3.360  1.00  0.00    -0.246 OA
BRANCH  10  12
ATOM     12  O   UNL     1      15.933   2.113   4.033  1.00  0.00    -0.478 OA
ATOM     13  H   UNL     1      16.599   2.334   3.368  1.00  0.00     0.297 HD
ENDBRANCH  10  12
ENDBRANCH   6  10
BRANCH   7  14
ATOM     14  C   UNL     1       7.798   2.534   1.937  1.00  0.00     0.040 A 
ATOM     15  C   UNL     1       7.167   3.713   1.541  1.00  0.00     0.034 A 
ATOM     16  C   UNL     1       7.093   1.329   1.912  1.00  0.00     0.034 A 
ATOM     17  C   UNL     1       5.850   3.683   1.126  1.00  0.00     0.043 A 
ATOM     18  C   UNL     1       5.777   1.311   1.495  1.00  0.00     0.043 A 
ATOM     19  C   UNL     1       5.157   2.485   1.104  1.00  0.00     0.041 A 
ATOM     20  Cl  UNL     1       5.063   5.149   0.632  1.00  0.00    -0.084 Cl
ATOM     21  Cl  UNL     1       4.898  -0.186   1.464  1.00  0.00    -0.084 Cl
ENDBRANCH   7  14
TORSDOF 3
ENDMDL
MODEL 4
REMARK VINA RESULT:    -4.885      3.747      7.642
REMARK INTER + INTRA:          -5.894
REMARK INTER:                  -5.596
REMARK INTRA:                  -0.298
REMARK UNBOUND:                -0.296
REMARK SMILES O=C(O)c1ccc2nc(-c3cc(Cl)cc(Cl)c3)oc2c1
REMARK SMILES IDX 5 1 6 2 20 3 8 4 18 5 4 6 9 7 7 8 19 9 2 10 1 11 3 12 10 14
REMARK SMILES IDX 11 15 17 16 12 17 15 18 14 19 13 20 16 21
REMARK H PARENT 3 13
ROOT
ATOM      1  C   UNL     1       5.695   1.232   1.255  1.00  0.00     0.018 A 
ATOM      2  C   UNL     1       6.964   0.809   1.517  1.00  0.00     0.033 A 
ATOM      3  C   UNL     1       6.272   3.479   1.962  1.00  0.00     0.065 A 
ATOM      4  N   UNL     1       9.215   1.591   2.355  1.00  0.00    -0.209 NA
ATOM      5  O   UNL     1       8.667   3.668   2.703  1.00  0.00    -0.436 OA
ATOM      6  C   UNL     1       5.334   2.569   1.471  1.00  0.00     0.063 A 
ATOM      7  C   UNL     1       9.655   2.755   2.764  1.00  0.00     0.227 A 
ATOM      8  C   UNL     1       7.915   1.711   2.010  1.00  0.00     0.110 A 
ATOM      9  C   UNL     1       7.559   3.052   2.234  1.00  0.00     0.156 A 
ENDROOT
BRANCH   6  10
ATOM     10  C   UNL     1       3.960   3.016   1.178  1.00  0.00     0.335 C 
ATOM     11  O   UNL     1       3.110   2.205   0.870  1.00  0.00    -0.246 OA
BRANCH  10  12
ATOM     12  O   UNL     1       3.647   4.325   1.251  1.00  0.00    -0.478 OA
ATOM     13  H   UNL     1       2.970   4.649   0.642  1.00  0.00     0.297 HD
ENDBRANCH  10  12
ENDBRANCH   6  10
BRANCH   7  14
ATOM     14  C   UNL     1      11.032   3.025   3.226  1.00  0.00     0.040 A 
ATOM     15  C   UNL     1      12.027   2.059   3.069  1.00  0.00     0.034 A 
ATOM     16  C   UNL     1      11.344   4.249   3.822  1.00  0.00     0.034 A 
ATOM     17  C   UNL     1      13.312   2.318   3.502  1.00  0.00     0.043 A 
ATOM     18  C   UNL     1      12.633   4.496   4.251  1.00  0.00     0.043 A 
ATOM     19  C   UNL     1      13.614   3.533   4.092  1.00  0.00     0.041 A 
ATOM     20  Cl  UNL     1      14.551   1.118   3.307  1.00  0.00    -0.084 Cl
ATOM     21  Cl  UNL     1      13.022   6.017   4.992  1.00  0.00    -0.084 Cl
ENDBRANCH   7  14
TORSDOF 3
ENDMDL
MODEL 5
REMARK VINA RESULT:    -4.881      3.746      7.407
REMARK INTER + INTRA:          -5.890
REMARK INTER:                  -5.592
REMARK INTRA:                  -0.298
REMARK UNBOUND:                -0.296
REMARK SMILES O=C(O)c1ccc2nc(-c3cc(Cl)cc(Cl)c3)oc2c1
REMARK SMILES IDX 5 1 6 2 20 3 8 4 18 5 4 6 9 7 7 8 19 9 2 10 1 11 3 12 10 14
REMARK SMILES IDX 11 15 17 16 12 17 15 18 14 19 13 20 16 21
REMARK H PARENT 3 13
ROOT
ATOM      1  C   UNL     1       5.688   1.226   1.263  1.00  0.00     0.018 A 
ATOM      2  C   UNL     1       6.956   0.801   1.526  1.00  0.00     0.033 A 
ATOM      3  C   UNL     1       6.270   3.474   1.962  1.00  0.00     0.065 A 
ATOM      4  N   UNL     1       9.210   1.583   2.359  1.00  0.00    -0.209 NA
ATOM      5  O   UNL     1       8.666   3.661   2.701  1.00  0.00    -0.436 OA
ATOM      6  C   UNL     1       5.329   2.564   1.475  1.00  0.00     0.063 A 
ATOM      7  C   UNL     1       9.652   2.747   2.765  1.00  0.00     0.227 A 
ATOM      8  C   UNL     1       7.910   1.703   2.015  1.00  0.00     0.110 A 
ATOM      9  C   UNL     1       7.556   3.046   2.235  1.00  0.00     0.156 A 
ENDROOT
BRANCH   6  10
ATOM     10  C   UNL     1       3.956   3.013   1.182  1.00  0.00     0.335 C 
ATOM     11  O   UNL     1       3.106   2.202   0.873  1.00  0.00    -0.246 OA
BRANCH  10  12
ATOM     12  O   UNL     1       3.645   4.322   1.254  1.00  0.00    -0.478 OA
ATOM     13  H   UNL     1       4.367   4.936   1.443  1.00  0.00     0.297 HD
ENDBRANCH  10  12
ENDBRANCH   6  10
BRANCH   7  14
ATOM     14  C   UNL     1      11.030   3.016   3.225  1.00  0.00     0.040 A 
ATOM     15  C   UNL     1      11.345   4.240   3.818  1.00  0.00     0.034 A 
ATOM     16  C   UNL     1      12.023   2.047   3.067  1.00  0.00     0.034 A 
ATOM     17  C   UNL     1      12.635   4.484   4.246  1.00  0.00     0.043 A 
ATOM     18  C   UNL     1      13.309   2.304   3.499  1.00  0.00     0.043 A 
ATOM     19  C   UNL     1      13.615   3.519   4.087  1.00  0.00     0.041 A 
ATOM     20  Cl  UNL     1      13.029   6.005   4.985  1.00  0.00    -0.084 Cl
ATOM     21  Cl  UNL     1      14.545   1.100   3.304  1.00  0.00    -0.084 Cl
ENDBRANCH   7  14
TORSDOF 3
ENDMDL
MODEL 6
REMARK VINA RESULT:    -4.857      3.939      7.815
REMARK INTER + INTRA:          -5.863
REMARK INTER:                  -5.564
REMARK INTRA:                  -0.298
REMARK UNBOUND:                -0.296
REMARK SMILES O=C(O)c1ccc2nc(-c3cc(Cl)cc(Cl)c3)oc2c1
REMARK SMILES IDX 5 1 6 2 20 3 8 4 18 5 4 6 9 7 7 8 19 9 2 10 1 11 3 12 10 14
REMARK SMILES IDX 11 15 17 16 12 17 15 18 14 19 13 20 16 21
REMARK H PARENT 3 13
ROOT
ATOM      1  C   UNL     1       5.304   3.288   1.611  1.00  0.00     0.018 A 
ATOM      2  C   UNL     1       6.363   3.997   2.093  1.00  0.00     0.033 A 
ATOM      3  C   UNL     1       6.673   1.291   1.473  1.00  0.00     0.065 A 
ATOM      4  N   UNL     1       8.802   3.799   2.721  1.00  0.00    -0.209 NA
ATOM      5  O   UNL     1       9.037   1.692   2.231  1.00  0.00    -0.436 OA
ATOM      6  C   UNL     1       5.443   1.928   1.298  1.00  0.00     0.063 A 
ATOM      7  C   UNL     1       9.648   2.799   2.693  1.00  0.00     0.227 A 
ATOM      8  C   UNL     1       7.602   3.370   2.274  1.00  0.00     0.110 A 
ATOM      9  C   UNL     1       7.752   2.009   1.957  1.00  0.00     0.156 A 
ENDROOT
BRANCH   6  10
ATOM     10  C   UNL     1       4.289   1.170   0.783  1.00  0.00     0.335 C 
ATOM     11  O   UNL     1       3.261   1.750   0.495  1.00  0.00    -0.246 OA
BRANCH  10  12
ATOM     12  O   UNL     1       4.373  -0.167   0.634  1.00  0.00    -0.478 OA
ATOM     13  H   UNL     1       5.208  -0.585   0.882  1.00  0.00     0.297 HD
ENDBRANCH  10  12
ENDBRANCH   6  10
BRANCH   7  14
ATOM     14  C   UNL     1      11.064   2.876   3.108  1.00  0.00     0.040 A 
ATOM     15  C   UNL     1      11.919   1.796   2.885  1.00  0.00     0.034 A 
ATOM     16  C   UNL     1      11.551   4.029   3.726  1.00  0.00     0.034 A 
ATOM     17  C   UNL     1      13.242   1.875   3.274  1.00  0.00     0.043 A 
ATOM     18  C   UNL     1      12.875   4.096   4.111  1.00  0.00     0.043 A 
ATOM     19  C   UNL     1      13.719   3.022   3.886  1.00  0.00     0.041 A 
ATOM     20  Cl  UNL     1      14.308   0.534   2.996  1.00  0.00    -0.084 Cl
ATOM     21  Cl  UNL     1      13.483   5.530   4.879  1.00  0.00    -0.084 Cl
ENDBRANCH   7  14
TORSDOF 3
ENDMDL
MODEL 7
REMARK VINA RESULT:    -4.855      3.939      7.588
REMARK INTER + INTRA:          -5.860
REMARK INTER:                  -5.562
REMARK INTRA:                  -0.298
REMARK UNBOUND:                -0.296
REMARK SMILES O=C(O)c1ccc2nc(-c3cc(Cl)cc(Cl)c3)oc2c1
REMARK SMILES IDX 5 1 6 2 20 3 8 4 18 5 4 6 9 7 7 8 19 9 2 10 1 11 3 12 10 14
REMARK SMILES IDX 11 15 17 16 12 17 15 18 14 19 13 20 16 21
REMARK H PARENT 3 13
ROOT
ATOM      1  C   UNL     1       5.314   3.286   1.617  1.00  0.00     0.018 A 
ATOM      2  C   UNL     1       6.374   3.997   2.095  1.00  0.00     0.033 A 
ATOM      3  C   UNL     1       6.684   1.289   1.485  1.00  0.00     0.065 A 
ATOM      4  N   UNL     1       8.813   3.802   2.723  1.00  0.00    -0.209 NA
ATOM      5  O   UNL     1       9.048   1.694   2.240  1.00  0.00    -0.436 OA
ATOM      6  C   UNL     1       5.455   1.926   1.308  1.00  0.00     0.063 A 
ATOM      7  C   UNL     1       9.659   2.802   2.698  1.00  0.00     0.227 A 
ATOM      8  C   UNL     1       7.613   3.372   2.278  1.00  0.00     0.110 A 
ATOM      9  C   UNL     1       7.763   2.009   1.966  1.00  0.00     0.156 A 
ENDROOT
BRANCH   6  10
ATOM     10  C   UNL     1       4.300   1.165   0.796  1.00  0.00     0.335 C 
ATOM     11  O   UNL     1       3.271   1.743   0.510  1.00  0.00    -0.246 OA
BRANCH  10  12
ATOM     12  O   UNL     1       4.386  -0.172   0.647  1.00  0.00    -0.478 OA
ATOM     13  H   UNL     1       3.765  -0.711   1.155  1.00  0.00     0.297 HD
ENDBRANCH  10  12
ENDBRANCH   6  10
BRANCH   7  14
ATOM     14  C   UNL     1      11.075   2.881   3.112  1.00  0.00     0.040 A 
ATOM     15  C   UNL     1      11.562   4.033   3.732  1.00  0.00     0.034 A 
ATOM     16  C   UNL     1      11.933   1.803   2.884  1.00  0.00     0.034 A 
ATOM     17  C   UNL     1      12.886   4.099   4.118  1.00  0.00     0.043 A 
ATOM     18  C   UNL     1      13.255   1.882   3.273  1.00  0.00     0.043 A 
ATOM     19  C   UNL     1      13.731   3.027   3.888  1.00  0.00     0.041 A 
ATOM     20  Cl  UNL     1      13.493   5.531   4.890  1.00  0.00    -0.084 Cl
ATOM     21  Cl  UNL     1      14.323   0.542   2.990  1.00  0.00    -0.084 Cl
ENDBRANCH   7  14
TORSDOF 3
ENDMDL
MODEL 8
REMARK VINA RESULT:    -4.795      3.965      7.697
REMARK INTER + INTRA:          -5.792
REMARK INTER:                  -5.506
REMARK INTRA:                  -0.286
REMARK UNBOUND:                -0.296
REMARK SMILES O=C(O)c1ccc2nc(-c3cc(Cl)cc(Cl)c3)oc2c1
REMARK SMILES IDX 5 1 6 2 20 3 8 4 18 5 4 6 9 7 7 8 19 9 2 10 1 11 3 12 10 14
REMARK SMILES IDX 11 15 17 16 12 17 15 18 14 19 13 20 16 21
REMARK H PARENT 3 13
ROOT
ATOM      1  C   UNL     1       6.445   1.661   0.729  1.00  0.00     0.018 A 
ATOM      2  C   UNL     1       7.432   2.600   0.701  1.00  0.00     0.033 A 
ATOM      3  C   UNL     1       7.240   0.853   2.873  1.00  0.00     0.065 A 
ATOM      4  N   UNL     1       9.403   3.489   2.007  1.00  0.00    -0.209 NA
ATOM      5  O   UNL     1       9.250   2.122   3.693  1.00  0.00    -0.436 OA
ATOM      6  C   UNL     1       6.334   0.778   1.813  1.00  0.00     0.063 A 
ATOM      7  C   UNL     1       9.933   3.150   3.156  1.00  0.00     0.227 A 
ATOM      8  C   UNL     1       8.346   2.686   1.758  1.00  0.00     0.110 A 
ATOM      9  C   UNL     1       8.246   1.802   2.846  1.00  0.00     0.156 A 
ENDROOT
BRANCH   6  10
ATOM     10  C   UNL     1       5.259  -0.230   1.834  1.00  0.00     0.335 C 
ATOM     11  O   UNL     1       4.689  -0.531   0.805  1.00  0.00    -0.246 OA
BRANCH  10  12
ATOM     12  O   UNL     1       4.907  -0.816   2.996  1.00  0.00    -0.478 OA
ATOM     13  H   UNL     1       4.983  -0.282   3.798  1.00  0.00     0.297 HD
ENDBRANCH  10  12
ENDBRANCH   6  10
BRANCH   7  14
ATOM     14  C   UNL     1      11.109   3.800   3.770  1.00  0.00     0.040 A 
ATOM     15  C   UNL     1      12.373   3.221   3.650  1.00  0.00     0.034 A 
ATOM     16  C   UNL     1      10.960   4.996   4.475  1.00  0.00     0.034 A 
ATOM     17  C   UNL     1      13.468   3.834   4.226  1.00  0.00     0.043 A 
ATOM     18  C   UNL     1      12.063   5.599   5.046  1.00  0.00     0.043 A 
ATOM     19  C   UNL     1      13.314   5.020   4.923  1.00  0.00     0.041 A 
ATOM     20  Cl  UNL     1      15.042   3.115   4.076  1.00  0.00    -0.084 Cl
ATOM     21  Cl  UNL     1      11.879   7.087   5.923  1.00  0.00    -0.084 Cl
ENDBRANCH   7  14
TORSDOF 3
ENDMDL
MODEL 9
REMARK VINA RESULT:    -3.264      1.794      3.183
REMARK INTER + INTRA:          -4.037
REMARK INTER:                  -3.742
REMARK INTRA:                  -0.295
REMARK UNBOUND:                -0.296
REMARK SMILES O=C(O)c1ccc2nc(-c3cc(Cl)cc(Cl)c3)oc2c1
REMARK SMILES IDX 5 1 6 2 20 3 8 4 18 5 4 6 9 7 7 8 19 9 2 10 1 11 3 12 10 14
REMARK SMILES IDX 11 15 17 16 12 17 15 18 14 19 13 20 16 21
REMARK H PARENT 3 13
ROOT
ATOM      1  C   UNL     1      13.424   3.171   3.880  1.00  0.00     0.018 A 
ATOM      2  C   UNL     1      12.220   3.799   3.774  1.00  0.00     0.033 A 
ATOM      3  C   UNL     1      12.521   1.201   2.792  1.00  0.00     0.065 A 
ATOM      4  N   UNL     1       9.857   3.494   2.934  1.00  0.00    -0.209 NA
ATOM      5  O   UNL     1      10.098   1.469   2.176  1.00  0.00    -0.436 OA
ATOM      6  C   UNL     1      13.591   1.868   3.390  1.00  0.00     0.063 A 
ATOM      7  C   UNL     1       9.246   2.499   2.341  1.00  0.00     0.227 A 
ATOM      8  C   UNL     1      11.137   3.142   3.176  1.00  0.00     0.110 A 
ATOM      9  C   UNL     1      11.295   1.833   2.687  1.00  0.00     0.156 A 
ENDROOT
BRANCH   6  10
ATOM     10  C   UNL     1      14.901   1.201   3.506  1.00  0.00     0.335 C 
ATOM     11  O   UNL     1      15.007   0.021   3.236  1.00  0.00    -0.246 OA
BRANCH  10  12
ATOM     12  O   UNL     1      15.980   1.899   3.911  1.00  0.00    -0.478 OA
ATOM     13  H   UNL     1      16.470   1.550   4.667  1.00  0.00     0.297 HD
ENDBRANCH  10  12
ENDBRANCH   6  10
BRANCH   7  14
ATOM     14  C   UNL     1       7.831   2.506   1.915  1.00  0.00     0.040 A 
ATOM     15  C   UNL     1       7.107   1.314   1.869  1.00  0.00     0.034 A 
ATOM     16  C   UNL     1       7.213   3.706   1.558  1.00  0.00     0.034 A 
ATOM     17  C   UNL     1       5.785   1.327   1.472  1.00  0.00     0.043 A 
ATOM     18  C   UNL     1       5.890   3.706   1.162  1.00  0.00     0.043 A 
ATOM     19  C   UNL     1       5.178   2.520   1.118  1.00  0.00     0.041 A 
ATOM     20  Cl  UNL     1       4.882  -0.155   1.414  1.00  0.00    -0.084 Cl
ATOM     21  Cl  UNL     1       5.120   5.197   0.717  1.00  0.00    -0.084 Cl
ENDBRANCH   7  14
TORSDOF 3
ENDMDL
