MODEL 1
REMARK VINA RESULT:    -5.675      0.000      0.000
REMARK INTER + INTRA:          -8.335
REMARK INTER:                  -7.832
REMARK INTRA:                  -0.503
REMARK UNBOUND:                -0.503
REMARK SMILES Cc1n[nH]c(C)c1CCCOc1cc(C(=O)O)ccc1F
REMARK SMILES IDX 11 1 12 2 14 3 18 4 13 5 19 6 20 7 21 8 15 9 16 10 17 11
REMARK SMILES IDX 10 13 9 14 8 15 7 16 5 17 2 18 4 19 3 20 6 21 1 22
REMARK H PARENT 17 12 4 23
ROOT
ATOM      1  O   UNL     1       4.538   7.234  -4.906  1.00  0.00    -0.490 OA
ENDROOT
BRANCH   1   2
ATOM      2  C   UNL     1       4.147   6.647  -3.744  1.00  0.00     0.155 A 
ATOM      3  C   UNL     1       4.688   5.533  -1.683  1.00  0.00     0.063 A 
ATOM      4  C   UNL     1       3.329   5.462  -1.369  1.00  0.00     0.019 A 
ATOM      5  C   UNL     1       5.093   6.130  -2.879  1.00  0.00     0.065 A 
ATOM      6  C   UNL     1       2.393   5.986  -2.235  1.00  0.00     0.044 A 
ATOM      7  C   UNL     1       2.797   6.582  -3.418  1.00  0.00     0.165 A 
ATOM      8  F   UNL     1       1.875   7.094  -4.263  1.00  0.00    -0.203 F 
BRANCH   3   9
ATOM      9  C   UNL     1       5.693   4.973  -0.758  1.00  0.00     0.335 C 
ATOM     10  O   UNL     1       6.811   4.717  -1.156  1.00  0.00    -0.246 OA
BRANCH   9  11
ATOM     11  O   UNL     1       5.371   4.752   0.532  1.00  0.00    -0.478 OA
ATOM     12  H   UNL     1       5.765   3.977   0.957  1.00  0.00     0.297 HD
ENDBRANCH   9  11
ENDBRANCH   3   9
ENDBRANCH   1   2
BRANCH   1  13
ATOM     13  C   UNL     1       4.267   8.631  -5.051  1.00  0.00     0.230 C 
BRANCH  13  14
ATOM     14  C   UNL     1       5.587   9.399  -5.143  1.00  0.00     0.046 C 
BRANCH  14  15
ATOM     15  C   UNL     1       5.975   9.913  -3.755  1.00  0.00     0.043 C 
BRANCH  15  16
ATOM     16  C   UNL     1       6.927  11.072  -3.896  1.00  0.00    -0.004 A 
ATOM     17  C   UNL     1       8.271  10.986  -4.034  1.00  0.00     0.036 A 
ATOM     18  C   UNL     1       6.579  12.427  -3.914  1.00  0.00     0.063 A 
ATOM     19  N   UNL     1       8.756  12.242  -4.130  1.00  0.00    -0.282 N 
ATOM     20  N   UNL     1       7.674  13.129  -4.047  1.00  0.00    -0.181 NA
ATOM     21  C   UNL     1       9.080   9.716  -4.075  1.00  0.00     0.066 C 
ATOM     22  C   UNL     1       5.183  12.982  -3.789  1.00  0.00     0.069 C 
ATOM     23  H   UNL     1       9.688  12.487  -4.235  1.00  0.00     0.190 HD
ENDBRANCH  15  16
ENDBRANCH  14  15
ENDBRANCH  13  14
ENDBRANCH   1  13
TORSDOF 7
ENDMDL
MODEL 2
REMARK VINA RESULT:    -5.659      2.300      3.913
REMARK INTER + INTRA:          -8.312
REMARK INTER:                  -7.765
REMARK INTRA:                  -0.547
REMARK UNBOUND:                -0.503
REMARK SMILES Cc1n[nH]c(C)c1CCCOc1cc(C(=O)O)ccc1F
REMARK SMILES IDX 11 1 12 2 14 3 18 4 13 5 19 6 20 7 21 8 15 9 16 10 17 11
REMARK SMILES IDX 10 13 9 14 8 15 7 16 5 17 2 18 4 19 3 20 6 21 1 22
REMARK H PARENT 17 12 4 23
ROOT
ATOM      1  O   UNL     1       5.299   8.181  -0.336  1.00  0.00    -0.490 OA
ENDROOT
BRANCH   1   2
ATOM      2  C   UNL     1       4.582   7.227  -0.986  1.00  0.00     0.155 A 
ATOM      3  C   UNL     1       2.792   6.609  -2.468  1.00  0.00     0.063 A 
ATOM      4  C   UNL     1       3.134   5.263  -2.314  1.00  0.00     0.019 A 
ATOM      5  C   UNL     1       3.523   7.591  -1.798  1.00  0.00     0.065 A 
ATOM      6  C   UNL     1       4.195   4.910  -1.508  1.00  0.00     0.044 A 
ATOM      7  C   UNL     1       4.923   5.886  -0.848  1.00  0.00     0.165 A 
ATOM      8  F   UNL     1       5.962   5.533  -0.059  1.00  0.00    -0.203 F 
BRANCH   3   9
ATOM      9  C   UNL     1       1.657   6.990  -3.331  1.00  0.00     0.335 C 
ATOM     10  O   UNL     1       1.146   8.085  -3.214  1.00  0.00    -0.246 OA
BRANCH   9  11
ATOM     11  O   UNL     1       1.192   6.125  -4.254  1.00  0.00    -0.478 OA
ATOM     12  H   UNL     1       0.300   5.775  -4.118  1.00  0.00     0.297 HD
ENDBRANCH   9  11
ENDBRANCH   3   9
ENDBRANCH   1   2
BRANCH   1  13
ATOM     13  C   UNL     1       6.643   8.394  -0.776  1.00  0.00     0.230 C 
BRANCH  13  14
ATOM     14  C   UNL     1       6.757   9.780  -1.412  1.00  0.00     0.046 C 
BRANCH  14  15
ATOM     15  C   UNL     1       6.737   9.645  -2.936  1.00  0.00     0.043 C 
BRANCH  15  16
ATOM     16  C   UNL     1       7.466  10.810  -3.554  1.00  0.00    -0.004 A 
ATOM     17  C   UNL     1       6.952  12.042  -3.779  1.00  0.00     0.036 A 
ATOM     18  C   UNL     1       8.795  10.812  -3.991  1.00  0.00     0.063 A 
ATOM     19  N   UNL     1       7.920  12.795  -4.344  1.00  0.00    -0.282 N 
ATOM     20  N   UNL     1       9.066  11.999  -4.471  1.00  0.00    -0.181 NA
ATOM     21  C   UNL     1       5.552  12.493  -3.455  1.00  0.00     0.066 C 
ATOM     22  C   UNL     1       9.746   9.645  -3.931  1.00  0.00     0.069 C 
ATOM     23  H   UNL     1       7.836  13.722  -4.615  1.00  0.00     0.190 HD
ENDBRANCH  15  16
ENDBRANCH  14  15
ENDBRANCH  13  14
ENDBRANCH   1  13
TORSDOF 7
ENDMDL
MODEL 3
REMARK VINA RESULT:    -5.610      2.319      3.487
REMARK INTER + INTRA:          -8.244
REMARK INTER:                  -7.687
REMARK INTRA:                  -0.557
REMARK UNBOUND:                -0.503
REMARK SMILES Cc1n[nH]c(C)c1CCCOc1cc(C(=O)O)ccc1F
REMARK SMILES IDX 11 1 12 2 14 3 18 4 13 5 19 6 20 7 21 8 15 9 16 10 17 11
REMARK SMILES IDX 10 13 9 14 8 15 7 16 5 17 2 18 4 19 3 20 6 21 1 22
REMARK H PARENT 17 12 4 23
ROOT
ATOM      1  O   UNL     1       5.323   8.235  -0.402  1.00  0.00    -0.490 OA
ENDROOT
BRANCH   1   2
ATOM      2  C   UNL     1       4.595   7.272  -1.026  1.00  0.00     0.155 A 
ATOM      3  C   UNL     1       2.790   6.631  -2.480  1.00  0.00     0.063 A 
ATOM      4  C   UNL     1       3.127   5.287  -2.301  1.00  0.00     0.019 A 
ATOM      5  C   UNL     1       3.532   7.624  -1.837  1.00  0.00     0.065 A 
ATOM      6  C   UNL     1       4.193   4.946  -1.495  1.00  0.00     0.044 A 
ATOM      7  C   UNL     1       4.930   5.932  -0.861  1.00  0.00     0.165 A 
ATOM      8  F   UNL     1       5.973   5.591  -0.073  1.00  0.00    -0.203 F 
BRANCH   3   9
ATOM      9  C   UNL     1       1.651   7.000  -3.343  1.00  0.00     0.335 C 
ATOM     10  O   UNL     1       1.138   8.096  -3.237  1.00  0.00    -0.246 OA
BRANCH   9  11
ATOM     11  O   UNL     1       1.183   6.123  -4.253  1.00  0.00    -0.478 OA
ATOM     12  H   UNL     1       0.316   6.310  -4.638  1.00  0.00     0.297 HD
ENDBRANCH   9  11
ENDBRANCH   3   9
ENDBRANCH   1   2
BRANCH   1  13
ATOM     13  C   UNL     1       6.648   8.463  -0.886  1.00  0.00     0.230 C 
BRANCH  13  14
ATOM     14  C   UNL     1       6.722   9.845  -1.538  1.00  0.00     0.046 C 
BRANCH  14  15
ATOM     15  C   UNL     1       6.826   9.688  -3.056  1.00  0.00     0.043 C 
BRANCH  15  16
ATOM     16  C   UNL     1       7.669  10.803  -3.621  1.00  0.00    -0.004 A 
ATOM     17  C   UNL     1       8.962  10.706  -4.006  1.00  0.00     0.036 A 
ATOM     18  C   UNL     1       7.250  12.119  -3.845  1.00  0.00     0.063 A 
ATOM     19  N   UNL     1       9.350  11.920  -4.452  1.00  0.00    -0.282 N 
ATOM     20  N   UNL     1       8.259  12.791  -4.336  1.00  0.00    -0.181 NA
ATOM     21  C   UNL     1       9.816   9.466  -3.948  1.00  0.00     0.066 C 
ATOM     22  C   UNL     1       5.877  12.671  -3.557  1.00  0.00     0.069 C 
ATOM     23  H   UNL     1      10.230  12.148  -4.791  1.00  0.00     0.190 HD
ENDBRANCH  15  16
ENDBRANCH  14  15
ENDBRANCH  13  14
ENDBRANCH   1  13
TORSDOF 7
ENDMDL
MODEL 4
REMARK VINA RESULT:    -5.562      0.386      1.800
REMARK INTER + INTRA:          -8.179
REMARK INTER:                  -7.692
REMARK INTRA:                  -0.487
REMARK UNBOUND:                -0.503
REMARK SMILES Cc1n[nH]c(C)c1CCCOc1cc(C(=O)O)ccc1F
REMARK SMILES IDX 11 1 12 2 14 3 18 4 13 5 19 6 20 7 21 8 15 9 16 10 17 11
REMARK SMILES IDX 10 13 9 14 8 15 7 16 5 17 2 18 4 19 3 20 6 21 1 22
REMARK H PARENT 17 12 4 23
ROOT
ATOM      1  O   UNL     1       4.478   7.408  -4.817  1.00  0.00    -0.490 OA
ENDROOT
BRANCH   1   2
ATOM      2  C   UNL     1       4.097   6.759  -3.685  1.00  0.00     0.155 A 
ATOM      3  C   UNL     1       4.657   5.563  -1.676  1.00  0.00     0.063 A 
ATOM      4  C   UNL     1       3.298   5.447  -1.370  1.00  0.00     0.019 A 
ATOM      5  C   UNL     1       5.052   6.224  -2.841  1.00  0.00     0.065 A 
ATOM      6  C   UNL     1       2.353   5.989  -2.216  1.00  0.00     0.044 A 
ATOM      7  C   UNL     1       2.747   6.649  -3.368  1.00  0.00     0.165 A 
ATOM      8  F   UNL     1       1.817   7.178  -4.192  1.00  0.00    -0.203 F 
BRANCH   3   9
ATOM      9  C   UNL     1       5.671   4.984  -0.773  1.00  0.00     0.335 C 
ATOM     10  O   UNL     1       6.779   4.720  -1.193  1.00  0.00    -0.246 OA
BRANCH   9  11
ATOM     11  O   UNL     1       5.368   4.753   0.520  1.00  0.00    -0.478 OA
ATOM     12  H   UNL     1       5.822   4.016   0.953  1.00  0.00     0.297 HD
ENDBRANCH   9  11
ENDBRANCH   3   9
ENDBRANCH   1   2
BRANCH   1  13
ATOM     13  C   UNL     1       4.489   8.837  -4.774  1.00  0.00     0.230 C 
BRANCH  13  14
ATOM     14  C   UNL     1       5.931   9.331  -4.647  1.00  0.00     0.046 C 
BRANCH  14  15
ATOM     15  C   UNL     1       6.063  10.207  -3.399  1.00  0.00     0.043 C 
BRANCH  15  16
ATOM     16  C   UNL     1       6.805  11.471  -3.747  1.00  0.00    -0.004 A 
ATOM     17  C   UNL     1       6.274  12.714  -3.812  1.00  0.00     0.036 A 
ATOM     18  C   UNL     1       8.167  11.568  -4.053  1.00  0.00     0.063 A 
ATOM     19  N   UNL     1       7.263  13.566  -4.154  1.00  0.00    -0.282 N 
ATOM     20  N   UNL     1       8.441  12.822  -4.304  1.00  0.00    -0.181 NA
ATOM     21  C   UNL     1       4.837  13.080  -3.549  1.00  0.00     0.066 C 
ATOM     22  C   UNL     1       9.147  10.423  -4.099  1.00  0.00     0.069 C 
ATOM     23  H   UNL     1       7.174  14.524  -4.275  1.00  0.00     0.190 HD
ENDBRANCH  15  16
ENDBRANCH  14  15
ENDBRANCH  13  14
ENDBRANCH   1  13
TORSDOF 7
ENDMDL
MODEL 5
REMARK VINA RESULT:    -4.734      3.923      6.980
REMARK INTER + INTRA:          -7.035
REMARK INTER:                  -6.212
REMARK INTRA:                  -0.823
REMARK UNBOUND:                -0.503
REMARK SMILES Cc1n[nH]c(C)c1CCCOc1cc(C(=O)O)ccc1F
REMARK SMILES IDX 11 1 12 2 14 3 18 4 13 5 19 6 20 7 21 8 15 9 16 10 17 11
REMARK SMILES IDX 10 13 9 14 8 15 7 16 5 17 2 18 4 19 3 20 6 21 1 22
REMARK H PARENT 17 12 4 23
ROOT
ATOM      1  O   UNL     1       6.680   8.367  -2.918  1.00  0.00    -0.490 OA
ENDROOT
BRANCH   1   2
ATOM      2  C   UNL     1       7.011   9.631  -3.295  1.00  0.00     0.155 A 
ATOM      3  C   UNL     1       6.418  11.941  -3.598  1.00  0.00     0.063 A 
ATOM      4  C   UNL     1       7.710  12.208  -4.059  1.00  0.00     0.019 A 
ATOM      5  C   UNL     1       6.073  10.643  -3.216  1.00  0.00     0.065 A 
ATOM      6  C   UNL     1       8.640  11.193  -4.129  1.00  0.00     0.044 A 
ATOM      7  C   UNL     1       8.297   9.907  -3.744  1.00  0.00     0.165 A 
ATOM      8  F   UNL     1       9.213   8.917  -3.815  1.00  0.00    -0.203 F 
BRANCH   3   9
ATOM      9  C   UNL     1       5.420  13.026  -3.522  1.00  0.00     0.335 C 
ATOM     10  O   UNL     1       4.652  13.211  -4.444  1.00  0.00    -0.246 OA
BRANCH   9  11
ATOM     11  O   UNL     1       5.356  13.806  -2.425  1.00  0.00    -0.478 OA
ATOM     12  H   UNL     1       5.679  14.714  -2.513  1.00  0.00     0.297 HD
ENDBRANCH   9  11
ENDBRANCH   3   9
ENDBRANCH   1   2
BRANCH   1  13
ATOM     13  C   UNL     1       5.886   8.229  -1.737  1.00  0.00     0.230 C 
BRANCH  13  14
ATOM     14  C   UNL     1       5.507   6.759  -1.547  1.00  0.00     0.046 C 
BRANCH  14  15
ATOM     15  C   UNL     1       5.209   6.128  -2.909  1.00  0.00     0.043 C 
BRANCH  15  16
ATOM     16  C   UNL     1       3.763   6.361  -3.265  1.00  0.00    -0.004 A 
ATOM     17  C   UNL     1       2.692   5.828  -2.632  1.00  0.00     0.036 A 
ATOM     18  C   UNL     1       3.291   7.170  -4.303  1.00  0.00     0.063 A 
ATOM     19  N   UNL     1       1.581   6.280  -3.252  1.00  0.00    -0.282 N 
ATOM     20  N   UNL     1       1.984   7.117  -4.301  1.00  0.00    -0.181 NA
ATOM     21  C   UNL     1       2.732   4.899  -1.447  1.00  0.00     0.066 C 
ATOM     22  C   UNL     1       4.142   7.958  -5.266  1.00  0.00     0.069 C 
ATOM     23  H   UNL     1       0.667   6.062  -3.015  1.00  0.00     0.190 HD
ENDBRANCH  15  16
ENDBRANCH  14  15
ENDBRANCH  13  14
ENDBRANCH   1  13
TORSDOF 7
ENDMDL
MODEL 6
REMARK VINA RESULT:    -4.632      3.783      6.488
REMARK INTER + INTRA:          -6.895
REMARK INTER:                  -6.034
REMARK INTRA:                  -0.861
REMARK UNBOUND:                -0.503
REMARK SMILES Cc1n[nH]c(C)c1CCCOc1cc(C(=O)O)ccc1F
REMARK SMILES IDX 11 1 12 2 14 3 18 4 13 5 19 6 20 7 21 8 15 9 16 10 17 11
REMARK SMILES IDX 10 13 9 14 8 15 7 16 5 17 2 18 4 19 3 20 6 21 1 22
REMARK H PARENT 17 12 4 23
ROOT
ATOM      1  O   UNL     1       4.832   9.618  -3.244  1.00  0.00    -0.490 OA
ENDROOT
BRANCH   1   2
ATOM      2  C   UNL     1       5.932  10.369  -3.513  1.00  0.00     0.155 A 
ATOM      3  C   UNL     1       8.282  10.531  -3.996  1.00  0.00     0.063 A 
ATOM      4  C   UNL     1       8.167  11.921  -4.073  1.00  0.00     0.019 A 
ATOM      5  C   UNL     1       7.155   9.756  -3.714  1.00  0.00     0.065 A 
ATOM      6  C   UNL     1       6.942  12.523  -3.877  1.00  0.00     0.044 A 
ATOM      7  C   UNL     1       5.824  11.752  -3.603  1.00  0.00     0.165 A 
ATOM      8  F   UNL     1       4.627  12.348  -3.411  1.00  0.00    -0.203 F 
BRANCH   3   9
ATOM      9  C   UNL     1       9.592   9.883  -4.206  1.00  0.00     0.335 C 
ATOM     10  O   UNL     1       9.871   9.413  -5.290  1.00  0.00    -0.246 OA
BRANCH   9  11
ATOM     11  O   UNL     1      10.482   9.820  -3.196  1.00  0.00    -0.478 OA
ATOM     12  H   UNL     1      11.400   9.624  -3.430  1.00  0.00     0.297 HD
ENDBRANCH   9  11
ENDBRANCH   3   9
ENDBRANCH   1   2
BRANCH   1  13
ATOM     13  C   UNL     1       4.700   8.383  -3.952  1.00  0.00     0.230 C 
BRANCH  13  14
ATOM     14  C   UNL     1       3.509   7.601  -3.394  1.00  0.00     0.046 C 
BRANCH  14  15
ATOM     15  C   UNL     1       3.479   7.736  -1.870  1.00  0.00     0.043 C 
BRANCH  15  16
ATOM     16  C   UNL     1       4.337   6.662  -1.253  1.00  0.00    -0.004 A 
ATOM     17  C   UNL     1       5.498   6.856  -0.585  1.00  0.00     0.036 A 
ATOM     18  C   UNL     1       4.071   5.289  -1.263  1.00  0.00     0.063 A 
ATOM     19  N   UNL     1       5.954   5.648  -0.192  1.00  0.00    -0.282 N 
ATOM     20  N   UNL     1       5.043   4.680  -0.634  1.00  0.00    -0.181 NA
ATOM     21  C   UNL     1       6.162   8.184  -0.326  1.00  0.00     0.066 C 
ATOM     22  C   UNL     1       2.878   4.624  -1.900  1.00  0.00     0.069 C 
ATOM     23  H   UNL     1       6.768   5.481   0.306  1.00  0.00     0.190 HD
ENDBRANCH  15  16
ENDBRANCH  14  15
ENDBRANCH  13  14
ENDBRANCH   1  13
TORSDOF 7
ENDMDL
MODEL 7
REMARK VINA RESULT:    -4.629      3.031      4.276
REMARK INTER + INTRA:          -6.890
REMARK INTER:                  -6.401
REMARK INTRA:                  -0.490
REMARK UNBOUND:                -0.503
REMARK SMILES Cc1n[nH]c(C)c1CCCOc1cc(C(=O)O)ccc1F
REMARK SMILES IDX 11 1 12 2 14 3 18 4 13 5 19 6 20 7 21 8 15 9 16 10 17 11
REMARK SMILES IDX 10 13 9 14 8 15 7 16 5 17 2 18 4 19 3 20 6 21 1 22
REMARK H PARENT 17 12 4 23
ROOT
ATOM      1  O   UNL     1       6.294  10.922  -4.110  1.00  0.00    -0.490 OA
ENDROOT
BRANCH   1   2
ATOM      2  C   UNL     1       5.820   9.718  -3.690  1.00  0.00     0.155 A 
ATOM      3  C   UNL     1       5.548   8.070  -1.961  1.00  0.00     0.063 A 
ATOM      4  C   UNL     1       4.834   7.261  -2.850  1.00  0.00     0.019 A 
ATOM      5  C   UNL     1       6.041   9.304  -2.390  1.00  0.00     0.065 A 
ATOM      6  C   UNL     1       4.613   7.686  -4.143  1.00  0.00     0.044 A 
ATOM      7  C   UNL     1       5.099   8.913  -4.565  1.00  0.00     0.165 A 
ATOM      8  F   UNL     1       4.879   9.323  -5.833  1.00  0.00    -0.203 F 
BRANCH   3   9
ATOM      9  C   UNL     1       5.786   7.618  -0.576  1.00  0.00     0.335 C 
ATOM     10  O   UNL     1       5.618   6.453  -0.280  1.00  0.00    -0.246 OA
BRANCH   9  11
ATOM     11  O   UNL     1       6.194   8.499   0.358  1.00  0.00    -0.478 OA
ATOM     12  H   UNL     1       6.307   8.163   1.259  1.00  0.00     0.297 HD
ENDBRANCH   9  11
ENDBRANCH   3   9
ENDBRANCH   1   2
BRANCH   1  13
ATOM     13  C   UNL     1       6.021  12.052  -3.278  1.00  0.00     0.230 C 
BRANCH  13  14
ATOM     14  C   UNL     1       5.592  13.234  -4.150  1.00  0.00     0.046 C 
BRANCH  14  15
ATOM     15  C   UNL     1       6.725  14.261  -4.210  1.00  0.00     0.043 C 
BRANCH  15  16
ATOM     16  C   UNL     1       6.145  15.651  -4.175  1.00  0.00    -0.004 A 
ATOM     17  C   UNL     1       6.071  16.510  -5.219  1.00  0.00     0.036 A 
ATOM     18  C   UNL     1       5.584  16.281  -3.059  1.00  0.00     0.063 A 
ATOM     19  N   UNL     1       5.489  17.644  -4.778  1.00  0.00    -0.282 N 
ATOM     20  N   UNL     1       5.196  17.478  -3.417  1.00  0.00    -0.181 NA
ATOM     21  C   UNL     1       6.551  16.245  -6.622  1.00  0.00     0.066 C 
ATOM     22  C   UNL     1       5.458  15.687  -1.679  1.00  0.00     0.069 C 
ATOM     23  H   UNL     1       5.306  18.435  -5.308  1.00  0.00     0.190 HD
ENDBRANCH  15  16
ENDBRANCH  14  15
ENDBRANCH  13  14
ENDBRANCH   1  13
TORSDOF 7
ENDMDL
MODEL 8
REMARK VINA RESULT:    -4.507      4.951      7.878
REMARK INTER + INTRA:          -6.722
REMARK INTER:                  -6.032
REMARK INTRA:                  -0.690
REMARK UNBOUND:                -0.503
REMARK SMILES Cc1n[nH]c(C)c1CCCOc1cc(C(=O)O)ccc1F
REMARK SMILES IDX 11 1 12 2 14 3 18 4 13 5 19 6 20 7 21 8 15 9 16 10 17 11
REMARK SMILES IDX 10 13 9 14 8 15 7 16 5 17 2 18 4 19 3 20 6 21 1 22
REMARK H PARENT 17 12 4 23
ROOT
ATOM      1  O   UNL     1       8.656  10.105  -3.570  1.00  0.00    -0.490 OA
ENDROOT
BRANCH   1   2
ATOM      2  C   UNL     1       9.789  10.500  -4.208  1.00  0.00     0.155 A 
ATOM      3  C   UNL     1      11.418  12.195  -4.714  1.00  0.00     0.063 A 
ATOM      4  C   UNL     1      12.114  11.282  -5.513  1.00  0.00     0.019 A 
ATOM      5  C   UNL     1      10.250  11.794  -4.061  1.00  0.00     0.065 A 
ATOM      6  C   UNL     1      11.649   9.991  -5.648  1.00  0.00     0.044 A 
ATOM      7  C   UNL     1      10.494   9.595  -4.995  1.00  0.00     0.165 A 
ATOM      8  F   UNL     1      10.044   8.328  -5.132  1.00  0.00    -0.203 F 
BRANCH   3   9
ATOM      9  C   UNL     1      11.912  13.578  -4.567  1.00  0.00     0.335 C 
ATOM     10  O   UNL     1      12.715  14.024  -5.361  1.00  0.00    -0.246 OA
BRANCH   9  11
ATOM     11  O   UNL     1      11.468  14.347  -3.554  1.00  0.00    -0.478 OA
ATOM     12  H   UNL     1      10.540  14.621  -3.585  1.00  0.00     0.297 HD
ENDBRANCH   9  11
ENDBRANCH   3   9
ENDBRANCH   1   2
BRANCH   1  13
ATOM     13  C   UNL     1       7.445  10.778  -3.923  1.00  0.00     0.230 C 
BRANCH  13  14
ATOM     14  C   UNL     1       6.271  10.141  -3.176  1.00  0.00     0.046 C 
BRANCH  14  15
ATOM     15  C   UNL     1       6.450   8.622  -3.146  1.00  0.00     0.043 C 
BRANCH  15  16
ATOM     16  C   UNL     1       5.182   7.975  -2.654  1.00  0.00    -0.004 A 
ATOM     17  C   UNL     1       4.863   7.728  -1.362  1.00  0.00     0.036 A 
ATOM     18  C   UNL     1       4.121   7.531  -3.451  1.00  0.00     0.063 A 
ATOM     19  N   UNL     1       3.648   7.141  -1.343  1.00  0.00    -0.282 N 
ATOM     20  N   UNL     1       3.205   7.024  -2.667  1.00  0.00    -0.181 NA
ATOM     21  C   UNL     1       5.713   8.050  -0.161  1.00  0.00     0.066 C 
ATOM     22  C   UNL     1       4.053   7.610  -4.955  1.00  0.00     0.069 C 
ATOM     23  H   UNL     1       3.167   6.851  -0.552  1.00  0.00     0.190 HD
ENDBRANCH  15  16
ENDBRANCH  14  15
ENDBRANCH  13  14
ENDBRANCH   1  13
TORSDOF 7
ENDMDL
MODEL 9
REMARK VINA RESULT:    -4.500      4.688      8.104
REMARK INTER + INTRA:          -6.713
REMARK INTER:                  -6.010
REMARK INTRA:                  -0.703
REMARK UNBOUND:                -0.503
REMARK SMILES Cc1n[nH]c(C)c1CCCOc1cc(C(=O)O)ccc1F
REMARK SMILES IDX 11 1 12 2 14 3 18 4 13 5 19 6 20 7 21 8 15 9 16 10 17 11
REMARK SMILES IDX 10 13 9 14 8 15 7 16 5 17 2 18 4 19 3 20 6 21 1 22
REMARK H PARENT 17 12 4 23
ROOT
ATOM      1  O   UNL     1       5.844  12.013  -3.843  1.00  0.00    -0.490 OA
ENDROOT
BRANCH   1   2
ATOM      2  C   UNL     1       5.941  13.369  -3.816  1.00  0.00     0.155 A 
ATOM      3  C   UNL     1       6.880  15.412  -4.668  1.00  0.00     0.063 A 
ATOM      4  C   UNL     1       6.116  16.141  -3.753  1.00  0.00     0.019 A 
ATOM      5  C   UNL     1       6.787  14.019  -4.695  1.00  0.00     0.065 A 
ATOM      6  C   UNL     1       5.270  15.484  -2.884  1.00  0.00     0.044 A 
ATOM      7  C   UNL     1       5.176  14.103  -2.916  1.00  0.00     0.165 A 
ATOM      8  F   UNL     1       4.344  13.465  -2.063  1.00  0.00    -0.203 F 
BRANCH   3   9
ATOM      9  C   UNL     1       7.787  16.112  -5.599  1.00  0.00     0.335 C 
ATOM     10  O   UNL     1       7.789  17.325  -5.649  1.00  0.00    -0.246 OA
BRANCH   9  11
ATOM     11  O   UNL     1       8.617  15.404  -6.390  1.00  0.00    -0.478 OA
ATOM     12  H   UNL     1       8.399  14.472  -6.533  1.00  0.00     0.297 HD
ENDBRANCH   9  11
ENDBRANCH   3   9
ENDBRANCH   1   2
BRANCH   1  13
ATOM     13  C   UNL     1       7.050  11.273  -3.640  1.00  0.00     0.230 C 
BRANCH  13  14
ATOM     14  C   UNL     1       6.724   9.781  -3.558  1.00  0.00     0.046 C 
BRANCH  14  15
ATOM     15  C   UNL     1       5.295   9.598  -3.042  1.00  0.00     0.043 C 
BRANCH  15  16
ATOM     16  C   UNL     1       5.024   8.133  -2.818  1.00  0.00    -0.004 A 
ATOM     17  C   UNL     1       4.528   7.267  -3.731  1.00  0.00     0.036 A 
ATOM     18  C   UNL     1       5.246   7.427  -1.631  1.00  0.00     0.063 A 
ATOM     19  N   UNL     1       4.433   6.056  -3.141  1.00  0.00    -0.282 N 
ATOM     20  N   UNL     1       4.887   6.184  -1.822  1.00  0.00    -0.181 NA
ATOM     21  C   UNL     1       4.149   7.594  -5.152  1.00  0.00     0.066 C 
ATOM     22  C   UNL     1       5.795   8.002  -0.350  1.00  0.00     0.069 C 
ATOM     23  H   UNL     1       4.109   5.243  -3.557  1.00  0.00     0.190 HD
ENDBRANCH  15  16
ENDBRANCH  14  15
ENDBRANCH  13  14
ENDBRANCH   1  13
TORSDOF 7
ENDMDL
