MODEL 1
REMARK VINA RESULT:    -5.840      0.000      0.000
REMARK INTER + INTRA:          -8.706
REMARK INTER:                  -8.058
REMARK INTRA:                  -0.647
REMARK UNBOUND:                -0.647
REMARK SMILES Cc1n[nH]c(C)c1CCCOc1cc(C(=O)O)ccc1F
REMARK SMILES IDX 11 1 12 2 14 3 18 4 13 5 19 6 20 7 21 8 15 9 16 10 17 11
REMARK SMILES IDX 10 13 9 14 8 15 7 16 5 17 2 18 4 19 3 20 6 21 1 22
REMARK H PARENT 17 12 4 23
ROOT
ATOM      1  O   UNL     1       7.906  -4.551  -5.106  1.00  0.00    -0.490 OA
ENDROOT
BRANCH   1   2
ATOM      2  C   UNL     1       7.129  -3.501  -4.728  1.00  0.00     0.155 A 
ATOM      3  C   UNL     1       6.900  -1.185  -4.124  1.00  0.00     0.063 A 
ATOM      4  C   UNL     1       5.523  -1.366  -3.967  1.00  0.00     0.019 A 
ATOM      5  C   UNL     1       7.702  -2.262  -4.507  1.00  0.00     0.065 A 
ATOM      6  C   UNL     1       4.961  -2.604  -4.195  1.00  0.00     0.044 A 
ATOM      7  C   UNL     1       5.757  -3.670  -4.580  1.00  0.00     0.165 A 
ATOM      8  F   UNL     1       5.200  -4.881  -4.803  1.00  0.00    -0.203 F 
BRANCH   3   9
ATOM      9  C   UNL     1       7.505   0.139  -3.881  1.00  0.00     0.335 C 
ATOM     10  O   UNL     1       8.404   0.257  -3.074  1.00  0.00    -0.246 OA
BRANCH   9  11
ATOM     11  O   UNL     1       7.064   1.216  -4.559  1.00  0.00    -0.478 OA
ATOM     12  H   UNL     1       6.461   1.053  -5.299  1.00  0.00     0.297 HD
ENDBRANCH   9  11
ENDBRANCH   3   9
ENDBRANCH   1   2
BRANCH   1  13
ATOM     13  C   UNL     1       8.454  -5.361  -4.063  1.00  0.00     0.230 C 
BRANCH  13  14
ATOM     14  C   UNL     1       9.823  -5.890  -4.494  1.00  0.00     0.046 C 
BRANCH  14  15
ATOM     15  C   UNL     1      10.410  -4.970  -5.567  1.00  0.00     0.043 C 
BRANCH  15  16
ATOM     16  C   UNL     1      11.765  -5.481  -5.981  1.00  0.00    -0.004 A 
ATOM     17  C   UNL     1      12.951  -5.134  -5.427  1.00  0.00     0.036 A 
ATOM     18  C   UNL     1      12.021  -6.403  -7.001  1.00  0.00     0.063 A 
ATOM     19  N   UNL     1      13.922  -5.808  -6.079  1.00  0.00    -0.282 N 
ATOM     20  N   UNL     1      13.313  -6.594  -7.066  1.00  0.00    -0.181 NA
ATOM     21  C   UNL     1      13.150  -4.170  -4.287  1.00  0.00     0.066 C 
ATOM     22  C   UNL     1      10.986  -7.054  -7.884  1.00  0.00     0.069 C 
ATOM     23  H   UNL     1      14.873  -5.756  -5.897  1.00  0.00     0.190 HD
ENDBRANCH  15  16
ENDBRANCH  14  15
ENDBRANCH  13  14
ENDBRANCH   1  13
TORSDOF 7
ENDMDL
MODEL 2
REMARK VINA RESULT:    -5.758      0.249      1.784
REMARK INTER + INTRA:          -8.594
REMARK INTER:                  -7.947
REMARK INTRA:                  -0.646
REMARK UNBOUND:                -0.647
REMARK SMILES Cc1n[nH]c(C)c1CCCOc1cc(C(=O)O)ccc1F
REMARK SMILES IDX 11 1 12 2 14 3 18 4 13 5 19 6 20 7 21 8 15 9 16 10 17 11
REMARK SMILES IDX 10 13 9 14 8 15 7 16 5 17 2 18 4 19 3 20 6 21 1 22
REMARK H PARENT 17 12 4 23
ROOT
ATOM      1  O   UNL     1       7.969  -4.536  -5.129  1.00  0.00    -0.490 OA
ENDROOT
BRANCH   1   2
ATOM      2  C   UNL     1       7.177  -3.497  -4.752  1.00  0.00     0.155 A 
ATOM      3  C   UNL     1       6.915  -1.187  -4.141  1.00  0.00     0.063 A 
ATOM      4  C   UNL     1       5.540  -1.386  -3.991  1.00  0.00     0.019 A 
ATOM      5  C   UNL     1       7.732  -2.252  -4.523  1.00  0.00     0.065 A 
ATOM      6  C   UNL     1       4.994  -2.630  -4.227  1.00  0.00     0.044 A 
ATOM      7  C   UNL     1       5.806  -3.684  -4.611  1.00  0.00     0.165 A 
ATOM      8  F   UNL     1       5.265  -4.901  -4.841  1.00  0.00    -0.203 F 
BRANCH   3   9
ATOM      9  C   UNL     1       7.502   0.144  -3.889  1.00  0.00     0.335 C 
ATOM     10  O   UNL     1       8.391   0.271  -3.073  1.00  0.00    -0.246 OA
BRANCH   9  11
ATOM     11  O   UNL     1       7.055   1.217  -4.571  1.00  0.00    -0.478 OA
ATOM     12  H   UNL     1       6.180   1.146  -4.977  1.00  0.00     0.297 HD
ENDBRANCH   9  11
ENDBRANCH   3   9
ENDBRANCH   1   2
BRANCH   1  13
ATOM     13  C   UNL     1       8.584  -5.296  -4.086  1.00  0.00     0.230 C 
BRANCH  13  14
ATOM     14  C   UNL     1       9.890  -5.904  -4.600  1.00  0.00     0.046 C 
BRANCH  14  15
ATOM     15  C   UNL     1      10.601  -4.895  -5.504  1.00  0.00     0.043 C 
BRANCH  15  16
ATOM     16  C   UNL     1      11.992  -5.386  -5.810  1.00  0.00    -0.004 A 
ATOM     17  C   UNL     1      12.330  -6.269  -6.778  1.00  0.00     0.036 A 
ATOM     18  C   UNL     1      13.163  -5.005  -5.147  1.00  0.00     0.063 A 
ATOM     19  N   UNL     1      13.667  -6.446  -6.725  1.00  0.00    -0.282 N 
ATOM     20  N   UNL     1      14.167  -5.644  -5.691  1.00  0.00    -0.181 NA
ATOM     21  C   UNL     1      11.383  -6.936  -7.742  1.00  0.00     0.066 C 
ATOM     22  C   UNL     1      13.253  -4.034  -3.998  1.00  0.00     0.069 C 
ATOM     23  H   UNL     1      14.189  -7.025  -7.301  1.00  0.00     0.190 HD
ENDBRANCH  15  16
ENDBRANCH  14  15
ENDBRANCH  13  14
ENDBRANCH   1  13
TORSDOF 7
ENDMDL
MODEL 3
REMARK VINA RESULT:    -5.747      2.063      3.694
REMARK INTER + INTRA:          -8.579
REMARK INTER:                  -7.892
REMARK INTRA:                  -0.686
REMARK UNBOUND:                -0.647
REMARK SMILES Cc1n[nH]c(C)c1CCCOc1cc(C(=O)O)ccc1F
REMARK SMILES IDX 11 1 12 2 14 3 18 4 13 5 19 6 20 7 21 8 15 9 16 10 17 11
REMARK SMILES IDX 10 13 9 14 8 15 7 16 5 17 2 18 4 19 3 20 6 21 1 22
REMARK H PARENT 17 12 4 23
ROOT
ATOM      1  O   UNL     1       8.591  -1.845  -6.269  1.00  0.00    -0.490 OA
ENDROOT
BRANCH   1   2
ATOM      2  C   UNL     1       7.498  -1.969  -5.471  1.00  0.00     0.155 A 
ATOM      3  C   UNL     1       5.633  -3.259  -4.671  1.00  0.00     0.063 A 
ATOM      4  C   UNL     1       5.273  -2.206  -3.825  1.00  0.00     0.019 A 
ATOM      5  C   UNL     1       6.752  -3.133  -5.496  1.00  0.00     0.065 A 
ATOM      6  C   UNL     1       6.026  -1.052  -3.803  1.00  0.00     0.044 A 
ATOM      7  C   UNL     1       7.139  -0.931  -4.618  1.00  0.00     0.165 A 
ATOM      8  F   UNL     1       7.873   0.203  -4.592  1.00  0.00    -0.203 F 
BRANCH   3   9
ATOM      9  C   UNL     1       4.829  -4.497  -4.697  1.00  0.00     0.335 C 
ATOM     10  O   UNL     1       4.797  -5.180  -5.700  1.00  0.00    -0.246 OA
BRANCH   9  11
ATOM     11  O   UNL     1       4.135  -4.871  -3.604  1.00  0.00    -0.478 OA
ATOM     12  H   UNL     1       4.646  -5.190  -2.847  1.00  0.00     0.297 HD
ENDBRANCH   9  11
ENDBRANCH   3   9
ENDBRANCH   1   2
BRANCH   1  13
ATOM     13  C   UNL     1       9.864  -2.101  -5.670  1.00  0.00     0.230 C 
BRANCH  13  14
ATOM     14  C   UNL     1      10.574  -3.215  -6.440  1.00  0.00     0.046 C 
BRANCH  14  15
ATOM     15  C   UNL     1      10.660  -4.467  -5.564  1.00  0.00     0.043 C 
BRANCH  15  16
ATOM     16  C   UNL     1      11.931  -5.213  -5.875  1.00  0.00    -0.004 A 
ATOM     17  C   UNL     1      12.073  -6.197  -6.794  1.00  0.00     0.036 A 
ATOM     18  C   UNL     1      13.176  -5.007  -5.271  1.00  0.00     0.063 A 
ATOM     19  N   UNL     1      13.360  -6.603  -6.766  1.00  0.00    -0.282 N 
ATOM     20  N   UNL     1      14.031  -5.844  -5.799  1.00  0.00    -0.181 NA
ATOM     21  C   UNL     1      10.989  -6.741  -7.687  1.00  0.00     0.066 C 
ATOM     22  C   UNL     1      13.477  -4.001  -4.189  1.00  0.00     0.069 C 
ATOM     23  H   UNL     1      13.750  -7.299  -7.318  1.00  0.00     0.190 HD
ENDBRANCH  15  16
ENDBRANCH  14  15
ENDBRANCH  13  14
ENDBRANCH   1  13
TORSDOF 7
ENDMDL
MODEL 4
REMARK VINA RESULT:    -5.725      2.130      3.276
REMARK INTER + INTRA:          -8.547
REMARK INTER:                  -7.944
REMARK INTRA:                  -0.603
REMARK UNBOUND:                -0.647
REMARK SMILES Cc1n[nH]c(C)c1CCCOc1cc(C(=O)O)ccc1F
REMARK SMILES IDX 11 1 12 2 14 3 18 4 13 5 19 6 20 7 21 8 15 9 16 10 17 11
REMARK SMILES IDX 10 13 9 14 8 15 7 16 5 17 2 18 4 19 3 20 6 21 1 22
REMARK H PARENT 17 12 4 23
ROOT
ATOM      1  O   UNL     1       8.566  -1.930  -6.382  1.00  0.00    -0.490 OA
ENDROOT
BRANCH   1   2
ATOM      2  C   UNL     1       7.495  -2.032  -5.550  1.00  0.00     0.155 A 
ATOM      3  C   UNL     1       5.635  -3.288  -4.687  1.00  0.00     0.063 A 
ATOM      4  C   UNL     1       5.317  -2.225  -3.836  1.00  0.00     0.019 A 
ATOM      5  C   UNL     1       6.731  -3.184  -5.546  1.00  0.00     0.065 A 
ATOM      6  C   UNL     1       6.089  -1.083  -3.843  1.00  0.00     0.044 A 
ATOM      7  C   UNL     1       7.179  -0.984  -4.693  1.00  0.00     0.165 A 
ATOM      8  F   UNL     1       7.931   0.138  -4.695  1.00  0.00    -0.203 F 
BRANCH   3   9
ATOM      9  C   UNL     1       4.811  -4.513  -4.681  1.00  0.00     0.335 C 
ATOM     10  O   UNL     1       4.751  -5.209  -5.673  1.00  0.00    -0.246 OA
BRANCH   9  11
ATOM     11  O   UNL     1       4.130  -4.861  -3.571  1.00  0.00    -0.478 OA
ATOM     12  H   UNL     1       4.403  -5.676  -3.127  1.00  0.00     0.297 HD
ENDBRANCH   9  11
ENDBRANCH   3   9
ENDBRANCH   1   2
BRANCH   1  13
ATOM     13  C   UNL     1       9.862  -2.030  -5.786  1.00  0.00     0.230 C 
BRANCH  13  14
ATOM     14  C   UNL     1      10.632  -3.182  -6.433  1.00  0.00     0.046 C 
BRANCH  14  15
ATOM     15  C   UNL     1      10.830  -4.302  -5.410  1.00  0.00     0.043 C 
BRANCH  15  16
ATOM     16  C   UNL     1      12.149  -4.986  -5.661  1.00  0.00    -0.004 A 
ATOM     17  C   UNL     1      13.318  -4.715  -5.035  1.00  0.00     0.036 A 
ATOM     18  C   UNL     1      12.380  -6.017  -6.578  1.00  0.00     0.063 A 
ATOM     19  N   UNL     1      14.257  -5.541  -5.543  1.00  0.00    -0.282 N 
ATOM     20  N   UNL     1      13.645  -6.346  -6.513  1.00  0.00    -0.181 NA
ATOM     21  C   UNL     1      13.533  -3.678  -3.964  1.00  0.00     0.066 C 
ATOM     22  C   UNL     1      11.352  -6.634  -7.492  1.00  0.00     0.069 C 
ATOM     23  H   UNL     1      15.191  -5.572  -5.283  1.00  0.00     0.190 HD
ENDBRANCH  15  16
ENDBRANCH  14  15
ENDBRANCH  13  14
ENDBRANCH   1  13
TORSDOF 7
ENDMDL
MODEL 5
REMARK VINA RESULT:    -4.822      3.729      6.611
REMARK INTER + INTRA:          -7.302
REMARK INTER:                  -6.446
REMARK INTRA:                  -0.856
REMARK UNBOUND:                -0.647
REMARK SMILES Cc1n[nH]c(C)c1CCCOc1cc(C(=O)O)ccc1F
REMARK SMILES IDX 11 1 12 2 14 3 18 4 13 5 19 6 20 7 21 8 15 9 16 10 17 11
REMARK SMILES IDX 10 13 9 14 8 15 7 16 5 17 2 18 4 19 3 20 6 21 1 22
REMARK H PARENT 17 12 4 23
ROOT
ATOM      1  O   UNL     1       8.862  -4.792  -5.750  1.00  0.00    -0.490 OA
ENDROOT
BRANCH   1   2
ATOM      2  C   UNL     1      10.195  -5.048  -5.842  1.00  0.00     0.155 A 
ATOM      3  C   UNL     1      12.442  -4.729  -5.048  1.00  0.00     0.063 A 
ATOM      4  C   UNL     1      12.911  -5.592  -6.041  1.00  0.00     0.019 A 
ATOM      5  C   UNL     1      11.075  -4.459  -4.953  1.00  0.00     0.065 A 
ATOM      6  C   UNL     1      12.025  -6.179  -6.919  1.00  0.00     0.044 A 
ATOM      7  C   UNL     1      10.669  -5.915  -6.821  1.00  0.00     0.165 A 
ATOM      8  F   UNL     1       9.806  -6.493  -7.684  1.00  0.00    -0.203 F 
BRANCH   3   9
ATOM      9  C   UNL     1      13.387  -4.099  -4.106  1.00  0.00     0.335 C 
ATOM     10  O   UNL     1      13.588  -4.601  -3.019  1.00  0.00    -0.246 OA
BRANCH   9  11
ATOM     11  O   UNL     1      14.034  -2.969  -4.455  1.00  0.00    -0.478 OA
ATOM     12  H   UNL     1      14.945  -3.062  -4.765  1.00  0.00     0.297 HD
ENDBRANCH   9  11
ENDBRANCH   3   9
ENDBRANCH   1   2
BRANCH   1  13
ATOM     13  C   UNL     1       8.317  -4.659  -4.435  1.00  0.00     0.230 C 
BRANCH  13  14
ATOM     14  C   UNL     1       6.869  -4.176  -4.530  1.00  0.00     0.046 C 
BRANCH  14  15
ATOM     15  C   UNL     1       6.747  -3.150  -5.659  1.00  0.00     0.043 C 
BRANCH  15  16
ATOM     16  C   UNL     1       7.000  -1.769  -5.112  1.00  0.00    -0.004 A 
ATOM     17  C   UNL     1       6.199  -1.092  -4.256  1.00  0.00     0.036 A 
ATOM     18  C   UNL     1       8.106  -0.961  -5.394  1.00  0.00     0.063 A 
ATOM     19  N   UNL     1       6.775   0.103  -4.010  1.00  0.00    -0.282 N 
ATOM     20  N   UNL     1       7.970   0.164  -4.740  1.00  0.00    -0.181 NA
ATOM     21  C   UNL     1       4.898  -1.586  -3.679  1.00  0.00     0.066 C 
ATOM     22  C   UNL     1       9.253  -1.320  -6.305  1.00  0.00     0.069 C 
ATOM     23  H   UNL     1       6.424   0.798  -3.432  1.00  0.00     0.190 HD
ENDBRANCH  15  16
ENDBRANCH  14  15
ENDBRANCH  13  14
ENDBRANCH   1  13
TORSDOF 7
ENDMDL
MODEL 6
REMARK VINA RESULT:    -4.805      3.776      7.170
REMARK INTER + INTRA:          -7.279
REMARK INTER:                  -6.421
REMARK INTRA:                  -0.857
REMARK UNBOUND:                -0.647
REMARK SMILES Cc1n[nH]c(C)c1CCCOc1cc(C(=O)O)ccc1F
REMARK SMILES IDX 11 1 12 2 14 3 18 4 13 5 19 6 20 7 21 8 15 9 16 10 17 11
REMARK SMILES IDX 10 13 9 14 8 15 7 16 5 17 2 18 4 19 3 20 6 21 1 22
REMARK H PARENT 17 12 4 23
ROOT
ATOM      1  O   UNL     1      10.063  -3.227  -4.581  1.00  0.00    -0.490 OA
ENDROOT
BRANCH   1   2
ATOM      2  C   UNL     1      10.927  -4.111  -5.148  1.00  0.00     0.155 A 
ATOM      3  C   UNL     1      11.388  -5.845  -6.748  1.00  0.00     0.063 A 
ATOM      4  C   UNL     1      12.710  -5.902  -6.299  1.00  0.00     0.019 A 
ATOM      5  C   UNL     1      10.497  -4.942  -6.165  1.00  0.00     0.065 A 
ATOM      6  C   UNL     1      13.132  -5.065  -5.288  1.00  0.00     0.044 A 
ATOM      7  C   UNL     1      12.247  -4.167  -4.714  1.00  0.00     0.165 A 
ATOM      8  F   UNL     1      12.666  -3.349  -3.724  1.00  0.00    -0.203 F 
BRANCH   3   9
ATOM      9  C   UNL     1      10.934  -6.740  -7.831  1.00  0.00     0.335 C 
ATOM     10  O   UNL     1      10.586  -7.874  -7.576  1.00  0.00    -0.246 OA
BRANCH   9  11
ATOM     11  O   UNL     1      10.901  -6.295  -9.102  1.00  0.00    -0.478 OA
ATOM     12  H   UNL     1      10.262  -5.597  -9.307  1.00  0.00     0.297 HD
ENDBRANCH   9  11
ENDBRANCH   3   9
ENDBRANCH   1   2
BRANCH   1  13
ATOM     13  C   UNL     1       9.183  -2.525  -5.462  1.00  0.00     0.230 C 
BRANCH  13  14
ATOM     14  C   UNL     1       8.195  -1.694  -4.640  1.00  0.00     0.046 C 
BRANCH  14  15
ATOM     15  C   UNL     1       7.760  -2.491  -3.409  1.00  0.00     0.043 C 
BRANCH  15  16
ATOM     16  C   UNL     1       6.572  -3.349  -3.759  1.00  0.00    -0.004 A 
ATOM     17  C   UNL     1       6.559  -4.700  -3.832  1.00  0.00     0.036 A 
ATOM     18  C   UNL     1       5.285  -2.890  -4.060  1.00  0.00     0.063 A 
ATOM     19  N   UNL     1       5.310  -5.082  -4.174  1.00  0.00    -0.282 N 
ATOM     20  N   UNL     1       4.530  -3.927  -4.316  1.00  0.00    -0.181 NA
ATOM     21  C   UNL     1       7.729  -5.614  -3.577  1.00  0.00     0.066 C 
ATOM     22  C   UNL     1       4.847  -1.447  -4.097  1.00  0.00     0.069 C 
ATOM     23  H   UNL     1       5.007  -5.994  -4.300  1.00  0.00     0.190 HD
ENDBRANCH  15  16
ENDBRANCH  14  15
ENDBRANCH  13  14
ENDBRANCH   1  13
TORSDOF 7
ENDMDL
MODEL 7
REMARK VINA RESULT:    -4.770      3.749      6.665
REMARK INTER + INTRA:          -7.229
REMARK INTER:                  -6.343
REMARK INTRA:                  -0.886
REMARK UNBOUND:                -0.647
REMARK SMILES Cc1n[nH]c(C)c1CCCOc1cc(C(=O)O)ccc1F
REMARK SMILES IDX 11 1 12 2 14 3 18 4 13 5 19 6 20 7 21 8 15 9 16 10 17 11
REMARK SMILES IDX 10 13 9 14 8 15 7 16 5 17 2 18 4 19 3 20 6 21 1 22
REMARK H PARENT 17 12 4 23
ROOT
ATOM      1  O   UNL     1       8.957  -4.755  -5.771  1.00  0.00    -0.490 OA
ENDROOT
BRANCH   1   2
ATOM      2  C   UNL     1      10.285  -5.036  -5.849  1.00  0.00     0.155 A 
ATOM      3  C   UNL     1      12.527  -4.775  -5.021  1.00  0.00     0.063 A 
ATOM      4  C   UNL     1      12.993  -5.632  -6.022  1.00  0.00     0.019 A 
ATOM      5  C   UNL     1      11.165  -4.480  -4.940  1.00  0.00     0.065 A 
ATOM      6  C   UNL     1      12.107  -6.187  -6.921  1.00  0.00     0.044 A 
ATOM      7  C   UNL     1      10.756  -5.897  -6.835  1.00  0.00     0.165 A 
ATOM      8  F   UNL     1       9.893  -6.444  -7.719  1.00  0.00    -0.203 F 
BRANCH   3   9
ATOM      9  C   UNL     1      13.473  -4.180  -4.057  1.00  0.00     0.335 C 
ATOM     10  O   UNL     1      13.088  -3.342  -3.267  1.00  0.00    -0.246 OA
BRANCH   9  11
ATOM     11  O   UNL     1      14.762  -4.571  -4.049  1.00  0.00    -0.478 OA
ATOM     12  H   UNL     1      15.301  -4.324  -4.814  1.00  0.00     0.297 HD
ENDBRANCH   9  11
ENDBRANCH   3   9
ENDBRANCH   1   2
BRANCH   1  13
ATOM     13  C   UNL     1       8.390  -4.666  -4.461  1.00  0.00     0.230 C 
BRANCH  13  14
ATOM     14  C   UNL     1       6.938  -4.197  -4.567  1.00  0.00     0.046 C 
BRANCH  14  15
ATOM     15  C   UNL     1       6.819  -3.149  -5.675  1.00  0.00     0.043 C 
BRANCH  15  16
ATOM     16  C   UNL     1       7.065  -1.778  -5.101  1.00  0.00    -0.004 A 
ATOM     17  C   UNL     1       8.135  -0.989  -5.353  1.00  0.00     0.036 A 
ATOM     18  C   UNL     1       6.224  -1.093  -4.217  1.00  0.00     0.063 A 
ATOM     19  N   UNL     1       7.979   0.152  -4.648  1.00  0.00    -0.282 N 
ATOM     20  N   UNL     1       6.774   0.061  -3.940  1.00  0.00    -0.181 NA
ATOM     21  C   UNL     1       9.291  -1.323  -6.258  1.00  0.00     0.066 C 
ATOM     22  C   UNL     1       4.915  -1.602  -3.669  1.00  0.00     0.069 C 
ATOM     23  H   UNL     1       8.594   0.902  -4.634  1.00  0.00     0.190 HD
ENDBRANCH  15  16
ENDBRANCH  14  15
ENDBRANCH  13  14
ENDBRANCH   1  13
TORSDOF 7
ENDMDL
MODEL 8
REMARK VINA RESULT:    -4.491      4.382      8.079
REMARK INTER + INTRA:          -6.844
REMARK INTER:                  -6.151
REMARK INTRA:                  -0.693
REMARK UNBOUND:                -0.647
REMARK SMILES Cc1n[nH]c(C)c1CCCOc1cc(C(=O)O)ccc1F
REMARK SMILES IDX 11 1 12 2 14 3 18 4 13 5 19 6 20 7 21 8 15 9 16 10 17 11
REMARK SMILES IDX 10 13 9 14 8 15 7 16 5 17 2 18 4 19 3 20 6 21 1 22
REMARK H PARENT 17 12 4 23
ROOT
ATOM      1  O   UNL     1      10.876  -6.145  -6.762  1.00  0.00    -0.490 OA
ENDROOT
BRANCH   1   2
ATOM      2  C   UNL     1      11.542  -6.858  -7.709  1.00  0.00     0.155 A 
ATOM      3  C   UNL     1      13.423  -8.202  -8.371  1.00  0.00     0.063 A 
ATOM      4  C   UNL     1      12.883  -8.319  -9.655  1.00  0.00     0.019 A 
ATOM      5  C   UNL     1      12.744  -7.466  -7.398  1.00  0.00     0.065 A 
ATOM      6  C   UNL     1      11.681  -7.713  -9.954  1.00  0.00     0.044 A 
ATOM      7  C   UNL     1      11.006  -6.988  -8.985  1.00  0.00     0.165 A 
ATOM      8  F   UNL     1       9.829  -6.398  -9.285  1.00  0.00    -0.203 F 
BRANCH   3   9
ATOM      9  C   UNL     1      14.710  -8.849  -8.047  1.00  0.00     0.335 C 
ATOM     10  O   UNL     1      15.495  -9.116  -8.933  1.00  0.00    -0.246 OA
BRANCH   9  11
ATOM     11  O   UNL     1      15.015  -9.136  -6.767  1.00  0.00    -0.478 OA
ATOM     12  H   UNL     1      15.276  -8.396  -6.200  1.00  0.00     0.297 HD
ENDBRANCH   9  11
ENDBRANCH   3   9
ENDBRANCH   1   2
BRANCH   1  13
ATOM     13  C   UNL     1      11.661  -5.313  -5.905  1.00  0.00     0.230 C 
BRANCH  13  14
ATOM     14  C   UNL     1      10.740  -4.373  -5.125  1.00  0.00     0.046 C 
BRANCH  14  15
ATOM     15  C   UNL     1       9.332  -4.427  -5.722  1.00  0.00     0.043 C 
BRANCH  15  16
ATOM     16  C   UNL     1       8.416  -3.527  -4.933  1.00  0.00    -0.004 A 
ATOM     17  C   UNL     1       7.647  -3.896  -3.883  1.00  0.00     0.036 A 
ATOM     18  C   UNL     1       8.216  -2.160  -5.153  1.00  0.00     0.063 A 
ATOM     19  N   UNL     1       6.978  -2.804  -3.458  1.00  0.00    -0.282 N 
ATOM     20  N   UNL     1       7.349  -1.727  -4.274  1.00  0.00    -0.181 NA
ATOM     21  C   UNL     1       7.554  -5.280  -3.294  1.00  0.00     0.066 C 
ATOM     22  C   UNL     1       8.875  -1.331  -6.226  1.00  0.00     0.069 C 
ATOM     23  H   UNL     1       6.352  -2.770  -2.719  1.00  0.00     0.190 HD
ENDBRANCH  15  16
ENDBRANCH  14  15
ENDBRANCH  13  14
ENDBRANCH   1  13
TORSDOF 7
ENDMDL
MODEL 9
REMARK VINA RESULT:    -4.425      4.212      7.032
REMARK INTER + INTRA:          -6.754
REMARK INTER:                  -6.218
REMARK INTRA:                  -0.536
REMARK UNBOUND:                -0.647
REMARK SMILES Cc1n[nH]c(C)c1CCCOc1cc(C(=O)O)ccc1F
REMARK SMILES IDX 11 1 12 2 14 3 18 4 13 5 19 6 20 7 21 8 15 9 16 10 17 11
REMARK SMILES IDX 10 13 9 14 8 15 7 16 5 17 2 18 4 19 3 20 6 21 1 22
REMARK H PARENT 17 12 4 23
ROOT
ATOM      1  O   UNL     1      10.065  -3.195  -6.440  1.00  0.00    -0.490 OA
ENDROOT
BRANCH   1   2
ATOM      2  C   UNL     1      11.137  -3.932  -6.045  1.00  0.00     0.155 A 
ATOM      3  C   UNL     1      12.992  -4.289  -4.557  1.00  0.00     0.063 A 
ATOM      4  C   UNL     1      13.318  -5.458  -5.250  1.00  0.00     0.019 A 
ATOM      5  C   UNL     1      11.895  -3.527  -4.962  1.00  0.00     0.065 A 
ATOM      6  C   UNL     1      12.554  -5.858  -6.326  1.00  0.00     0.044 A 
ATOM      7  C   UNL     1      11.463  -5.103  -6.722  1.00  0.00     0.165 A 
ATOM      8  F   UNL     1      10.717  -5.500  -7.777  1.00  0.00    -0.203 F 
BRANCH   3   9
ATOM      9  C   UNL     1      13.808  -3.859  -3.405  1.00  0.00     0.335 C 
ATOM     10  O   UNL     1      13.545  -2.824  -2.827  1.00  0.00    -0.246 OA
BRANCH   9  11
ATOM     11  O   UNL     1      14.842  -4.618  -2.991  1.00  0.00    -0.478 OA
ATOM     12  H   UNL     1      15.132  -5.325  -3.584  1.00  0.00     0.297 HD
ENDBRANCH   9  11
ENDBRANCH   3   9
ENDBRANCH   1   2
BRANCH   1  13
ATOM     13  C   UNL     1       9.204  -2.701  -5.411  1.00  0.00     0.230 C 
BRANCH  13  14
ATOM     14  C   UNL     1       8.228  -3.801  -4.991  1.00  0.00     0.046 C 
BRANCH  14  15
ATOM     15  C   UNL     1       7.566  -3.418  -3.666  1.00  0.00     0.043 C 
BRANCH  15  16
ATOM     16  C   UNL     1       6.277  -2.689  -3.939  1.00  0.00    -0.004 A 
ATOM     17  C   UNL     1       6.093  -1.349  -3.886  1.00  0.00     0.036 A 
ATOM     18  C   UNL     1       5.059  -3.276  -4.299  1.00  0.00     0.063 A 
ATOM     19  N   UNL     1       4.803  -1.098  -4.195  1.00  0.00    -0.282 N 
ATOM     20  N   UNL     1       4.174  -2.324  -4.446  1.00  0.00    -0.181 NA
ATOM     21  C   UNL     1       7.141  -0.322  -3.544  1.00  0.00     0.066 C 
ATOM     22  C   UNL     1       4.807  -4.752  -4.475  1.00  0.00     0.069 C 
ATOM     23  H   UNL     1       4.386  -0.223  -4.235  1.00  0.00     0.190 HD
ENDBRANCH  15  16
ENDBRANCH  14  15
ENDBRANCH  13  14
ENDBRANCH   1  13
TORSDOF 7
ENDMDL
