MODEL 1
REMARK VINA RESULT:    -5.388      0.000      0.000
REMARK INTER + INTRA:          -8.096
REMARK INTER:                  -7.435
REMARK INTRA:                  -0.661
REMARK UNBOUND:                -0.661
REMARK SMILES Cc1n[nH]c(C)c1CCCOc1cc(C(=O)O)ccc1F
REMARK SMILES IDX 11 1 12 2 14 3 18 4 13 5 19 6 20 7 21 8 15 9 16 10 17 11
REMARK SMILES IDX 10 13 9 14 8 15 7 16 5 17 2 18 4 19 3 20 6 21 1 22
REMARK H PARENT 17 12 4 23
ROOT
ATOM      1  O   UNL     1       6.459  -2.600  -3.842  1.00  0.00    -0.490 OA
ENDROOT
BRANCH   1   2
ATOM      2  C   UNL     1       5.299  -2.288  -3.206  1.00  0.00     0.155 A 
ATOM      3  C   UNL     1       3.416  -0.825  -2.897  1.00  0.00     0.063 A 
ATOM      4  C   UNL     1       2.925  -1.673  -1.901  1.00  0.00     0.019 A 
ATOM      5  C   UNL     1       4.610  -1.139  -3.549  1.00  0.00     0.065 A 
ATOM      6  C   UNL     1       3.616  -2.819  -1.569  1.00  0.00     0.044 A 
ATOM      7  C   UNL     1       4.798  -3.132  -2.221  1.00  0.00     0.165 A 
ATOM      8  F   UNL     1       5.470  -4.257  -1.892  1.00  0.00    -0.203 F 
BRANCH   3   9
ATOM      9  C   UNL     1       2.678   0.403  -3.254  1.00  0.00     0.335 C 
ATOM     10  O   UNL     1       2.317   1.170  -2.385  1.00  0.00    -0.246 OA
BRANCH   9  11
ATOM     11  O   UNL     1       2.410   0.675  -4.546  1.00  0.00    -0.478 OA
ATOM     12  H   UNL     1       2.624   1.565  -4.861  1.00  0.00     0.297 HD
ENDBRANCH   9  11
ENDBRANCH   3   9
ENDBRANCH   1   2
BRANCH   1  13
ATOM     13  C   UNL     1       7.664  -2.055  -3.298  1.00  0.00     0.230 C 
BRANCH  13  14
ATOM     14  C   UNL     1       8.680  -1.844  -4.422  1.00  0.00     0.046 C 
BRANCH  14  15
ATOM     15  C   UNL     1       7.942  -1.674  -5.752  1.00  0.00     0.043 C 
BRANCH  15  16
ATOM     16  C   UNL     1       8.941  -1.454  -6.857  1.00  0.00    -0.004 A 
ATOM     17  C   UNL     1       9.425  -0.258  -7.267  1.00  0.00     0.036 A 
ATOM     18  C   UNL     1       9.539  -2.449  -7.638  1.00  0.00     0.063 A 
ATOM     19  N   UNL     1      10.292  -0.488  -8.275  1.00  0.00    -0.282 N 
ATOM     20  N   UNL     1      10.343  -1.872  -8.493  1.00  0.00    -0.181 NA
ATOM     21  C   UNL     1       9.061   1.089  -6.699  1.00  0.00     0.066 C 
ATOM     22  C   UNL     1       9.288  -3.932  -7.523  1.00  0.00     0.069 C 
ATOM     23  H   UNL     1      10.791   0.184  -8.764  1.00  0.00     0.190 HD
ENDBRANCH  15  16
ENDBRANCH  14  15
ENDBRANCH  13  14
ENDBRANCH   1  13
TORSDOF 7
ENDMDL
MODEL 2
REMARK VINA RESULT:    -5.256      2.047      3.664
REMARK INTER + INTRA:          -7.914
REMARK INTER:                  -7.240
REMARK INTRA:                  -0.674
REMARK UNBOUND:                -0.661
REMARK SMILES Cc1n[nH]c(C)c1CCCOc1cc(C(=O)O)ccc1F
REMARK SMILES IDX 11 1 12 2 14 3 18 4 13 5 19 6 20 7 21 8 15 9 16 10 17 11
REMARK SMILES IDX 10 13 9 14 8 15 7 16 5 17 2 18 4 19 3 20 6 21 1 22
REMARK H PARENT 17 12 4 23
ROOT
ATOM      1  O   UNL     1       4.930  -0.300  -4.994  1.00  0.00    -0.490 OA
ENDROOT
BRANCH   1   2
ATOM      2  C   UNL     1       4.357  -0.889  -3.911  1.00  0.00     0.155 A 
ATOM      3  C   UNL     1       4.271  -2.681  -2.311  1.00  0.00     0.063 A 
ATOM      4  C   UNL     1       3.178  -2.070  -1.691  1.00  0.00     0.019 A 
ATOM      5  C   UNL     1       4.859  -2.082  -3.427  1.00  0.00     0.065 A 
ATOM      6  C   UNL     1       2.688  -0.877  -2.178  1.00  0.00     0.044 A 
ATOM      7  C   UNL     1       3.276  -0.282  -3.282  1.00  0.00     0.165 A 
ATOM      8  F   UNL     1       2.791   0.888  -3.754  1.00  0.00    -0.203 F 
BRANCH   3   9
ATOM      9  C   UNL     1       4.798  -3.959  -1.792  1.00  0.00     0.335 C 
ATOM     10  O   UNL     1       4.034  -4.815  -1.397  1.00  0.00    -0.246 OA
BRANCH   9  11
ATOM     11  O   UNL     1       6.128  -4.176  -1.763  1.00  0.00    -0.478 OA
ATOM     12  H   UNL     1       6.540  -4.487  -2.581  1.00  0.00     0.297 HD
ENDBRANCH   9  11
ENDBRANCH   3   9
ENDBRANCH   1   2
BRANCH   1  13
ATOM     13  C   UNL     1       4.968  -1.062  -6.203  1.00  0.00     0.230 C 
BRANCH  13  14
ATOM     14  C   UNL     1       6.227  -0.701  -6.994  1.00  0.00     0.046 C 
BRANCH  14  15
ATOM     15  C   UNL     1       7.460  -0.910  -6.112  1.00  0.00     0.043 C 
BRANCH  15  16
ATOM     16  C   UNL     1       8.703  -0.835  -6.960  1.00  0.00    -0.004 A 
ATOM     17  C   UNL     1       9.345  -1.883  -7.528  1.00  0.00     0.036 A 
ATOM     18  C   UNL     1       9.396   0.331  -7.305  1.00  0.00     0.063 A 
ATOM     19  N   UNL     1      10.408  -1.398  -8.202  1.00  0.00    -0.282 N 
ATOM     20  N   UNL     1      10.421  -0.006  -8.043  1.00  0.00    -0.181 NA
ATOM     21  C   UNL     1       8.942  -3.331  -7.426  1.00  0.00     0.066 C 
ATOM     22  C   UNL     1       9.030   1.732  -6.887  1.00  0.00     0.069 C 
ATOM     23  H   UNL     1      11.051  -1.921  -8.707  1.00  0.00     0.190 HD
ENDBRANCH  15  16
ENDBRANCH  14  15
ENDBRANCH  13  14
ENDBRANCH   1  13
TORSDOF 7
ENDMDL
MODEL 3
REMARK VINA RESULT:    -5.197      0.222      1.782
REMARK INTER + INTRA:          -7.833
REMARK INTER:                  -7.190
REMARK INTRA:                  -0.643
REMARK UNBOUND:                -0.661
REMARK SMILES Cc1n[nH]c(C)c1CCCOc1cc(C(=O)O)ccc1F
REMARK SMILES IDX 11 1 12 2 14 3 18 4 13 5 19 6 20 7 21 8 15 9 16 10 17 11
REMARK SMILES IDX 10 13 9 14 8 15 7 16 5 17 2 18 4 19 3 20 6 21 1 22
REMARK H PARENT 17 12 4 23
ROOT
ATOM      1  O   UNL     1       6.549  -2.737  -3.515  1.00  0.00    -0.490 OA
ENDROOT
BRANCH   1   2
ATOM      2  C   UNL     1       5.349  -2.384  -2.983  1.00  0.00     0.155 A 
ATOM      3  C   UNL     1       3.481  -0.875  -2.864  1.00  0.00     0.063 A 
ATOM      4  C   UNL     1       2.892  -1.687  -1.891  1.00  0.00     0.019 A 
ATOM      5  C   UNL     1       4.716  -1.231  -3.409  1.00  0.00     0.065 A 
ATOM      6  C   UNL     1       3.528  -2.838  -1.477  1.00  0.00     0.044 A 
ATOM      7  C   UNL     1       4.750  -3.192  -2.023  1.00  0.00     0.165 A 
ATOM      8  F   UNL     1       5.368  -4.322  -1.613  1.00  0.00    -0.203 F 
BRANCH   3   9
ATOM      9  C   UNL     1       2.803   0.358  -3.310  1.00  0.00     0.335 C 
ATOM     10  O   UNL     1       2.325   1.118  -2.493  1.00  0.00    -0.246 OA
BRANCH   9  11
ATOM     11  O   UNL     1       2.720   0.643  -4.624  1.00  0.00    -0.478 OA
ATOM     12  H   UNL     1       2.142   0.082  -5.160  1.00  0.00     0.297 HD
ENDBRANCH   9  11
ENDBRANCH   3   9
ENDBRANCH   1   2
BRANCH   1  13
ATOM     13  C   UNL     1       7.688  -1.972  -3.112  1.00  0.00     0.230 C 
BRANCH  13  14
ATOM     14  C   UNL     1       8.682  -1.889  -4.271  1.00  0.00     0.046 C 
BRANCH  14  15
ATOM     15  C   UNL     1       7.934  -1.550  -5.562  1.00  0.00     0.043 C 
BRANCH  15  16
ATOM     16  C   UNL     1       8.925  -1.342  -6.678  1.00  0.00    -0.004 A 
ATOM     17  C   UNL     1       9.474  -2.311  -7.446  1.00  0.00     0.036 A 
ATOM     18  C   UNL     1       9.434  -0.112  -7.107  1.00  0.00     0.063 A 
ATOM     19  N   UNL     1      10.307  -1.716  -8.326  1.00  0.00    -0.282 N 
ATOM     20  N   UNL     1      10.268  -0.336  -8.090  1.00  0.00    -0.181 NA
ATOM     21  C   UNL     1       9.204  -3.789  -7.339  1.00  0.00     0.066 C 
ATOM     22  C   UNL     1       9.092   1.237  -6.529  1.00  0.00     0.069 C 
ATOM     23  H   UNL     1      10.839  -2.165  -9.001  1.00  0.00     0.190 HD
ENDBRANCH  15  16
ENDBRANCH  14  15
ENDBRANCH  13  14
ENDBRANCH   1  13
TORSDOF 7
ENDMDL
MODEL 4
REMARK VINA RESULT:    -5.022      6.190      9.698
REMARK INTER + INTRA:          -7.591
REMARK INTER:                  -7.380
REMARK INTRA:                  -0.211
REMARK UNBOUND:                -0.661
REMARK SMILES Cc1n[nH]c(C)c1CCCOc1cc(C(=O)O)ccc1F
REMARK SMILES IDX 11 1 12 2 14 3 18 4 13 5 19 6 20 7 21 8 15 9 16 10 17 11
REMARK SMILES IDX 10 13 9 14 8 15 7 16 5 17 2 18 4 19 3 20 6 21 1 22
REMARK H PARENT 17 12 4 23
ROOT
ATOM      1  O   UNL     1       1.525  -1.356  -0.792  1.00  0.00    -0.490 OA
ENDROOT
BRANCH   1   2
ATOM      2  C   UNL     1       2.637  -1.538  -1.554  1.00  0.00     0.155 A 
ATOM      3  C   UNL     1       4.523  -2.878  -2.209  1.00  0.00     0.063 A 
ATOM      4  C   UNL     1       4.898  -1.894  -3.127  1.00  0.00     0.019 A 
ATOM      5  C   UNL     1       3.385  -2.693  -1.421  1.00  0.00     0.065 A 
ATOM      6  C   UNL     1       4.142  -0.748  -3.257  1.00  0.00     0.044 A 
ATOM      7  C   UNL     1       3.011  -0.569  -2.478  1.00  0.00     0.165 A 
ATOM      8  F   UNL     1       2.275   0.556  -2.610  1.00  0.00    -0.203 F 
BRANCH   3   9
ATOM      9  C   UNL     1       5.330  -4.106  -2.067  1.00  0.00     0.335 C 
ATOM     10  O   UNL     1       5.607  -4.767  -3.047  1.00  0.00    -0.246 OA
BRANCH   9  11
ATOM     11  O   UNL     1       5.765  -4.489  -0.851  1.00  0.00    -0.478 OA
ATOM     12  H   UNL     1       6.588  -4.996  -0.819  1.00  0.00     0.297 HD
ENDBRANCH   9  11
ENDBRANCH   3   9
ENDBRANCH   1   2
BRANCH   1  13
ATOM     13  C   UNL     1       1.613  -1.738   0.584  1.00  0.00     0.230 C 
BRANCH  13  14
ATOM     14  C   UNL     1       0.856  -0.723   1.442  1.00  0.00     0.046 C 
BRANCH  14  15
ATOM     15  C   UNL     1       0.958  -1.124   2.915  1.00  0.00     0.043 C 
BRANCH  15  16
ATOM     16  C   UNL     1       1.563   0.008   3.704  1.00  0.00    -0.004 A 
ATOM     17  C   UNL     1       2.698  -0.052   4.440  1.00  0.00     0.036 A 
ATOM     18  C   UNL     1       1.056   1.308   3.801  1.00  0.00     0.063 A 
ATOM     19  N   UNL     1       2.897   1.165   4.988  1.00  0.00    -0.282 N 
ATOM     20  N   UNL     1       1.851   2.001   4.575  1.00  0.00    -0.181 NA
ATOM     21  C   UNL     1       3.580  -1.260   4.615  1.00  0.00     0.066 C 
ATOM     22  C   UNL     1      -0.197   1.819   3.137  1.00  0.00     0.069 C 
ATOM     23  H   UNL     1       3.634   1.417   5.565  1.00  0.00     0.190 HD
ENDBRANCH  15  16
ENDBRANCH  14  15
ENDBRANCH  13  14
ENDBRANCH   1  13
TORSDOF 7
ENDMDL
MODEL 5
REMARK VINA RESULT:    -4.234      6.035      9.132
REMARK INTER + INTRA:          -6.504
REMARK INTER:                  -6.555
REMARK INTRA:                   0.051
REMARK UNBOUND:                -0.661
REMARK SMILES Cc1n[nH]c(C)c1CCCOc1cc(C(=O)O)ccc1F
REMARK SMILES IDX 11 1 12 2 14 3 18 4 13 5 19 6 20 7 21 8 15 9 16 10 17 11
REMARK SMILES IDX 10 13 9 14 8 15 7 16 5 17 2 18 4 19 3 20 6 21 1 22
REMARK H PARENT 17 12 4 23
ROOT
ATOM      1  O   UNL     1       2.206  -2.634  -0.383  1.00  0.00    -0.490 OA
ENDROOT
BRANCH   1   2
ATOM      2  C   UNL     1       2.994  -2.245  -1.420  1.00  0.00     0.155 A 
ATOM      3  C   UNL     1       3.464  -0.740  -3.236  1.00  0.00     0.063 A 
ATOM      4  C   UNL     1       4.624  -1.461  -3.528  1.00  0.00     0.019 A 
ATOM      5  C   UNL     1       2.649  -1.139  -2.174  1.00  0.00     0.065 A 
ATOM      6  C   UNL     1       4.964  -2.559  -2.767  1.00  0.00     0.044 A 
ATOM      7  C   UNL     1       4.157  -2.950  -1.712  1.00  0.00     0.165 A 
ATOM      8  F   UNL     1       4.495  -4.027  -0.969  1.00  0.00    -0.203 F 
BRANCH   3   9
ATOM      9  C   UNL     1       3.098   0.437  -4.049  1.00  0.00     0.335 C 
ATOM     10  O   UNL     1       3.214   0.400  -5.256  1.00  0.00    -0.246 OA
BRANCH   9  11
ATOM     11  O   UNL     1       2.628   1.549  -3.450  1.00  0.00    -0.478 OA
ATOM     12  H   UNL     1       1.908   2.016  -3.896  1.00  0.00     0.297 HD
ENDBRANCH   9  11
ENDBRANCH   3   9
ENDBRANCH   1   2
BRANCH   1  13
ATOM     13  C   UNL     1       1.467  -1.611   0.290  1.00  0.00     0.230 C 
BRANCH  13  14
ATOM     14  C   UNL     1       1.883  -1.567   1.761  1.00  0.00     0.046 C 
BRANCH  14  15
ATOM     15  C   UNL     1       0.788  -0.881   2.580  1.00  0.00     0.043 C 
BRANCH  15  16
ATOM     16  C   UNL     1       1.416   0.076   3.560  1.00  0.00    -0.004 A 
ATOM     17  C   UNL     1       1.034   1.355   3.780  1.00  0.00     0.036 A 
ATOM     18  C   UNL     1       2.494  -0.203   4.406  1.00  0.00     0.063 A 
ATOM     19  N   UNL     1       1.846   1.870   4.728  1.00  0.00    -0.282 N 
ATOM     20  N   UNL     1       2.757   0.873   5.102  1.00  0.00    -0.181 NA
ATOM     21  C   UNL     1      -0.095   2.076   3.092  1.00  0.00     0.066 C 
ATOM     22  C   UNL     1       3.234  -1.513   4.493  1.00  0.00     0.069 C 
ATOM     23  H   UNL     1       1.806   2.770   5.086  1.00  0.00     0.190 HD
ENDBRANCH  15  16
ENDBRANCH  14  15
ENDBRANCH  13  14
ENDBRANCH   1  13
TORSDOF 7
ENDMDL
MODEL 6
REMARK VINA RESULT:    -4.234      4.980      8.239
REMARK INTER + INTRA:          -6.504
REMARK INTER:                  -5.834
REMARK INTRA:                  -0.669
REMARK UNBOUND:                -0.661
REMARK SMILES Cc1n[nH]c(C)c1CCCOc1cc(C(=O)O)ccc1F
REMARK SMILES IDX 11 1 12 2 14 3 18 4 13 5 19 6 20 7 21 8 15 9 16 10 17 11
REMARK SMILES IDX 10 13 9 14 8 15 7 16 5 17 2 18 4 19 3 20 6 21 1 22
REMARK H PARENT 17 12 4 23
ROOT
ATOM      1  O   UNL     1       8.767   0.747  -7.084  1.00  0.00    -0.490 OA
ENDROOT
BRANCH   1   2
ATOM      2  C   UNL     1       9.790   1.536  -7.506  1.00  0.00     0.155 A 
ATOM      3  C   UNL     1      11.386   2.160  -9.193  1.00  0.00     0.063 A 
ATOM      4  C   UNL     1      11.875   3.165  -8.354  1.00  0.00     0.019 A 
ATOM      5  C   UNL     1      10.338   1.344  -8.761  1.00  0.00     0.065 A 
ATOM      6  C   UNL     1      11.318   3.352  -7.106  1.00  0.00     0.044 A 
ATOM      7  C   UNL     1      10.275   2.545  -6.681  1.00  0.00     0.165 A 
ATOM      8  F   UNL     1       9.734   2.733  -5.458  1.00  0.00    -0.203 F 
BRANCH   3   9
ATOM      9  C   UNL     1      11.980   1.957 -10.529  1.00  0.00     0.335 C 
ATOM     10  O   UNL     1      12.767   2.767 -10.973  1.00  0.00    -0.246 OA
BRANCH   9  11
ATOM     11  O   UNL     1      11.652   0.869 -11.253  1.00  0.00    -0.478 OA
ATOM     12  H   UNL     1      11.518   0.043 -10.768  1.00  0.00     0.297 HD
ENDBRANCH   9  11
ENDBRANCH   3   9
ENDBRANCH   1   2
BRANCH   1  13
ATOM     13  C   UNL     1       9.038  -0.650  -6.948  1.00  0.00     0.230 C 
BRANCH  13  14
ATOM     14  C   UNL     1       7.787  -1.364  -6.433  1.00  0.00     0.046 C 
BRANCH  14  15
ATOM     15  C   UNL     1       7.171  -0.554  -5.290  1.00  0.00     0.043 C 
BRANCH  15  16
ATOM     16  C   UNL     1       6.181  -1.409  -4.543  1.00  0.00    -0.004 A 
ATOM     17  C   UNL     1       6.422  -2.091  -3.399  1.00  0.00     0.036 A 
ATOM     18  C   UNL     1       4.849  -1.634  -4.905  1.00  0.00     0.063 A 
ATOM     19  N   UNL     1       5.285  -2.730  -3.053  1.00  0.00    -0.282 N 
ATOM     20  N   UNL     1       4.313  -2.431  -4.017  1.00  0.00    -0.181 NA
ATOM     21  C   UNL     1       7.727  -2.130  -2.647  1.00  0.00     0.066 C 
ATOM     22  C   UNL     1       4.154  -1.067  -6.116  1.00  0.00     0.069 C 
ATOM     23  H   UNL     1       5.163  -3.297  -2.276  1.00  0.00     0.190 HD
ENDBRANCH  15  16
ENDBRANCH  14  15
ENDBRANCH  13  14
ENDBRANCH   1  13
TORSDOF 7
ENDMDL
MODEL 7
REMARK VINA RESULT:    -4.221      4.978      8.213
REMARK INTER + INTRA:          -6.486
REMARK INTER:                  -5.811
REMARK INTRA:                  -0.675
REMARK UNBOUND:                -0.661
REMARK SMILES Cc1n[nH]c(C)c1CCCOc1cc(C(=O)O)ccc1F
REMARK SMILES IDX 11 1 12 2 14 3 18 4 13 5 19 6 20 7 21 8 15 9 16 10 17 11
REMARK SMILES IDX 10 13 9 14 8 15 7 16 5 17 2 18 4 19 3 20 6 21 1 22
REMARK H PARENT 17 12 4 23
ROOT
ATOM      1  O   UNL     1       8.760   0.727  -7.102  1.00  0.00    -0.490 OA
ENDROOT
BRANCH   1   2
ATOM      2  C   UNL     1       9.782   1.520  -7.520  1.00  0.00     0.155 A 
ATOM      3  C   UNL     1      11.381   2.150  -9.202  1.00  0.00     0.063 A 
ATOM      4  C   UNL     1      11.863   3.156  -8.361  1.00  0.00     0.019 A 
ATOM      5  C   UNL     1      10.334   1.331  -8.774  1.00  0.00     0.065 A 
ATOM      6  C   UNL     1      11.302   3.341  -7.115  1.00  0.00     0.044 A 
ATOM      7  C   UNL     1      10.261   2.530  -6.694  1.00  0.00     0.165 A 
ATOM      8  F   UNL     1       9.715   2.716  -5.472  1.00  0.00    -0.203 F 
BRANCH   3   9
ATOM      9  C   UNL     1      11.979   1.950 -10.537  1.00  0.00     0.335 C 
ATOM     10  O   UNL     1      12.750   2.773 -10.986  1.00  0.00    -0.246 OA
BRANCH   9  11
ATOM     11  O   UNL     1      11.674   0.851 -11.253  1.00  0.00    -0.478 OA
ATOM     12  H   UNL     1      11.420   0.059 -10.758  1.00  0.00     0.297 HD
ENDBRANCH   9  11
ENDBRANCH   3   9
ENDBRANCH   1   2
BRANCH   1  13
ATOM     13  C   UNL     1       9.042  -0.665  -6.940  1.00  0.00     0.230 C 
BRANCH  13  14
ATOM     14  C   UNL     1       7.793  -1.382  -6.424  1.00  0.00     0.046 C 
BRANCH  14  15
ATOM     15  C   UNL     1       7.143  -0.543  -5.321  1.00  0.00     0.043 C 
BRANCH  15  16
ATOM     16  C   UNL     1       6.161  -1.392  -4.557  1.00  0.00    -0.004 A 
ATOM     17  C   UNL     1       4.869  -1.615  -4.895  1.00  0.00     0.036 A 
ATOM     18  C   UNL     1       6.424  -2.094  -3.376  1.00  0.00     0.063 A 
ATOM     19  N   UNL     1       4.332  -2.424  -3.957  1.00  0.00    -0.282 N 
ATOM     20  N   UNL     1       5.327  -2.708  -3.012  1.00  0.00    -0.181 NA
ATOM     21  C   UNL     1       4.159  -1.059  -6.101  1.00  0.00     0.066 C 
ATOM     22  C   UNL     1       7.740  -2.129  -2.643  1.00  0.00     0.069 C 
ATOM     23  H   UNL     1       3.420  -2.750  -3.940  1.00  0.00     0.190 HD
ENDBRANCH  15  16
ENDBRANCH  14  15
ENDBRANCH  13  14
ENDBRANCH   1  13
TORSDOF 7
ENDMDL
MODEL 8
REMARK VINA RESULT:    -4.170      4.561      8.332
REMARK INTER + INTRA:          -6.415
REMARK INTER:                  -5.722
REMARK INTRA:                  -0.693
REMARK UNBOUND:                -0.661
REMARK SMILES Cc1n[nH]c(C)c1CCCOc1cc(C(=O)O)ccc1F
REMARK SMILES IDX 11 1 12 2 14 3 18 4 13 5 19 6 20 7 21 8 15 9 16 10 17 11
REMARK SMILES IDX 10 13 9 14 8 15 7 16 5 17 2 18 4 19 3 20 6 21 1 22
REMARK H PARENT 17 12 4 23
ROOT
ATOM      1  O   UNL     1       9.177  -2.890  -7.133  1.00  0.00    -0.490 OA
ENDROOT
BRANCH   1   2
ATOM      2  C   UNL     1       9.866  -3.488  -8.141  1.00  0.00     0.155 A 
ATOM      3  C   UNL     1      11.844  -3.672  -9.496  1.00  0.00     0.063 A 
ATOM      4  C   UNL     1      11.261  -4.730 -10.198  1.00  0.00     0.019 A 
ATOM      5  C   UNL     1      11.138  -3.052  -8.463  1.00  0.00     0.065 A 
ATOM      6  C   UNL     1       9.994  -5.162  -9.865  1.00  0.00     0.044 A 
ATOM      7  C   UNL     1       9.297  -4.549  -8.837  1.00  0.00     0.165 A 
ATOM      8  F   UNL     1       8.057  -4.978  -8.516  1.00  0.00    -0.203 F 
BRANCH   3   9
ATOM      9  C   UNL     1      13.200  -3.207  -9.849  1.00  0.00     0.335 C 
ATOM     10  O   UNL     1      13.887  -3.858 -10.609  1.00  0.00    -0.246 OA
BRANCH   9  11
ATOM     11  O   UNL     1      13.673  -2.056  -9.332  1.00  0.00    -0.478 OA
ATOM     12  H   UNL     1      14.319  -2.128  -8.616  1.00  0.00     0.297 HD
ENDBRANCH   9  11
ENDBRANCH   3   9
ENDBRANCH   1   2
BRANCH   1  13
ATOM     13  C   UNL     1       9.126  -1.462  -7.141  1.00  0.00     0.230 C 
BRANCH  13  14
ATOM     14  C   UNL     1       8.207  -0.979  -6.017  1.00  0.00     0.046 C 
BRANCH  14  15
ATOM     15  C   UNL     1       7.266  -2.113  -5.605  1.00  0.00     0.043 C 
BRANCH  15  16
ATOM     16  C   UNL     1       6.254  -1.593  -4.618  1.00  0.00    -0.004 A 
ATOM     17  C   UNL     1       6.397  -1.561  -3.272  1.00  0.00     0.036 A 
ATOM     18  C   UNL     1       5.002  -1.053  -4.930  1.00  0.00     0.063 A 
ATOM     19  N   UNL     1       5.273  -1.025  -2.752  1.00  0.00    -0.282 N 
ATOM     20  N   UNL     1       4.410  -0.718  -3.812  1.00  0.00    -0.181 NA
ATOM     21  C   UNL     1       7.596  -2.037  -2.495  1.00  0.00     0.066 C 
ATOM     22  C   UNL     1       4.428  -0.895  -6.315  1.00  0.00     0.069 C 
ATOM     23  H   UNL     1       5.094  -0.879  -1.810  1.00  0.00     0.190 HD
ENDBRANCH  15  16
ENDBRANCH  14  15
ENDBRANCH  13  14
ENDBRANCH   1  13
TORSDOF 7
ENDMDL
MODEL 9
REMARK VINA RESULT:    -4.105      4.220      7.787
REMARK INTER + INTRA:          -6.326
REMARK INTER:                  -5.779
REMARK INTRA:                  -0.547
REMARK UNBOUND:                -0.661
REMARK SMILES Cc1n[nH]c(C)c1CCCOc1cc(C(=O)O)ccc1F
REMARK SMILES IDX 11 1 12 2 14 3 18 4 13 5 19 6 20 7 21 8 15 9 16 10 17 11
REMARK SMILES IDX 10 13 9 14 8 15 7 16 5 17 2 18 4 19 3 20 6 21 1 22
REMARK H PARENT 17 12 4 23
ROOT
ATOM      1  O   UNL     1       6.713  -0.699  -5.477  1.00  0.00    -0.490 OA
ENDROOT
BRANCH   1   2
ATOM      2  C   UNL     1       7.796  -0.936  -6.264  1.00  0.00     0.155 A 
ATOM      3  C   UNL     1       9.209  -2.465  -7.466  1.00  0.00     0.063 A 
ATOM      4  C   UNL     1      10.008  -1.396  -7.880  1.00  0.00     0.019 A 
ATOM      5  C   UNL     1       8.099  -2.227  -6.654  1.00  0.00     0.065 A 
ATOM      6  C   UNL     1       9.695  -0.111  -7.490  1.00  0.00     0.044 A 
ATOM      7  C   UNL     1       8.590   0.124  -6.689  1.00  0.00     0.165 A 
ATOM      8  F   UNL     1       8.289   1.386  -6.311  1.00  0.00    -0.203 F 
BRANCH   3   9
ATOM      9  C   UNL     1       9.542  -3.842  -7.881  1.00  0.00     0.335 C 
ATOM     10  O   UNL     1      10.637  -4.090  -8.342  1.00  0.00    -0.246 OA
BRANCH   9  11
ATOM     11  O   UNL     1       8.631  -4.825  -7.742  1.00  0.00    -0.478 OA
ATOM     12  H   UNL     1       7.856  -4.791  -8.320  1.00  0.00     0.297 HD
ENDBRANCH   9  11
ENDBRANCH   3   9
ENDBRANCH   1   2
BRANCH   1  13
ATOM     13  C   UNL     1       5.432  -1.028  -6.021  1.00  0.00     0.230 C 
BRANCH  13  14
ATOM     14  C   UNL     1       4.663  -1.896  -5.023  1.00  0.00     0.046 C 
BRANCH  14  15
ATOM     15  C   UNL     1       5.178  -1.626  -3.608  1.00  0.00     0.043 C 
BRANCH  15  16
ATOM     16  C   UNL     1       4.052  -1.797  -2.622  1.00  0.00    -0.004 A 
ATOM     17  C   UNL     1       3.916  -2.812  -1.737  1.00  0.00     0.036 A 
ATOM     18  C   UNL     1       2.966  -0.931  -2.454  1.00  0.00     0.063 A 
ATOM     19  N   UNL     1       2.780  -2.600  -1.039  1.00  0.00    -0.282 N 
ATOM     20  N   UNL     1       2.200  -1.415  -1.510  1.00  0.00    -0.181 NA
ATOM     21  C   UNL     1       4.862  -3.971  -1.563  1.00  0.00     0.066 C 
ATOM     22  C   UNL     1       2.716   0.334  -3.233  1.00  0.00     0.069 C 
ATOM     23  H   UNL     1       2.428  -3.168  -0.336  1.00  0.00     0.190 HD
ENDBRANCH  15  16
ENDBRANCH  14  15
ENDBRANCH  13  14
ENDBRANCH   1  13
TORSDOF 7
ENDMDL
