MODEL 1
REMARK VINA RESULT:    -3.798      0.000      0.000
REMARK INTER + INTRA:          -4.635
REMARK INTER:                  -4.353
REMARK INTRA:                  -0.282
REMARK UNBOUND:                -0.282
REMARK SMILES O=C(O)c1ccc2nc(-c3cc(Cl)cc(Cl)c3)oc2c1
REMARK SMILES IDX 5 1 6 2 20 3 8 4 18 5 4 6 9 7 7 8 19 9 2 10 1 11 3 12 10 14
REMARK SMILES IDX 11 15 17 16 12 17 15 18 14 19 13 20 16 21
REMARK H PARENT 3 13
ROOT
ATOM      1  C   UNL     1      12.139  -5.648 -11.202  1.00  0.00     0.018 A 
ATOM      2  C   UNL     1      12.249  -4.599 -10.340  1.00  0.00     0.033 A 
ATOM      3  C   UNL     1       9.773  -5.839 -10.706  1.00  0.00     0.065 A 
ATOM      4  N   UNL     1      10.925  -3.157  -8.742  1.00  0.00    -0.209 NA
ATOM      5  O   UNL     1       9.001  -4.132  -9.030  1.00  0.00    -0.436 OA
ATOM      6  C   UNL     1      10.902  -6.280 -11.398  1.00  0.00     0.063 A 
ATOM      7  C   UNL     1       9.664  -3.153  -8.385  1.00  0.00     0.227 A 
ATOM      8  C   UNL     1      11.123  -4.146  -9.640  1.00  0.00     0.110 A 
ATOM      9  C   UNL     1       9.881  -4.777  -9.827  1.00  0.00     0.156 A 
ENDROOT
BRANCH   6  10
ATOM     10  C   UNL     1      10.795  -7.410 -12.337  1.00  0.00     0.335 C 
ATOM     11  O   UNL     1      10.626  -7.201 -13.522  1.00  0.00    -0.246 OA
BRANCH  10  12
ATOM     12  O   UNL     1      10.883  -8.676 -11.882  1.00  0.00    -0.478 OA
ATOM     13  H   UNL     1      11.564  -9.237 -12.275  1.00  0.00     0.297 HD
ENDBRANCH  10  12
ENDBRANCH   6  10
BRANCH   7  14
ATOM     14  C   UNL     1       9.061  -2.214  -7.417  1.00  0.00     0.040 A 
ATOM     15  C   UNL     1       9.414  -0.864  -7.436  1.00  0.00     0.034 A 
ATOM     16  C   UNL     1       8.135  -2.675  -6.479  1.00  0.00     0.034 A 
ATOM     17  C   UNL     1       8.846   0.008  -6.530  1.00  0.00     0.043 A 
ATOM     18  C   UNL     1       7.574  -1.792  -5.577  1.00  0.00     0.043 A 
ATOM     19  C   UNL     1       7.929  -0.454  -5.601  1.00  0.00     0.041 A 
ATOM     20  Cl  UNL     1       9.284   1.688  -6.552  1.00  0.00    -0.084 Cl
ATOM     21  Cl  UNL     1       6.423  -2.363  -4.409  1.00  0.00    -0.084 Cl
ENDBRANCH   7  14
TORSDOF 3
ENDMDL
MODEL 2
REMARK VINA RESULT:    -3.794      0.006      2.019
REMARK INTER + INTRA:          -4.631
REMARK INTER:                  -4.349
REMARK INTRA:                  -0.282
REMARK UNBOUND:                -0.282
REMARK SMILES O=C(O)c1ccc2nc(-c3cc(Cl)cc(Cl)c3)oc2c1
REMARK SMILES IDX 5 1 6 2 20 3 8 4 18 5 4 6 9 7 7 8 19 9 2 10 1 11 3 12 10 14
REMARK SMILES IDX 11 15 17 16 12 17 15 18 14 19 13 20 16 21
REMARK H PARENT 3 13
ROOT
ATOM      1  C   UNL     1      12.142  -5.647 -11.203  1.00  0.00     0.018 A 
ATOM      2  C   UNL     1      12.250  -4.597 -10.341  1.00  0.00     0.033 A 
ATOM      3  C   UNL     1       9.776  -5.842 -10.706  1.00  0.00     0.065 A 
ATOM      4  N   UNL     1      10.924  -3.157  -8.744  1.00  0.00    -0.209 NA
ATOM      5  O   UNL     1       9.002  -4.135  -9.030  1.00  0.00    -0.436 OA
ATOM      6  C   UNL     1      10.906  -6.281 -11.398  1.00  0.00     0.063 A 
ATOM      7  C   UNL     1       9.664  -3.155  -8.386  1.00  0.00     0.227 A 
ATOM      8  C   UNL     1      11.124  -4.146  -9.641  1.00  0.00     0.110 A 
ATOM      9  C   UNL     1       9.883  -4.780  -9.827  1.00  0.00     0.156 A 
ENDROOT
BRANCH   6  10
ATOM     10  C   UNL     1      10.800  -7.412 -12.337  1.00  0.00     0.335 C 
ATOM     11  O   UNL     1      10.645  -7.203 -13.524  1.00  0.00    -0.246 OA
BRANCH  10  12
ATOM     12  O   UNL     1      10.874  -8.677 -11.879  1.00  0.00    -0.478 OA
ATOM     13  H   UNL     1      10.046  -9.172 -11.821  1.00  0.00     0.297 HD
ENDBRANCH  10  12
ENDBRANCH   6  10
BRANCH   7  14
ATOM     14  C   UNL     1       9.060  -2.217  -7.418  1.00  0.00     0.040 A 
ATOM     15  C   UNL     1       8.132  -2.676  -6.482  1.00  0.00     0.034 A 
ATOM     16  C   UNL     1       9.415  -0.867  -7.436  1.00  0.00     0.034 A 
ATOM     17  C   UNL     1       7.571  -1.794  -5.580  1.00  0.00     0.043 A 
ATOM     18  C   UNL     1       8.848   0.005  -6.529  1.00  0.00     0.043 A 
ATOM     19  C   UNL     1       7.927  -0.456  -5.603  1.00  0.00     0.041 A 
ATOM     20  Cl  UNL     1       6.417  -2.363  -4.415  1.00  0.00    -0.084 Cl
ATOM     21  Cl  UNL     1       9.288   1.685  -6.549  1.00  0.00    -0.084 Cl
ENDBRANCH   7  14
TORSDOF 3
ENDMDL
MODEL 3
REMARK VINA RESULT:    -3.681      5.461      8.967
REMARK INTER + INTRA:          -4.502
REMARK INTER:                  -4.211
REMARK INTRA:                  -0.290
REMARK UNBOUND:                -0.282
REMARK SMILES O=C(O)c1ccc2nc(-c3cc(Cl)cc(Cl)c3)oc2c1
REMARK SMILES IDX 5 1 6 2 20 3 8 4 18 5 4 6 9 7 7 8 19 9 2 10 1 11 3 12 10 14
REMARK SMILES IDX 11 15 17 16 12 17 15 18 14 19 13 20 16 21
REMARK H PARENT 3 13
ROOT
ATOM      1  C   UNL     1       4.214  -3.507  -1.559  1.00  0.00     0.018 A 
ATOM      2  C   UNL     1       5.355  -3.772  -2.254  1.00  0.00     0.033 A 
ATOM      3  C   UNL     1       3.927  -1.428  -2.774  1.00  0.00     0.065 A 
ATOM      4  N   UNL     1       6.876  -2.857  -4.053  1.00  0.00    -0.209 NA
ATOM      5  O   UNL     1       5.760  -1.032  -4.448  1.00  0.00    -0.436 OA
ATOM      6  C   UNL     1       3.485  -2.336  -1.810  1.00  0.00     0.063 A 
ATOM      7  C   UNL     1       6.840  -1.766  -4.776  1.00  0.00     0.227 A 
ATOM      8  C   UNL     1       5.810  -2.870  -3.224  1.00  0.00     0.110 A 
ATOM      9  C   UNL     1       5.087  -1.691  -3.479  1.00  0.00     0.156 A 
ENDROOT
BRANCH   6  10
ATOM     10  C   UNL     1       2.248  -2.063  -1.055  1.00  0.00     0.335 C 
ATOM     11  O   UNL     1       2.022  -0.942  -0.644  1.00  0.00    -0.246 OA
BRANCH  10  12
ATOM     12  O   UNL     1       1.369  -3.057  -0.820  1.00  0.00    -0.478 OA
ATOM     13  H   UNL     1       1.728  -3.893  -0.494  1.00  0.00     0.297 HD
ENDBRANCH  10  12
ENDBRANCH   6  10
BRANCH   7  14
ATOM     14  C   UNL     1       7.839  -1.395  -5.799  1.00  0.00     0.040 A 
ATOM     15  C   UNL     1       8.122  -0.051  -6.049  1.00  0.00     0.034 A 
ATOM     16  C   UNL     1       8.504  -2.388  -6.521  1.00  0.00     0.034 A 
ATOM     17  C   UNL     1       9.058   0.289  -7.006  1.00  0.00     0.043 A 
ATOM     18  C   UNL     1       9.437  -2.036  -7.476  1.00  0.00     0.043 A 
ATOM     19  C   UNL     1       9.713  -0.701  -7.718  1.00  0.00     0.041 A 
ATOM     20  Cl  UNL     1       9.411   1.959  -7.317  1.00  0.00    -0.084 Cl
ATOM     21  Cl  UNL     1      10.265  -3.269  -8.375  1.00  0.00    -0.084 Cl
ENDBRANCH   7  14
TORSDOF 3
ENDMDL
MODEL 4
REMARK VINA RESULT:    -3.671      5.468      9.090
REMARK INTER + INTRA:          -4.490
REMARK INTER:                  -4.200
REMARK INTRA:                  -0.291
REMARK UNBOUND:                -0.282
REMARK SMILES O=C(O)c1ccc2nc(-c3cc(Cl)cc(Cl)c3)oc2c1
REMARK SMILES IDX 5 1 6 2 20 3 8 4 18 5 4 6 9 7 7 8 19 9 2 10 1 11 3 12 10 14
REMARK SMILES IDX 11 15 17 16 12 17 15 18 14 19 13 20 16 21
REMARK H PARENT 3 13
ROOT
ATOM      1  C   UNL     1       4.215  -3.512  -1.565  1.00  0.00     0.018 A 
ATOM      2  C   UNL     1       5.359  -3.771  -2.259  1.00  0.00     0.033 A 
ATOM      3  C   UNL     1       3.920  -1.434  -2.780  1.00  0.00     0.065 A 
ATOM      4  N   UNL     1       6.878  -2.848  -4.055  1.00  0.00    -0.209 NA
ATOM      5  O   UNL     1       5.754  -1.028  -4.451  1.00  0.00    -0.436 OA
ATOM      6  C   UNL     1       3.481  -2.345  -1.817  1.00  0.00     0.063 A 
ATOM      7  C   UNL     1       6.838  -1.757  -4.777  1.00  0.00     0.227 A 
ATOM      8  C   UNL     1       5.810  -2.866  -3.228  1.00  0.00     0.110 A 
ATOM      9  C   UNL     1       5.082  -1.691  -3.483  1.00  0.00     0.156 A 
ENDROOT
BRANCH   6  10
ATOM     10  C   UNL     1       2.242  -2.078  -1.064  1.00  0.00     0.335 C 
ATOM     11  O   UNL     1       2.014  -0.961  -0.644  1.00  0.00    -0.246 OA
BRANCH  10  12
ATOM     12  O   UNL     1       1.361  -3.074  -0.840  1.00  0.00    -0.478 OA
ATOM     13  H   UNL     1       1.084  -3.217   0.074  1.00  0.00     0.297 HD
ENDBRANCH  10  12
ENDBRANCH   6  10
BRANCH   7  14
ATOM     14  C   UNL     1       7.837  -1.380  -5.799  1.00  0.00     0.040 A 
ATOM     15  C   UNL     1       8.512  -2.368  -6.517  1.00  0.00     0.034 A 
ATOM     16  C   UNL     1       8.110  -0.033  -6.048  1.00  0.00     0.034 A 
ATOM     17  C   UNL     1       9.444  -2.009  -7.471  1.00  0.00     0.043 A 
ATOM     18  C   UNL     1       9.044   0.312  -7.005  1.00  0.00     0.043 A 
ATOM     19  C   UNL     1       9.710  -0.672  -7.714  1.00  0.00     0.041 A 
ATOM     20  Cl  UNL     1      10.284  -3.236  -8.366  1.00  0.00    -0.084 Cl
ATOM     21  Cl  UNL     1       9.385   1.986  -7.317  1.00  0.00    -0.084 Cl
ENDBRANCH   7  14
TORSDOF 3
ENDMDL
MODEL 5
REMARK VINA RESULT:    -3.501      5.459      8.311
REMARK INTER + INTRA:          -4.295
REMARK INTER:                  -4.006
REMARK INTRA:                  -0.289
REMARK UNBOUND:                -0.282
REMARK SMILES O=C(O)c1ccc2nc(-c3cc(Cl)cc(Cl)c3)oc2c1
REMARK SMILES IDX 5 1 6 2 20 3 8 4 18 5 4 6 9 7 7 8 19 9 2 10 1 11 3 12 10 14
REMARK SMILES IDX 11 15 17 16 12 17 15 18 14 19 13 20 16 21
REMARK H PARENT 3 13
ROOT
ATOM      1  C   UNL     1      12.745   4.182  -9.083  1.00  0.00     0.018 A 
ATOM      2  C   UNL     1      12.077   3.044  -9.420  1.00  0.00     0.033 A 
ATOM      3  C   UNL     1      11.912   4.028  -6.811  1.00  0.00     0.065 A 
ATOM      4  N   UNL     1      10.556   1.252  -8.493  1.00  0.00    -0.209 NA
ATOM      5  O   UNL     1      10.428   2.028  -6.465  1.00  0.00    -0.436 OA
ATOM      6  C   UNL     1      12.673   4.688  -7.777  1.00  0.00     0.063 A 
ATOM      7  C   UNL     1      10.037   1.053  -7.307  1.00  0.00     0.227 A 
ATOM      8  C   UNL     1      11.309   2.372  -8.460  1.00  0.00     0.110 A 
ATOM      9  C   UNL     1      11.228   2.875  -7.150  1.00  0.00     0.156 A 
ENDROOT
BRANCH   6  10
ATOM     10  C   UNL     1      13.405   5.917  -7.423  1.00  0.00     0.335 C 
ATOM     11  O   UNL     1      13.950   6.009  -6.341  1.00  0.00    -0.246 OA
BRANCH  10  12
ATOM     12  O   UNL     1      13.469   6.940  -8.299  1.00  0.00    -0.478 OA
ATOM     13  H   UNL     1      13.988   7.712  -8.035  1.00  0.00     0.297 HD
ENDBRANCH  10  12
ENDBRANCH   6  10
BRANCH   7  14
ATOM     14  C   UNL     1       9.152  -0.074  -6.948  1.00  0.00     0.040 A 
ATOM     15  C   UNL     1       9.431  -1.360  -7.411  1.00  0.00     0.034 A 
ATOM     16  C   UNL     1       8.031   0.144  -6.143  1.00  0.00     0.034 A 
ATOM     17  C   UNL     1       8.600  -2.409  -7.071  1.00  0.00     0.043 A 
ATOM     18  C   UNL     1       7.208  -0.913  -5.810  1.00  0.00     0.043 A 
ATOM     19  C   UNL     1       7.491  -2.186  -6.273  1.00  0.00     0.041 A 
ATOM     20  Cl  UNL     1       8.946  -4.010  -7.646  1.00  0.00    -0.084 Cl
ATOM     21  Cl  UNL     1       5.815  -0.644  -4.809  1.00  0.00    -0.084 Cl
ENDBRANCH   7  14
TORSDOF 3
ENDMDL
MODEL 6
REMARK VINA RESULT:    -3.483      5.455      8.322
REMARK INTER + INTRA:          -4.274
REMARK INTER:                  -3.984
REMARK INTRA:                  -0.290
REMARK UNBOUND:                -0.282
REMARK SMILES O=C(O)c1ccc2nc(-c3cc(Cl)cc(Cl)c3)oc2c1
REMARK SMILES IDX 5 1 6 2 20 3 8 4 18 5 4 6 9 7 7 8 19 9 2 10 1 11 3 12 10 14
REMARK SMILES IDX 11 15 17 16 12 17 15 18 14 19 13 20 16 21
REMARK H PARENT 3 13
ROOT
ATOM      1  C   UNL     1      12.753   4.185  -9.086  1.00  0.00     0.018 A 
ATOM      2  C   UNL     1      12.078   3.050  -9.422  1.00  0.00     0.033 A 
ATOM      3  C   UNL     1      11.945   4.018  -6.805  1.00  0.00     0.065 A 
ATOM      4  N   UNL     1      10.563   1.256  -8.489  1.00  0.00    -0.209 NA
ATOM      5  O   UNL     1      10.461   2.020  -6.455  1.00  0.00    -0.436 OA
ATOM      6  C   UNL     1      12.697   4.682  -7.776  1.00  0.00     0.063 A 
ATOM      7  C   UNL     1      10.057   1.051  -7.299  1.00  0.00     0.227 A 
ATOM      8  C   UNL     1      11.320   2.374  -8.458  1.00  0.00     0.110 A 
ATOM      9  C   UNL     1      11.255   2.869  -7.144  1.00  0.00     0.156 A 
ENDROOT
BRANCH   6  10
ATOM     10  C   UNL     1      13.436   5.907  -7.423  1.00  0.00     0.335 C 
ATOM     11  O   UNL     1      13.950   6.012  -6.327  1.00  0.00    -0.246 OA
BRANCH  10  12
ATOM     12  O   UNL     1      13.542   6.912  -8.315  1.00  0.00    -0.478 OA
ATOM     13  H   UNL     1      12.911   6.918  -9.047  1.00  0.00     0.297 HD
ENDBRANCH  10  12
ENDBRANCH   6  10
BRANCH   7  14
ATOM     14  C   UNL     1       9.174  -0.076  -6.936  1.00  0.00     0.040 A 
ATOM     15  C   UNL     1       8.063   0.138  -6.119  1.00  0.00     0.034 A 
ATOM     16  C   UNL     1       9.447  -1.361  -7.410  1.00  0.00     0.034 A 
ATOM     17  C   UNL     1       7.241  -0.920  -5.785  1.00  0.00     0.043 A 
ATOM     18  C   UNL     1       8.618  -2.410  -7.069  1.00  0.00     0.043 A 
ATOM     19  C   UNL     1       7.518  -2.191  -6.258  1.00  0.00     0.041 A 
ATOM     20  Cl  UNL     1       5.859  -0.655  -4.768  1.00  0.00    -0.084 Cl
ATOM     21  Cl  UNL     1       8.956  -4.009  -7.657  1.00  0.00    -0.084 Cl
ENDBRANCH   7  14
TORSDOF 3
ENDMDL
MODEL 7
REMARK VINA RESULT:    -3.264      5.216      6.832
REMARK INTER + INTRA:          -4.023
REMARK INTER:                  -3.728
REMARK INTRA:                  -0.295
REMARK UNBOUND:                -0.282
REMARK SMILES O=C(O)c1ccc2nc(-c3cc(Cl)cc(Cl)c3)oc2c1
REMARK SMILES IDX 5 1 6 2 20 3 8 4 18 5 4 6 9 7 7 8 19 9 2 10 1 11 3 12 10 14
REMARK SMILES IDX 11 15 17 16 12 17 15 18 14 19 13 20 16 21
REMARK H PARENT 3 13
ROOT
ATOM      1  C   UNL     1      10.048  -0.953  -8.012  1.00  0.00     0.018 A 
ATOM      2  C   UNL     1       9.322  -1.894  -7.346  1.00  0.00     0.033 A 
ATOM      3  C   UNL     1       8.891   0.815  -6.823  1.00  0.00     0.065 A 
ATOM      4  N   UNL     1       7.512  -2.185  -5.608  1.00  0.00    -0.209 NA
ATOM      5  O   UNL     1       7.178  -0.072  -5.210  1.00  0.00    -0.436 OA
ATOM      6  C   UNL     1       9.844   0.411  -7.759  1.00  0.00     0.063 A 
ATOM      7  C   UNL     1       6.813  -1.331  -4.902  1.00  0.00     0.227 A 
ATOM      8  C   UNL     1       8.363  -1.503  -6.405  1.00  0.00     0.110 A 
ATOM      9  C   UNL     1       8.149  -0.137  -6.148  1.00  0.00     0.156 A 
ENDROOT
BRANCH   6  10
ATOM     10  C   UNL     1      10.639   1.420  -8.481  1.00  0.00     0.335 C 
ATOM     11  O   UNL     1      10.548   2.594  -8.181  1.00  0.00    -0.246 OA
BRANCH  10  12
ATOM     12  O   UNL     1      11.467   1.042  -9.475  1.00  0.00    -0.478 OA
ATOM     13  H   UNL     1      12.013   1.730  -9.878  1.00  0.00     0.297 HD
ENDBRANCH  10  12
ENDBRANCH   6  10
BRANCH   7  14
ATOM     14  C   UNL     1       5.777  -1.697  -3.915  1.00  0.00     0.040 A 
ATOM     15  C   UNL     1       5.891  -2.879  -3.183  1.00  0.00     0.034 A 
ATOM     16  C   UNL     1       4.678  -0.860  -3.711  1.00  0.00     0.034 A 
ATOM     17  C   UNL     1       4.920  -3.215  -2.261  1.00  0.00     0.043 A 
ATOM     18  C   UNL     1       3.713  -1.206  -2.786  1.00  0.00     0.043 A 
ATOM     19  C   UNL     1       3.832  -2.381  -2.063  1.00  0.00     0.041 A 
ATOM     20  Cl  UNL     1       5.061  -4.685  -1.349  1.00  0.00    -0.084 Cl
ATOM     21  Cl  UNL     1       2.345  -0.167  -2.530  1.00  0.00    -0.084 Cl
ENDBRANCH   7  14
TORSDOF 3
ENDMDL
MODEL 8
REMARK VINA RESULT:    -3.122      3.361      5.143
REMARK INTER + INTRA:          -3.860
REMARK INTER:                  -3.576
REMARK INTRA:                  -0.284
REMARK UNBOUND:                -0.282
REMARK SMILES O=C(O)c1ccc2nc(-c3cc(Cl)cc(Cl)c3)oc2c1
REMARK SMILES IDX 5 1 6 2 20 3 8 4 18 5 4 6 9 7 7 8 19 9 2 10 1 11 3 12 10 14
REMARK SMILES IDX 11 15 17 16 12 17 15 18 14 19 13 20 16 21
REMARK H PARENT 3 13
ROOT
ATOM      1  C   UNL     1      10.220  -1.390  -8.070  1.00  0.00     0.018 A 
ATOM      2  C   UNL     1       9.372  -0.615  -7.337  1.00  0.00     0.033 A 
ATOM      3  C   UNL     1       9.107  -3.395  -7.281  1.00  0.00     0.065 A 
ATOM      4  N   UNL     1       7.411  -0.721  -5.748  1.00  0.00    -0.209 NA
ATOM      5  O   UNL     1       7.214  -2.887  -5.706  1.00  0.00    -0.436 OA
ATOM      6  C   UNL     1      10.098  -2.787  -8.053  1.00  0.00     0.063 A 
ATOM      7  C   UNL     1       6.727  -1.719  -5.247  1.00  0.00     0.227 A 
ATOM      8  C   UNL     1       8.373  -1.211  -6.558  1.00  0.00     0.110 A 
ATOM      9  C   UNL     1       8.247  -2.612  -6.532  1.00  0.00     0.156 A 
ENDROOT
BRANCH   6  10
ATOM     10  C   UNL     1      11.017  -3.615  -8.854  1.00  0.00     0.335 C 
ATOM     11  O   UNL     1      10.671  -4.024  -9.945  1.00  0.00    -0.246 OA
BRANCH  10  12
ATOM     12  O   UNL     1      12.241  -3.919  -8.377  1.00  0.00    -0.478 OA
ATOM     13  H   UNL     1      12.894  -3.207  -8.360  1.00  0.00     0.297 HD
ENDBRANCH  10  12
ENDBRANCH   6  10
BRANCH   7  14
ATOM     14  C   UNL     1       5.589  -1.582  -4.314  1.00  0.00     0.040 A 
ATOM     15  C   UNL     1       4.736  -0.481  -4.405  1.00  0.00     0.034 A 
ATOM     16  C   UNL     1       5.365  -2.554  -3.336  1.00  0.00     0.034 A 
ATOM     17  C   UNL     1       3.674  -0.360  -3.530  1.00  0.00     0.043 A 
ATOM     18  C   UNL     1       4.299  -2.421  -2.468  1.00  0.00     0.043 A 
ATOM     19  C   UNL     1       3.457  -1.327  -2.563  1.00  0.00     0.041 A 
ATOM     20  Cl  UNL     1       2.611   1.008  -3.642  1.00  0.00    -0.084 Cl
ATOM     21  Cl  UNL     1       4.018  -3.628  -1.252  1.00  0.00    -0.084 Cl
ENDBRANCH   7  14
TORSDOF 3
ENDMDL
MODEL 9
REMARK VINA RESULT:    -3.117      3.362      5.405
REMARK INTER + INTRA:          -3.855
REMARK INTER:                  -3.571
REMARK INTRA:                  -0.284
REMARK UNBOUND:                -0.282
REMARK SMILES O=C(O)c1ccc2nc(-c3cc(Cl)cc(Cl)c3)oc2c1
REMARK SMILES IDX 5 1 6 2 20 3 8 4 18 5 4 6 9 7 7 8 19 9 2 10 1 11 3 12 10 14
REMARK SMILES IDX 11 15 17 16 12 17 15 18 14 19 13 20 16 21
REMARK H PARENT 3 13
ROOT
ATOM      1  C   UNL     1      10.224  -1.384  -8.070  1.00  0.00     0.018 A 
ATOM      2  C   UNL     1       9.376  -0.611  -7.335  1.00  0.00     0.033 A 
ATOM      3  C   UNL     1       9.111  -3.391  -7.285  1.00  0.00     0.065 A 
ATOM      4  N   UNL     1       7.415  -0.721  -5.746  1.00  0.00    -0.209 NA
ATOM      5  O   UNL     1       7.219  -2.887  -5.708  1.00  0.00    -0.436 OA
ATOM      6  C   UNL     1      10.102  -2.781  -8.056  1.00  0.00     0.063 A 
ATOM      7  C   UNL     1       6.732  -1.720  -5.246  1.00  0.00     0.227 A 
ATOM      8  C   UNL     1       8.378  -1.210  -6.557  1.00  0.00     0.110 A 
ATOM      9  C   UNL     1       8.252  -2.610  -6.534  1.00  0.00     0.156 A 
ENDROOT
BRANCH   6  10
ATOM     10  C   UNL     1      11.021  -3.607  -8.860  1.00  0.00     0.335 C 
ATOM     11  O   UNL     1      10.676  -4.014  -9.951  1.00  0.00    -0.246 OA
BRANCH  10  12
ATOM     12  O   UNL     1      12.245  -3.912  -8.384  1.00  0.00    -0.478 OA
ATOM     13  H   UNL     1      12.894  -4.241  -9.020  1.00  0.00     0.297 HD
ENDBRANCH  10  12
ENDBRANCH   6  10
BRANCH   7  14
ATOM     14  C   UNL     1       5.594  -1.586  -4.313  1.00  0.00     0.040 A 
ATOM     15  C   UNL     1       5.369  -2.558  -3.337  1.00  0.00     0.034 A 
ATOM     16  C   UNL     1       4.740  -0.486  -4.404  1.00  0.00     0.034 A 
ATOM     17  C   UNL     1       4.305  -2.426  -2.467  1.00  0.00     0.043 A 
ATOM     18  C   UNL     1       3.679  -0.365  -3.529  1.00  0.00     0.043 A 
ATOM     19  C   UNL     1       3.461  -1.333  -2.563  1.00  0.00     0.041 A 
ATOM     20  Cl  UNL     1       4.024  -3.633  -1.252  1.00  0.00    -0.084 Cl
ATOM     21  Cl  UNL     1       2.615   1.003  -3.640  1.00  0.00    -0.084 Cl
ENDBRANCH   7  14
TORSDOF 3
ENDMDL
