MODEL 1
REMARK VINA RESULT:    -3.811      0.000      0.000
REMARK INTER + INTRA:          -4.652
REMARK INTER:                  -4.368
REMARK INTRA:                  -0.285
REMARK UNBOUND:                -0.285
REMARK SMILES O=C(O)c1ccc2nc(-c3cc(Cl)cc(Cl)c3)oc2c1
REMARK SMILES IDX 5 1 6 2 20 3 8 4 18 5 4 6 9 7 7 8 19 9 2 10 1 11 3 12 10 14
REMARK SMILES IDX 11 15 17 16 12 17 15 18 14 19 13 20 16 21
REMARK H PARENT 3 13
ROOT
ATOM      1  C   UNL     1      -3.247  10.496 -11.455  1.00  0.00     0.018 A 
ATOM      2  C   UNL     1      -3.221  10.386 -10.097  1.00  0.00     0.033 A 
ATOM      3  C   UNL     1      -2.777   8.127 -11.679  1.00  0.00     0.065 A 
ATOM      4  N   UNL     1      -2.887   8.734  -8.216  1.00  0.00    -0.209 NA
ATOM      5  O   UNL     1      -2.537   6.980  -9.455  1.00  0.00    -0.436 OA
ATOM      6  C   UNL     1      -3.028   9.370 -12.262  1.00  0.00     0.063 A 
ATOM      7  C   UNL     1      -2.629   7.450  -8.196  1.00  0.00     0.227 A 
ATOM      8  C   UNL     1      -2.972   9.145  -9.499  1.00  0.00     0.110 A 
ATOM      9  C   UNL     1      -2.746   8.012 -10.301  1.00  0.00     0.156 A 
ENDROOT
BRANCH   6  10
ATOM     10  C   UNL     1      -3.063   9.500 -13.730  1.00  0.00     0.335 C 
ATOM     11  O   UNL     1      -2.076   9.874 -14.331  1.00  0.00    -0.246 OA
BRANCH  10  12
ATOM     12  O   UNL     1      -4.191   9.204 -14.406  1.00  0.00    -0.478 OA
ATOM     13  H   UNL     1      -4.579   9.908 -14.943  1.00  0.00     0.297 HD
ENDBRANCH  10  12
ENDBRANCH   6  10
BRANCH   7  14
ATOM     14  C   UNL     1      -2.463   6.637  -6.973  1.00  0.00     0.040 A 
ATOM     15  C   UNL     1      -3.152   6.976  -5.808  1.00  0.00     0.034 A 
ATOM     16  C   UNL     1      -1.616   5.528  -6.979  1.00  0.00     0.034 A 
ATOM     17  C   UNL     1      -2.994   6.212  -4.669  1.00  0.00     0.043 A 
ATOM     18  C   UNL     1      -1.466   4.772  -5.834  1.00  0.00     0.043 A 
ATOM     19  C   UNL     1      -2.152   5.113  -4.681  1.00  0.00     0.041 A 
ATOM     20  Cl  UNL     1      -3.850   6.631  -3.218  1.00  0.00    -0.084 Cl
ATOM     21  Cl  UNL     1      -0.412   3.391  -5.838  1.00  0.00    -0.084 Cl
ENDBRANCH   7  14
TORSDOF 3
ENDMDL
MODEL 2
REMARK VINA RESULT:    -3.802      0.008      2.019
REMARK INTER + INTRA:          -4.642
REMARK INTER:                  -4.357
REMARK INTRA:                  -0.284
REMARK UNBOUND:                -0.285
REMARK SMILES O=C(O)c1ccc2nc(-c3cc(Cl)cc(Cl)c3)oc2c1
REMARK SMILES IDX 5 1 6 2 20 3 8 4 18 5 4 6 9 7 7 8 19 9 2 10 1 11 3 12 10 14
REMARK SMILES IDX 11 15 17 16 12 17 15 18 14 19 13 20 16 21
REMARK H PARENT 3 13
ROOT
ATOM      1  C   UNL     1      -3.244  10.493 -11.460  1.00  0.00     0.018 A 
ATOM      2  C   UNL     1      -3.221  10.383 -10.102  1.00  0.00     0.033 A 
ATOM      3  C   UNL     1      -2.770   8.125 -11.683  1.00  0.00     0.065 A 
ATOM      4  N   UNL     1      -2.885   8.732  -8.220  1.00  0.00    -0.209 NA
ATOM      5  O   UNL     1      -2.530   6.979  -9.459  1.00  0.00    -0.436 OA
ATOM      6  C   UNL     1      -3.022   9.368 -12.267  1.00  0.00     0.063 A 
ATOM      7  C   UNL     1      -2.625   7.448  -8.200  1.00  0.00     0.227 A 
ATOM      8  C   UNL     1      -2.969   9.143  -9.503  1.00  0.00     0.110 A 
ATOM      9  C   UNL     1      -2.740   8.011 -10.305  1.00  0.00     0.156 A 
ENDROOT
BRANCH   6  10
ATOM     10  C   UNL     1      -3.056   9.498 -13.735  1.00  0.00     0.335 C 
ATOM     11  O   UNL     1      -2.063   9.857 -14.335  1.00  0.00    -0.246 OA
BRANCH  10  12
ATOM     12  O   UNL     1      -4.188   9.219 -14.410  1.00  0.00    -0.478 OA
ATOM     13  H   UNL     1      -5.014   9.561 -14.043  1.00  0.00     0.297 HD
ENDBRANCH  10  12
ENDBRANCH   6  10
BRANCH   7  14
ATOM     14  C   UNL     1      -2.459   6.636  -6.977  1.00  0.00     0.040 A 
ATOM     15  C   UNL     1      -1.612   5.527  -6.981  1.00  0.00     0.034 A 
ATOM     16  C   UNL     1      -3.151   6.975  -5.812  1.00  0.00     0.034 A 
ATOM     17  C   UNL     1      -1.461   4.773  -5.834  1.00  0.00     0.043 A 
ATOM     18  C   UNL     1      -2.992   6.213  -4.672  1.00  0.00     0.043 A 
ATOM     19  C   UNL     1      -2.150   5.114  -4.683  1.00  0.00     0.041 A 
ATOM     20  Cl  UNL     1      -0.407   3.394  -5.836  1.00  0.00    -0.084 Cl
ATOM     21  Cl  UNL     1      -3.851   6.632  -3.223  1.00  0.00    -0.084 Cl
ENDBRANCH   7  14
TORSDOF 3
ENDMDL
MODEL 3
REMARK VINA RESULT:    -3.777      2.443      3.042
REMARK INTER + INTRA:          -4.614
REMARK INTER:                  -4.330
REMARK INTRA:                  -0.284
REMARK UNBOUND:                -0.285
REMARK SMILES O=C(O)c1ccc2nc(-c3cc(Cl)cc(Cl)c3)oc2c1
REMARK SMILES IDX 5 1 6 2 20 3 8 4 18 5 4 6 9 7 7 8 19 9 2 10 1 11 3 12 10 14
REMARK SMILES IDX 11 15 17 16 12 17 15 18 14 19 13 20 16 21
REMARK H PARENT 3 13
ROOT
ATOM      1  C   UNL     1      -3.470  11.121 -10.837  1.00  0.00     0.018 A 
ATOM      2  C   UNL     1      -3.108   9.820 -10.653  1.00  0.00     0.033 A 
ATOM      3  C   UNL     1      -3.410  11.501  -8.442  1.00  0.00     0.065 A 
ATOM      4  N   UNL     1      -2.534   8.121  -8.873  1.00  0.00    -0.209 NA
ATOM      5  O   UNL     1      -2.777   9.436  -7.156  1.00  0.00    -0.436 OA
ATOM      6  C   UNL     1      -3.624  11.977  -9.737  1.00  0.00     0.063 A 
ATOM      7  C   UNL     1      -2.467   8.191  -7.567  1.00  0.00     0.227 A 
ATOM      8  C   UNL     1      -2.891   9.329  -9.359  1.00  0.00     0.110 A 
ATOM      9  C   UNL     1      -3.048  10.180  -8.251  1.00  0.00     0.156 A 
ENDROOT
BRANCH   6  10
ATOM     10  C   UNL     1      -4.010  13.384  -9.949  1.00  0.00     0.335 C 
ATOM     11  O   UNL     1      -5.184  13.694  -9.976  1.00  0.00    -0.246 OA
BRANCH  10  12
ATOM     12  O   UNL     1      -3.060  14.326 -10.115  1.00  0.00    -0.478 OA
ATOM     13  H   UNL     1      -2.142  14.052  -9.988  1.00  0.00     0.297 HD
ENDBRANCH  10  12
ENDBRANCH   6  10
BRANCH   7  14
ATOM     14  C   UNL     1      -2.107   7.069  -6.675  1.00  0.00     0.040 A 
ATOM     15  C   UNL     1      -2.634   7.002  -5.385  1.00  0.00     0.034 A 
ATOM     16  C   UNL     1      -1.237   6.072  -7.122  1.00  0.00     0.034 A 
ATOM     17  C   UNL     1      -2.294   5.950  -4.557  1.00  0.00     0.043 A 
ATOM     18  C   UNL     1      -0.905   5.025  -6.285  1.00  0.00     0.043 A 
ATOM     19  C   UNL     1      -1.431   4.964  -5.006  1.00  0.00     0.041 A 
ATOM     20  Cl  UNL     1      -2.948   5.863  -2.952  1.00  0.00    -0.084 Cl
ATOM     21  Cl  UNL     1       0.176   3.784  -6.838  1.00  0.00    -0.084 Cl
ENDBRANCH   7  14
TORSDOF 3
ENDMDL
MODEL 4
REMARK VINA RESULT:    -3.770      2.442      3.622
REMARK INTER + INTRA:          -4.605
REMARK INTER:                  -4.321
REMARK INTRA:                  -0.284
REMARK UNBOUND:                -0.285
REMARK SMILES O=C(O)c1ccc2nc(-c3cc(Cl)cc(Cl)c3)oc2c1
REMARK SMILES IDX 5 1 6 2 20 3 8 4 18 5 4 6 9 7 7 8 19 9 2 10 1 11 3 12 10 14
REMARK SMILES IDX 11 15 17 16 12 17 15 18 14 19 13 20 16 21
REMARK H PARENT 3 13
ROOT
ATOM      1  C   UNL     1      -3.469  11.121 -10.836  1.00  0.00     0.018 A 
ATOM      2  C   UNL     1      -3.108   9.820 -10.652  1.00  0.00     0.033 A 
ATOM      3  C   UNL     1      -3.409  11.501  -8.442  1.00  0.00     0.065 A 
ATOM      4  N   UNL     1      -2.535   8.121  -8.872  1.00  0.00    -0.209 NA
ATOM      5  O   UNL     1      -2.777   9.436  -7.156  1.00  0.00    -0.436 OA
ATOM      6  C   UNL     1      -3.622  11.978  -9.737  1.00  0.00     0.063 A 
ATOM      7  C   UNL     1      -2.469   8.191  -7.566  1.00  0.00     0.227 A 
ATOM      8  C   UNL     1      -2.891   9.329  -9.359  1.00  0.00     0.110 A 
ATOM      9  C   UNL     1      -3.048  10.181  -8.250  1.00  0.00     0.156 A 
ENDROOT
BRANCH   6  10
ATOM     10  C   UNL     1      -4.008  13.385  -9.949  1.00  0.00     0.335 C 
ATOM     11  O   UNL     1      -5.182  13.695  -9.975  1.00  0.00    -0.246 OA
BRANCH  10  12
ATOM     12  O   UNL     1      -3.058  14.326 -10.114  1.00  0.00    -0.478 OA
ATOM     13  H   UNL     1      -2.636  14.377 -10.982  1.00  0.00     0.297 HD
ENDBRANCH  10  12
ENDBRANCH   6  10
BRANCH   7  14
ATOM     14  C   UNL     1      -2.109   7.069  -6.675  1.00  0.00     0.040 A 
ATOM     15  C   UNL     1      -1.241   6.071  -7.119  1.00  0.00     0.034 A 
ATOM     16  C   UNL     1      -2.638   7.002  -5.384  1.00  0.00     0.034 A 
ATOM     17  C   UNL     1      -0.908   5.025  -6.281  1.00  0.00     0.043 A 
ATOM     18  C   UNL     1      -2.298   5.952  -4.555  1.00  0.00     0.043 A 
ATOM     19  C   UNL     1      -1.436   4.965  -5.002  1.00  0.00     0.041 A 
ATOM     20  Cl  UNL     1       0.172   3.783  -6.831  1.00  0.00    -0.084 Cl
ATOM     21  Cl  UNL     1      -2.954   5.867  -2.950  1.00  0.00    -0.084 Cl
ENDBRANCH   7  14
TORSDOF 3
ENDMDL
MODEL 5
REMARK VINA RESULT:    -3.608      3.960      7.632
REMARK INTER + INTRA:          -4.420
REMARK INTER:                  -4.122
REMARK INTRA:                  -0.298
REMARK UNBOUND:                -0.285
REMARK SMILES O=C(O)c1ccc2nc(-c3cc(Cl)cc(Cl)c3)oc2c1
REMARK SMILES IDX 5 1 6 2 20 3 8 4 18 5 4 6 9 7 7 8 19 9 2 10 1 11 3 12 10 14
REMARK SMILES IDX 11 15 17 16 12 17 15 18 14 19 13 20 16 21
REMARK H PARENT 3 13
ROOT
ATOM      1  C   UNL     1      -1.351   4.413  -5.704  1.00  0.00     0.018 A 
ATOM      2  C   UNL     1      -1.394   4.808  -7.007  1.00  0.00     0.033 A 
ATOM      3  C   UNL     1      -2.250   6.553  -5.002  1.00  0.00     0.065 A 
ATOM      4  N   UNL     1      -2.020   6.742  -8.507  1.00  0.00    -0.209 NA
ATOM      5  O   UNL     1      -2.680   8.098  -6.939  1.00  0.00    -0.436 OA
ATOM      6  C   UNL     1      -1.779   5.278  -4.686  1.00  0.00     0.063 A 
ATOM      7  C   UNL     1      -2.505   7.935  -8.263  1.00  0.00     0.227 A 
ATOM      8  C   UNL     1      -1.863   6.085  -7.338  1.00  0.00     0.110 A 
ATOM      9  C   UNL     1      -2.290   6.960  -6.323  1.00  0.00     0.156 A 
ENDROOT
BRANCH   6  10
ATOM     10  C   UNL     1      -1.734   4.837  -3.280  1.00  0.00     0.335 C 
ATOM     11  O   UNL     1      -1.309   3.734  -3.003  1.00  0.00    -0.246 OA
BRANCH  10  12
ATOM     12  O   UNL     1      -2.166   5.658  -2.302  1.00  0.00    -0.478 OA
ATOM     13  H   UNL     1      -1.506   5.974  -1.671  1.00  0.00     0.297 HD
ENDBRANCH  10  12
ENDBRANCH   6  10
BRANCH   7  14
ATOM     14  C   UNL     1      -2.813   8.950  -9.292  1.00  0.00     0.040 A 
ATOM     15  C   UNL     1      -3.095  10.264  -8.917  1.00  0.00     0.034 A 
ATOM     16  C   UNL     1      -2.824   8.598 -10.643  1.00  0.00     0.034 A 
ATOM     17  C   UNL     1      -3.381  11.209  -9.882  1.00  0.00     0.043 A 
ATOM     18  C   UNL     1      -3.111   9.551 -11.599  1.00  0.00     0.043 A 
ATOM     19  C   UNL     1      -3.390  10.853 -11.221  1.00  0.00     0.041 A 
ATOM     20  Cl  UNL     1      -3.731  12.844  -9.419  1.00  0.00    -0.084 Cl
ATOM     21  Cl  UNL     1      -3.125   9.115 -13.280  1.00  0.00    -0.084 Cl
ENDBRANCH   7  14
TORSDOF 3
ENDMDL
MODEL 6
REMARK VINA RESULT:    -3.606      3.959      7.850
REMARK INTER + INTRA:          -4.418
REMARK INTER:                  -4.120
REMARK INTRA:                  -0.298
REMARK UNBOUND:                -0.285
REMARK SMILES O=C(O)c1ccc2nc(-c3cc(Cl)cc(Cl)c3)oc2c1
REMARK SMILES IDX 5 1 6 2 20 3 8 4 18 5 4 6 9 7 7 8 19 9 2 10 1 11 3 12 10 14
REMARK SMILES IDX 11 15 17 16 12 17 15 18 14 19 13 20 16 21
REMARK H PARENT 3 13
ROOT
ATOM      1  C   UNL     1      -1.337   4.411  -5.700  1.00  0.00     0.018 A 
ATOM      2  C   UNL     1      -1.373   4.807  -7.003  1.00  0.00     0.033 A 
ATOM      3  C   UNL     1      -2.260   6.542  -5.002  1.00  0.00     0.065 A 
ATOM      4  N   UNL     1      -2.005   6.737  -8.505  1.00  0.00    -0.209 NA
ATOM      5  O   UNL     1      -2.689   8.085  -6.940  1.00  0.00    -0.436 OA
ATOM      6  C   UNL     1      -1.781   5.269  -4.684  1.00  0.00     0.063 A 
ATOM      7  C   UNL     1      -2.503   7.925  -8.263  1.00  0.00     0.227 A 
ATOM      8  C   UNL     1      -1.852   6.080  -7.335  1.00  0.00     0.110 A 
ATOM      9  C   UNL     1      -2.294   6.949  -6.323  1.00  0.00     0.156 A 
ENDROOT
BRANCH   6  10
ATOM     10  C   UNL     1      -1.742   4.828  -3.279  1.00  0.00     0.335 C 
ATOM     11  O   UNL     1      -1.316   3.725  -3.000  1.00  0.00    -0.246 OA
BRANCH  10  12
ATOM     12  O   UNL     1      -2.181   5.647  -2.302  1.00  0.00    -0.478 OA
ATOM     13  H   UNL     1      -2.588   5.231  -1.530  1.00  0.00     0.297 HD
ENDBRANCH  10  12
ENDBRANCH   6  10
BRANCH   7  14
ATOM     14  C   UNL     1      -2.812   8.939  -9.292  1.00  0.00     0.040 A 
ATOM     15  C   UNL     1      -2.831   8.585 -10.642  1.00  0.00     0.034 A 
ATOM     16  C   UNL     1      -3.086  10.256  -8.918  1.00  0.00     0.034 A 
ATOM     17  C   UNL     1      -3.121   9.538 -11.599  1.00  0.00     0.043 A 
ATOM     18  C   UNL     1      -3.375  11.199  -9.883  1.00  0.00     0.043 A 
ATOM     19  C   UNL     1      -3.392  10.842 -11.221  1.00  0.00     0.041 A 
ATOM     20  Cl  UNL     1      -3.146   9.100 -13.278  1.00  0.00    -0.084 Cl
ATOM     21  Cl  UNL     1      -3.716  12.837  -9.420  1.00  0.00    -0.084 Cl
ENDBRANCH   7  14
TORSDOF 3
ENDMDL
MODEL 7
REMARK VINA RESULT:    -3.559      4.545      7.927
REMARK INTER + INTRA:          -4.363
REMARK INTER:                  -4.076
REMARK INTRA:                  -0.288
REMARK UNBOUND:                -0.285
REMARK SMILES O=C(O)c1ccc2nc(-c3cc(Cl)cc(Cl)c3)oc2c1
REMARK SMILES IDX 5 1 6 2 20 3 8 4 18 5 4 6 9 7 7 8 19 9 2 10 1 11 3 12 10 14
REMARK SMILES IDX 11 15 17 16 12 17 15 18 14 19 13 20 16 21
REMARK H PARENT 3 13
ROOT
ATOM      1  C   UNL     1      -2.787   8.040  -7.368  1.00  0.00     0.018 A 
ATOM      2  C   UNL     1      -3.660   8.366  -8.363  1.00  0.00     0.033 A 
ATOM      3  C   UNL     1      -0.968   7.930  -8.967  1.00  0.00     0.065 A 
ATOM      4  N   UNL     1      -3.815   8.779 -10.851  1.00  0.00    -0.209 NA
ATOM      5  O   UNL     1      -1.718   8.432 -11.314  1.00  0.00    -0.436 OA
ATOM      6  C   UNL     1      -1.433   7.820  -7.656  1.00  0.00     0.063 A 
ATOM      7  C   UNL     1      -2.927   8.750 -11.813  1.00  0.00     0.227 A 
ATOM      8  C   UNL     1      -3.206   8.479  -9.683  1.00  0.00     0.110 A 
ATOM      9  C   UNL     1      -1.851   8.255  -9.980  1.00  0.00     0.156 A 
ENDROOT
BRANCH   6  10
ATOM     10  C   UNL     1      -0.497   7.475  -6.570  1.00  0.00     0.335 C 
ATOM     11  O   UNL     1      -0.919   7.250  -5.453  1.00  0.00    -0.246 OA
BRANCH  10  12
ATOM     12  O   UNL     1       0.826   7.409  -6.816  1.00  0.00    -0.478 OA
ATOM     13  H   UNL     1       1.099   6.999  -7.647  1.00  0.00     0.297 HD
ENDBRANCH  10  12
ENDBRANCH   6  10
BRANCH   7  14
ATOM     14  C   UNL     1      -3.212   9.024 -13.237  1.00  0.00     0.040 A 
ATOM     15  C   UNL     1      -3.937   8.106 -13.996  1.00  0.00     0.034 A 
ATOM     16  C   UNL     1      -2.754  10.204 -13.827  1.00  0.00     0.034 A 
ATOM     17  C   UNL     1      -4.201   8.369 -15.326  1.00  0.00     0.043 A 
ATOM     18  C   UNL     1      -3.024  10.456 -15.158  1.00  0.00     0.043 A 
ATOM     19  C   UNL     1      -3.745   9.541 -15.906  1.00  0.00     0.041 A 
ATOM     20  Cl  UNL     1      -5.104   7.229 -16.273  1.00  0.00    -0.084 Cl
ATOM     21  Cl  UNL     1      -2.456  11.922 -15.894  1.00  0.00    -0.084 Cl
ENDBRANCH   7  14
TORSDOF 3
ENDMDL
MODEL 8
REMARK VINA RESULT:    -3.558      5.035      7.913
REMARK INTER + INTRA:          -4.362
REMARK INTER:                  -4.074
REMARK INTRA:                  -0.288
REMARK UNBOUND:                -0.285
REMARK SMILES O=C(O)c1ccc2nc(-c3cc(Cl)cc(Cl)c3)oc2c1
REMARK SMILES IDX 5 1 6 2 20 3 8 4 18 5 4 6 9 7 7 8 19 9 2 10 1 11 3 12 10 14
REMARK SMILES IDX 11 15 17 16 12 17 15 18 14 19 13 20 16 21
REMARK H PARENT 3 13
ROOT
ATOM      1  C   UNL     1      -2.213   7.375  -8.119  1.00  0.00     0.018 A 
ATOM      2  C   UNL     1      -1.733   8.511  -8.699  1.00  0.00     0.033 A 
ATOM      3  C   UNL     1      -4.326   8.473  -7.659  1.00  0.00     0.065 A 
ATOM      4  N   UNL     1      -2.347  10.894  -9.271  1.00  0.00    -0.209 NA
ATOM      5  O   UNL     1      -4.363  10.858  -8.455  1.00  0.00    -0.436 OA
ATOM      6  C   UNL     1      -3.513   7.340  -7.594  1.00  0.00     0.063 A 
ATOM      7  C   UNL     1      -3.433  11.602  -9.081  1.00  0.00     0.227 A 
ATOM      8  C   UNL     1      -2.538   9.655  -8.770  1.00  0.00     0.110 A 
ATOM      9  C   UNL     1      -3.841   9.629  -8.242  1.00  0.00     0.156 A 
ENDROOT
BRANCH   6  10
ATOM     10  C   UNL     1      -4.023   6.104  -6.974  1.00  0.00     0.335 C 
ATOM     11  O   UNL     1      -3.284   5.152  -6.821  1.00  0.00    -0.246 OA
BRANCH  10  12
ATOM     12  O   UNL     1      -5.309   6.029  -6.579  1.00  0.00    -0.478 OA
ATOM     13  H   UNL     1      -5.511   5.420  -5.856  1.00  0.00     0.297 HD
ENDBRANCH  10  12
ENDBRANCH   6  10
BRANCH   7  14
ATOM     14  C   UNL     1      -3.609  13.010  -9.494  1.00  0.00     0.040 A 
ATOM     15  C   UNL     1      -4.480  13.332 -10.535  1.00  0.00     0.034 A 
ATOM     16  C   UNL     1      -2.902  14.024  -8.843  1.00  0.00     0.034 A 
ATOM     17  C   UNL     1      -4.641  14.650 -10.915  1.00  0.00     0.043 A 
ATOM     18  C   UNL     1      -3.072  15.338  -9.232  1.00  0.00     0.043 A 
ATOM     19  C   UNL     1      -3.938  15.650 -10.265  1.00  0.00     0.041 A 
ATOM     20  Cl  UNL     1      -5.725  15.053 -12.209  1.00  0.00    -0.084 Cl
ATOM     21  Cl  UNL     1      -2.195  16.600  -8.424  1.00  0.00    -0.084 Cl
ENDBRANCH   7  14
TORSDOF 3
ENDMDL
MODEL 9
REMARK VINA RESULT:    -3.511      5.154      8.234
REMARK INTER + INTRA:          -4.309
REMARK INTER:                  -4.026
REMARK INTRA:                  -0.283
REMARK UNBOUND:                -0.285
REMARK SMILES O=C(O)c1ccc2nc(-c3cc(Cl)cc(Cl)c3)oc2c1
REMARK SMILES IDX 5 1 6 2 20 3 8 4 18 5 4 6 9 7 7 8 19 9 2 10 1 11 3 12 10 14
REMARK SMILES IDX 11 15 17 16 12 17 15 18 14 19 13 20 16 21
REMARK H PARENT 3 13
ROOT
ATOM      1  C   UNL     1      -2.788   7.874  -9.587  1.00  0.00     0.018 A 
ATOM      2  C   UNL     1      -2.896   8.905 -10.471  1.00  0.00     0.033 A 
ATOM      3  C   UNL     1      -3.230   9.381  -7.739  1.00  0.00     0.065 A 
ATOM      4  N   UNL     1      -3.332  11.389 -10.626  1.00  0.00    -0.209 NA
ATOM      5  O   UNL     1      -3.585  11.752  -8.496  1.00  0.00    -0.436 OA
ATOM      6  C   UNL     1      -2.955   8.097  -8.213  1.00  0.00     0.063 A 
ATOM      7  C   UNL     1      -3.578  12.306  -9.723  1.00  0.00     0.227 A 
ATOM      8  C   UNL     1      -3.171  10.198 -10.010  1.00  0.00     0.110 A 
ATOM      9  C   UNL     1      -3.335  10.431  -8.633  1.00  0.00     0.156 A 
ENDROOT
BRANCH   6  10
ATOM     10  C   UNL     1      -2.842   6.973  -7.266  1.00  0.00     0.335 C 
ATOM     11  O   UNL     1      -1.761   6.459  -7.060  1.00  0.00    -0.246 OA
BRANCH  10  12
ATOM     12  O   UNL     1      -3.938   6.514  -6.630  1.00  0.00    -0.478 OA
ATOM     13  H   UNL     1      -4.755   7.019  -6.743  1.00  0.00     0.297 HD
ENDBRANCH  10  12
ENDBRANCH   6  10
BRANCH   7  14
ATOM     14  C   UNL     1      -3.811  13.736 -10.010  1.00  0.00     0.040 A 
ATOM     15  C   UNL     1      -3.194  14.717  -9.233  1.00  0.00     0.034 A 
ATOM     16  C   UNL     1      -4.651  14.112 -11.061  1.00  0.00     0.034 A 
ATOM     17  C   UNL     1      -3.415  16.052  -9.507  1.00  0.00     0.043 A 
ATOM     18  C   UNL     1      -4.864  15.450 -11.325  1.00  0.00     0.043 A 
ATOM     19  C   UNL     1      -4.249  16.418 -10.550  1.00  0.00     0.041 A 
ATOM     20  Cl  UNL     1      -2.648  17.274  -8.542  1.00  0.00    -0.084 Cl
ATOM     21  Cl  UNL     1      -5.908  15.919 -12.631  1.00  0.00    -0.084 Cl
ENDBRANCH   7  14
TORSDOF 3
ENDMDL
