MODEL 1
REMARK VINA RESULT:    -5.443      0.000      0.000
REMARK INTER + INTRA:          -8.070
REMARK INTER:                  -7.512
REMARK INTRA:                  -0.559
REMARK UNBOUND:                -0.559
REMARK SMILES Cc1n[nH]c(C)c1CCCOc1cc(C(=O)O)ccc1F
REMARK SMILES IDX 11 1 12 2 14 3 18 4 13 5 19 6 20 7 21 8 15 9 16 10 17 11
REMARK SMILES IDX 10 13 9 14 8 15 7 16 5 17 2 18 4 19 3 20 6 21 1 22
REMARK H PARENT 17 12 4 23
ROOT
ATOM      1  O   UNL     1      -0.005   7.453  -6.850  1.00  0.00    -0.490 OA
ENDROOT
BRANCH   1   2
ATOM      2  C   UNL     1      -0.730   6.574  -6.108  1.00  0.00     0.155 A 
ATOM      3  C   UNL     1      -2.501   6.125  -4.545  1.00  0.00     0.063 A 
ATOM      4  C   UNL     1      -2.206   4.760  -4.608  1.00  0.00     0.019 A 
ATOM      5  C   UNL     1      -1.755   7.031  -5.302  1.00  0.00     0.065 A 
ATOM      6  C   UNL     1      -1.185   4.313  -5.420  1.00  0.00     0.044 A 
ATOM      7  C   UNL     1      -0.450   5.213  -6.174  1.00  0.00     0.165 A 
ATOM      8  F   UNL     1       0.549   4.768  -6.968  1.00  0.00    -0.203 F 
BRANCH   3   9
ATOM      9  C   UNL     1      -3.593   6.607  -3.677  1.00  0.00     0.335 C 
ATOM     10  O   UNL     1      -3.622   7.768  -3.325  1.00  0.00    -0.246 OA
BRANCH   9  11
ATOM     11  O   UNL     1      -4.562   5.758  -3.281  1.00  0.00    -0.478 OA
ATOM     12  H   UNL     1      -4.284   4.970  -2.794  1.00  0.00     0.297 HD
ENDBRANCH   9  11
ENDBRANCH   3   9
ENDBRANCH   1   2
BRANCH   1  13
ATOM     13  C   UNL     1      -0.178   7.401  -8.269  1.00  0.00     0.230 C 
BRANCH  13  14
ATOM     14  C   UNL     1      -0.822   8.702  -8.751  1.00  0.00     0.046 C 
BRANCH  14  15
ATOM     15  C   UNL     1      -2.318   8.477  -8.978  1.00  0.00     0.043 C 
BRANCH  15  16
ATOM     16  C   UNL     1      -2.822   9.448 -10.014  1.00  0.00    -0.004 A 
ATOM     17  C   UNL     1      -3.204  10.726  -9.789  1.00  0.00     0.036 A 
ATOM     18  C   UNL     1      -2.970   9.189 -11.381  1.00  0.00     0.063 A 
ATOM     19  N   UNL     1      -3.588  11.255 -10.969  1.00  0.00    -0.282 N 
ATOM     20  N   UNL     1      -3.435  10.270 -11.953  1.00  0.00    -0.181 NA
ATOM     21  C   UNL     1      -3.203  11.431  -8.457  1.00  0.00     0.066 C 
ATOM     22  C   UNL     1      -2.659   7.887 -12.074  1.00  0.00     0.069 C 
ATOM     23  H   UNL     1      -3.912  12.158 -11.111  1.00  0.00     0.190 HD
ENDBRANCH  15  16
ENDBRANCH  14  15
ENDBRANCH  13  14
ENDBRANCH   1  13
TORSDOF 7
ENDMDL
MODEL 2
REMARK VINA RESULT:    -5.405      2.257      3.879
REMARK INTER + INTRA:          -8.017
REMARK INTER:                  -7.374
REMARK INTRA:                  -0.643
REMARK UNBOUND:                -0.559
REMARK SMILES Cc1n[nH]c(C)c1CCCOc1cc(C(=O)O)ccc1F
REMARK SMILES IDX 11 1 12 2 14 3 18 4 13 5 19 6 20 7 21 8 15 9 16 10 17 11
REMARK SMILES IDX 10 13 9 14 8 15 7 16 5 17 2 18 4 19 3 20 6 21 1 22
REMARK H PARENT 17 12 4 23
ROOT
ATOM      1  O   UNL     1      -4.549   6.336  -6.735  1.00  0.00    -0.490 OA
ENDROOT
BRANCH   1   2
ATOM      2  C   UNL     1      -3.468   5.869  -6.056  1.00  0.00     0.155 A 
ATOM      3  C   UNL     1      -1.314   4.800  -6.041  1.00  0.00     0.063 A 
ATOM      4  C   UNL     1      -1.262   4.932  -4.650  1.00  0.00     0.019 A 
ATOM      5  C   UNL     1      -2.425   5.274  -6.741  1.00  0.00     0.065 A 
ATOM      6  C   UNL     1      -2.304   5.533  -3.976  1.00  0.00     0.044 A 
ATOM      7  C   UNL     1      -3.403   6.006  -4.673  1.00  0.00     0.165 A 
ATOM      8  F   UNL     1      -4.421   6.595  -4.007  1.00  0.00    -0.203 F 
BRANCH   3   9
ATOM      9  C   UNL     1      -0.200   4.158  -6.766  1.00  0.00     0.335 C 
ATOM     10  O   UNL     1      -0.373   3.730  -7.888  1.00  0.00    -0.246 OA
BRANCH   9  11
ATOM     11  O   UNL     1       1.010   4.052  -6.183  1.00  0.00    -0.478 OA
ATOM     12  H   UNL     1       1.105   4.425  -5.295  1.00  0.00     0.297 HD
ENDBRANCH   9  11
ENDBRANCH   3   9
ENDBRANCH   1   2
BRANCH   1  13
ATOM     13  C   UNL     1      -4.641   7.751  -6.915  1.00  0.00     0.230 C 
BRANCH  13  14
ATOM     14  C   UNL     1      -4.495   8.086  -8.400  1.00  0.00     0.046 C 
BRANCH  14  15
ATOM     15  C   UNL     1      -3.099   8.656  -8.659  1.00  0.00     0.043 C 
BRANCH  15  16
ATOM     16  C   UNL     1      -3.172   9.687  -9.756  1.00  0.00    -0.004 A 
ATOM     17  C   UNL     1      -3.107   9.442 -11.085  1.00  0.00     0.036 A 
ATOM     18  C   UNL     1      -3.325  11.067  -9.580  1.00  0.00     0.063 A 
ATOM     19  N   UNL     1      -3.209  10.624 -11.727  1.00  0.00    -0.282 N 
ATOM     20  N   UNL     1      -3.340  11.630 -10.761  1.00  0.00    -0.181 NA
ATOM     21  C   UNL     1      -2.950   8.090 -11.732  1.00  0.00     0.066 C 
ATOM     22  C   UNL     1      -3.439  11.782  -8.258  1.00  0.00     0.069 C 
ATOM     23  H   UNL     1      -3.193  10.755 -12.688  1.00  0.00     0.190 HD
ENDBRANCH  15  16
ENDBRANCH  14  15
ENDBRANCH  13  14
ENDBRANCH   1  13
TORSDOF 7
ENDMDL
MODEL 3
REMARK VINA RESULT:    -5.313      2.286      3.473
REMARK INTER + INTRA:          -7.890
REMARK INTER:                  -7.299
REMARK INTRA:                  -0.591
REMARK UNBOUND:                -0.559
REMARK SMILES Cc1n[nH]c(C)c1CCCOc1cc(C(=O)O)ccc1F
REMARK SMILES IDX 11 1 12 2 14 3 18 4 13 5 19 6 20 7 21 8 15 9 16 10 17 11
REMARK SMILES IDX 10 13 9 14 8 15 7 16 5 17 2 18 4 19 3 20 6 21 1 22
REMARK H PARENT 17 12 4 23
ROOT
ATOM      1  O   UNL     1      -4.562   6.316  -6.772  1.00  0.00    -0.490 OA
ENDROOT
BRANCH   1   2
ATOM      2  C   UNL     1      -3.472   5.875  -6.090  1.00  0.00     0.155 A 
ATOM      3  C   UNL     1      -1.309   4.825  -6.065  1.00  0.00     0.063 A 
ATOM      4  C   UNL     1      -1.249   4.991  -4.678  1.00  0.00     0.019 A 
ATOM      5  C   UNL     1      -2.429   5.272  -6.768  1.00  0.00     0.065 A 
ATOM      6  C   UNL     1      -2.291   5.599  -4.011  1.00  0.00     0.044 A 
ATOM      7  C   UNL     1      -3.399   6.046  -4.711  1.00  0.00     0.165 A 
ATOM      8  F   UNL     1      -4.417   6.641  -4.052  1.00  0.00    -0.203 F 
BRANCH   3   9
ATOM      9  C   UNL     1      -0.195   4.175  -6.782  1.00  0.00     0.335 C 
ATOM     10  O   UNL     1      -0.366   3.736  -7.901  1.00  0.00    -0.246 OA
BRANCH   9  11
ATOM     11  O   UNL     1       1.015   4.074  -6.197  1.00  0.00    -0.478 OA
ATOM     12  H   UNL     1       1.349   3.182  -6.029  1.00  0.00     0.297 HD
ENDBRANCH   9  11
ENDBRANCH   3   9
ENDBRANCH   1   2
BRANCH   1  13
ATOM     13  C   UNL     1      -4.700   7.731  -6.930  1.00  0.00     0.230 C 
BRANCH  13  14
ATOM     14  C   UNL     1      -4.466   8.104  -8.395  1.00  0.00     0.046 C 
BRANCH  14  15
ATOM     15  C   UNL     1      -3.127   8.831  -8.529  1.00  0.00     0.043 C 
BRANCH  15  16
ATOM     16  C   UNL     1      -3.240   9.905  -9.579  1.00  0.00    -0.004 A 
ATOM     17  C   UNL     1      -3.416  11.228  -9.350  1.00  0.00     0.036 A 
ATOM     18  C   UNL     1      -3.176   9.714 -10.964  1.00  0.00     0.063 A 
ATOM     19  N   UNL     1      -3.468  11.849 -10.547  1.00  0.00    -0.282 N 
ATOM     20  N   UNL     1      -3.320  10.877 -11.545  1.00  0.00    -0.181 NA
ATOM     21  C   UNL     1      -3.532  11.887  -8.001  1.00  0.00     0.066 C 
ATOM     22  C   UNL     1      -2.988   8.393 -11.665  1.00  0.00     0.069 C 
ATOM     23  H   UNL     1      -3.588  12.801 -10.691  1.00  0.00     0.190 HD
ENDBRANCH  15  16
ENDBRANCH  14  15
ENDBRANCH  13  14
ENDBRANCH   1  13
TORSDOF 7
ENDMDL
MODEL 4
REMARK VINA RESULT:    -5.312      0.138      1.773
REMARK INTER + INTRA:          -7.888
REMARK INTER:                  -7.296
REMARK INTRA:                  -0.593
REMARK UNBOUND:                -0.559
REMARK SMILES Cc1n[nH]c(C)c1CCCOc1cc(C(=O)O)ccc1F
REMARK SMILES IDX 11 1 12 2 14 3 18 4 13 5 19 6 20 7 21 8 15 9 16 10 17 11
REMARK SMILES IDX 10 13 9 14 8 15 7 16 5 17 2 18 4 19 3 20 6 21 1 22
REMARK H PARENT 17 12 4 23
ROOT
ATOM      1  O   UNL     1      -0.015   7.385  -6.874  1.00  0.00    -0.490 OA
ENDROOT
BRANCH   1   2
ATOM      2  C   UNL     1      -0.737   6.524  -6.109  1.00  0.00     0.155 A 
ATOM      3  C   UNL     1      -2.506   6.112  -4.533  1.00  0.00     0.063 A 
ATOM      4  C   UNL     1      -2.207   4.747  -4.560  1.00  0.00     0.019 A 
ATOM      5  C   UNL     1      -1.763   7.000  -5.314  1.00  0.00     0.065 A 
ATOM      6  C   UNL     1      -1.185   4.281  -5.361  1.00  0.00     0.044 A 
ATOM      7  C   UNL     1      -0.453   5.163  -6.138  1.00  0.00     0.165 A 
ATOM      8  F   UNL     1       0.547   4.700  -6.920  1.00  0.00    -0.203 F 
BRANCH   3   9
ATOM      9  C   UNL     1      -3.599   6.614  -3.678  1.00  0.00     0.335 C 
ATOM     10  O   UNL     1      -3.623   7.781  -3.345  1.00  0.00    -0.246 OA
BRANCH   9  11
ATOM     11  O   UNL     1      -4.575   5.778  -3.273  1.00  0.00    -0.478 OA
ATOM     12  H   UNL     1      -5.444   5.884  -3.685  1.00  0.00     0.297 HD
ENDBRANCH   9  11
ENDBRANCH   3   9
ENDBRANCH   1   2
BRANCH   1  13
ATOM     13  C   UNL     1      -0.266   7.370  -8.282  1.00  0.00     0.230 C 
BRANCH  13  14
ATOM     14  C   UNL     1      -0.951   8.675  -8.691  1.00  0.00     0.046 C 
BRANCH  14  15
ATOM     15  C   UNL     1      -2.405   8.390  -9.075  1.00  0.00     0.043 C 
BRANCH  15  16
ATOM     16  C   UNL     1      -2.831   9.336 -10.167  1.00  0.00    -0.004 A 
ATOM     17  C   UNL     1      -2.914   9.045 -11.486  1.00  0.00     0.036 A 
ATOM     18  C   UNL     1      -3.218  10.670  -9.996  1.00  0.00     0.063 A 
ATOM     19  N   UNL     1      -3.332  10.156 -12.128  1.00  0.00    -0.282 N 
ATOM     20  N   UNL     1      -3.512  11.164 -11.171  1.00  0.00    -0.181 NA
ATOM     21  C   UNL     1      -2.597   7.717 -12.124  1.00  0.00     0.066 C 
ATOM     22  C   UNL     1      -3.275  11.412  -8.686  1.00  0.00     0.069 C 
ATOM     23  H   UNL     1      -3.480  10.242 -13.082  1.00  0.00     0.190 HD
ENDBRANCH  15  16
ENDBRANCH  14  15
ENDBRANCH  13  14
ENDBRANCH   1  13
TORSDOF 7
ENDMDL
MODEL 5
REMARK VINA RESULT:    -4.448      4.764      8.180
REMARK INTER + INTRA:          -6.696
REMARK INTER:                  -6.050
REMARK INTRA:                  -0.646
REMARK UNBOUND:                -0.559
REMARK SMILES Cc1n[nH]c(C)c1CCCOc1cc(C(=O)O)ccc1F
REMARK SMILES IDX 11 1 12 2 14 3 18 4 13 5 19 6 20 7 21 8 15 9 16 10 17 11
REMARK SMILES IDX 10 13 9 14 8 15 7 16 5 17 2 18 4 19 3 20 6 21 1 22
REMARK H PARENT 17 12 4 23
ROOT
ATOM      1  O   UNL     1      -2.593   8.435 -11.254  1.00  0.00    -0.490 OA
ENDROOT
BRANCH   1   2
ATOM      2  C   UNL     1      -3.002   8.676 -12.528  1.00  0.00     0.155 A 
ATOM      3  C   UNL     1      -3.069  10.100 -14.465  1.00  0.00     0.063 A 
ATOM      4  C   UNL     1      -3.838   9.145 -15.136  1.00  0.00     0.019 A 
ATOM      5  C   UNL     1      -2.652   9.858 -13.154  1.00  0.00     0.065 A 
ATOM      6  C   UNL     1      -4.176   7.967 -14.505  1.00  0.00     0.044 A 
ATOM      7  C   UNL     1      -3.757   7.727 -13.207  1.00  0.00     0.165 A 
ATOM      8  F   UNL     1      -4.093   6.569 -12.595  1.00  0.00    -0.203 F 
BRANCH   3   9
ATOM      9  C   UNL     1      -2.704  11.363 -15.136  1.00  0.00     0.335 C 
ATOM     10  O   UNL     1      -2.695  11.425 -16.349  1.00  0.00    -0.246 OA
BRANCH   9  11
ATOM     11  O   UNL     1      -2.388  12.449 -14.403  1.00  0.00    -0.478 OA
ATOM     12  H   UNL     1      -2.493  12.377 -13.444  1.00  0.00     0.297 HD
ENDBRANCH   9  11
ENDBRANCH   3   9
ENDBRANCH   1   2
BRANCH   1  13
ATOM     13  C   UNL     1      -3.112   9.291 -10.233  1.00  0.00     0.230 C 
BRANCH  13  14
ATOM     14  C   UNL     1      -2.469   8.933  -8.893  1.00  0.00     0.046 C 
BRANCH  14  15
ATOM     15  C   UNL     1      -2.525   7.417  -8.689  1.00  0.00     0.043 C 
BRANCH  15  16
ATOM     16  C   UNL     1      -2.339   7.099  -7.228  1.00  0.00    -0.004 A 
ATOM     17  C   UNL     1      -3.324   6.842  -6.337  1.00  0.00     0.036 A 
ATOM     18  C   UNL     1      -1.116   7.011  -6.554  1.00  0.00     0.063 A 
ATOM     19  N   UNL     1      -2.746   6.606  -5.140  1.00  0.00    -0.282 N 
ATOM     20  N   UNL     1      -1.359   6.722  -5.302  1.00  0.00    -0.181 NA
ATOM     21  C   UNL     1      -4.802   6.822  -6.628  1.00  0.00     0.066 C 
ATOM     22  C   UNL     1       0.246   7.224  -7.164  1.00  0.00     0.069 C 
ATOM     23  H   UNL     1      -3.209   6.394  -4.315  1.00  0.00     0.190 HD
ENDBRANCH  15  16
ENDBRANCH  14  15
ENDBRANCH  13  14
ENDBRANCH   1  13
TORSDOF 7
ENDMDL
MODEL 6
REMARK VINA RESULT:    -4.404      4.958      7.896
REMARK INTER + INTRA:          -6.635
REMARK INTER:                  -5.923
REMARK INTRA:                  -0.712
REMARK UNBOUND:                -0.559
REMARK SMILES Cc1n[nH]c(C)c1CCCOc1cc(C(=O)O)ccc1F
REMARK SMILES IDX 11 1 12 2 14 3 18 4 13 5 19 6 20 7 21 8 15 9 16 10 17 11
REMARK SMILES IDX 10 13 9 14 8 15 7 16 5 17 2 18 4 19 3 20 6 21 1 22
REMARK H PARENT 17 12 4 23
ROOT
ATOM      1  O   UNL     1      -3.505  10.837  -8.778  1.00  0.00    -0.490 OA
ENDROOT
BRANCH   1   2
ATOM      2  C   UNL     1      -3.495  12.161  -9.087  1.00  0.00     0.155 A 
ATOM      3  C   UNL     1      -4.215  13.986 -10.478  1.00  0.00     0.063 A 
ATOM      4  C   UNL     1      -3.471  14.872  -9.694  1.00  0.00     0.019 A 
ATOM      5  C   UNL     1      -4.223  12.624 -10.167  1.00  0.00     0.065 A 
ATOM      6  C   UNL     1      -2.753  14.401  -8.615  1.00  0.00     0.044 A 
ATOM      7  C   UNL     1      -2.767  13.051  -8.305  1.00  0.00     0.165 A 
ATOM      8  F   UNL     1      -2.061  12.596  -7.246  1.00  0.00    -0.203 F 
BRANCH   3   9
ATOM      9  C   UNL     1      -4.984  14.486 -11.634  1.00  0.00     0.335 C 
ATOM     10  O   UNL     1      -5.027  15.677 -11.866  1.00  0.00    -0.246 OA
BRANCH   9  11
ATOM     11  O   UNL     1      -5.634  13.620 -12.436  1.00  0.00    -0.478 OA
ATOM     12  H   UNL     1      -5.771  12.724 -12.096  1.00  0.00     0.297 HD
ENDBRANCH   9  11
ENDBRANCH   3   9
ENDBRANCH   1   2
BRANCH   1  13
ATOM     13  C   UNL     1      -3.041   9.933  -9.784  1.00  0.00     0.230 C 
BRANCH  13  14
ATOM     14  C   UNL     1      -2.934   8.526  -9.194  1.00  0.00     0.046 C 
BRANCH  14  15
ATOM     15  C   UNL     1      -2.642   8.623  -7.695  1.00  0.00     0.043 C 
BRANCH  15  16
ATOM     16  C   UNL     1      -2.369   7.246  -7.146  1.00  0.00    -0.004 A 
ATOM     17  C   UNL     1      -1.153   6.665  -7.021  1.00  0.00     0.036 A 
ATOM     18  C   UNL     1      -3.327   6.346  -6.669  1.00  0.00     0.063 A 
ATOM     19  N   UNL     1      -1.336   5.438  -6.490  1.00  0.00    -0.282 N 
ATOM     20  N   UNL     1      -2.710   5.259  -6.282  1.00  0.00    -0.181 NA
ATOM     21  C   UNL     1       0.168   7.278  -7.405  1.00  0.00     0.066 C 
ATOM     22  C   UNL     1      -4.815   6.582  -6.620  1.00  0.00     0.069 C 
ATOM     23  H   UNL     1      -0.640   4.793  -6.289  1.00  0.00     0.190 HD
ENDBRANCH  15  16
ENDBRANCH  14  15
ENDBRANCH  13  14
ENDBRANCH   1  13
TORSDOF 7
ENDMDL
MODEL 7
REMARK VINA RESULT:    -4.385      3.934      6.998
REMARK INTER + INTRA:          -6.610
REMARK INTER:                  -5.830
REMARK INTRA:                  -0.781
REMARK UNBOUND:                -0.559
REMARK SMILES Cc1n[nH]c(C)c1CCCOc1cc(C(=O)O)ccc1F
REMARK SMILES IDX 11 1 12 2 14 3 18 4 13 5 19 6 20 7 21 8 15 9 16 10 17 11
REMARK SMILES IDX 10 13 9 14 8 15 7 16 5 17 2 18 4 19 3 20 6 21 1 22
REMARK H PARENT 17 12 4 23
ROOT
ATOM      1  O   UNL     1      -2.947   8.533  -7.240  1.00  0.00    -0.490 OA
ENDROOT
BRANCH   1   2
ATOM      2  C   UNL     1      -3.034   9.093  -8.476  1.00  0.00     0.155 A 
ATOM      3  C   UNL     1      -3.053   8.874 -10.870  1.00  0.00     0.063 A 
ATOM      4  C   UNL     1      -3.224  10.256 -10.992  1.00  0.00     0.019 A 
ATOM      5  C   UNL     1      -2.958   8.296  -9.603  1.00  0.00     0.065 A 
ATOM      6  C   UNL     1      -3.304  11.042  -9.862  1.00  0.00     0.044 A 
ATOM      7  C   UNL     1      -3.215  10.466  -8.605  1.00  0.00     0.165 A 
ATOM      8  F   UNL     1      -3.295  11.242  -7.502  1.00  0.00    -0.203 F 
BRANCH   3   9
ATOM      9  C   UNL     1      -2.967   8.030 -12.078  1.00  0.00     0.335 C 
ATOM     10  O   UNL     1      -1.883   7.759 -12.554  1.00  0.00    -0.246 OA
BRANCH   9  11
ATOM     11  O   UNL     1      -4.091   7.554 -12.648  1.00  0.00    -0.478 OA
ATOM     12  H   UNL     1      -4.381   7.976 -13.468  1.00  0.00     0.297 HD
ENDBRANCH   9  11
ENDBRANCH   3   9
ENDBRANCH   1   2
BRANCH   1  13
ATOM     13  C   UNL     1      -3.767   7.390  -6.987  1.00  0.00     0.230 C 
BRANCH  13  14
ATOM     14  C   UNL     1      -3.384   6.777  -5.639  1.00  0.00     0.046 C 
BRANCH  14  15
ATOM     15  C   UNL     1      -1.928   7.121  -5.317  1.00  0.00     0.043 C 
BRANCH  15  16
ATOM     16  C   UNL     1      -1.030   6.010  -5.796  1.00  0.00    -0.004 A 
ATOM     17  C   UNL     1      -0.987   4.751  -5.301  1.00  0.00     0.036 A 
ATOM     18  C   UNL     1      -0.099   6.095  -6.837  1.00  0.00     0.063 A 
ATOM     19  N   UNL     1      -0.056   4.067  -5.998  1.00  0.00    -0.282 N 
ATOM     20  N   UNL     1       0.491   4.933  -6.954  1.00  0.00    -0.181 NA
ATOM     21  C   UNL     1      -1.827   4.212  -4.173  1.00  0.00     0.066 C 
ATOM     22  C   UNL     1       0.186   7.318  -7.670  1.00  0.00     0.069 C 
ATOM     23  H   UNL     1       0.191   3.139  -5.861  1.00  0.00     0.190 HD
ENDBRANCH  15  16
ENDBRANCH  14  15
ENDBRANCH  13  14
ENDBRANCH   1  13
TORSDOF 7
ENDMDL
MODEL 8
REMARK VINA RESULT:    -4.298      3.832      6.540
REMARK INTER + INTRA:          -6.489
REMARK INTER:                  -5.661
REMARK INTRA:                  -0.828
REMARK UNBOUND:                -0.559
REMARK SMILES Cc1n[nH]c(C)c1CCCOc1cc(C(=O)O)ccc1F
REMARK SMILES IDX 11 1 12 2 14 3 18 4 13 5 19 6 20 7 21 8 15 9 16 10 17 11
REMARK SMILES IDX 10 13 9 14 8 15 7 16 5 17 2 18 4 19 3 20 6 21 1 22
REMARK H PARENT 17 12 4 23
ROOT
ATOM      1  O   UNL     1      -2.248   7.253  -8.692  1.00  0.00    -0.490 OA
ENDROOT
BRANCH   1   2
ATOM      2  C   UNL     1      -2.609   8.402  -9.323  1.00  0.00     0.155 A 
ATOM      3  C   UNL     1      -3.157  10.742  -9.248  1.00  0.00     0.063 A 
ATOM      4  C   UNL     1      -3.337  10.741 -10.634  1.00  0.00     0.019 A 
ATOM      5  C   UNL     1      -2.791   9.563  -8.596  1.00  0.00     0.065 A 
ATOM      6  C   UNL     1      -3.148   9.579 -11.352  1.00  0.00     0.044 A 
ATOM      7  C   UNL     1      -2.780   8.412 -10.703  1.00  0.00     0.165 A 
ATOM      8  F   UNL     1      -2.596   7.277 -11.413  1.00  0.00    -0.203 F 
BRANCH   3   9
ATOM      9  C   UNL     1      -3.359  11.984  -8.476  1.00  0.00     0.335 C 
ATOM     10  O   UNL     1      -3.101  12.011  -7.290  1.00  0.00    -0.246 OA
BRANCH   9  11
ATOM     11  O   UNL     1      -3.822  13.091  -9.090  1.00  0.00    -0.478 OA
ATOM     12  H   UNL     1      -4.711  13.043  -9.469  1.00  0.00     0.297 HD
ENDBRANCH   9  11
ENDBRANCH   3   9
ENDBRANCH   1   2
BRANCH   1  13
ATOM     13  C   UNL     1      -1.201   7.347  -7.723  1.00  0.00     0.230 C 
BRANCH  13  14
ATOM     14  C   UNL     1      -1.005   5.987  -7.052  1.00  0.00     0.046 C 
BRANCH  14  15
ATOM     15  C   UNL     1      -2.357   5.284  -6.918  1.00  0.00     0.043 C 
BRANCH  15  16
ATOM     16  C   UNL     1      -3.013   5.698  -5.626  1.00  0.00    -0.004 A 
ATOM     17  C   UNL     1      -4.126   6.459  -5.507  1.00  0.00     0.036 A 
ATOM     18  C   UNL     1      -2.583   5.360  -4.339  1.00  0.00     0.063 A 
ATOM     19  N   UNL     1      -4.387   6.602  -4.190  1.00  0.00    -0.282 N 
ATOM     20  N   UNL     1      -3.402   5.907  -3.477  1.00  0.00    -0.181 NA
ATOM     21  C   UNL     1      -4.930   7.040  -6.640  1.00  0.00     0.066 C 
ATOM     22  C   UNL     1      -1.377   4.521  -4.002  1.00  0.00     0.069 C 
ATOM     23  H   UNL     1      -5.126   7.099  -3.806  1.00  0.00     0.190 HD
ENDBRANCH  15  16
ENDBRANCH  14  15
ENDBRANCH  13  14
ENDBRANCH   1  13
TORSDOF 7
ENDMDL
MODEL 9
REMARK VINA RESULT:    -4.095      7.971     11.193
REMARK INTER + INTRA:          -6.210
REMARK INTER:                  -5.626
REMARK INTRA:                  -0.584
REMARK UNBOUND:                -0.559
REMARK SMILES Cc1n[nH]c(C)c1CCCOc1cc(C(=O)O)ccc1F
REMARK SMILES IDX 11 1 12 2 14 3 18 4 13 5 19 6 20 7 21 8 15 9 16 10 17 11
REMARK SMILES IDX 10 13 9 14 8 15 7 16 5 17 2 18 4 19 3 20 6 21 1 22
REMARK H PARENT 17 12 4 23
ROOT
ATOM      1  O   UNL     1      -3.717  15.085 -13.416  1.00  0.00    -0.490 OA
ENDROOT
BRANCH   1   2
ATOM      2  C   UNL     1      -4.027  14.752 -14.698  1.00  0.00     0.155 A 
ATOM      3  C   UNL     1      -5.466  13.651 -16.279  1.00  0.00     0.063 A 
ATOM      4  C   UNL     1      -4.649  14.092 -17.323  1.00  0.00     0.019 A 
ATOM      5  C   UNL     1      -5.148  13.987 -14.961  1.00  0.00     0.065 A 
ATOM      6  C   UNL     1      -3.537  14.861 -17.051  1.00  0.00     0.044 A 
ATOM      7  C   UNL     1      -3.226  15.196 -15.744  1.00  0.00     0.165 A 
ATOM      8  F   UNL     1      -2.135  15.950 -15.484  1.00  0.00    -0.203 F 
BRANCH   3   9
ATOM      9  C   UNL     1      -6.658  12.829 -16.566  1.00  0.00     0.335 C 
ATOM     10  O   UNL     1      -7.390  13.123 -17.488  1.00  0.00    -0.246 OA
BRANCH   9  11
ATOM     11  O   UNL     1      -6.928  11.748 -15.809  1.00  0.00    -0.478 OA
ATOM     12  H   UNL     1      -7.577  11.859 -15.100  1.00  0.00     0.297 HD
ENDBRANCH   9  11
ENDBRANCH   3   9
ENDBRANCH   1   2
BRANCH   1  13
ATOM     13  C   UNL     1      -4.808  15.248 -12.506  1.00  0.00     0.230 C 
BRANCH  13  14
ATOM     14  C   UNL     1      -4.618  14.311 -11.312  1.00  0.00     0.046 C 
BRANCH  14  15
ATOM     15  C   UNL     1      -4.573  15.133 -10.021  1.00  0.00     0.043 C 
BRANCH  15  16
ATOM     16  C   UNL     1      -3.167  15.143  -9.480  1.00  0.00    -0.004 A 
ATOM     17  C   UNL     1      -2.274  16.153  -9.604  1.00  0.00     0.036 A 
ATOM     18  C   UNL     1      -2.556  14.115  -8.756  1.00  0.00     0.063 A 
ATOM     19  N   UNL     1      -1.136  15.773  -8.985  1.00  0.00    -0.282 N 
ATOM     20  N   UNL     1      -1.336  14.488  -8.465  1.00  0.00    -0.181 NA
ATOM     21  C   UNL     1      -2.509  17.465 -10.306  1.00  0.00     0.066 C 
ATOM     22  C   UNL     1      -3.189  12.798  -8.385  1.00  0.00     0.069 C 
ATOM     23  H   UNL     1      -0.323  16.297  -8.915  1.00  0.00     0.190 HD
ENDBRANCH  15  16
ENDBRANCH  14  15
ENDBRANCH  13  14
ENDBRANCH   1  13
TORSDOF 7
ENDMDL
