MODEL 1
REMARK VINA RESULT:    -4.805      0.000      0.000
REMARK INTER + INTRA:          -5.803
REMARK INTER:                  -5.507
REMARK INTRA:                  -0.295
REMARK UNBOUND:                -0.295
REMARK SMILES O=C(O)c1ccc2nc(-c3cc(Cl)cc(Cl)c3)oc2c1
REMARK SMILES IDX 5 1 6 2 20 3 8 4 18 5 4 6 9 7 7 8 19 9 2 10 1 11 3 12 10 14
REMARK SMILES IDX 11 15 17 16 12 17 15 18 14 19 13 20 16 21
REMARK H PARENT 3 13
ROOT
ATOM      1  C   UNL     1       8.853  10.411  -2.809  1.00  0.00     0.018 A 
ATOM      2  C   UNL     1       8.340   9.256  -3.318  1.00  0.00     0.033 A 
ATOM      3  C   UNL     1       7.714  10.016  -0.705  1.00  0.00     0.065 A 
ATOM      4  N   UNL     1       6.858   7.289  -2.755  1.00  0.00    -0.209 NA
ATOM      5  O   UNL     1       6.371   7.891  -0.722  1.00  0.00    -0.436 OA
ATOM      6  C   UNL     1       8.549  10.804  -1.498  1.00  0.00     0.063 A 
ATOM      7  C   UNL     1       6.190   6.960  -1.677  1.00  0.00     0.227 A 
ATOM      8  C   UNL     1       7.500   8.455  -2.534  1.00  0.00     0.110 A 
ATOM      9  C   UNL     1       7.187   8.846  -1.220  1.00  0.00     0.156 A 
ENDROOT
BRANCH   6  10
ATOM     10  C   UNL     1       9.115  12.053  -0.955  1.00  0.00     0.335 C 
ATOM     11  O   UNL     1       8.709  12.495   0.101  1.00  0.00    -0.246 OA
BRANCH  10  12
ATOM     12  O   UNL     1      10.082  12.705  -1.631  1.00  0.00    -0.478 OA
ATOM     13  H   UNL     1       9.850  13.562  -2.012  1.00  0.00     0.297 HD
ENDBRANCH  10  12
ENDBRANCH   6  10
BRANCH   7  14
ATOM     14  C   UNL     1       5.361   5.745  -1.533  1.00  0.00     0.040 A 
ATOM     15  C   UNL     1       4.262   5.745  -0.673  1.00  0.00     0.034 A 
ATOM     16  C   UNL     1       5.675   4.592  -2.255  1.00  0.00     0.034 A 
ATOM     17  C   UNL     1       3.490   4.607  -0.543  1.00  0.00     0.043 A 
ATOM     18  C   UNL     1       4.896   3.461  -2.117  1.00  0.00     0.043 A 
ATOM     19  C   UNL     1       3.807   3.467  -1.262  1.00  0.00     0.041 A 
ATOM     20  Cl  UNL     1       2.122   4.605   0.525  1.00  0.00    -0.084 Cl
ATOM     21  Cl  UNL     1       5.285   2.026  -3.015  1.00  0.00    -0.084 Cl
ENDBRANCH   7  14
TORSDOF 3
ENDMDL
MODEL 2
REMARK VINA RESULT:    -4.801      0.009      2.019
REMARK INTER + INTRA:          -5.799
REMARK INTER:                  -5.503
REMARK INTRA:                  -0.295
REMARK UNBOUND:                -0.295
REMARK SMILES O=C(O)c1ccc2nc(-c3cc(Cl)cc(Cl)c3)oc2c1
REMARK SMILES IDX 5 1 6 2 20 3 8 4 18 5 4 6 9 7 7 8 19 9 2 10 1 11 3 12 10 14
REMARK SMILES IDX 11 15 17 16 12 17 15 18 14 19 13 20 16 21
REMARK H PARENT 3 13
ROOT
ATOM      1  C   UNL     1       8.852  10.414  -2.808  1.00  0.00     0.018 A 
ATOM      2  C   UNL     1       8.336   9.261  -3.319  1.00  0.00     0.033 A 
ATOM      3  C   UNL     1       7.716  10.017  -0.702  1.00  0.00     0.065 A 
ATOM      4  N   UNL     1       6.852   7.295  -2.757  1.00  0.00    -0.209 NA
ATOM      5  O   UNL     1       6.370   7.894  -0.721  1.00  0.00    -0.436 OA
ATOM      6  C   UNL     1       8.551  10.806  -1.496  1.00  0.00     0.063 A 
ATOM      7  C   UNL     1       6.186   6.965  -1.678  1.00  0.00     0.227 A 
ATOM      8  C   UNL     1       7.497   8.460  -2.534  1.00  0.00     0.110 A 
ATOM      9  C   UNL     1       7.187   8.849  -1.219  1.00  0.00     0.156 A 
ENDROOT
BRANCH   6  10
ATOM     10  C   UNL     1       9.119  12.052  -0.952  1.00  0.00     0.335 C 
ATOM     11  O   UNL     1       8.712  12.496   0.103  1.00  0.00    -0.246 OA
BRANCH  10  12
ATOM     12  O   UNL     1      10.090  12.701  -1.625  1.00  0.00    -0.478 OA
ATOM     13  H   UNL     1      10.957  12.756  -1.202  1.00  0.00     0.297 HD
ENDBRANCH  10  12
ENDBRANCH   6  10
BRANCH   7  14
ATOM     14  C   UNL     1       5.355   5.751  -1.534  1.00  0.00     0.040 A 
ATOM     15  C   UNL     1       5.665   4.599  -2.258  1.00  0.00     0.034 A 
ATOM     16  C   UNL     1       4.256   5.753  -0.673  1.00  0.00     0.034 A 
ATOM     17  C   UNL     1       4.886   3.468  -2.118  1.00  0.00     0.043 A 
ATOM     18  C   UNL     1       3.484   4.616  -0.542  1.00  0.00     0.043 A 
ATOM     19  C   UNL     1       3.797   3.477  -1.263  1.00  0.00     0.041 A 
ATOM     20  Cl  UNL     1       5.270   2.034  -3.018  1.00  0.00    -0.084 Cl
ATOM     21  Cl  UNL     1       2.117   4.616   0.529  1.00  0.00    -0.084 Cl
ENDBRANCH   7  14
TORSDOF 3
ENDMDL
MODEL 3
REMARK VINA RESULT:    -4.779      3.971      7.478
REMARK INTER + INTRA:          -5.772
REMARK INTER:                  -5.486
REMARK INTRA:                  -0.286
REMARK UNBOUND:                -0.295
REMARK SMILES O=C(O)c1ccc2nc(-c3cc(Cl)cc(Cl)c3)oc2c1
REMARK SMILES IDX 5 1 6 2 20 3 8 4 18 5 4 6 9 7 7 8 19 9 2 10 1 11 3 12 10 14
REMARK SMILES IDX 11 15 17 16 12 17 15 18 14 19 13 20 16 21
REMARK H PARENT 3 13
ROOT
ATOM      1  C   UNL     1       3.911   4.580  -2.769  1.00  0.00     0.018 A 
ATOM      2  C   UNL     1       3.978   5.932  -2.608  1.00  0.00     0.033 A 
ATOM      3  C   UNL     1       6.253   4.369  -2.177  1.00  0.00     0.065 A 
ATOM      4  N   UNL     1       5.553   7.812  -2.000  1.00  0.00    -0.209 NA
ATOM      5  O   UNL     1       7.321   6.588  -1.672  1.00  0.00    -0.436 OA
ATOM      6  C   UNL     1       5.043   3.782  -2.554  1.00  0.00     0.063 A 
ATOM      7  C   UNL     1       6.820   7.837  -1.669  1.00  0.00     0.227 A 
ATOM      8  C   UNL     1       5.185   6.533  -2.231  1.00  0.00     0.110 A 
ATOM      9  C   UNL     1       6.327   5.740  -2.018  1.00  0.00     0.156 A 
ENDROOT
BRANCH   6  10
ATOM     10  C   UNL     1       4.957   2.321  -2.725  1.00  0.00     0.335 C 
ATOM     11  O   UNL     1       3.945   1.821  -3.176  1.00  0.00    -0.246 OA
BRANCH  10  12
ATOM     12  O   UNL     1       5.998   1.538  -2.379  1.00  0.00    -0.478 OA
ATOM     13  H   UNL     1       6.577   1.237  -3.092  1.00  0.00     0.297 HD
ENDBRANCH  10  12
ENDBRANCH   6  10
BRANCH   7  14
ATOM     14  C   UNL     1       7.585   9.058  -1.341  1.00  0.00     0.040 A 
ATOM     15  C   UNL     1       7.642   9.517  -0.025  1.00  0.00     0.034 A 
ATOM     16  C   UNL     1       8.254   9.757  -2.348  1.00  0.00     0.034 A 
ATOM     17  C   UNL     1       8.360  10.658   0.275  1.00  0.00     0.043 A 
ATOM     18  C   UNL     1       8.968  10.896  -2.036  1.00  0.00     0.043 A 
ATOM     19  C   UNL     1       9.021  11.347  -0.728  1.00  0.00     0.041 A 
ATOM     20  Cl  UNL     1       8.433  11.231   1.912  1.00  0.00    -0.084 Cl
ATOM     21  Cl  UNL     1       9.800  11.767  -3.287  1.00  0.00    -0.084 Cl
ENDBRANCH   7  14
TORSDOF 3
ENDMDL
MODEL 4
REMARK VINA RESULT:    -4.775      3.974      7.685
REMARK INTER + INTRA:          -5.768
REMARK INTER:                  -5.481
REMARK INTRA:                  -0.287
REMARK UNBOUND:                -0.295
REMARK SMILES O=C(O)c1ccc2nc(-c3cc(Cl)cc(Cl)c3)oc2c1
REMARK SMILES IDX 5 1 6 2 20 3 8 4 18 5 4 6 9 7 7 8 19 9 2 10 1 11 3 12 10 14
REMARK SMILES IDX 11 15 17 16 12 17 15 18 14 19 13 20 16 21
REMARK H PARENT 3 13
ROOT
ATOM      1  C   UNL     1       3.888   4.584  -2.730  1.00  0.00     0.018 A 
ATOM      2  C   UNL     1       3.963   5.936  -2.570  1.00  0.00     0.033 A 
ATOM      3  C   UNL     1       6.246   4.368  -2.207  1.00  0.00     0.065 A 
ATOM      4  N   UNL     1       5.558   7.812  -2.007  1.00  0.00    -0.209 NA
ATOM      5  O   UNL     1       7.333   6.585  -1.730  1.00  0.00    -0.436 OA
ATOM      6  C   UNL     1       5.025   3.784  -2.549  1.00  0.00     0.063 A 
ATOM      7  C   UNL     1       6.834   7.835  -1.712  1.00  0.00     0.227 A 
ATOM      8  C   UNL     1       5.181   6.534  -2.228  1.00  0.00     0.110 A 
ATOM      9  C   UNL     1       6.327   5.740  -2.049  1.00  0.00     0.156 A 
ENDROOT
BRANCH   6  10
ATOM     10  C   UNL     1       4.931   2.323  -2.718  1.00  0.00     0.335 C 
ATOM     11  O   UNL     1       3.915   1.828  -3.165  1.00  0.00    -0.246 OA
BRANCH  10  12
ATOM     12  O   UNL     1       5.970   1.536  -2.376  1.00  0.00    -0.478 OA
ATOM     13  H   UNL     1       6.260   1.567  -1.455  1.00  0.00     0.297 HD
ENDBRANCH  10  12
ENDBRANCH   6  10
BRANCH   7  14
ATOM     14  C   UNL     1       7.610   9.054  -1.406  1.00  0.00     0.040 A 
ATOM     15  C   UNL     1       8.277   9.736  -2.425  1.00  0.00     0.034 A 
ATOM     16  C   UNL     1       7.681   9.529  -0.094  1.00  0.00     0.034 A 
ATOM     17  C   UNL     1       9.000  10.875  -2.132  1.00  0.00     0.043 A 
ATOM     18  C   UNL     1       8.407  10.669   0.186  1.00  0.00     0.043 A 
ATOM     19  C   UNL     1       9.066  11.340  -0.829  1.00  0.00     0.041 A 
ATOM     20  Cl  UNL     1       9.830  11.725  -3.398  1.00  0.00    -0.084 Cl
ATOM     21  Cl  UNL     1       8.496  11.260   1.816  1.00  0.00    -0.084 Cl
ENDBRANCH   7  14
TORSDOF 3
ENDMDL
MODEL 5
REMARK VINA RESULT:    -4.754      3.755      7.643
REMARK INTER + INTRA:          -5.744
REMARK INTER:                  -5.447
REMARK INTRA:                  -0.297
REMARK UNBOUND:                -0.295
REMARK SMILES O=C(O)c1ccc2nc(-c3cc(Cl)cc(Cl)c3)oc2c1
REMARK SMILES IDX 5 1 6 2 20 3 8 4 18 5 4 6 9 7 7 8 19 9 2 10 1 11 3 12 10 14
REMARK SMILES IDX 11 15 17 16 12 17 15 18 14 19 13 20 16 21
REMARK H PARENT 3 13
ROOT
ATOM      1  C   UNL     1       3.938   3.696  -2.256  1.00  0.00     0.018 A 
ATOM      2  C   UNL     1       4.816   4.422  -3.003  1.00  0.00     0.033 A 
ATOM      3  C   UNL     1       4.146   5.279  -0.430  1.00  0.00     0.065 A 
ATOM      4  N   UNL     1       6.256   6.498  -2.968  1.00  0.00    -0.209 NA
ATOM      5  O   UNL     1       5.733   7.156  -0.961  1.00  0.00    -0.436 OA
ATOM      6  C   UNL     1       3.591   4.114  -0.964  1.00  0.00     0.063 A 
ATOM      7  C   UNL     1       6.460   7.422  -2.062  1.00  0.00     0.227 A 
ATOM      8  C   UNL     1       5.380   5.593  -2.481  1.00  0.00     0.110 A 
ATOM      9  C   UNL     1       5.041   6.016  -1.184  1.00  0.00     0.156 A 
ENDROOT
BRANCH   6  10
ATOM     10  C   UNL     1       2.636   3.323  -0.167  1.00  0.00     0.335 C 
ATOM     11  O   UNL     1       2.351   2.192  -0.507  1.00  0.00    -0.246 OA
BRANCH  10  12
ATOM     12  O   UNL     1       2.077   3.855   0.939  1.00  0.00    -0.478 OA
ATOM     13  H   UNL     1       1.416   4.547   0.807  1.00  0.00     0.297 HD
ENDBRANCH  10  12
ENDBRANCH   6  10
BRANCH   7  14
ATOM     14  C   UNL     1       7.357   8.585  -2.225  1.00  0.00     0.040 A 
ATOM     15  C   UNL     1       8.001   8.808  -3.443  1.00  0.00     0.034 A 
ATOM     16  C   UNL     1       7.564   9.465  -1.161  1.00  0.00     0.034 A 
ATOM     17  C   UNL     1       8.837   9.897  -3.590  1.00  0.00     0.043 A 
ATOM     18  C   UNL     1       8.402  10.550  -1.320  1.00  0.00     0.043 A 
ATOM     19  C   UNL     1       9.038  10.766  -2.530  1.00  0.00     0.041 A 
ATOM     20  Cl  UNL     1       9.639  10.177  -5.103  1.00  0.00    -0.084 Cl
ATOM     21  Cl  UNL     1       8.661  11.645   0.003  1.00  0.00    -0.084 Cl
ENDBRANCH   7  14
TORSDOF 3
ENDMDL
MODEL 6
REMARK VINA RESULT:    -4.751      3.754      7.412
REMARK INTER + INTRA:          -5.741
REMARK INTER:                  -5.443
REMARK INTRA:                  -0.297
REMARK UNBOUND:                -0.295
REMARK SMILES O=C(O)c1ccc2nc(-c3cc(Cl)cc(Cl)c3)oc2c1
REMARK SMILES IDX 5 1 6 2 20 3 8 4 18 5 4 6 9 7 7 8 19 9 2 10 1 11 3 12 10 14
REMARK SMILES IDX 11 15 17 16 12 17 15 18 14 19 13 20 16 21
REMARK H PARENT 3 13
ROOT
ATOM      1  C   UNL     1       3.939   3.691  -2.245  1.00  0.00     0.018 A 
ATOM      2  C   UNL     1       4.818   4.417  -2.991  1.00  0.00     0.033 A 
ATOM      3  C   UNL     1       4.141   5.276  -0.421  1.00  0.00     0.065 A 
ATOM      4  N   UNL     1       6.258   6.493  -2.953  1.00  0.00    -0.209 NA
ATOM      5  O   UNL     1       5.729   7.152  -0.948  1.00  0.00    -0.436 OA
ATOM      6  C   UNL     1       3.587   4.110  -0.954  1.00  0.00     0.063 A 
ATOM      7  C   UNL     1       6.459   7.418  -2.048  1.00  0.00     0.227 A 
ATOM      8  C   UNL     1       5.381   5.588  -2.468  1.00  0.00     0.110 A 
ATOM      9  C   UNL     1       5.038   6.012  -1.172  1.00  0.00     0.156 A 
ENDROOT
BRANCH   6  10
ATOM     10  C   UNL     1       2.630   3.320  -0.160  1.00  0.00     0.335 C 
ATOM     11  O   UNL     1       2.347   2.189  -0.500  1.00  0.00    -0.246 OA
BRANCH  10  12
ATOM     12  O   UNL     1       2.068   3.853   0.944  1.00  0.00    -0.478 OA
ATOM     13  H   UNL     1       1.395   4.533   0.809  1.00  0.00     0.297 HD
ENDBRANCH  10  12
ENDBRANCH   6  10
BRANCH   7  14
ATOM     14  C   UNL     1       7.356   8.581  -2.209  1.00  0.00     0.040 A 
ATOM     15  C   UNL     1       7.562   9.461  -1.147  1.00  0.00     0.034 A 
ATOM     16  C   UNL     1       8.001   8.803  -3.428  1.00  0.00     0.034 A 
ATOM     17  C   UNL     1       8.402  10.545  -1.304  1.00  0.00     0.043 A 
ATOM     18  C   UNL     1       8.839   9.891  -3.573  1.00  0.00     0.043 A 
ATOM     19  C   UNL     1       9.039  10.760  -2.515  1.00  0.00     0.041 A 
ATOM     20  Cl  UNL     1       8.660  11.641   0.017  1.00  0.00    -0.084 Cl
ATOM     21  Cl  UNL     1       9.643  10.169  -5.087  1.00  0.00    -0.084 Cl
ENDBRANCH   7  14
TORSDOF 3
ENDMDL
MODEL 7
REMARK VINA RESULT:    -4.616      1.414      2.070
REMARK INTER + INTRA:          -5.586
REMARK INTER:                  -5.292
REMARK INTRA:                  -0.294
REMARK UNBOUND:                -0.295
REMARK SMILES O=C(O)c1ccc2nc(-c3cc(Cl)cc(Cl)c3)oc2c1
REMARK SMILES IDX 5 1 6 2 20 3 8 4 18 5 4 6 9 7 7 8 19 9 2 10 1 11 3 12 10 14
REMARK SMILES IDX 11 15 17 16 12 17 15 18 14 19 13 20 16 21
REMARK H PARENT 3 13
ROOT
ATOM      1  C   UNL     1       8.723  10.637  -2.002  1.00  0.00     0.018 A 
ATOM      2  C   UNL     1       7.896   9.936  -1.176  1.00  0.00     0.033 A 
ATOM      3  C   UNL     1       8.333   9.041  -3.786  1.00  0.00     0.065 A 
ATOM      4  N   UNL     1       6.422   7.887  -1.067  1.00  0.00    -0.209 NA
ATOM      5  O   UNL     1       6.771   7.194  -3.100  1.00  0.00    -0.436 OA
ATOM      6  C   UNL     1       8.950  10.202  -3.316  1.00  0.00     0.063 A 
ATOM      7  C   UNL     1       6.130   6.956  -1.941  1.00  0.00     0.227 A 
ATOM      8  C   UNL     1       7.271   8.770  -1.636  1.00  0.00     0.110 A 
ATOM      9  C   UNL     1       7.497   8.324  -2.950  1.00  0.00     0.156 A 
ENDROOT
BRANCH   6  10
ATOM     10  C   UNL     1       9.841  10.972  -4.202  1.00  0.00     0.335 C 
ATOM     11  O   UNL     1      10.640  11.755  -3.728  1.00  0.00    -0.246 OA
BRANCH  10  12
ATOM     12  O   UNL     1       9.771  10.807  -5.538  1.00  0.00    -0.478 OA
ATOM     13  H   UNL     1      10.509  10.352  -5.964  1.00  0.00     0.297 HD
ENDBRANCH  10  12
ENDBRANCH   6  10
BRANCH   7  14
ATOM     14  C   UNL     1       5.229   5.812  -1.689  1.00  0.00     0.040 A 
ATOM     15  C   UNL     1       4.155   5.945  -0.809  1.00  0.00     0.034 A 
ATOM     16  C   UNL     1       5.451   4.592  -2.332  1.00  0.00     0.034 A 
ATOM     17  C   UNL     1       3.316   4.873  -0.579  1.00  0.00     0.043 A 
ATOM     18  C   UNL     1       4.605   3.526  -2.094  1.00  0.00     0.043 A 
ATOM     19  C   UNL     1       3.541   3.666  -1.219  1.00  0.00     0.041 A 
ATOM     20  Cl  UNL     1       1.978   5.037   0.515  1.00  0.00    -0.084 Cl
ATOM     21  Cl  UNL     1       4.879   2.009  -2.891  1.00  0.00    -0.084 Cl
ENDBRANCH   7  14
TORSDOF 3
ENDMDL
MODEL 8
REMARK VINA RESULT:    -4.614      1.420      2.892
REMARK INTER + INTRA:          -5.584
REMARK INTER:                  -5.290
REMARK INTRA:                  -0.294
REMARK UNBOUND:                -0.295
REMARK SMILES O=C(O)c1ccc2nc(-c3cc(Cl)cc(Cl)c3)oc2c1
REMARK SMILES IDX 5 1 6 2 20 3 8 4 18 5 4 6 9 7 7 8 19 9 2 10 1 11 3 12 10 14
REMARK SMILES IDX 11 15 17 16 12 17 15 18 14 19 13 20 16 21
REMARK H PARENT 3 13
ROOT
ATOM      1  C   UNL     1       8.718  10.634  -2.015  1.00  0.00     0.018 A 
ATOM      2  C   UNL     1       7.889   9.935  -1.189  1.00  0.00     0.033 A 
ATOM      3  C   UNL     1       8.333   9.033  -3.795  1.00  0.00     0.065 A 
ATOM      4  N   UNL     1       6.415   7.886  -1.078  1.00  0.00    -0.209 NA
ATOM      5  O   UNL     1       6.770   7.188  -3.108  1.00  0.00    -0.436 OA
ATOM      6  C   UNL     1       8.949  10.195  -3.327  1.00  0.00     0.063 A 
ATOM      7  C   UNL     1       6.126   6.952  -1.949  1.00  0.00     0.227 A 
ATOM      8  C   UNL     1       7.265   8.768  -1.647  1.00  0.00     0.110 A 
ATOM      9  C   UNL     1       7.495   8.318  -2.959  1.00  0.00     0.156 A 
ENDROOT
BRANCH   6  10
ATOM     10  C   UNL     1       9.842  10.962  -4.213  1.00  0.00     0.335 C 
ATOM     11  O   UNL     1      10.643  11.743  -3.739  1.00  0.00    -0.246 OA
BRANCH  10  12
ATOM     12  O   UNL     1       9.770  10.799  -5.549  1.00  0.00    -0.478 OA
ATOM     13  H   UNL     1       9.101  10.186  -5.881  1.00  0.00     0.297 HD
ENDBRANCH  10  12
ENDBRANCH   6  10
BRANCH   7  14
ATOM     14  C   UNL     1       5.225   5.809  -1.697  1.00  0.00     0.040 A 
ATOM     15  C   UNL     1       5.443   4.589  -2.339  1.00  0.00     0.034 A 
ATOM     16  C   UNL     1       4.150   5.945  -0.815  1.00  0.00     0.034 A 
ATOM     17  C   UNL     1       4.598   3.524  -2.097  1.00  0.00     0.043 A 
ATOM     18  C   UNL     1       3.312   4.873  -0.582  1.00  0.00     0.043 A 
ATOM     19  C   UNL     1       3.534   3.665  -1.222  1.00  0.00     0.041 A 
ATOM     20  Cl  UNL     1       4.868   2.006  -2.894  1.00  0.00    -0.084 Cl
ATOM     21  Cl  UNL     1       1.976   5.040   0.514  1.00  0.00    -0.084 Cl
ENDBRANCH   7  14
TORSDOF 3
ENDMDL
MODEL 9
REMARK VINA RESULT:    -4.012      4.274      7.755
REMARK INTER + INTRA:          -4.894
REMARK INTER:                  -4.606
REMARK INTRA:                  -0.288
REMARK UNBOUND:                -0.295
REMARK SMILES O=C(O)c1ccc2nc(-c3cc(Cl)cc(Cl)c3)oc2c1
REMARK SMILES IDX 5 1 6 2 20 3 8 4 18 5 4 6 9 7 7 8 19 9 2 10 1 11 3 12 10 14
REMARK SMILES IDX 11 15 17 16 12 17 15 18 14 19 13 20 16 21
REMARK H PARENT 3 13
ROOT
ATOM      1  C   UNL     1       4.550   6.421  -2.420  1.00  0.00     0.018 A 
ATOM      2  C   UNL     1       4.667   7.746  -2.125  1.00  0.00     0.033 A 
ATOM      3  C   UNL     1       6.894   6.075  -1.905  1.00  0.00     0.065 A 
ATOM      4  N   UNL     1       6.316   9.503  -1.366  1.00  0.00    -0.209 NA
ATOM      5  O   UNL     1       8.047   8.196  -1.202  1.00  0.00    -0.436 OA
ATOM      6  C   UNL     1       5.658   5.569  -2.312  1.00  0.00     0.063 A 
ATOM      7  C   UNL     1       7.589   9.454  -1.062  1.00  0.00     0.227 A 
ATOM      8  C   UNL     1       5.901   8.267  -1.716  1.00  0.00     0.110 A 
ATOM      9  C   UNL     1       7.018   7.420  -1.611  1.00  0.00     0.156 A 
ENDROOT
BRANCH   6  10
ATOM     10  C   UNL     1       5.518   4.136  -2.627  1.00  0.00     0.335 C 
ATOM     11  O   UNL     1       6.377   3.351  -2.279  1.00  0.00    -0.246 OA
BRANCH  10  12
ATOM     12  O   UNL     1       4.438   3.697  -3.303  1.00  0.00    -0.478 OA
ATOM     13  H   UNL     1       3.992   4.332  -3.879  1.00  0.00     0.297 HD
ENDBRANCH  10  12
ENDBRANCH   6  10
BRANCH   7  14
ATOM     14  C   UNL     1       8.402  10.610  -0.630  1.00  0.00     0.040 A 
ATOM     15  C   UNL     1       8.721  11.621  -1.537  1.00  0.00     0.034 A 
ATOM     16  C   UNL     1       8.855  10.693   0.688  1.00  0.00     0.034 A 
ATOM     17  C   UNL     1       9.480  12.699  -1.126  1.00  0.00     0.043 A 
ATOM     18  C   UNL     1       9.614  11.776   1.087  1.00  0.00     0.043 A 
ATOM     19  C   UNL     1       9.926  12.776   0.182  1.00  0.00     0.041 A 
ATOM     20  Cl  UNL     1       9.877  13.959  -2.253  1.00  0.00    -0.084 Cl
ATOM     21  Cl  UNL     1      10.178  11.882   2.726  1.00  0.00    -0.084 Cl
ENDBRANCH   7  14
TORSDOF 3
ENDMDL
