MODEL 1
REMARK VINA RESULT:    -5.985      0.000      0.000
REMARK INTER + INTRA:          -8.764
REMARK INTER:                  -8.260
REMARK INTRA:                  -0.504
REMARK UNBOUND:                -0.504
REMARK SMILES Cc1n[nH]c(C)c1CCCOc1cc(C(=O)O)ccc1F
REMARK SMILES IDX 11 1 12 2 14 3 18 4 13 5 19 6 20 7 21 8 15 9 16 10 17 11
REMARK SMILES IDX 10 13 9 14 8 15 7 16 5 17 2 18 4 19 3 20 6 21 1 22
REMARK H PARENT 17 12 4 23
ROOT
ATOM      1  O   UNL     1       3.577   7.107  -2.560  1.00  0.00    -0.490 OA
ENDROOT
BRANCH   1   2
ATOM      2  C   UNL     1       3.637   5.839  -2.073  1.00  0.00     0.155 A 
ATOM      3  C   UNL     1       4.504   3.598  -2.185  1.00  0.00     0.063 A 
ATOM      4  C   UNL     1       3.754   3.256  -1.057  1.00  0.00     0.019 A 
ATOM      5  C   UNL     1       4.441   4.899  -2.691  1.00  0.00     0.065 A 
ATOM      6  C   UNL     1       2.959   4.202  -0.444  1.00  0.00     0.044 A 
ATOM      7  C   UNL     1       2.902   5.492  -0.944  1.00  0.00     0.165 A 
ATOM      8  F   UNL     1       2.122   6.415  -0.339  1.00  0.00    -0.203 F 
BRANCH   3   9
ATOM      9  C   UNL     1       5.355   2.588  -2.843  1.00  0.00     0.335 C 
ATOM     10  O   UNL     1       5.672   2.726  -4.007  1.00  0.00    -0.246 OA
BRANCH   9  11
ATOM     11  O   UNL     1       5.786   1.516  -2.150  1.00  0.00    -0.478 OA
ATOM     12  H   UNL     1       5.653   1.530  -1.192  1.00  0.00     0.297 HD
ENDBRANCH   9  11
ENDBRANCH   3   9
ENDBRANCH   1   2
BRANCH   1  13
ATOM     13  C   UNL     1       4.103   8.146  -1.730  1.00  0.00     0.230 C 
BRANCH  13  14
ATOM     14  C   UNL     1       5.250   8.848  -2.459  1.00  0.00     0.046 C 
BRANCH  14  15
ATOM     15  C   UNL     1       6.587   8.306  -1.947  1.00  0.00     0.043 C 
BRANCH  15  16
ATOM     16  C   UNL     1       7.667   9.330  -2.180  1.00  0.00    -0.004 A 
ATOM     17  C   UNL     1       8.344   9.525  -3.336  1.00  0.00     0.036 A 
ATOM     18  C   UNL     1       8.143  10.252  -1.243  1.00  0.00     0.063 A 
ATOM     19  N   UNL     1       9.222  10.530  -3.135  1.00  0.00    -0.282 N 
ATOM     20  N   UNL     1       9.080  10.967  -1.811  1.00  0.00    -0.181 NA
ATOM     21  C   UNL     1       8.151   8.757  -4.618  1.00  0.00     0.066 C 
ATOM     22  C   UNL     1       7.668  10.390   0.181  1.00  0.00     0.069 C 
ATOM     23  H   UNL     1       9.842  10.886  -3.790  1.00  0.00     0.190 HD
ENDBRANCH  15  16
ENDBRANCH  14  15
ENDBRANCH  13  14
ENDBRANCH   1  13
TORSDOF 7
ENDMDL
MODEL 2
REMARK VINA RESULT:    -5.985      2.297      3.412
REMARK INTER + INTRA:          -8.763
REMARK INTER:                  -8.117
REMARK INTRA:                  -0.646
REMARK UNBOUND:                -0.504
REMARK SMILES Cc1n[nH]c(C)c1CCCOc1cc(C(=O)O)ccc1F
REMARK SMILES IDX 11 1 12 2 14 3 18 4 13 5 19 6 20 7 21 8 15 9 16 10 17 11
REMARK SMILES IDX 10 13 9 14 8 15 7 16 5 17 2 18 4 19 3 20 6 21 1 22
REMARK H PARENT 17 12 4 23
ROOT
ATOM      1  O   UNL     1       6.975   5.024  -1.021  1.00  0.00    -0.490 OA
ENDROOT
BRANCH   1   2
ATOM      2  C   UNL     1       5.675   4.626  -1.067  1.00  0.00     0.155 A 
ATOM      3  C   UNL     1       3.372   4.944  -0.452  1.00  0.00     0.063 A 
ATOM      4  C   UNL     1       3.025   3.804  -1.181  1.00  0.00     0.019 A 
ATOM      5  C   UNL     1       4.707   5.352  -0.399  1.00  0.00     0.065 A 
ATOM      6  C   UNL     1       3.997   3.090  -1.849  1.00  0.00     0.044 A 
ATOM      7  C   UNL     1       5.319   3.499  -1.799  1.00  0.00     0.165 A 
ATOM      8  F   UNL     1       6.267   2.795  -2.456  1.00  0.00    -0.203 F 
BRANCH   3   9
ATOM      9  C   UNL     1       2.334   5.711   0.264  1.00  0.00     0.335 C 
ATOM     10  O   UNL     1       2.626   6.356   1.250  1.00  0.00    -0.246 OA
BRANCH   9  11
ATOM     11  O   UNL     1       1.062   5.700  -0.182  1.00  0.00    -0.478 OA
ATOM     12  H   UNL     1       0.882   6.172  -1.007  1.00  0.00     0.297 HD
ENDBRANCH   9  11
ENDBRANCH   3   9
ENDBRANCH   1   2
BRANCH   1  13
ATOM     13  C   UNL     1       7.478   5.730  -2.158  1.00  0.00     0.230 C 
BRANCH  13  14
ATOM     14  C   UNL     1       7.990   7.103  -1.718  1.00  0.00     0.046 C 
BRANCH  14  15
ATOM     15  C   UNL     1       7.189   8.198  -2.426  1.00  0.00     0.043 C 
BRANCH  15  16
ATOM     16  C   UNL     1       8.121   9.291  -2.878  1.00  0.00    -0.004 A 
ATOM     17  C   UNL     1       8.666   9.414  -4.111  1.00  0.00     0.036 A 
ATOM     18  C   UNL     1       8.572  10.363  -2.100  1.00  0.00     0.063 A 
ATOM     19  N   UNL     1       9.440  10.520  -4.110  1.00  0.00    -0.282 N 
ATOM     20  N   UNL     1       9.367  11.096  -2.835  1.00  0.00    -0.181 NA
ATOM     21  C   UNL     1       8.449   8.483  -5.274  1.00  0.00     0.066 C 
ATOM     22  C   UNL     1       8.213  10.621  -0.659  1.00  0.00     0.069 C 
ATOM     23  H   UNL     1       9.955  10.857  -4.860  1.00  0.00     0.190 HD
ENDBRANCH  15  16
ENDBRANCH  14  15
ENDBRANCH  13  14
ENDBRANCH   1  13
TORSDOF 7
ENDMDL
MODEL 3
REMARK VINA RESULT:    -5.982      2.262      3.834
REMARK INTER + INTRA:          -8.760
REMARK INTER:                  -8.153
REMARK INTRA:                  -0.607
REMARK UNBOUND:                -0.504
REMARK SMILES Cc1n[nH]c(C)c1CCCOc1cc(C(=O)O)ccc1F
REMARK SMILES IDX 11 1 12 2 14 3 18 4 13 5 19 6 20 7 21 8 15 9 16 10 17 11
REMARK SMILES IDX 10 13 9 14 8 15 7 16 5 17 2 18 4 19 3 20 6 21 1 22
REMARK H PARENT 17 12 4 23
ROOT
ATOM      1  O   UNL     1       6.979   4.958  -0.972  1.00  0.00    -0.490 OA
ENDROOT
BRANCH   1   2
ATOM      2  C   UNL     1       5.674   4.583  -1.038  1.00  0.00     0.155 A 
ATOM      3  C   UNL     1       3.369   4.932  -0.446  1.00  0.00     0.063 A 
ATOM      4  C   UNL     1       3.011   3.806  -1.192  1.00  0.00     0.019 A 
ATOM      5  C   UNL     1       4.709   5.317  -0.373  1.00  0.00     0.065 A 
ATOM      6  C   UNL     1       3.979   3.083  -1.857  1.00  0.00     0.044 A 
ATOM      7  C   UNL     1       5.307   3.470  -1.786  1.00  0.00     0.165 A 
ATOM      8  F   UNL     1       6.251   2.758  -2.440  1.00  0.00    -0.203 F 
BRANCH   3   9
ATOM      9  C   UNL     1       2.335   5.708   0.266  1.00  0.00     0.335 C 
ATOM     10  O   UNL     1       2.632   6.358   1.248  1.00  0.00    -0.246 OA
BRANCH   9  11
ATOM     11  O   UNL     1       1.063   5.700  -0.177  1.00  0.00    -0.478 OA
ATOM     12  H   UNL     1       0.374   5.939   0.459  1.00  0.00     0.297 HD
ENDBRANCH   9  11
ENDBRANCH   3   9
ENDBRANCH   1   2
BRANCH   1  13
ATOM     13  C   UNL     1       7.542   5.553  -2.144  1.00  0.00     0.230 C 
BRANCH  13  14
ATOM     14  C   UNL     1       8.196   6.886  -1.774  1.00  0.00     0.046 C 
BRANCH  14  15
ATOM     15  C   UNL     1       7.241   8.033  -2.108  1.00  0.00     0.043 C 
BRANCH  15  16
ATOM     16  C   UNL     1       8.031   9.298  -2.324  1.00  0.00    -0.004 A 
ATOM     17  C   UNL     1       8.280  10.250  -1.394  1.00  0.00     0.036 A 
ATOM     18  C   UNL     1       8.642   9.694  -3.518  1.00  0.00     0.063 A 
ATOM     19  N   UNL     1       9.016  11.216  -1.981  1.00  0.00    -0.282 N 
ATOM     20  N   UNL     1       9.227  10.847  -3.316  1.00  0.00    -0.181 NA
ATOM     21  C   UNL     1       7.817  10.233   0.040  1.00  0.00     0.066 C 
ATOM     22  C   UNL     1       8.620   8.930  -4.818  1.00  0.00     0.069 C 
ATOM     23  H   UNL     1       9.341  12.024  -1.555  1.00  0.00     0.190 HD
ENDBRANCH  15  16
ENDBRANCH  14  15
ENDBRANCH  13  14
ENDBRANCH   1  13
TORSDOF 7
ENDMDL
MODEL 4
REMARK VINA RESULT:    -5.961      0.284      1.784
REMARK INTER + INTRA:          -8.730
REMARK INTER:                  -8.147
REMARK INTRA:                  -0.582
REMARK UNBOUND:                -0.504
REMARK SMILES Cc1n[nH]c(C)c1CCCOc1cc(C(=O)O)ccc1F
REMARK SMILES IDX 11 1 12 2 14 3 18 4 13 5 19 6 20 7 21 8 15 9 16 10 17 11
REMARK SMILES IDX 10 13 9 14 8 15 7 16 5 17 2 18 4 19 3 20 6 21 1 22
REMARK H PARENT 17 12 4 23
ROOT
ATOM      1  O   UNL     1       3.785   7.157  -2.542  1.00  0.00    -0.490 OA
ENDROOT
BRANCH   1   2
ATOM      2  C   UNL     1       3.771   5.883  -2.068  1.00  0.00     0.155 A 
ATOM      3  C   UNL     1       4.535   3.606  -2.177  1.00  0.00     0.063 A 
ATOM      4  C   UNL     1       3.734   3.288  -1.076  1.00  0.00     0.019 A 
ATOM      5  C   UNL     1       4.549   4.912  -2.670  1.00  0.00     0.065 A 
ATOM      6  C   UNL     1       2.966   4.265  -0.478  1.00  0.00     0.044 A 
ATOM      7  C   UNL     1       2.985   5.561  -0.966  1.00  0.00     0.165 A 
ATOM      8  F   UNL     1       2.230   6.514  -0.376  1.00  0.00    -0.203 F 
BRANCH   3   9
ATOM      9  C   UNL     1       5.359   2.563  -2.819  1.00  0.00     0.335 C 
ATOM     10  O   UNL     1       5.686   2.677  -3.982  1.00  0.00    -0.246 OA
BRANCH   9  11
ATOM     11  O   UNL     1       5.753   1.486  -2.111  1.00  0.00    -0.478 OA
ATOM     12  H   UNL     1       5.469   0.619  -2.435  1.00  0.00     0.297 HD
ENDBRANCH   9  11
ENDBRANCH   3   9
ENDBRANCH   1   2
BRANCH   1  13
ATOM     13  C   UNL     1       4.460   8.137  -1.749  1.00  0.00     0.230 C 
BRANCH  13  14
ATOM     14  C   UNL     1       5.578   8.778  -2.574  1.00  0.00     0.046 C 
BRANCH  14  15
ATOM     15  C   UNL     1       6.935   8.373  -1.994  1.00  0.00     0.043 C 
BRANCH  15  16
ATOM     16  C   UNL     1       7.890   9.534  -2.094  1.00  0.00    -0.004 A 
ATOM     17  C   UNL     1       8.187  10.409  -1.105  1.00  0.00     0.036 A 
ATOM     18  C   UNL     1       8.633   9.894  -3.223  1.00  0.00     0.063 A 
ATOM     19  N   UNL     1       9.080  11.295  -1.593  1.00  0.00    -0.282 N 
ATOM     20  N   UNL     1       9.342  10.953  -2.926  1.00  0.00    -0.181 NA
ATOM     21  C   UNL     1       7.621  10.395   0.291  1.00  0.00     0.066 C 
ATOM     22  C   UNL     1       8.612   9.191  -4.556  1.00  0.00     0.069 C 
ATOM     23  H   UNL     1       9.472  12.037  -1.107  1.00  0.00     0.190 HD
ENDBRANCH  15  16
ENDBRANCH  14  15
ENDBRANCH  13  14
ENDBRANCH   1  13
TORSDOF 7
ENDMDL
MODEL 5
REMARK VINA RESULT:    -5.019      3.937      7.054
REMARK INTER + INTRA:          -7.431
REMARK INTER:                  -6.589
REMARK INTRA:                  -0.842
REMARK UNBOUND:                -0.504
REMARK SMILES Cc1n[nH]c(C)c1CCCOc1cc(C(=O)O)ccc1F
REMARK SMILES IDX 11 1 12 2 14 3 18 4 13 5 19 6 20 7 21 8 15 9 16 10 17 11
REMARK SMILES IDX 10 13 9 14 8 15 7 16 5 17 2 18 4 19 3 20 6 21 1 22
REMARK H PARENT 17 12 4 23
ROOT
ATOM      1  O   UNL     1       6.565   6.612  -2.901  1.00  0.00    -0.490 OA
ENDROOT
BRANCH   1   2
ATOM      2  C   UNL     1       7.222   7.796  -2.774  1.00  0.00     0.155 A 
ATOM      3  C   UNL     1       7.949   9.645  -1.420  1.00  0.00     0.063 A 
ATOM      4  C   UNL     1       8.579  10.207  -2.533  1.00  0.00     0.019 A 
ATOM      5  C   UNL     1       7.269   8.432  -1.548  1.00  0.00     0.065 A 
ATOM      6  C   UNL     1       8.532   9.562  -3.751  1.00  0.00     0.044 A 
ATOM      7  C   UNL     1       7.861   8.357  -3.874  1.00  0.00     0.165 A 
ATOM      8  F   UNL     1       7.819   7.729  -5.070  1.00  0.00    -0.203 F 
BRANCH   3   9
ATOM      9  C   UNL     1       7.998  10.333  -0.115  1.00  0.00     0.335 C 
ATOM     10  O   UNL     1       7.159  11.165   0.165  1.00  0.00    -0.246 OA
BRANCH   9  11
ATOM     11  O   UNL     1       8.970  10.033   0.768  1.00  0.00    -0.478 OA
ATOM     12  H   UNL     1       8.989   9.128   1.111  1.00  0.00     0.297 HD
ENDBRANCH   9  11
ENDBRANCH   3   9
ENDBRANCH   1   2
BRANCH   1  13
ATOM     13  C   UNL     1       6.706   5.674  -1.832  1.00  0.00     0.230 C 
BRANCH  13  14
ATOM     14  C   UNL     1       5.790   4.474  -2.083  1.00  0.00     0.046 C 
BRANCH  14  15
ATOM     15  C   UNL     1       4.500   4.949  -2.755  1.00  0.00     0.043 C 
BRANCH  15  16
ATOM     16  C   UNL     1       3.481   5.295  -1.701  1.00  0.00    -0.004 A 
ATOM     17  C   UNL     1       2.862   4.421  -0.874  1.00  0.00     0.036 A 
ATOM     18  C   UNL     1       3.012   6.578  -1.399  1.00  0.00     0.063 A 
ATOM     19  N   UNL     1       2.026   5.125  -0.082  1.00  0.00    -0.282 N 
ATOM     20  N   UNL     1       2.135   6.477  -0.434  1.00  0.00    -0.181 NA
ATOM     21  C   UNL     1       3.070   2.929  -0.843  1.00  0.00     0.066 C 
ATOM     22  C   UNL     1       3.435   7.856  -2.078  1.00  0.00     0.069 C 
ATOM     23  H   UNL     1       1.451   4.760   0.608  1.00  0.00     0.190 HD
ENDBRANCH  15  16
ENDBRANCH  14  15
ENDBRANCH  13  14
ENDBRANCH   1  13
TORSDOF 7
ENDMDL
MODEL 6
REMARK VINA RESULT:    -4.974      3.842      6.617
REMARK INTER + INTRA:          -7.368
REMARK INTER:                  -6.547
REMARK INTRA:                  -0.821
REMARK UNBOUND:                -0.504
REMARK SMILES Cc1n[nH]c(C)c1CCCOc1cc(C(=O)O)ccc1F
REMARK SMILES IDX 11 1 12 2 14 3 18 4 13 5 19 6 20 7 21 8 15 9 16 10 17 11
REMARK SMILES IDX 10 13 9 14 8 15 7 16 5 17 2 18 4 19 3 20 6 21 1 22
REMARK H PARENT 17 12 4 23
ROOT
ATOM      1  O   UNL     1       5.989   7.594  -1.184  1.00  0.00    -0.490 OA
ENDROOT
BRANCH   1   2
ATOM      2  C   UNL     1       6.888   8.396  -1.814  1.00  0.00     0.155 A 
ATOM      3  C   UNL     1       8.072   9.044  -3.804  1.00  0.00     0.063 A 
ATOM      4  C   UNL     1       8.722  10.051  -3.084  1.00  0.00     0.019 A 
ATOM      5  C   UNL     1       7.151   8.216  -3.159  1.00  0.00     0.065 A 
ATOM      6  C   UNL     1       8.449  10.226  -1.744  1.00  0.00     0.044 A 
ATOM      7  C   UNL     1       7.532   9.406  -1.108  1.00  0.00     0.165 A 
ATOM      8  F   UNL     1       7.268   9.584   0.206  1.00  0.00    -0.203 F 
BRANCH   3   9
ATOM      9  C   UNL     1       8.362   8.854  -5.238  1.00  0.00     0.335 C 
ATOM     10  O   UNL     1       8.012   7.836  -5.799  1.00  0.00    -0.246 OA
BRANCH   9  11
ATOM     11  O   UNL     1       9.011   9.814  -5.927  1.00  0.00    -0.478 OA
ATOM     12  H   UNL     1       8.901  10.725  -5.621  1.00  0.00     0.297 HD
ENDBRANCH   9  11
ENDBRANCH   3   9
ENDBRANCH   1   2
BRANCH   1  13
ATOM     13  C   UNL     1       4.788   7.283  -1.895  1.00  0.00     0.230 C 
BRANCH  13  14
ATOM     14  C   UNL     1       3.942   6.314  -1.066  1.00  0.00     0.046 C 
BRANCH  14  15
ATOM     15  C   UNL     1       4.862   5.369  -0.290  1.00  0.00     0.043 C 
BRANCH  15  16
ATOM     16  C   UNL     1       5.185   4.169  -1.143  1.00  0.00    -0.004 A 
ATOM     17  C   UNL     1       4.314   3.207  -1.526  1.00  0.00     0.036 A 
ATOM     18  C   UNL     1       6.437   3.856  -1.683  1.00  0.00     0.063 A 
ATOM     19  N   UNL     1       4.992   2.313  -2.277  1.00  0.00    -0.282 N 
ATOM     20  N   UNL     1       6.324   2.741  -2.357  1.00  0.00    -0.181 NA
ATOM     21  C   UNL     1       2.850   3.145  -1.178  1.00  0.00     0.066 C 
ATOM     22  C   UNL     1       7.701   4.659  -1.508  1.00  0.00     0.069 C 
ATOM     23  H   UNL     1       4.623   1.516  -2.687  1.00  0.00     0.190 HD
ENDBRANCH  15  16
ENDBRANCH  14  15
ENDBRANCH  13  14
ENDBRANCH   1  13
TORSDOF 7
ENDMDL
MODEL 7
REMARK VINA RESULT:    -4.962      3.853      6.615
REMARK INTER + INTRA:          -7.351
REMARK INTER:                  -6.499
REMARK INTRA:                  -0.852
REMARK UNBOUND:                -0.504
REMARK SMILES Cc1n[nH]c(C)c1CCCOc1cc(C(=O)O)ccc1F
REMARK SMILES IDX 11 1 12 2 14 3 18 4 13 5 19 6 20 7 21 8 15 9 16 10 17 11
REMARK SMILES IDX 10 13 9 14 8 15 7 16 5 17 2 18 4 19 3 20 6 21 1 22
REMARK H PARENT 17 12 4 23
ROOT
ATOM      1  O   UNL     1       6.024   7.613  -1.115  1.00  0.00    -0.490 OA
ENDROOT
BRANCH   1   2
ATOM      2  C   UNL     1       6.918   8.423  -1.742  1.00  0.00     0.155 A 
ATOM      3  C   UNL     1       8.137   9.054  -3.717  1.00  0.00     0.063 A 
ATOM      4  C   UNL     1       8.740  10.096  -3.007  1.00  0.00     0.019 A 
ATOM      5  C   UNL     1       7.222   8.217  -3.075  1.00  0.00     0.065 A 
ATOM      6  C   UNL     1       8.426  10.298  -1.679  1.00  0.00     0.044 A 
ATOM      7  C   UNL     1       7.515   9.469  -1.046  1.00  0.00     0.165 A 
ATOM      8  F   UNL     1       7.211   9.672   0.255  1.00  0.00    -0.203 F 
BRANCH   3   9
ATOM      9  C   UNL     1       8.470   8.835  -5.138  1.00  0.00     0.335 C 
ATOM     10  O   UNL     1       7.908   7.962  -5.766  1.00  0.00    -0.246 OA
BRANCH   9  11
ATOM     11  O   UNL     1       9.394   9.610  -5.739  1.00  0.00    -0.478 OA
ATOM     12  H   UNL     1      10.320   9.344  -5.645  1.00  0.00     0.297 HD
ENDBRANCH   9  11
ENDBRANCH   3   9
ENDBRANCH   1   2
BRANCH   1  13
ATOM     13  C   UNL     1       4.829   7.290  -1.830  1.00  0.00     0.230 C 
BRANCH  13  14
ATOM     14  C   UNL     1       3.986   6.320  -1.001  1.00  0.00     0.046 C 
BRANCH  14  15
ATOM     15  C   UNL     1       4.906   5.335  -0.276  1.00  0.00     0.043 C 
BRANCH  15  16
ATOM     16  C   UNL     1       5.197   4.162  -1.176  1.00  0.00    -0.004 A 
ATOM     17  C   UNL     1       6.395   3.860  -1.728  1.00  0.00     0.036 A 
ATOM     18  C   UNL     1       4.278   3.190  -1.584  1.00  0.00     0.063 A 
ATOM     19  N   UNL     1       6.238   2.739  -2.464  1.00  0.00    -0.282 N 
ATOM     20  N   UNL     1       4.899   2.340  -2.361  1.00  0.00    -0.181 NA
ATOM     21  C   UNL     1       7.675   4.634  -1.551  1.00  0.00     0.066 C 
ATOM     22  C   UNL     1       2.820   3.137  -1.203  1.00  0.00     0.069 C 
ATOM     23  H   UNL     1       6.930   2.290  -2.974  1.00  0.00     0.190 HD
ENDBRANCH  15  16
ENDBRANCH  14  15
ENDBRANCH  13  14
ENDBRANCH   1  13
TORSDOF 7
ENDMDL
MODEL 8
REMARK VINA RESULT:    -4.753      4.357      7.570
REMARK INTER + INTRA:          -7.063
REMARK INTER:                  -6.671
REMARK INTRA:                  -0.392
REMARK UNBOUND:                -0.504
REMARK SMILES Cc1n[nH]c(C)c1CCCOc1cc(C(=O)O)ccc1F
REMARK SMILES IDX 11 1 12 2 14 3 18 4 13 5 19 6 20 7 21 8 15 9 16 10 17 11
REMARK SMILES IDX 10 13 9 14 8 15 7 16 5 17 2 18 4 19 3 20 6 21 1 22
REMARK H PARENT 17 12 4 23
ROOT
ATOM      1  O   UNL     1       7.253   6.691  -2.470  1.00  0.00    -0.490 OA
ENDROOT
BRANCH   1   2
ATOM      2  C   UNL     1       7.732   7.963  -2.452  1.00  0.00     0.155 A 
ATOM      3  C   UNL     1       8.248   9.982  -1.252  1.00  0.00     0.063 A 
ATOM      4  C   UNL     1       8.723  10.558  -2.433  1.00  0.00     0.019 A 
ATOM      5  C   UNL     1       7.750   8.677  -1.268  1.00  0.00     0.065 A 
ATOM      6  C   UNL     1       8.706   9.836  -3.607  1.00  0.00     0.044 A 
ATOM      7  C   UNL     1       8.217   8.540  -3.620  1.00  0.00     0.165 A 
ATOM      8  F   UNL     1       8.203   7.838  -4.774  1.00  0.00    -0.203 F 
BRANCH   3   9
ATOM      9  C   UNL     1       8.265  10.752   0.007  1.00  0.00     0.335 C 
ATOM     10  O   UNL     1       8.828  11.827   0.055  1.00  0.00    -0.246 OA
BRANCH   9  11
ATOM     11  O   UNL     1       7.650  10.266   1.103  1.00  0.00    -0.478 OA
ATOM     12  H   UNL     1       6.684  10.217   1.079  1.00  0.00     0.297 HD
ENDBRANCH   9  11
ENDBRANCH   3   9
ENDBRANCH   1   2
BRANCH   1  13
ATOM     13  C   UNL     1       5.861   6.526  -2.751  1.00  0.00     0.230 C 
BRANCH  13  14
ATOM     14  C   UNL     1       5.071   6.542  -1.441  1.00  0.00     0.046 C 
BRANCH  14  15
ATOM     15  C   UNL     1       5.346   5.253  -0.664  1.00  0.00     0.043 C 
BRANCH  15  16
ATOM     16  C   UNL     1       4.293   4.229  -0.999  1.00  0.00    -0.004 A 
ATOM     17  C   UNL     1       3.012   4.231  -0.562  1.00  0.00     0.036 A 
ATOM     18  C   UNL     1       4.464   3.111  -1.823  1.00  0.00     0.063 A 
ATOM     19  N   UNL     1       2.397   3.150  -1.084  1.00  0.00    -0.282 N 
ATOM     20  N   UNL     1       3.331   2.460  -1.869  1.00  0.00    -0.181 NA
ATOM     21  C   UNL     1       2.386   5.257   0.346  1.00  0.00     0.066 C 
ATOM     22  C   UNL     1       5.738   2.718  -2.526  1.00  0.00     0.069 C 
ATOM     23  H   UNL     1       1.472   2.895  -0.941  1.00  0.00     0.190 HD
ENDBRANCH  15  16
ENDBRANCH  14  15
ENDBRANCH  13  14
ENDBRANCH   1  13
TORSDOF 7
ENDMDL
MODEL 9
REMARK VINA RESULT:    -4.649      8.865     11.268
REMARK INTER + INTRA:          -6.919
REMARK INTER:                  -4.734
REMARK INTRA:                  -2.185
REMARK UNBOUND:                -0.504
REMARK SMILES Cc1n[nH]c(C)c1CCCOc1cc(C(=O)O)ccc1F
REMARK SMILES IDX 11 1 12 2 14 3 18 4 13 5 19 6 20 7 21 8 15 9 16 10 17 11
REMARK SMILES IDX 10 13 9 14 8 15 7 16 5 17 2 18 4 19 3 20 6 21 1 22
REMARK H PARENT 17 12 4 23
ROOT
ATOM      1  O   UNL     1      12.405  13.109  -9.391  1.00  0.00    -0.490 OA
ENDROOT
BRANCH   1   2
ATOM      2  C   UNL     1      11.915  13.545  -8.200  1.00  0.00     0.155 A 
ATOM      3  C   UNL     1      11.416  13.157  -5.880  1.00  0.00     0.063 A 
ATOM      4  C   UNL     1      10.918  14.458  -5.773  1.00  0.00     0.019 A 
ATOM      5  C   UNL     1      11.916  12.704  -7.103  1.00  0.00     0.065 A 
ATOM      6  C   UNL     1      10.927  15.291  -6.871  1.00  0.00     0.044 A 
ATOM      7  C   UNL     1      11.427  14.842  -8.082  1.00  0.00     0.165 A 
ATOM      8  F   UNL     1      11.433  15.664  -9.155  1.00  0.00    -0.203 F 
BRANCH   3   9
ATOM      9  C   UNL     1      11.409  12.262  -4.706  1.00  0.00     0.335 C 
ATOM     10  O   UNL     1      10.360  11.819  -4.286  1.00  0.00    -0.246 OA
BRANCH   9  11
ATOM     11  O   UNL     1      12.568  11.932  -4.104  1.00  0.00    -0.478 OA
ATOM     12  H   UNL     1      12.906  11.039  -4.260  1.00  0.00     0.297 HD
ENDBRANCH   9  11
ENDBRANCH   3   9
ENDBRANCH   1   2
BRANCH   1  13
ATOM     13  C   UNL     1      11.683  12.064 -10.046  1.00  0.00     0.230 C 
BRANCH  13  14
ATOM     14  C   UNL     1      10.636  12.675 -10.979  1.00  0.00     0.046 C 
BRANCH  14  15
ATOM     15  C   UNL     1       9.294  11.971 -10.771  1.00  0.00     0.043 C 
BRANCH  15  16
ATOM     16  C   UNL     1       8.542  12.642  -9.652  1.00  0.00    -0.004 A 
ATOM     17  C   UNL     1       8.006  13.884  -9.685  1.00  0.00     0.036 A 
ATOM     18  C   UNL     1       8.269  12.089  -8.396  1.00  0.00     0.063 A 
ATOM     19  N   UNL     1       7.420  14.112  -8.490  1.00  0.00    -0.282 N 
ATOM     20  N   UNL     1       7.603  12.972  -7.697  1.00  0.00    -0.181 NA
ATOM     21  C   UNL     1       8.053  14.841 -10.847  1.00  0.00     0.066 C 
ATOM     22  C   UNL     1       8.682  10.718  -7.925  1.00  0.00     0.069 C 
ATOM     23  H   UNL     1       6.956  14.921  -8.227  1.00  0.00     0.190 HD
ENDBRANCH  15  16
ENDBRANCH  14  15
ENDBRANCH  13  14
ENDBRANCH   1  13
TORSDOF 7
ENDMDL
