MODEL 1
REMARK VINA RESULT:    -4.584      0.000      0.000
REMARK INTER + INTRA:          -5.546
REMARK INTER:                  -5.254
REMARK INTRA:                  -0.293
REMARK UNBOUND:                -0.293
REMARK SMILES O=C(O)c1ccc2nc(-c3cc(Cl)cc(Cl)c3)oc2c1
REMARK SMILES IDX 5 1 6 2 20 3 8 4 18 5 4 6 9 7 7 8 19 9 2 10 1 11 3 12 10 14
REMARK SMILES IDX 11 15 17 16 12 17 15 18 14 19 13 20 16 21
REMARK H PARENT 3 13
ROOT
ATOM      1  C   UNL     1      -0.841  -0.575   3.333  1.00  0.00     0.018 A 
ATOM      2  C   UNL     1      -1.160  -0.948   2.061  1.00  0.00     0.033 A 
ATOM      3  C   UNL     1       1.195   0.476   2.540  1.00  0.00     0.065 A 
ATOM      4  N   UNL     1      -0.352  -0.844  -0.330  1.00  0.00    -0.209 NA
ATOM      5  O   UNL     1       1.483   0.261   0.052  1.00  0.00    -0.436 OA
ATOM      6  C   UNL     1       0.336   0.142   3.589  1.00  0.00     0.063 A 
ATOM      7  C   UNL     1       0.711  -0.319  -0.887  1.00  0.00     0.227 A 
ATOM      8  C   UNL     1      -0.307  -0.619   1.001  1.00  0.00     0.110 A 
ATOM      9  C   UNL     1       0.878   0.096   1.249  1.00  0.00     0.156 A 
ENDROOT
BRANCH   6  10
ATOM     10  C   UNL     1       0.667   0.544   4.967  1.00  0.00     0.335 C 
ATOM     11  O   UNL     1       0.520  -0.242   5.882  1.00  0.00    -0.246 OA
BRANCH  10  12
ATOM     12  O   UNL     1       1.132   1.785   5.214  1.00  0.00    -0.478 OA
ATOM     13  H   UNL     1       1.884   2.085   4.687  1.00  0.00     0.297 HD
ENDBRANCH  10  12
ENDBRANCH   6  10
BRANCH   7  14
ATOM     14  C   UNL     1       1.019  -0.360  -2.331  1.00  0.00     0.040 A 
ATOM     15  C   UNL     1       2.268   0.054  -2.794  1.00  0.00     0.034 A 
ATOM     16  C   UNL     1       0.059  -0.812  -3.239  1.00  0.00     0.034 A 
ATOM     17  C   UNL     1       2.549   0.013  -4.145  1.00  0.00     0.043 A 
ATOM     18  C   UNL     1       0.352  -0.849  -4.588  1.00  0.00     0.043 A 
ATOM     19  C   UNL     1       1.593  -0.437  -5.040  1.00  0.00     0.041 A 
ATOM     20  Cl  UNL     1       4.103   0.527  -4.723  1.00  0.00    -0.084 Cl
ATOM     21  Cl  UNL     1      -0.840  -1.411  -5.718  1.00  0.00    -0.084 Cl
ENDBRANCH   7  14
TORSDOF 3
ENDMDL
MODEL 2
REMARK VINA RESULT:    -4.554      0.051      2.020
REMARK INTER + INTRA:          -5.512
REMARK INTER:                  -5.220
REMARK INTRA:                  -0.292
REMARK UNBOUND:                -0.293
REMARK SMILES O=C(O)c1ccc2nc(-c3cc(Cl)cc(Cl)c3)oc2c1
REMARK SMILES IDX 5 1 6 2 20 3 8 4 18 5 4 6 9 7 7 8 19 9 2 10 1 11 3 12 10 14
REMARK SMILES IDX 11 15 17 16 12 17 15 18 14 19 13 20 16 21
REMARK H PARENT 3 13
ROOT
ATOM      1  C   UNL     1      -0.847  -0.539   3.346  1.00  0.00     0.018 A 
ATOM      2  C   UNL     1      -1.160  -0.932   2.079  1.00  0.00     0.033 A 
ATOM      3  C   UNL     1       1.170   0.539   2.540  1.00  0.00     0.065 A 
ATOM      4  N   UNL     1      -0.357  -0.839  -0.314  1.00  0.00    -0.209 NA
ATOM      5  O   UNL     1       1.459   0.302   0.053  1.00  0.00    -0.436 OA
ATOM      6  C   UNL     1       0.318   0.201   3.593  1.00  0.00     0.063 A 
ATOM      7  C   UNL     1       0.697  -0.302  -0.878  1.00  0.00     0.227 A 
ATOM      8  C   UNL     1      -0.314  -0.599   1.014  1.00  0.00     0.110 A 
ATOM      9  C   UNL     1       0.858   0.139   1.253  1.00  0.00     0.156 A 
ENDROOT
BRANCH   6  10
ATOM     10  C   UNL     1       0.643   0.625   4.967  1.00  0.00     0.335 C 
ATOM     11  O   UNL     1       0.537  -0.162   5.886  1.00  0.00    -0.246 OA
BRANCH  10  12
ATOM     12  O   UNL     1       1.057   1.885   5.203  1.00  0.00    -0.478 OA
ATOM     13  H   UNL     1       1.097   2.484   4.446  1.00  0.00     0.297 HD
ENDBRANCH  10  12
ENDBRANCH   6  10
BRANCH   7  14
ATOM     14  C   UNL     1       1.003  -0.353  -2.322  1.00  0.00     0.040 A 
ATOM     15  C   UNL     1       0.039  -0.797  -3.228  1.00  0.00     0.034 A 
ATOM     16  C   UNL     1       2.260   0.042  -2.786  1.00  0.00     0.034 A 
ATOM     17  C   UNL     1       0.332  -0.841  -4.577  1.00  0.00     0.043 A 
ATOM     18  C   UNL     1       2.540  -0.007  -4.137  1.00  0.00     0.043 A 
ATOM     19  C   UNL     1       1.580  -0.448  -5.030  1.00  0.00     0.041 A 
ATOM     20  Cl  UNL     1      -0.866  -1.392  -5.706  1.00  0.00    -0.084 Cl
ATOM     21  Cl  UNL     1       4.102   0.484  -4.715  1.00  0.00    -0.084 Cl
ENDBRANCH   7  14
TORSDOF 3
ENDMDL
MODEL 3
REMARK VINA RESULT:    -4.313     14.379     14.816
REMARK INTER + INTRA:          -5.236
REMARK INTER:                  -4.953
REMARK INTRA:                  -0.283
REMARK UNBOUND:                -0.293
REMARK SMILES O=C(O)c1ccc2nc(-c3cc(Cl)cc(Cl)c3)oc2c1
REMARK SMILES IDX 5 1 6 2 20 3 8 4 18 5 4 6 9 7 7 8 19 9 2 10 1 11 3 12 10 14
REMARK SMILES IDX 11 15 17 16 12 17 15 18 14 19 13 20 16 21
REMARK H PARENT 3 13
ROOT
ATOM      1  C   UNL     1      13.116 -11.627   6.363  1.00  0.00     0.018 A 
ATOM      2  C   UNL     1      12.757 -11.691   5.050  1.00  0.00     0.033 A 
ATOM      3  C   UNL     1      11.209 -10.207   6.840  1.00  0.00     0.065 A 
ATOM      4  N   UNL     1      11.024 -10.892   3.394  1.00  0.00    -0.209 NA
ATOM      5  O   UNL     1       9.827  -9.734   4.794  1.00  0.00    -0.436 OA
ATOM      6  C   UNL     1      12.348 -10.888   7.273  1.00  0.00     0.063 A 
ATOM      7  C   UNL     1       9.963 -10.133   3.515  1.00  0.00     0.227 A 
ATOM      8  C   UNL     1      11.617 -11.013   4.602  1.00  0.00     0.110 A 
ATOM      9  C   UNL     1      10.844 -10.266   5.508  1.00  0.00     0.156 A 
ENDROOT
BRANCH   6  10
ATOM     10  C   UNL     1      12.743 -10.831   8.692  1.00  0.00     0.335 C 
ATOM     11  O   UNL     1      12.413 -11.720   9.451  1.00  0.00    -0.246 OA
BRANCH  10  12
ATOM     12  O   UNL     1      13.470  -9.791   9.149  1.00  0.00    -0.478 OA
ATOM     13  H   UNL     1      14.165  -9.990   9.791  1.00  0.00     0.297 HD
ENDBRANCH  10  12
ENDBRANCH   6  10
BRANCH   7  14
ATOM     14  C   UNL     1       9.053  -9.768   2.411  1.00  0.00     0.040 A 
ATOM     15  C   UNL     1       8.451  -8.509   2.385  1.00  0.00     0.034 A 
ATOM     16  C   UNL     1       8.790 -10.683   1.388  1.00  0.00     0.034 A 
ATOM     17  C   UNL     1       7.601  -8.174   1.349  1.00  0.00     0.043 A 
ATOM     18  C   UNL     1       7.939 -10.336   0.358  1.00  0.00     0.043 A 
ATOM     19  C   UNL     1       7.345  -9.085   0.338  1.00  0.00     0.041 A 
ATOM     20  Cl  UNL     1       6.852  -6.609   1.314  1.00  0.00    -0.084 Cl
ATOM     21  Cl  UNL     1       7.611 -11.471  -0.914  1.00  0.00    -0.084 Cl
ENDBRANCH   7  14
TORSDOF 3
ENDMDL
MODEL 4
REMARK VINA RESULT:    -4.311     14.370     14.845
REMARK INTER + INTRA:          -5.233
REMARK INTER:                  -4.950
REMARK INTRA:                  -0.284
REMARK UNBOUND:                -0.293
REMARK SMILES O=C(O)c1ccc2nc(-c3cc(Cl)cc(Cl)c3)oc2c1
REMARK SMILES IDX 5 1 6 2 20 3 8 4 18 5 4 6 9 7 7 8 19 9 2 10 1 11 3 12 10 14
REMARK SMILES IDX 11 15 17 16 12 17 15 18 14 19 13 20 16 21
REMARK H PARENT 3 13
ROOT
ATOM      1  C   UNL     1      13.110 -11.637   6.345  1.00  0.00     0.018 A 
ATOM      2  C   UNL     1      12.745 -11.697   5.033  1.00  0.00     0.033 A 
ATOM      3  C   UNL     1      11.212 -10.210   6.833  1.00  0.00     0.065 A 
ATOM      4  N   UNL     1      11.009 -10.887   3.387  1.00  0.00    -0.209 NA
ATOM      5  O   UNL     1       9.822  -9.727   4.794  1.00  0.00    -0.436 OA
ATOM      6  C   UNL     1      12.349 -10.897   7.260  1.00  0.00     0.063 A 
ATOM      7  C   UNL     1       9.952 -10.123   3.514  1.00  0.00     0.227 A 
ATOM      8  C   UNL     1      11.606 -11.013   4.591  1.00  0.00     0.110 A 
ATOM      9  C   UNL     1      10.840 -10.264   5.502  1.00  0.00     0.156 A 
ENDROOT
BRANCH   6  10
ATOM     10  C   UNL     1      12.751 -10.844   8.678  1.00  0.00     0.335 C 
ATOM     11  O   UNL     1      12.412 -11.729   9.438  1.00  0.00    -0.246 OA
BRANCH  10  12
ATOM     12  O   UNL     1      13.494  -9.815   9.131  1.00  0.00    -0.478 OA
ATOM     13  H   UNL     1      14.327 -10.033   9.568  1.00  0.00     0.297 HD
ENDBRANCH  10  12
ENDBRANCH   6  10
BRANCH   7  14
ATOM     14  C   UNL     1       9.038  -9.752   2.414  1.00  0.00     0.040 A 
ATOM     15  C   UNL     1       8.768 -10.660   1.390  1.00  0.00     0.034 A 
ATOM     16  C   UNL     1       8.440  -8.490   2.396  1.00  0.00     0.034 A 
ATOM     17  C   UNL     1       7.912 -10.308   0.365  1.00  0.00     0.043 A 
ATOM     18  C   UNL     1       7.586  -8.149   1.366  1.00  0.00     0.043 A 
ATOM     19  C   UNL     1       7.323  -9.055   0.353  1.00  0.00     0.041 A 
ATOM     20  Cl  UNL     1       7.576 -11.436  -0.910  1.00  0.00    -0.084 Cl
ATOM     21  Cl  UNL     1       6.842  -6.580   1.341  1.00  0.00    -0.084 Cl
ENDBRANCH   7  14
TORSDOF 3
ENDMDL
MODEL 5
REMARK VINA RESULT:    -4.308     14.775     16.180
REMARK INTER + INTRA:          -5.230
REMARK INTER:                  -4.947
REMARK INTRA:                  -0.283
REMARK UNBOUND:                -0.293
REMARK SMILES O=C(O)c1ccc2nc(-c3cc(Cl)cc(Cl)c3)oc2c1
REMARK SMILES IDX 5 1 6 2 20 3 8 4 18 5 4 6 9 7 7 8 19 9 2 10 1 11 3 12 10 14
REMARK SMILES IDX 11 15 17 16 12 17 15 18 14 19 13 20 16 21
REMARK H PARENT 3 13
ROOT
ATOM      1  C   UNL     1       9.965 -15.713  -2.069  1.00  0.00     0.018 A 
ATOM      2  C   UNL     1       9.871 -15.100  -0.856  1.00  0.00     0.033 A 
ATOM      3  C   UNL     1       9.095 -13.733  -3.165  1.00  0.00     0.065 A 
ATOM      4  N   UNL     1       9.181 -12.942   0.262  1.00  0.00    -0.209 NA
ATOM      5  O   UNL     1       8.573 -11.886  -1.540  1.00  0.00    -0.436 OA
ATOM      6  C   UNL     1       9.581 -15.039  -3.237  1.00  0.00     0.063 A 
ATOM      7  C   UNL     1       8.700 -11.815  -0.202  1.00  0.00     0.227 A 
ATOM      8  C   UNL     1       9.385 -13.790  -0.769  1.00  0.00     0.110 A 
ATOM      9  C   UNL     1       8.993 -13.109  -1.935  1.00  0.00     0.156 A 
ENDROOT
BRANCH   6  10
ATOM     10  C   UNL     1       9.694 -15.711  -4.544  1.00  0.00     0.335 C 
ATOM     11  O   UNL     1      10.761 -15.737  -5.124  1.00  0.00    -0.246 OA
BRANCH  10  12
ATOM     12  O   UNL     1       8.612 -16.295  -5.097  1.00  0.00    -0.478 OA
ATOM     13  H   UNL     1       7.898 -15.712  -5.387  1.00  0.00     0.297 HD
ENDBRANCH  10  12
ENDBRANCH   6  10
BRANCH   7  14
ATOM     14  C   UNL     1       8.349 -10.641   0.623  1.00  0.00     0.040 A 
ATOM     15  C   UNL     1       7.262  -9.838   0.273  1.00  0.00     0.034 A 
ATOM     16  C   UNL     1       9.104 -10.329   1.755  1.00  0.00     0.034 A 
ATOM     17  C   UNL     1       6.939  -8.743   1.049  1.00  0.00     0.043 A 
ATOM     18  C   UNL     1       8.771  -9.231   2.523  1.00  0.00     0.043 A 
ATOM     19  C   UNL     1       7.691  -8.439   2.171  1.00  0.00     0.041 A 
ATOM     20  Cl  UNL     1       5.587  -7.743   0.616  1.00  0.00    -0.084 Cl
ATOM     21  Cl  UNL     1       9.708  -8.842   3.932  1.00  0.00    -0.084 Cl
ENDBRANCH   7  14
TORSDOF 3
ENDMDL
MODEL 6
REMARK VINA RESULT:    -4.298     14.779     16.090
REMARK INTER + INTRA:          -5.219
REMARK INTER:                  -4.936
REMARK INTRA:                  -0.283
REMARK UNBOUND:                -0.293
REMARK SMILES O=C(O)c1ccc2nc(-c3cc(Cl)cc(Cl)c3)oc2c1
REMARK SMILES IDX 5 1 6 2 20 3 8 4 18 5 4 6 9 7 7 8 19 9 2 10 1 11 3 12 10 14
REMARK SMILES IDX 11 15 17 16 12 17 15 18 14 19 13 20 16 21
REMARK H PARENT 3 13
ROOT
ATOM      1  C   UNL     1       9.961 -15.712  -2.069  1.00  0.00     0.018 A 
ATOM      2  C   UNL     1       9.873 -15.102  -0.854  1.00  0.00     0.033 A 
ATOM      3  C   UNL     1       9.083 -13.729  -3.154  1.00  0.00     0.065 A 
ATOM      4  N   UNL     1       9.188 -12.947   0.274  1.00  0.00    -0.209 NA
ATOM      5  O   UNL     1       8.570 -11.887  -1.522  1.00  0.00    -0.436 OA
ATOM      6  C   UNL     1       9.570 -15.035  -3.233  1.00  0.00     0.063 A 
ATOM      7  C   UNL     1       8.705 -11.820  -0.184  1.00  0.00     0.227 A 
ATOM      8  C   UNL     1       9.387 -13.792  -0.761  1.00  0.00     0.110 A 
ATOM      9  C   UNL     1       8.988 -13.108  -1.923  1.00  0.00     0.156 A 
ENDROOT
BRANCH   6  10
ATOM     10  C   UNL     1       9.675 -15.703  -4.543  1.00  0.00     0.335 C 
ATOM     11  O   UNL     1      10.736 -15.717  -5.134  1.00  0.00    -0.246 OA
BRANCH  10  12
ATOM     12  O   UNL     1       8.594 -16.297  -5.085  1.00  0.00    -0.478 OA
ATOM     13  H   UNL     1       7.796 -15.760  -5.175  1.00  0.00     0.297 HD
ENDBRANCH  10  12
ENDBRANCH   6  10
BRANCH   7  14
ATOM     14  C   UNL     1       8.358 -10.647   0.646  1.00  0.00     0.040 A 
ATOM     15  C   UNL     1       9.126 -10.329   1.766  1.00  0.00     0.034 A 
ATOM     16  C   UNL     1       7.258  -9.854   0.312  1.00  0.00     0.034 A 
ATOM     17  C   UNL     1       8.797  -9.232   2.537  1.00  0.00     0.043 A 
ATOM     18  C   UNL     1       6.939  -8.760   1.091  1.00  0.00     0.043 A 
ATOM     19  C   UNL     1       7.705  -8.449   2.201  1.00  0.00     0.041 A 
ATOM     20  Cl  UNL     1       9.752  -8.833   3.930  1.00  0.00    -0.084 Cl
ATOM     21  Cl  UNL     1       5.572  -7.772   0.678  1.00  0.00    -0.084 Cl
ENDBRANCH   7  14
TORSDOF 3
ENDMDL
MODEL 7
REMARK VINA RESULT:    -4.238     11.141     12.018
REMARK INTER + INTRA:          -5.151
REMARK INTER:                  -4.854
REMARK INTRA:                  -0.296
REMARK UNBOUND:                -0.293
REMARK SMILES O=C(O)c1ccc2nc(-c3cc(Cl)cc(Cl)c3)oc2c1
REMARK SMILES IDX 5 1 6 2 20 3 8 4 18 5 4 6 9 7 7 8 19 9 2 10 1 11 3 12 10 14
REMARK SMILES IDX 11 15 17 16 12 17 15 18 14 19 13 20 16 21
REMARK H PARENT 3 13
ROOT
ATOM      1  C   UNL     1       9.531 -11.181   1.777  1.00  0.00     0.018 A 
ATOM      2  C   UNL     1       9.224  -9.913   2.171  1.00  0.00     0.033 A 
ATOM      3  C   UNL     1       7.779 -11.112   0.103  1.00  0.00     0.065 A 
ATOM      4  N   UNL     1       7.663  -7.982   1.706  1.00  0.00    -0.209 NA
ATOM      5  O   UNL     1       6.539  -8.925   0.099  1.00  0.00    -0.436 OA
ATOM      6  C   UNL     1       8.816 -11.795   0.739  1.00  0.00     0.063 A 
ATOM      7  C   UNL     1       6.687  -7.816   0.847  1.00  0.00     0.227 A 
ATOM      8  C   UNL     1       8.186  -9.216   1.541  1.00  0.00     0.110 A 
ATOM      9  C   UNL     1       7.461  -9.827   0.502  1.00  0.00     0.156 A 
ENDROOT
BRANCH   6  10
ATOM     10  C   UNL     1       9.162 -13.165   0.318  1.00  0.00     0.335 C 
ATOM     11  O   UNL     1       8.431 -13.769  -0.441  1.00  0.00    -0.246 OA
BRANCH  10  12
ATOM     12  O   UNL     1      10.287 -13.748   0.776  1.00  0.00    -0.478 OA
ATOM     13  H   UNL     1      10.707 -14.403   0.203  1.00  0.00     0.297 HD
ENDBRANCH  10  12
ENDBRANCH   6  10
BRANCH   7  14
ATOM     14  C   UNL     1       5.870  -6.591   0.721  1.00  0.00     0.040 A 
ATOM     15  C   UNL     1       4.575  -6.662   0.207  1.00  0.00     0.034 A 
ATOM     16  C   UNL     1       6.392  -5.357   1.116  1.00  0.00     0.034 A 
ATOM     17  C   UNL     1       3.816  -5.514   0.093  1.00  0.00     0.043 A 
ATOM     18  C   UNL     1       5.624  -4.217   0.996  1.00  0.00     0.043 A 
ATOM     19  C   UNL     1       4.339  -4.294   0.486  1.00  0.00     0.041 A 
ATOM     20  Cl  UNL     1       2.204  -5.601  -0.546  1.00  0.00    -0.084 Cl
ATOM     21  Cl  UNL     1       6.270  -2.681   1.486  1.00  0.00    -0.084 Cl
ENDBRANCH   7  14
TORSDOF 3
ENDMDL
MODEL 8
REMARK VINA RESULT:    -4.236     11.132     11.844
REMARK INTER + INTRA:          -5.148
REMARK INTER:                  -4.852
REMARK INTRA:                  -0.296
REMARK UNBOUND:                -0.293
REMARK SMILES O=C(O)c1ccc2nc(-c3cc(Cl)cc(Cl)c3)oc2c1
REMARK SMILES IDX 5 1 6 2 20 3 8 4 18 5 4 6 9 7 7 8 19 9 2 10 1 11 3 12 10 14
REMARK SMILES IDX 11 15 17 16 12 17 15 18 14 19 13 20 16 21
REMARK H PARENT 3 13
ROOT
ATOM      1  C   UNL     1       9.531 -11.163   1.795  1.00  0.00     0.018 A 
ATOM      2  C   UNL     1       9.222  -9.895   2.186  1.00  0.00     0.033 A 
ATOM      3  C   UNL     1       7.780 -11.099   0.119  1.00  0.00     0.065 A 
ATOM      4  N   UNL     1       7.659  -7.967   1.716  1.00  0.00    -0.209 NA
ATOM      5  O   UNL     1       6.537  -8.914   0.110  1.00  0.00    -0.436 OA
ATOM      6  C   UNL     1       8.818 -11.780   0.757  1.00  0.00     0.063 A 
ATOM      7  C   UNL     1       6.683  -7.803   0.857  1.00  0.00     0.227 A 
ATOM      8  C   UNL     1       8.183  -9.201   1.554  1.00  0.00     0.110 A 
ATOM      9  C   UNL     1       7.460  -9.814   0.516  1.00  0.00     0.156 A 
ENDROOT
BRANCH   6  10
ATOM     10  C   UNL     1       9.165 -13.150   0.339  1.00  0.00     0.335 C 
ATOM     11  O   UNL     1       8.438 -13.756  -0.423  1.00  0.00    -0.246 OA
BRANCH  10  12
ATOM     12  O   UNL     1      10.289 -13.732   0.802  1.00  0.00    -0.478 OA
ATOM     13  H   UNL     1      10.700 -13.335   1.581  1.00  0.00     0.297 HD
ENDBRANCH  10  12
ENDBRANCH   6  10
BRANCH   7  14
ATOM     14  C   UNL     1       5.865  -6.580   0.728  1.00  0.00     0.040 A 
ATOM     15  C   UNL     1       6.383  -5.345   1.121  1.00  0.00     0.034 A 
ATOM     16  C   UNL     1       4.569  -6.656   0.213  1.00  0.00     0.034 A 
ATOM     17  C   UNL     1       5.613  -4.206   0.997  1.00  0.00     0.043 A 
ATOM     18  C   UNL     1       3.809  -5.509   0.094  1.00  0.00     0.043 A 
ATOM     19  C   UNL     1       4.329  -4.287   0.485  1.00  0.00     0.041 A 
ATOM     20  Cl  UNL     1       6.255  -2.668   1.484  1.00  0.00    -0.084 Cl
ATOM     21  Cl  UNL     1       2.198  -5.601  -0.546  1.00  0.00    -0.084 Cl
ENDBRANCH   7  14
TORSDOF 3
ENDMDL
MODEL 9
REMARK VINA RESULT:    -4.221     11.059     11.493
REMARK INTER + INTRA:          -5.131
REMARK INTER:                  -4.834
REMARK INTRA:                  -0.296
REMARK UNBOUND:                -0.293
REMARK SMILES O=C(O)c1ccc2nc(-c3cc(Cl)cc(Cl)c3)oc2c1
REMARK SMILES IDX 5 1 6 2 20 3 8 4 18 5 4 6 9 7 7 8 19 9 2 10 1 11 3 12 10 14
REMARK SMILES IDX 11 15 17 16 12 17 15 18 14 19 13 20 16 21
REMARK H PARENT 3 13
ROOT
ATOM      1  C   UNL     1       9.502 -11.194   1.618  1.00  0.00     0.018 A 
ATOM      2  C   UNL     1       8.414 -10.759   0.923  1.00  0.00     0.033 A 
ATOM      3  C   UNL     1       9.522  -9.145   2.915  1.00  0.00     0.065 A 
ATOM      4  N   UNL     1       6.807  -8.822   0.701  1.00  0.00    -0.209 NA
ATOM      5  O   UNL     1       7.679  -7.569   2.251  1.00  0.00    -0.436 OA
ATOM      6  C   UNL     1      10.068 -10.396   2.623  1.00  0.00     0.063 A 
ATOM      7  C   UNL     1       6.708  -7.675   1.325  1.00  0.00     0.227 A 
ATOM      8  C   UNL     1       7.856  -9.506   1.206  1.00  0.00     0.110 A 
ATOM      9  C   UNL     1       8.420  -8.698   2.209  1.00  0.00     0.156 A 
ENDROOT
BRANCH   6  10
ATOM     10  C   UNL     1      11.241 -10.880   3.372  1.00  0.00     0.335 C 
ATOM     11  O   UNL     1      11.836 -10.129   4.119  1.00  0.00    -0.246 OA
BRANCH  10  12
ATOM     12  O   UNL     1      11.655 -12.155   3.228  1.00  0.00    -0.478 OA
ATOM     13  H   UNL     1      11.252 -12.669   2.516  1.00  0.00     0.297 HD
ENDBRANCH  10  12
ENDBRANCH   6  10
BRANCH   7  14
ATOM     14  C   UNL     1       5.681  -6.648   1.052  1.00  0.00     0.040 A 
ATOM     15  C   UNL     1       5.936  -5.307   1.340  1.00  0.00     0.034 A 
ATOM     16  C   UNL     1       4.450  -7.017   0.504  1.00  0.00     0.034 A 
ATOM     17  C   UNL     1       4.973  -4.352   1.082  1.00  0.00     0.043 A 
ATOM     18  C   UNL     1       3.495  -6.053   0.250  1.00  0.00     0.043 A 
ATOM     19  C   UNL     1       3.754  -4.724   0.538  1.00  0.00     0.041 A 
ATOM     20  Cl  UNL     1       5.288  -2.683   1.439  1.00  0.00    -0.084 Cl
ATOM     21  Cl  UNL     1       1.965  -6.509  -0.432  1.00  0.00    -0.084 Cl
ENDBRANCH   7  14
TORSDOF 3
ENDMDL
