MODEL 1
REMARK VINA RESULT:    -5.823      0.000      0.000
REMARK INTER + INTRA:          -8.487
REMARK INTER:                  -8.036
REMARK INTRA:                  -0.451
REMARK UNBOUND:                -0.451
REMARK SMILES Cc1n[nH]c(C)c1CCCOc1cc(C(=O)O)ccc1F
REMARK SMILES IDX 11 1 12 2 14 3 18 4 13 5 19 6 20 7 21 8 15 9 16 10 17 11
REMARK SMILES IDX 10 13 9 14 8 15 7 16 5 17 2 18 4 19 3 20 6 21 1 22
REMARK H PARENT 17 12 4 23
ROOT
ATOM      1  O   UNL     1       7.317  -5.936  -0.697  1.00  0.00    -0.490 OA
ENDROOT
BRANCH   1   2
ATOM      2  C   UNL     1       6.109  -5.529  -0.224  1.00  0.00     0.155 A 
ATOM      3  C   UNL     1       3.753  -5.900   0.081  1.00  0.00     0.063 A 
ATOM      4  C   UNL     1       3.653  -4.683   0.760  1.00  0.00     0.019 A 
ATOM      5  C   UNL     1       4.991  -6.319  -0.411  1.00  0.00     0.065 A 
ATOM      6  C   UNL     1       4.776  -3.904   0.948  1.00  0.00     0.044 A 
ATOM      7  C   UNL     1       6.003  -4.325   0.463  1.00  0.00     0.165 A 
ATOM      8  F   UNL     1       7.099  -3.557   0.651  1.00  0.00    -0.203 F 
BRANCH   3   9
ATOM      9  C   UNL     1       2.554  -6.736  -0.122  1.00  0.00     0.335 C 
ATOM     10  O   UNL     1       2.538  -7.573  -1.001  1.00  0.00    -0.246 OA
BRANCH   9  11
ATOM     11  O   UNL     1       1.478  -6.575   0.674  1.00  0.00    -0.478 OA
ATOM     12  H   UNL     1       0.674  -6.232   0.261  1.00  0.00     0.297 HD
ENDBRANCH   9  11
ENDBRANCH   3   9
ENDBRANCH   1   2
BRANCH   1  13
ATOM     13  C   UNL     1       8.354  -6.146   0.265  1.00  0.00     0.230 C 
BRANCH  13  14
ATOM     14  C   UNL     1       8.793  -7.611   0.229  1.00  0.00     0.046 C 
BRANCH  14  15
ATOM     15  C   UNL     1       8.010  -8.405   1.276  1.00  0.00     0.043 C 
BRANCH  15  16
ATOM     16  C   UNL     1       8.751  -9.675   1.602  1.00  0.00    -0.004 A 
ATOM     17  C   UNL     1       8.668 -10.843   0.923  1.00  0.00     0.036 A 
ATOM     18  C   UNL     1       9.653  -9.854   2.657  1.00  0.00     0.063 A 
ATOM     19  N   UNL     1       9.483 -11.731   1.531  1.00  0.00    -0.282 N 
ATOM     20  N   UNL     1      10.086 -11.088   2.620  1.00  0.00    -0.181 NA
ATOM     21  C   UNL     1       7.819 -11.104  -0.293  1.00  0.00     0.066 C 
ATOM     22  C   UNL     1      10.047  -8.810   3.670  1.00  0.00     0.069 C 
ATOM     23  H   UNL     1       9.624 -12.652   1.262  1.00  0.00     0.190 HD
ENDBRANCH  15  16
ENDBRANCH  14  15
ENDBRANCH  13  14
ENDBRANCH   1  13
TORSDOF 7
ENDMDL
MODEL 2
REMARK VINA RESULT:    -5.755      2.320      3.906
REMARK INTER + INTRA:          -8.393
REMARK INTER:                  -7.851
REMARK INTRA:                  -0.541
REMARK UNBOUND:                -0.451
REMARK SMILES Cc1n[nH]c(C)c1CCCOc1cc(C(=O)O)ccc1F
REMARK SMILES IDX 11 1 12 2 14 3 18 4 13 5 19 6 20 7 21 8 15 9 16 10 17 11
REMARK SMILES IDX 10 13 9 14 8 15 7 16 5 17 2 18 4 19 3 20 6 21 1 22
REMARK H PARENT 17 12 4 23
ROOT
ATOM      1  O   UNL     1       4.637  -7.661   2.431  1.00  0.00    -0.490 OA
ENDROOT
BRANCH   1   2
ATOM      2  C   UNL     1       4.539  -6.490   1.746  1.00  0.00     0.155 A 
ATOM      3  C   UNL     1       5.416  -4.324   1.179  1.00  0.00     0.063 A 
ATOM      4  C   UNL     1       4.326  -4.109   0.331  1.00  0.00     0.019 A 
ATOM      5  C   UNL     1       5.517  -5.523   1.887  1.00  0.00     0.065 A 
ATOM      6  C   UNL     1       3.358  -5.082   0.193  1.00  0.00     0.044 A 
ATOM      7  C   UNL     1       3.464  -6.273   0.892  1.00  0.00     0.165 A 
ATOM      8  F   UNL     1       2.513  -7.222   0.752  1.00  0.00    -0.203 F 
BRANCH   3   9
ATOM      9  C   UNL     1       6.453  -3.285   1.330  1.00  0.00     0.335 C 
ATOM     10  O   UNL     1       7.101  -3.218   2.354  1.00  0.00    -0.246 OA
BRANCH   9  11
ATOM     11  O   UNL     1       6.685  -2.415   0.327  1.00  0.00    -0.478 OA
ATOM     12  H   UNL     1       7.483  -1.872   0.393  1.00  0.00     0.297 HD
ENDBRANCH   9  11
ENDBRANCH   3   9
ENDBRANCH   1   2
BRANCH   1  13
ATOM     13  C   UNL     1       4.861  -8.845   1.661  1.00  0.00     0.230 C 
BRANCH  13  14
ATOM     14  C   UNL     1       6.133  -9.538   2.152  1.00  0.00     0.046 C 
BRANCH  14  15
ATOM     15  C   UNL     1       7.291  -9.207   1.209  1.00  0.00     0.043 C 
BRANCH  15  16
ATOM     16  C   UNL     1       8.366 -10.254   1.344  1.00  0.00    -0.004 A 
ATOM     17  C   UNL     1       9.378 -10.245   2.243  1.00  0.00     0.036 A 
ATOM     18  C   UNL     1       8.491 -11.411   0.567  1.00  0.00     0.063 A 
ATOM     19  N   UNL     1      10.120 -11.354   2.037  1.00  0.00    -0.282 N 
ATOM     20  N   UNL     1       9.546 -12.067   0.977  1.00  0.00    -0.181 NA
ATOM     21  C   UNL     1       9.630  -9.188   3.286  1.00  0.00     0.066 C 
ATOM     22  C   UNL     1       7.576 -11.824  -0.557  1.00  0.00     0.069 C 
ATOM     23  H   UNL     1      10.912 -11.610   2.535  1.00  0.00     0.190 HD
ENDBRANCH  15  16
ENDBRANCH  14  15
ENDBRANCH  13  14
ENDBRANCH   1  13
TORSDOF 7
ENDMDL
MODEL 3
REMARK VINA RESULT:    -5.672      2.337      3.499
REMARK INTER + INTRA:          -8.278
REMARK INTER:                  -7.776
REMARK INTRA:                  -0.503
REMARK UNBOUND:                -0.451
REMARK SMILES Cc1n[nH]c(C)c1CCCOc1cc(C(=O)O)ccc1F
REMARK SMILES IDX 11 1 12 2 14 3 18 4 13 5 19 6 20 7 21 8 15 9 16 10 17 11
REMARK SMILES IDX 10 13 9 14 8 15 7 16 5 17 2 18 4 19 3 20 6 21 1 22
REMARK H PARENT 17 12 4 23
ROOT
ATOM      1  O   UNL     1       4.628  -7.662   2.462  1.00  0.00    -0.490 OA
ENDROOT
BRANCH   1   2
ATOM      2  C   UNL     1       4.536  -6.508   1.750  1.00  0.00     0.155 A 
ATOM      3  C   UNL     1       5.404  -4.344   1.161  1.00  0.00     0.063 A 
ATOM      4  C   UNL     1       4.336  -4.160   0.278  1.00  0.00     0.019 A 
ATOM      5  C   UNL     1       5.498  -5.526   1.898  1.00  0.00     0.065 A 
ATOM      6  C   UNL     1       3.385  -5.147   0.132  1.00  0.00     0.044 A 
ATOM      7  C   UNL     1       3.483  -6.321   0.861  1.00  0.00     0.165 A 
ATOM      8  F   UNL     1       2.548  -7.285   0.713  1.00  0.00    -0.203 F 
BRANCH   3   9
ATOM      9  C   UNL     1       6.424  -3.289   1.319  1.00  0.00     0.335 C 
ATOM     10  O   UNL     1       7.064  -3.212   2.348  1.00  0.00    -0.246 OA
BRANCH   9  11
ATOM     11  O   UNL     1       6.650  -2.416   0.318  1.00  0.00    -0.478 OA
ATOM     12  H   UNL     1       7.480  -1.919   0.347  1.00  0.00     0.297 HD
ENDBRANCH   9  11
ENDBRANCH   3   9
ENDBRANCH   1   2
BRANCH   1  13
ATOM     13  C   UNL     1       4.820  -8.869   1.719  1.00  0.00     0.230 C 
BRANCH  13  14
ATOM     14  C   UNL     1       6.104  -9.555   2.186  1.00  0.00     0.046 C 
BRANCH  14  15
ATOM     15  C   UNL     1       7.239  -9.232   1.212  1.00  0.00     0.043 C 
BRANCH  15  16
ATOM     16  C   UNL     1       8.271 -10.328   1.260  1.00  0.00    -0.004 A 
ATOM     17  C   UNL     1       8.337 -11.397   0.433  1.00  0.00     0.036 A 
ATOM     18  C   UNL     1       9.336 -10.418   2.163  1.00  0.00     0.063 A 
ATOM     19  N   UNL     1       9.401 -12.140   0.804  1.00  0.00    -0.282 N 
ATOM     20  N   UNL     1      10.009 -11.507   1.896  1.00  0.00    -0.181 NA
ATOM     21  C   UNL     1       7.392 -11.703  -0.700  1.00  0.00     0.066 C 
ATOM     22  C   UNL     1       9.646  -9.435   3.264  1.00  0.00     0.069 C 
ATOM     23  H   UNL     1       9.692 -12.967   0.389  1.00  0.00     0.190 HD
ENDBRANCH  15  16
ENDBRANCH  14  15
ENDBRANCH  13  14
ENDBRANCH   1  13
TORSDOF 7
ENDMDL
MODEL 4
REMARK VINA RESULT:    -4.805      3.782      6.540
REMARK INTER + INTRA:          -7.082
REMARK INTER:                  -6.258
REMARK INTRA:                  -0.824
REMARK UNBOUND:                -0.451
REMARK SMILES Cc1n[nH]c(C)c1CCCOc1cc(C(=O)O)ccc1F
REMARK SMILES IDX 11 1 12 2 14 3 18 4 13 5 19 6 20 7 21 8 15 9 16 10 17 11
REMARK SMILES IDX 10 13 9 14 8 15 7 16 5 17 2 18 4 19 3 20 6 21 1 22
REMARK H PARENT 17 12 4 23
ROOT
ATOM      1  O   UNL     1       7.532  -7.307   1.821  1.00  0.00    -0.490 OA
ENDROOT
BRANCH   1   2
ATOM      2  C   UNL     1       8.078  -8.547   1.710  1.00  0.00     0.155 A 
ATOM      3  C   UNL     1       8.259 -10.654   0.565  1.00  0.00     0.063 A 
ATOM      4  C   UNL     1       9.213 -11.073   1.496  1.00  0.00     0.019 A 
ATOM      5  C   UNL     1       7.692  -9.383   0.679  1.00  0.00     0.065 A 
ATOM      6  C   UNL     1       9.596 -10.230   2.518  1.00  0.00     0.044 A 
ATOM      7  C   UNL     1       9.036  -8.968   2.625  1.00  0.00     0.165 A 
ATOM      8  F   UNL     1       9.416  -8.147   3.629  1.00  0.00    -0.203 F 
BRANCH   3   9
ATOM      9  C   UNL     1       7.847 -11.553  -0.530  1.00  0.00     0.335 C 
ATOM     10  O   UNL     1       6.916 -12.316  -0.372  1.00  0.00    -0.246 OA
BRANCH   9  11
ATOM     11  O   UNL     1       8.500 -11.523  -1.708  1.00  0.00    -0.478 OA
ATOM     12  H   UNL     1       8.519 -12.342  -2.222  1.00  0.00     0.297 HD
ENDBRANCH   9  11
ENDBRANCH   3   9
ENDBRANCH   1   2
BRANCH   1  13
ATOM     13  C   UNL     1       7.268  -6.603   0.604  1.00  0.00     0.230 C 
BRANCH  13  14
ATOM     14  C   UNL     1       6.552  -5.289   0.921  1.00  0.00     0.046 C 
BRANCH  14  15
ATOM     15  C   UNL     1       5.488  -5.534   1.993  1.00  0.00     0.043 C 
BRANCH  15  16
ATOM     16  C   UNL     1       4.215  -6.006   1.341  1.00  0.00    -0.004 A 
ATOM     17  C   UNL     1       3.397  -5.263   0.560  1.00  0.00     0.036 A 
ATOM     18  C   UNL     1       3.673  -7.293   1.429  1.00  0.00     0.063 A 
ATOM     19  N   UNL     1       2.370  -6.050   0.173  1.00  0.00    -0.282 N 
ATOM     20  N   UNL     1       2.564  -7.318   0.735  1.00  0.00    -0.181 NA
ATOM     21  C   UNL     1       3.597  -3.817   0.188  1.00  0.00     0.066 C 
ATOM     22  C   UNL     1       4.259  -8.448   2.200  1.00  0.00     0.069 C 
ATOM     23  H   UNL     1       1.629  -5.783  -0.393  1.00  0.00     0.190 HD
ENDBRANCH  15  16
ENDBRANCH  14  15
ENDBRANCH  13  14
ENDBRANCH   1  13
TORSDOF 7
ENDMDL
MODEL 5
REMARK VINA RESULT:    -4.805      3.921      7.004
REMARK INTER + INTRA:          -7.082
REMARK INTER:                  -6.259
REMARK INTRA:                  -0.824
REMARK UNBOUND:                -0.451
REMARK SMILES Cc1n[nH]c(C)c1CCCOc1cc(C(=O)O)ccc1F
REMARK SMILES IDX 11 1 12 2 14 3 18 4 13 5 19 6 20 7 21 8 15 9 16 10 17 11
REMARK SMILES IDX 10 13 9 14 8 15 7 16 5 17 2 18 4 19 3 20 6 21 1 22
REMARK H PARENT 17 12 4 23
ROOT
ATOM      1  O   UNL     1       6.252  -8.593   0.484  1.00  0.00    -0.490 OA
ENDROOT
BRANCH   1   2
ATOM      2  C   UNL     1       7.303  -9.320   0.946  1.00  0.00     0.155 A 
ATOM      3  C   UNL     1       9.097  -9.632   2.517  1.00  0.00     0.063 A 
ATOM      4  C   UNL     1       9.443 -10.826   1.880  1.00  0.00     0.019 A 
ATOM      5  C   UNL     1       8.020  -8.879   2.042  1.00  0.00     0.065 A 
ATOM      6  C   UNL     1       8.718 -11.261   0.790  1.00  0.00     0.044 A 
ATOM      7  C   UNL     1       7.647 -10.516   0.324  1.00  0.00     0.165 A 
ATOM      8  F   UNL     1       6.941 -10.947  -0.744  1.00  0.00    -0.203 F 
BRANCH   3   9
ATOM      9  C   UNL     1       9.870  -9.164   3.684  1.00  0.00     0.335 C 
ATOM     10  O   UNL     1      10.809  -8.410   3.528  1.00  0.00    -0.246 OA
BRANCH   9  11
ATOM     11  O   UNL     1       9.530  -9.569   4.923  1.00  0.00    -0.478 OA
ATOM     12  H   UNL     1      10.018  -9.179   5.662  1.00  0.00     0.297 HD
ENDBRANCH   9  11
ENDBRANCH   3   9
ENDBRANCH   1   2
BRANCH   1  13
ATOM     13  C   UNL     1       5.351  -8.063   1.460  1.00  0.00     0.230 C 
BRANCH  13  14
ATOM     14  C   UNL     1       4.342  -7.140   0.774  1.00  0.00     0.046 C 
BRANCH  14  15
ATOM     15  C   UNL     1       5.019  -6.426  -0.398  1.00  0.00     0.043 C 
BRANCH  15  16
ATOM     16  C   UNL     1       5.623  -5.132   0.083  1.00  0.00    -0.004 A 
ATOM     17  C   UNL     1       4.939  -4.048   0.518  1.00  0.00     0.036 A 
ATOM     18  C   UNL     1       6.988  -4.840   0.163  1.00  0.00     0.063 A 
ATOM     19  N   UNL     1       5.841  -3.102   0.856  1.00  0.00    -0.282 N 
ATOM     20  N   UNL     1       7.120  -3.622   0.620  1.00  0.00    -0.181 NA
ATOM     21  C   UNL     1       3.441  -3.920   0.610  1.00  0.00     0.066 C 
ATOM     22  C   UNL     1       8.114  -5.766  -0.222  1.00  0.00     0.069 C 
ATOM     23  H   UNL     1       5.639  -2.218   1.201  1.00  0.00     0.190 HD
ENDBRANCH  15  16
ENDBRANCH  14  15
ENDBRANCH  13  14
ENDBRANCH   1  13
TORSDOF 7
ENDMDL
MODEL 6
REMARK VINA RESULT:    -4.585      4.695      8.124
REMARK INTER + INTRA:          -6.778
REMARK INTER:                  -6.067
REMARK INTRA:                  -0.711
REMARK UNBOUND:                -0.451
REMARK SMILES Cc1n[nH]c(C)c1CCCOc1cc(C(=O)O)ccc1F
REMARK SMILES IDX 11 1 12 2 14 3 18 4 13 5 19 6 20 7 21 8 15 9 16 10 17 11
REMARK SMILES IDX 10 13 9 14 8 15 7 16 5 17 2 18 4 19 3 20 6 21 1 22
REMARK H PARENT 17 12 4 23
ROOT
ATOM      1  O   UNL     1       9.470  -9.110   2.506  1.00  0.00    -0.490 OA
ENDROOT
BRANCH   1   2
ATOM      2  C   UNL     1      10.254  -9.727   3.430  1.00  0.00     0.155 A 
ATOM      3  C   UNL     1      11.957 -11.330   3.988  1.00  0.00     0.063 A 
ATOM      4  C   UNL     1      11.853 -10.968   5.333  1.00  0.00     0.019 A 
ATOM      5  C   UNL     1      11.151 -10.703   3.036  1.00  0.00     0.065 A 
ATOM      6  C   UNL     1      10.960  -9.989   5.716  1.00  0.00     0.044 A 
ATOM      7  C   UNL     1      10.164  -9.365   4.770  1.00  0.00     0.165 A 
ATOM      8  F   UNL     1       9.291  -8.407   5.151  1.00  0.00    -0.203 F 
BRANCH   3   9
ATOM      9  C   UNL     1      12.913 -12.377   3.574  1.00  0.00     0.335 C 
ATOM     10  O   UNL     1      13.444 -13.079   4.410  1.00  0.00    -0.246 OA
BRANCH   9  11
ATOM     11  O   UNL     1      13.191 -12.556   2.268  1.00  0.00    -0.478 OA
ATOM     12  H   UNL     1      12.489 -12.344   1.636  1.00  0.00     0.297 HD
ENDBRANCH   9  11
ENDBRANCH   3   9
ENDBRANCH   1   2
BRANCH   1  13
ATOM     13  C   UNL     1       8.482  -9.912   1.855  1.00  0.00     0.230 C 
BRANCH  13  14
ATOM     14  C   UNL     1       7.592  -9.020   0.988  1.00  0.00     0.046 C 
BRANCH  14  15
ATOM     15  C   UNL     1       7.267  -7.732   1.748  1.00  0.00     0.043 C 
BRANCH  15  16
ATOM     16  C   UNL     1       6.205  -6.963   1.005  1.00  0.00    -0.004 A 
ATOM     17  C   UNL     1       6.420  -6.023   0.056  1.00  0.00     0.036 A 
ATOM     18  C   UNL     1       4.823  -7.101   1.170  1.00  0.00     0.063 A 
ATOM     19  N   UNL     1       5.216  -5.576  -0.360  1.00  0.00    -0.282 N 
ATOM     20  N   UNL     1       4.229  -6.265   0.357  1.00  0.00    -0.181 NA
ATOM     21  C   UNL     1       7.762  -5.558  -0.446  1.00  0.00     0.066 C 
ATOM     22  C   UNL     1       4.136  -8.040   2.128  1.00  0.00     0.069 C 
ATOM     23  H   UNL     1       5.062  -4.897  -1.035  1.00  0.00     0.190 HD
ENDBRANCH  15  16
ENDBRANCH  14  15
ENDBRANCH  13  14
ENDBRANCH   1  13
TORSDOF 7
ENDMDL
MODEL 7
REMARK VINA RESULT:    -4.583      4.907      7.866
REMARK INTER + INTRA:          -6.776
REMARK INTER:                  -6.061
REMARK INTRA:                  -0.715
REMARK UNBOUND:                -0.451
REMARK SMILES Cc1n[nH]c(C)c1CCCOc1cc(C(=O)O)ccc1F
REMARK SMILES IDX 11 1 12 2 14 3 18 4 13 5 19 6 20 7 21 8 15 9 16 10 17 11
REMARK SMILES IDX 10 13 9 14 8 15 7 16 5 17 2 18 4 19 3 20 6 21 1 22
REMARK H PARENT 17 12 4 23
ROOT
ATOM      1  O   UNL     1       7.650 -10.901   0.488  1.00  0.00    -0.490 OA
ENDROOT
BRANCH   1   2
ATOM      2  C   UNL     1       8.229 -11.966  -0.130  1.00  0.00     0.155 A 
ATOM      3  C   UNL     1       9.492 -14.008  -0.022  1.00  0.00     0.063 A 
ATOM      4  C   UNL     1       9.395 -14.137  -1.410  1.00  0.00     0.019 A 
ATOM      5  C   UNL     1       8.904 -12.914   0.616  1.00  0.00     0.065 A 
ATOM      6  C   UNL     1       8.715 -13.189  -2.144  1.00  0.00     0.044 A 
ATOM      7  C   UNL     1       8.128 -12.107  -1.509  1.00  0.00     0.165 A 
ATOM      8  F   UNL     1       7.462 -11.181  -2.234  1.00  0.00    -0.203 F 
BRANCH   3   9
ATOM      9  C   UNL     1      10.219 -15.022   0.767  1.00  0.00     0.335 C 
ATOM     10  O   UNL     1      10.919 -15.841   0.207  1.00  0.00    -0.246 OA
BRANCH   9  11
ATOM     11  O   UNL     1      10.112 -15.034   2.110  1.00  0.00    -0.478 OA
ATOM     12  H   UNL     1       9.274 -15.345   2.481  1.00  0.00     0.297 HD
ENDBRANCH   9  11
ENDBRANCH   3   9
ENDBRANCH   1   2
BRANCH   1  13
ATOM     13  C   UNL     1       8.511 -10.037   1.234  1.00  0.00     0.230 C 
BRANCH  13  14
ATOM     14  C   UNL     1       7.735  -8.789   1.659  1.00  0.00     0.046 C 
BRANCH  14  15
ATOM     15  C   UNL     1       6.693  -8.448   0.592  1.00  0.00     0.043 C 
BRANCH  15  16
ATOM     16  C   UNL     1       6.047  -7.128   0.924  1.00  0.00    -0.004 A 
ATOM     17  C   UNL     1       4.923  -6.954   1.657  1.00  0.00     0.036 A 
ATOM     18  C   UNL     1       6.506  -5.866   0.534  1.00  0.00     0.063 A 
ATOM     19  N   UNL     1       4.676  -5.629   1.723  1.00  0.00    -0.282 N 
ATOM     20  N   UNL     1       5.681  -4.967   1.006  1.00  0.00    -0.181 NA
ATOM     21  C   UNL     1       4.096  -8.044   2.288  1.00  0.00     0.066 C 
ATOM     22  C   UNL     1       7.732  -5.589  -0.299  1.00  0.00     0.069 C 
ATOM     23  H   UNL     1       3.933  -5.209   2.185  1.00  0.00     0.190 HD
ENDBRANCH  15  16
ENDBRANCH  14  15
ENDBRANCH  13  14
ENDBRANCH   1  13
TORSDOF 7
ENDMDL
MODEL 8
REMARK VINA RESULT:    -4.372      3.919      6.816
REMARK INTER + INTRA:          -6.485
REMARK INTER:                  -5.868
REMARK INTRA:                  -0.616
REMARK UNBOUND:                -0.451
REMARK SMILES Cc1n[nH]c(C)c1CCCOc1cc(C(=O)O)ccc1F
REMARK SMILES IDX 11 1 12 2 14 3 18 4 13 5 19 6 20 7 21 8 15 9 16 10 17 11
REMARK SMILES IDX 10 13 9 14 8 15 7 16 5 17 2 18 4 19 3 20 6 21 1 22
REMARK H PARENT 17 12 4 23
ROOT
ATOM      1  O   UNL     1       6.283  -8.541   0.399  1.00  0.00    -0.490 OA
ENDROOT
BRANCH   1   2
ATOM      2  C   UNL     1       7.267  -9.409   0.758  1.00  0.00     0.155 A 
ATOM      3  C   UNL     1       8.424 -11.494   0.453  1.00  0.00     0.063 A 
ATOM      4  C   UNL     1       9.289 -11.163   1.499  1.00  0.00     0.019 A 
ATOM      5  C   UNL     1       7.410 -10.608   0.085  1.00  0.00     0.065 A 
ATOM      6  C   UNL     1       9.143  -9.962   2.160  1.00  0.00     0.044 A 
ATOM      7  C   UNL     1       8.139  -9.082   1.791  1.00  0.00     0.165 A 
ATOM      8  F   UNL     1       8.001  -7.906   2.442  1.00  0.00    -0.203 F 
BRANCH   3   9
ATOM      9  C   UNL     1       8.578 -12.779  -0.257  1.00  0.00     0.335 C 
ATOM     10  O   UNL     1       7.905 -13.736   0.066  1.00  0.00    -0.246 OA
BRANCH   9  11
ATOM     11  O   UNL     1       9.462 -12.888  -1.268  1.00  0.00    -0.478 OA
ATOM     12  H   UNL     1       9.477 -13.726  -1.751  1.00  0.00     0.297 HD
ENDBRANCH   9  11
ENDBRANCH   3   9
ENDBRANCH   1   2
BRANCH   1  13
ATOM     13  C   UNL     1       5.353  -8.160   1.416  1.00  0.00     0.230 C 
BRANCH  13  14
ATOM     14  C   UNL     1       4.369  -7.136   0.847  1.00  0.00     0.046 C 
BRANCH  14  15
ATOM     15  C   UNL     1       5.009  -6.420  -0.345  1.00  0.00     0.043 C 
BRANCH  15  16
ATOM     16  C   UNL     1       5.610  -5.117   0.114  1.00  0.00    -0.004 A 
ATOM     17  C   UNL     1       4.924  -4.028   0.533  1.00  0.00     0.036 A 
ATOM     18  C   UNL     1       6.975  -4.821   0.190  1.00  0.00     0.063 A 
ATOM     19  N   UNL     1       5.823  -3.074   0.855  1.00  0.00    -0.282 N 
ATOM     20  N   UNL     1       7.104  -3.594   0.627  1.00  0.00    -0.181 NA
ATOM     21  C   UNL     1       3.426  -3.902   0.623  1.00  0.00     0.066 C 
ATOM     22  C   UNL     1       8.103  -5.750  -0.181  1.00  0.00     0.069 C 
ATOM     23  H   UNL     1       5.619  -2.185   1.185  1.00  0.00     0.190 HD
ENDBRANCH  15  16
ENDBRANCH  14  15
ENDBRANCH  13  14
ENDBRANCH   1  13
TORSDOF 7
ENDMDL
MODEL 9
REMARK VINA RESULT:    -4.363      3.990      7.021
REMARK INTER + INTRA:          -6.472
REMARK INTER:                  -5.648
REMARK INTRA:                  -0.824
REMARK UNBOUND:                -0.451
REMARK SMILES Cc1n[nH]c(C)c1CCCOc1cc(C(=O)O)ccc1F
REMARK SMILES IDX 11 1 12 2 14 3 18 4 13 5 19 6 20 7 21 8 15 9 16 10 17 11
REMARK SMILES IDX 10 13 9 14 8 15 7 16 5 17 2 18 4 19 3 20 6 21 1 22
REMARK H PARENT 17 12 4 23
ROOT
ATOM      1  O   UNL     1       7.121  -7.835   0.461  1.00  0.00    -0.490 OA
ENDROOT
BRANCH   1   2
ATOM      2  C   UNL     1       7.868  -8.852   0.966  1.00  0.00     0.155 A 
ATOM      3  C   UNL     1       9.380  -9.706   2.630  1.00  0.00     0.063 A 
ATOM      4  C   UNL     1       9.378 -10.948   1.989  1.00  0.00     0.019 A 
ATOM      5  C   UNL     1       8.619  -8.657   2.110  1.00  0.00     0.065 A 
ATOM      6  C   UNL     1       8.622 -11.135   0.851  1.00  0.00     0.044 A 
ATOM      7  C   UNL     1       7.863 -10.094   0.341  1.00  0.00     0.165 A 
ATOM      8  F   UNL     1       7.124 -10.284  -0.774  1.00  0.00    -0.203 F 
BRANCH   3   9
ATOM      9  C   UNL     1      10.189  -9.502   3.847  1.00  0.00     0.335 C 
ATOM     10  O   UNL     1      10.342  -8.384   4.295  1.00  0.00    -0.246 OA
BRANCH   9  11
ATOM     11  O   UNL     1      10.753 -10.558   4.466  1.00  0.00    -0.478 OA
ATOM     12  H   UNL     1      11.632 -10.426   4.847  1.00  0.00     0.297 HD
ENDBRANCH   9  11
ENDBRANCH   3   9
ENDBRANCH   1   2
BRANCH   1  13
ATOM     13  C   UNL     1       7.681  -6.521   0.534  1.00  0.00     0.230 C 
BRANCH  13  14
ATOM     14  C   UNL     1       6.559  -5.484   0.462  1.00  0.00     0.046 C 
BRANCH  14  15
ATOM     15  C   UNL     1       5.631  -5.652   1.667  1.00  0.00     0.043 C 
BRANCH  15  16
ATOM     16  C   UNL     1       4.266  -6.080   1.196  1.00  0.00    -0.004 A 
ATOM     17  C   UNL     1       3.383  -5.315   0.513  1.00  0.00     0.036 A 
ATOM     18  C   UNL     1       3.689  -7.341   1.380  1.00  0.00     0.063 A 
ATOM     19  N   UNL     1       2.284  -6.063   0.280  1.00  0.00    -0.282 N 
ATOM     20  N   UNL     1       2.499  -7.330   0.838  1.00  0.00    -0.181 NA
ATOM     21  C   UNL     1       3.589  -3.884   0.089  1.00  0.00     0.066 C 
ATOM     22  C   UNL     1       4.325  -8.508   2.092  1.00  0.00     0.069 C 
ATOM     23  H   UNL     1       1.486  -5.774  -0.190  1.00  0.00     0.190 HD
ENDBRANCH  15  16
ENDBRANCH  14  15
ENDBRANCH  13  14
ENDBRANCH   1  13
TORSDOF 7
ENDMDL
