
     RDKit          3D

 29 31  0  0  0  0  0  0  0  0999 V2000
    4.2690    2.8030   -0.0340 Cl  0  0  0  0  0  0  0  0  0  0  0  0
    4.9260   -2.3970   -0.2250 Cl  0  0  0  0  0  0  0  0  0  0  0  0
   -1.8890   -1.1100   -0.0050 C   0  0  0  0  0  0  0  0  0  0  0  0
   -2.0080    0.2460    0.1850 C   0  0  0  0  0  0  0  0  0  0  0  0
   -5.7480    1.7010   -0.3270 O   0  0  0  0  0  0  0  0  0  0  0  0
   -6.7160    0.0140    0.4620 O   0  0  0  0  0  0  0  0  0  0  0  0
   -4.2190   -1.3450   -0.2600 C   0  0  0  0  0  0  0  0  0  0  0  0
   -2.8970   -1.8340   -0.4420 C   0  0  0  0  0  0  0  0  0  0  0  0
    3.8600   -1.0610   -0.2340 C   0  0  0  0  0  0  0  0  0  0  0  0
   -5.6120    0.6260    0.1290 N   0  0  0  0  0  0  0  0  0  0  0  0
   -0.4900   -1.4820    0.0680 N   0  0  0  0  0  0  0  0  0  0  0  0
   -0.6970    0.7060    0.3340 N   0  0  0  0  0  0  0  0  0  0  0  0
   -4.3850   -0.0030    0.0750 C   0  0  0  0  0  0  0  0  0  0  0  0
    3.5790    1.4060   -0.0780 C   0  0  0  0  0  0  0  0  0  0  0  0
    2.2070    1.1160    0.3040 C   0  0  0  0  0  0  0  0  0  0  0  0
    0.1070   -0.2950   -0.2680 C   0  0  1  0  0  0  0  0  0  0  0  0
   -3.2350    0.8220    0.2770 C   0  0  0  0  0  0  0  0  0  0  0  0
    1.6360   -0.1290   -0.0440 C   0  0  0  0  0  0  0  0  0  0  0  0
    4.4790    0.2600   -0.2510 C   0  0  0  0  0  0  0  0  0  0  0  0
    2.4620   -1.2800   -0.3060 C   0  0  0  0  0  0  0  0  0  0  0  0
   -5.0880   -2.0085   -0.3805 H   0  0  0  0  0  0  0  0  0  0  0  0
   -2.7199   -2.7993   -0.9387 H   0  0  0  0  0  0  0  0  0  0  0  0
   -0.0625   -2.3882    0.3065 H   0  0  0  0  0  0  0  0  0  0  0  0
   -0.3839    1.5790    0.7820 H   0  0  0  0  0  0  0  0  0  0  0  0
    1.6175    1.8600    0.8598 H   0  0  0  0  0  0  0  0  0  0  0  0
    0.1324   -0.2230   -1.3653 H   0  0  0  0  0  0  0  0  0  0  0  0
   -3.3407    1.8938    0.5008 H   0  0  0  0  0  0  0  0  0  0  0  0
    5.5629    0.3900   -0.3863 H   0  0  0  0  0  0  0  0  0  0  0  0
    2.0350   -2.2649   -0.5463 H   0  0  0  0  0  0  0  0  0  0  0  0
  3 11  1  0
  3  4  1  0
  4 17  2  0
  4 12  1  0
  5 10  1  0
  7 13  2  0
  8  7  1  0
  8  3  2  0
  9  2  1  0
 10  6  2  0
 13 10  1  0
 13 17  1  0
 14  1  1  0
 14 15  2  0
 16 18  1  0
 16 11  1  0
 16 12  1  0
 18 15  1  0
 19  9  2  0
 19 14  1  0
 20  9  1  0
 20 18  2  0
  7 21  1  0
  8 22  1  0
 11 23  1  0
 12 24  1  0
 15 25  1  0
 16 26  1  6
 17 27  1  0
 19 28  1  0
 20 29  1  0
M  CHG  2   5  -1  10   1
M  END
$$$$
